MODEL 1
REMARK VINA RESULT: -5.762917986      0.000      0.000
REMARK  8 active torsions:
REMARK  status: ('A' for Active; 'I' for Inactive)
REMARK    1  A    between atoms: C4_9  and  C5_10 
REMARK    2  A    between atoms: C5_10  and  O1_11 
REMARK    3  A    between atoms: C5_10  and  N3_13 
REMARK    4  A    between atoms: N3_13  and  C6_16 
REMARK    5  A    between atoms: C6_16  and  C7_17 
REMARK    6  A    between atoms: C7_17  and  O2_18 
REMARK    7  A    between atoms: C7_17  and  N4_20 
REMARK    8  A    between atoms: N4_20  and  C8_22 
ROOT
HETATM    1  N3  UNL     1      20.399   1.068 151.447  1.00  0.00    -0.038 N 
ATOM      2  H31 UNL     1      20.684   0.089 151.398  1.00  0.00     0.280 HD
ATOM      3  H32 UNL     1      19.427   0.894 151.701  1.00  0.00     0.280 HD
ENDROOT
BRANCH   1   4
HETATM    4  C5  UNL     1      20.561   1.799 150.185  1.00  0.00     0.387 C 
BRANCH   4   5
HETATM    5  C4  UNL     1      20.634   0.859 149.037  1.00  0.00     0.140 A 
HETATM    6  N2  UNL     1      19.927  -0.265 149.044  1.00  0.00    -0.352 N 
HETATM    7  C3  UNL     1      19.953  -1.161 148.024  1.00  0.00     0.093 A 
ATOM      8  H2  UNL     1      19.338  -0.465 149.853  1.00  0.00     0.166 HD
HETATM    9  C2  UNL     1      20.748  -0.901 146.926  1.00  0.00     0.065 A 
HETATM   10  C1  UNL     1      21.475   0.270 146.935  1.00  0.00     0.101 A 
HETATM   11  N1  UNL     1      22.229   0.530 145.906  1.00  0.00    -0.385 N 
HETATM   12  N5  UNL     1      21.411   1.123 147.972  1.00  0.00    -0.329 N 
ATOM     13  H12 UNL     1      22.277  -0.118 145.119  1.00  0.00     0.157 HD
ATOM     14  H11 UNL     1      22.767   1.397 145.912  1.00  0.00     0.157 HD
ATOM     15  H5  UNL     1      21.960   1.982 147.950  1.00  0.00     0.168 HD
ENDBRANCH   4   5
BRANCH   4  16
HETATM   16  O1  UNL     1      19.485   2.679 150.080  1.00  0.00    -0.364 OA
ATOM     17  H1  UNL     1      19.471   3.317 150.784  1.00  0.00     0.212 HD
ENDBRANCH   4  16
ENDBRANCH   1   4
BRANCH   1  18
HETATM   18  C6  UNL     1      21.141   1.853 152.441  1.00  0.00     0.289 C 
BRANCH  18  19
HETATM   19  C7  UNL     1      20.248   2.316 153.549  1.00  0.00     0.243 C 
BRANCH  19  20
HETATM   20  O2  UNL     1      19.125   2.996 153.083  1.00  0.00    -0.375 OA
ATOM     21  H2  UNL     1      19.318   3.547 152.334  1.00  0.00     0.212 HD
ENDBRANCH  19  20
BRANCH  19  22
HETATM   22  N4  UNL     1      19.912   1.233 154.439  1.00  0.00    -0.362 N 
ATOM     23  H4  UNL     1      19.186   0.573 154.162  1.00  0.00     0.162 HD
BRANCH  22  24
HETATM   24  C8  UNL     1      20.559   1.060 155.683  1.00  0.00     0.029 A 
HETATM   25  C9  UNL     1      21.872   0.674 155.755  1.00  0.00     0.029 A 
HETATM   26  C10 UNL     1      22.492   0.496 157.001  1.00  0.00     0.002 A 
HETATM   27  C11 UNL     1      21.821   0.697 158.184  1.00  0.00     0.000 A 
HETATM   28  C12 UNL     1      20.499   1.085 158.116  1.00  0.00     0.002 A 
HETATM   29  C13 UNL     1      19.893   1.260 156.891  1.00  0.00     0.029 A 
ENDBRANCH  22  24
ENDBRANCH  19  22
ENDBRANCH  18  19
ENDBRANCH   1  18
TORSDOF 8
ENDMDL
MODEL 2
REMARK VINA RESULT: -5.750891094      0.614      1.386
REMARK  8 active torsions:
REMARK  status: ('A' for Active; 'I' for Inactive)
REMARK    1  A    between atoms: C4_9  and  C5_10 
REMARK    2  A    between atoms: C5_10  and  O1_11 
REMARK    3  A    between atoms: C5_10  and  N3_13 
REMARK    4  A    between atoms: N3_13  and  C6_16 
REMARK    5  A    between atoms: C6_16  and  C7_17 
REMARK    6  A    between atoms: C7_17  and  O2_18 
REMARK    7  A    between atoms: C7_17  and  N4_20 
REMARK    8  A    between atoms: N4_20  and  C8_22 
ROOT
HETATM    1  N3  UNL     1      20.296   1.090 151.372  1.00  0.00    -0.038 N 
ATOM      2  H31 UNL     1      20.504   0.101 151.231  1.00  0.00     0.280 HD
ATOM      3  H32 UNL     1      19.319   0.967 151.638  1.00  0.00     0.280 HD
ENDROOT
BRANCH   1   4
HETATM    4  C5  UNL     1      20.486   1.915 150.174  1.00  0.00     0.387 C 
BRANCH   4   5
HETATM    5  C4  UNL     1      20.644   1.063 148.966  1.00  0.00     0.140 A 
HETATM    6  N2  UNL     1      21.706   1.203 148.181  1.00  0.00    -0.352 N 
HETATM    7  C3  UNL     1      21.904   0.454 147.066  1.00  0.00     0.093 A 
ATOM      8  H2  UNL     1      22.404   1.906 148.426  1.00  0.00     0.166 HD
HETATM    9  C2  UNL     1      20.964  -0.498 146.725  1.00  0.00     0.065 A 
HETATM   10  C1  UNL     1      19.869  -0.630 147.551  1.00  0.00     0.101 A 
HETATM   11  N1  UNL     1      18.974  -1.523 147.243  1.00  0.00    -0.385 N 
HETATM   12  N5  UNL     1      19.722   0.139 148.644  1.00  0.00    -0.329 N 
ATOM     13  H12 UNL     1      19.085  -2.106 146.413  1.00  0.00     0.157 HD
ATOM     14  H11 UNL     1      18.162  -1.621 147.854  1.00  0.00     0.157 HD
ATOM     15  H5  UNL     1      18.902   0.019 149.237  1.00  0.00     0.168 HD
ENDBRANCH   4   5
BRANCH   4  16
HETATM   16  O1  UNL     1      19.383   2.763 150.080  1.00  0.00    -0.364 OA
ATOM     17  H1  UNL     1      19.485   3.546 150.608  1.00  0.00     0.212 HD
ENDBRANCH   4  16
ENDBRANCH   1   4
BRANCH   1  18
HETATM   18  C6  UNL     1      21.117   1.727 152.408  1.00  0.00     0.289 C 
BRANCH  18  19
HETATM   19  C7  UNL     1      20.274   2.257 153.526  1.00  0.00     0.243 C 
BRANCH  19  20
HETATM   20  O2  UNL     1      19.178   2.986 153.070  1.00  0.00    -0.375 OA
ATOM     21  H2  UNL     1      19.415   3.862 152.789  1.00  0.00     0.212 HD
ENDBRANCH  19  20
BRANCH  19  22
HETATM   22  N4  UNL     1      19.900   1.208 154.443  1.00  0.00    -0.362 N 
ATOM     23  H4  UNL     1      19.137   0.580 154.191  1.00  0.00     0.162 HD
BRANCH  22  24
HETATM   24  C8  UNL     1      20.560   1.027 155.679  1.00  0.00     0.029 A 
HETATM   25  C9  UNL     1      21.866   0.615 155.734  1.00  0.00     0.029 A 
HETATM   26  C10 UNL     1      22.499   0.429 156.973  1.00  0.00     0.002 A 
HETATM   27  C11 UNL     1      21.848   0.648 158.164  1.00  0.00     0.000 A 
HETATM   28  C12 UNL     1      20.532   1.062 158.112  1.00  0.00     0.002 A 
HETATM   29  C13 UNL     1      19.914   1.244 156.894  1.00  0.00     0.029 A 
ENDBRANCH  22  24
ENDBRANCH  19  22
ENDBRANCH  18  19
ENDBRANCH   1  18
TORSDOF 8
ENDMDL
MODEL 3
REMARK VINA RESULT: -5.724888151      1.309      1.880
REMARK  8 active torsions:
REMARK  status: ('A' for Active; 'I' for Inactive)
REMARK    1  A    between atoms: C4_9  and  C5_10 
REMARK    2  A    between atoms: C5_10  and  O1_11 
REMARK    3  A    between atoms: C5_10  and  N3_13 
REMARK    4  A    between atoms: N3_13  and  C6_16 
REMARK    5  A    between atoms: C6_16  and  C7_17 
REMARK    6  A    between atoms: C7_17  and  O2_18 
REMARK    7  A    between atoms: C7_17  and  N4_20 
REMARK    8  A    between atoms: N4_20  and  C8_22 
ROOT
HETATM    1  N3  UNL     1      21.206   1.192 151.047  1.00  0.00    -0.038 N 
ATOM      2  H31 UNL     1      21.892   1.861 151.397  1.00  0.00     0.280 HD
ATOM      3  H32 UNL     1      21.792   0.362 151.141  1.00  0.00     0.280 HD
ENDROOT
BRANCH   1   4
HETATM    4  C5  UNL     1      20.766   1.456 149.672  1.00  0.00     0.387 C 
BRANCH   4   5
HETATM    5  C4  UNL     1      20.510   0.185 148.947  1.00  0.00     0.140 A 
HETATM    6  N2  UNL     1      21.358  -0.832 149.054  1.00  0.00    -0.352 N 
HETATM    7  C3  UNL     1      21.176  -2.017 148.416  1.00  0.00     0.093 A 
ATOM      8  H2  UNL     1      22.183  -0.717 149.644  1.00  0.00     0.166 HD
HETATM    9  C2  UNL     1      20.064  -2.180 147.616  1.00  0.00     0.065 A 
HETATM   10  C1  UNL     1      19.195  -1.116 147.514  1.00  0.00     0.101 A 
HETATM   11  N1  UNL     1      18.141  -1.255 146.763  1.00  0.00    -0.385 N 
HETATM   12  N5  UNL     1      19.423   0.036 148.169  1.00  0.00    -0.329 N 
ATOM     13  H12 UNL     1      17.968  -2.129 146.266  1.00  0.00     0.157 HD
ATOM     14  H11 UNL     1      17.497  -0.466 146.688  1.00  0.00     0.157 HD
ATOM     15  H5  UNL     1      18.762   0.807 148.076  1.00  0.00     0.168 HD
ENDBRANCH   4   5
BRANCH   4  16
HETATM   16  O1  UNL     1      19.627   2.256 149.752  1.00  0.00    -0.364 OA
ATOM     17  H1  UNL     1      19.805   3.160 149.522  1.00  0.00     0.212 HD
ENDBRANCH   4  16
ENDBRANCH   1   4
BRANCH   1  18
HETATM   18  C6  UNL     1      19.971   1.139 151.838  1.00  0.00     0.289 C 
BRANCH  18  19
HETATM   19  C7  UNL     1      20.006   2.113 152.974  1.00  0.00     0.243 C 
BRANCH  19  20
HETATM   20  O2  UNL     1      19.325   3.293 152.688  1.00  0.00    -0.375 OA
ATOM     21  H2  UNL     1      18.554   3.411 153.231  1.00  0.00     0.212 HD
ENDBRANCH  19  20
BRANCH  19  22
HETATM   22  N4  UNL     1      19.565   1.501 154.203  1.00  0.00    -0.362 N 
ATOM     23  H4  UNL     1      18.578   1.270 154.314  1.00  0.00     0.162 HD
BRANCH  22  24
HETATM   24  C8  UNL     1      20.461   1.214 155.258  1.00  0.00     0.029 A 
HETATM   25  C9  UNL     1      20.036   1.167 156.560  1.00  0.00     0.029 A 
HETATM   26  C10 UNL     1      20.944   0.892 157.593  1.00  0.00     0.002 A 
HETATM   27  C11 UNL     1      22.277   0.661 157.349  1.00  0.00     0.000 A 
HETATM   28  C12 UNL     1      22.709   0.708 156.039  1.00  0.00     0.002 A 
HETATM   29  C13 UNL     1      21.815   0.978 155.026  1.00  0.00     0.029 A 
ENDBRANCH  22  24
ENDBRANCH  19  22
ENDBRANCH  18  19
ENDBRANCH   1  18
TORSDOF 8
ENDMDL
MODEL 4
REMARK VINA RESULT: -5.715249305      1.444      7.892
REMARK  8 active torsions:
REMARK  status: ('A' for Active; 'I' for Inactive)
REMARK    1  A    between atoms: C4_9  and  C5_10 
REMARK    2  A    between atoms: C5_10  and  O1_11 
REMARK    3  A    between atoms: C5_10  and  N3_13 
REMARK    4  A    between atoms: N3_13  and  C6_16 
REMARK    5  A    between atoms: C6_16  and  C7_17 
REMARK    6  A    between atoms: C7_17  and  O2_18 
REMARK    7  A    between atoms: C7_17  and  N4_20 
REMARK    8  A    between atoms: N4_20  and  C8_22 
ROOT
HETATM    1  N3  UNL     1      20.823   1.997 152.275  1.00  0.00    -0.038 N 
ATOM      2  H31 UNL     1      21.579   2.408 152.824  1.00  0.00     0.280 HD
ATOM      3  H32 UNL     1      20.348   2.873 152.056  1.00  0.00     0.280 HD
ENDROOT
BRANCH   1   4
HETATM    4  C5  UNL     1      19.994   1.044 153.023  1.00  0.00     0.387 C 
BRANCH   4   5
HETATM    5  C4  UNL     1      20.478   0.908 154.421  1.00  0.00     0.140 A 
HETATM    6  N2  UNL     1      21.682   0.403 154.668  1.00  0.00    -0.352 N 
HETATM    7  C3  UNL     1      22.177   0.255 155.924  1.00  0.00     0.093 A 
ATOM      8  H2  UNL     1      22.260   0.114 153.879  1.00  0.00     0.166 HD
HETATM    9  C2  UNL     1      21.401   0.642 156.998  1.00  0.00     0.065 A 
HETATM   10  C1  UNL     1      20.155   1.163 156.724  1.00  0.00     0.101 A 
HETATM   11  N1  UNL     1      19.412   1.532 157.726  1.00  0.00    -0.385 N 
HETATM   12  N5  UNL     1      19.714   1.288 155.460  1.00  0.00    -0.329 N 
ATOM     13  H12 UNL     1      19.746   1.437 158.685  1.00  0.00     0.157 HD
ATOM     14  H11 UNL     1      18.489   1.918 157.523  1.00  0.00     0.157 HD
ATOM     15  H5  UNL     1      18.788   1.677 155.287  1.00  0.00     0.168 HD
ENDBRANCH   4   5
BRANCH   4  16
HETATM   16  O1  UNL     1      18.680   1.507 152.962  1.00  0.00    -0.364 OA
ATOM     17  H1  UNL     1      18.580   2.225 152.348  1.00  0.00     0.212 HD
ENDBRANCH   4  16
ENDBRANCH   1   4
BRANCH   1  18
HETATM   18  C6  UNL     1      21.281   1.259 151.093  1.00  0.00     0.289 C 
BRANCH  18  19
HETATM   19  C7  UNL     1      20.255   1.279 150.003  1.00  0.00     0.243 C 
BRANCH  19  20
HETATM   20  O2  UNL     1      19.558   2.484 149.947  1.00  0.00    -0.375 OA
ATOM     21  H2  UNL     1      19.264   2.695 149.068  1.00  0.00     0.212 HD
ENDBRANCH  19  20
BRANCH  19  22
HETATM   22  N4  UNL     1      20.832   0.912 148.733  1.00  0.00    -0.362 N 
ATOM     23  H4  UNL     1      21.594   1.474 148.355  1.00  0.00     0.162 HD
BRANCH  22  24
HETATM   24  C8  UNL     1      20.370  -0.203 147.998  1.00  0.00     0.029 A 
HETATM   25  C9  UNL     1      21.212  -1.230 147.659  1.00  0.00     0.029 A 
HETATM   26  C10 UNL     1      20.736  -2.322 146.919  1.00  0.00     0.002 A 
HETATM   27  C11 UNL     1      19.427  -2.409 146.508  1.00  0.00     0.000 A 
HETATM   28  C12 UNL     1      18.576  -1.377 146.847  1.00  0.00     0.002 A 
HETATM   29  C13 UNL     1      19.046  -0.306 147.575  1.00  0.00     0.029 A 
ENDBRANCH  22  24
ENDBRANCH  19  22
ENDBRANCH  18  19
ENDBRANCH   1  18
TORSDOF 8
ENDMDL
MODEL 5
REMARK VINA RESULT: -5.688412887      3.492      6.836
REMARK  8 active torsions:
REMARK  status: ('A' for Active; 'I' for Inactive)
REMARK    1  A    between atoms: C4_9  and  C5_10 
REMARK    2  A    between atoms: C5_10  and  O1_11 
REMARK    3  A    between atoms: C5_10  and  N3_13 
REMARK    4  A    between atoms: N3_13  and  C6_16 
REMARK    5  A    between atoms: C6_16  and  C7_17 
REMARK    6  A    between atoms: C7_17  and  O2_18 
REMARK    7  A    between atoms: C7_17  and  N4_20 
REMARK    8  A    between atoms: N4_20  and  C8_22 
ROOT
HETATM    1  N3  UNL     1      19.954   1.124 151.443  1.00  0.00    -0.038 N 
ATOM      2  H31 UNL     1      20.964   1.245 151.363  1.00  0.00     0.280 HD
ATOM      3  H32 UNL     1      19.709   1.613 150.582  1.00  0.00     0.280 HD
ENDROOT
BRANCH   1   4
HETATM    4  C5  UNL     1      19.376   1.724 152.651  1.00  0.00     0.387 C 
BRANCH   4   5
HETATM    5  C4  UNL     1      20.271   1.522 153.820  1.00  0.00     0.140 A 
HETATM    6  N2  UNL     1      21.590   1.500 153.659  1.00  0.00    -0.352 N 
HETATM    7  C3  UNL     1      22.456   1.320 154.689  1.00  0.00     0.093 A 
ATOM      8  H2  UNL     1      21.968   1.623 152.719  1.00  0.00     0.166 HD
HETATM    9  C2  UNL     1      21.955   1.150 155.962  1.00  0.00     0.065 A 
HETATM   10  C1  UNL     1      20.585   1.175 156.112  1.00  0.00     0.101 A 
HETATM   11  N1  UNL     1      20.096   1.017 157.308  1.00  0.00    -0.385 N 
HETATM   12  N5  UNL     1      19.771   1.358 155.057  1.00  0.00    -0.329 N 
ATOM     13  H12 UNL     1      20.713   0.879 158.108  1.00  0.00     0.157 HD
ATOM     14  H11 UNL     1      19.081   1.036 157.418  1.00  0.00     0.157 HD
ATOM     15  H5  UNL     1      18.761   1.373 155.198  1.00  0.00     0.168 HD
ENDBRANCH   4   5
BRANCH   4  16
HETATM   16  O1  UNL     1      19.162   3.074 152.377  1.00  0.00    -0.364 OA
ATOM     17  H1  UNL     1      18.246   3.315 152.449  1.00  0.00     0.212 HD
ENDBRANCH   4  16
ENDBRANCH   1   4
BRANCH   1  18
HETATM   18  C6  UNL     1      19.524  -0.279 151.471  1.00  0.00     0.289 C 
BRANCH  18  19
HETATM   19  C7  UNL     1      20.693  -1.211 151.398  1.00  0.00     0.243 C 
BRANCH  19  20
HETATM   20  O2  UNL     1      21.914  -0.541 151.424  1.00  0.00    -0.375 OA
ATOM     21  H2  UNL     1      22.292  -0.436 150.559  1.00  0.00     0.212 HD
ENDBRANCH  19  20
BRANCH  19  22
HETATM   22  N4  UNL     1      20.605  -2.243 152.401  1.00  0.00    -0.362 N 
ATOM     23  H4  UNL     1      20.811  -2.008 153.372  1.00  0.00     0.162 HD
BRANCH  22  24
HETATM   24  C8  UNL     1      20.242  -3.570 152.077  1.00  0.00     0.029 A 
HETATM   25  C9  UNL     1      20.624  -4.143 150.892  1.00  0.00     0.029 A 
HETATM   26  C10 UNL     1      20.241  -5.458 150.586  1.00  0.00     0.002 A 
HETATM   27  C11 UNL     1      19.481  -6.215 151.444  1.00  0.00     0.000 A 
HETATM   28  C12 UNL     1      19.094  -5.641 152.638  1.00  0.00     0.002 A 
HETATM   29  C13 UNL     1      19.471  -4.350 152.937  1.00  0.00     0.029 A 
ENDBRANCH  22  24
ENDBRANCH  19  22
ENDBRANCH  18  19
ENDBRANCH   1  18
TORSDOF 8
ENDMDL
