MODEL 1
REMARK VINA RESULT: -5.844010439      0.000      0.000
REMARK  8 active torsions:
REMARK  status: ('A' for Active; 'I' for Inactive)
REMARK    1  A    between atoms: C2_2  and  N1_5 
REMARK    2  A    between atoms: N1_5  and  C5_8 
REMARK    3  A    between atoms: C5_8  and  C6_9 
REMARK    4  A    between atoms: C6_9  and  C7_11 
REMARK    5  A    between atoms: C7_11  and  N2_12 
REMARK    6  A    between atoms: N2_12  and  N3_13 
REMARK    7  A    between atoms: N3_13  and  C8_15 
REMARK    8  A    between atoms: C10_22  and  N7_23 
ROOT
HETATM    1  N3  UNL     1      21.260   1.193 148.993  1.00  0.00    -0.135 N 
ATOM      2  H3  UNL     1      22.170   1.193 149.454  1.00  0.00     0.201 HD
ENDROOT
BRANCH   1   3
HETATM    3  N2  UNL     1      20.215   1.966 149.544  1.00  0.00    -0.119 NA
BRANCH   3   4
HETATM    4  C7  UNL     1      20.170   1.622 150.937  1.00  0.00     0.215 C 
BRANCH   4   5
HETATM    5  C6  UNL     1      19.657   2.734 151.817  1.00  0.00     0.168 C 
HETATM    6  O1  UNL     1      18.813   3.532 151.489  1.00  0.00    -0.295 OA
BRANCH   5   7
HETATM    7  C5  UNL     1      20.294   2.759 153.186  1.00  0.00     0.312 C 
BRANCH   7   8
HETATM    8  N1  UNL     1      19.795   1.719 154.034  1.00  0.00    -0.061 N 
ATOM      9  H12 UNL     1      19.231   1.033 153.531  1.00  0.00     0.278 HD
ATOM     10  H11 UNL     1      19.072   2.043 154.676  1.00  0.00     0.278 HD
BRANCH   8  11
HETATM   11  C2  UNL     1      20.935   1.123 154.716  1.00  0.00     0.115 C 
HETATM   12  C1  UNL     1      20.735   0.980 156.187  1.00  0.00     0.045 C 
HETATM   13  C3  UNL     1      21.219  -0.204 154.065  1.00  0.00     0.045 C 
HETATM   14  C4  UNL     1      22.184   1.972 154.501  1.00  0.00     0.045 C 
ENDBRANCH   8  11
ENDBRANCH   7   8
ENDBRANCH   5   7
ENDBRANCH   4   5
ENDBRANCH   3   4
ENDBRANCH   1   3
BRANCH   1  15
HETATM   15  C8  UNL     1      21.084   0.422 147.825  1.00  0.00     0.710 A 
HETATM   16  N4  UNL     1      21.291   0.880 146.566  1.00  0.00    -0.161 N 
HETATM   17  C9  UNL     1      21.101   0.131 145.488  1.00  0.00     0.221 A 
ATOM     18  H4  UNL     1      21.605   1.842 146.442  1.00  0.00     0.187 HD
HETATM   19  N5  UNL     1      21.307   0.545 144.144  1.00  0.00    -0.062 NA
HETATM   20  N6  UNL     1      20.685  -1.143 145.658  1.00  0.00    -0.163 N 
HETATM   21  C10 UNL     1      20.462  -1.662 146.852  1.00  0.00     0.692 A 
ATOM     22  H6  UNL     1      20.538  -1.726 144.835  1.00  0.00     0.187 HD
HETATM   23  N8  UNL     1      20.672  -0.852 147.929  1.00  0.00    -0.021 N 
ATOM     24  H8  UNL     1      20.508  -1.234 148.861  1.00  0.00     0.203 HD
BRANCH  21  25
HETATM   25  N7  UNL     1      20.056  -2.892 147.038  1.00  0.00    -0.234 N 
ATOM     26  H72 UNL     1      20.581  -3.663 146.628  1.00  0.00     0.174 HD
ATOM     27  H71 UNL     1      19.227  -3.132 147.582  1.00  0.00     0.174 HD
ENDBRANCH  21  25
ENDBRANCH   1  15
TORSDOF 8
ENDMDL
MODEL 2
REMARK VINA RESULT: -5.767244012      1.727      2.350
REMARK  8 active torsions:
REMARK  status: ('A' for Active; 'I' for Inactive)
REMARK    1  A    between atoms: C2_2  and  N1_5 
REMARK    2  A    between atoms: N1_5  and  C5_8 
REMARK    3  A    between atoms: C5_8  and  C6_9 
REMARK    4  A    between atoms: C6_9  and  C7_11 
REMARK    5  A    between atoms: C7_11  and  N2_12 
REMARK    6  A    between atoms: N2_12  and  N3_13 
REMARK    7  A    between atoms: N3_13  and  C8_15 
REMARK    8  A    between atoms: C10_22  and  N7_23 
ROOT
HETATM    1  N3  UNL     1      20.760  -1.492 148.512  1.00  0.00    -0.135 N 
ATOM      2  H3  UNL     1      21.446  -1.988 149.080  1.00  0.00     0.201 HD
ENDROOT
BRANCH   1   3
HETATM    3  N2  UNL     1      19.563  -1.050 149.117  1.00  0.00    -0.119 NA
BRANCH   3   4
HETATM    4  C7  UNL     1      19.960  -0.388 150.327  1.00  0.00     0.215 C 
BRANCH   4   5
HETATM    5  C6  UNL     1      20.620   0.947 150.096  1.00  0.00     0.168 C 
HETATM    6  O1  UNL     1      20.516   1.595 149.082  1.00  0.00    -0.295 OA
BRANCH   5   7
HETATM    7  C5  UNL     1      21.431   1.430 151.274  1.00  0.00     0.312 C 
BRANCH   7   8
HETATM    8  N1  UNL     1      21.043   0.792 152.496  1.00  0.00    -0.061 N 
ATOM      9  H12 UNL     1      21.732   0.119 152.829  1.00  0.00     0.278 HD
ATOM     10  H11 UNL     1      20.267   0.141 152.374  1.00  0.00     0.278 HD
BRANCH   8  11
HETATM   11  C2  UNL     1      20.758   1.839 153.467  1.00  0.00     0.115 C 
HETATM   12  C1  UNL     1      20.433   1.314 154.824  1.00  0.00     0.045 C 
HETATM   13  C3  UNL     1      21.942   2.768 153.502  1.00  0.00     0.045 C 
HETATM   14  C4  UNL     1      19.575   2.684 153.004  1.00  0.00     0.045 C 
ENDBRANCH   8  11
ENDBRANCH   7   8
ENDBRANCH   5   7
ENDBRANCH   4   5
ENDBRANCH   3   4
ENDBRANCH   1   3
BRANCH   1  15
HETATM   15  C8  UNL     1      21.034  -1.268 147.147  1.00  0.00     0.710 A 
HETATM   16  N4  UNL     1      20.940  -0.062 146.534  1.00  0.00    -0.161 N 
HETATM   17  C9  UNL     1      21.192   0.110 145.243  1.00  0.00     0.221 A 
ATOM     18  H4  UNL     1      20.663   0.747 147.089  1.00  0.00     0.187 HD
HETATM   19  N5  UNL     1      21.121   1.345 144.542  1.00  0.00    -0.062 NA
HETATM   20  N6  UNL     1      21.558  -0.966 144.513  1.00  0.00    -0.163 N 
HETATM   21  C10 UNL     1      21.672  -2.172 145.037  1.00  0.00     0.692 A 
ATOM     22  H6  UNL     1      21.754  -0.841 143.520  1.00  0.00     0.187 HD
HETATM   23  N8  UNL     1      21.404  -2.298 146.368  1.00  0.00    -0.021 N 
ATOM     24  H8  UNL     1      21.488  -3.221 146.794  1.00  0.00     0.203 HD
BRANCH  21  25
HETATM   25  N7  UNL     1      22.022  -3.227 144.346  1.00  0.00    -0.234 N 
ATOM     26  H72 UNL     1      21.320  -3.925 144.102  1.00  0.00     0.174 HD
ATOM     27  H71 UNL     1      22.976  -3.398 144.027  1.00  0.00     0.174 HD
ENDBRANCH  21  25
ENDBRANCH   1  15
TORSDOF 8
ENDMDL
MODEL 3
REMARK VINA RESULT: -5.762128070      1.930      2.965
REMARK  8 active torsions:
REMARK  status: ('A' for Active; 'I' for Inactive)
REMARK    1  A    between atoms: C2_2  and  N1_5 
REMARK    2  A    between atoms: N1_5  and  C5_8 
REMARK    3  A    between atoms: C5_8  and  C6_9 
REMARK    4  A    between atoms: C6_9  and  C7_11 
REMARK    5  A    between atoms: C7_11  and  N2_12 
REMARK    6  A    between atoms: N2_12  and  N3_13 
REMARK    7  A    between atoms: N3_13  and  C8_15 
REMARK    8  A    between atoms: C10_22  and  N7_23 
ROOT
HETATM    1  N3  UNL     1      20.168   0.078 148.950  1.00  0.00    -0.135 N 
ATOM      2  H3  UNL     1      19.712   0.824 149.476  1.00  0.00     0.201 HD
ENDROOT
BRANCH   1   3
HETATM    3  N2  UNL     1      19.927  -1.264 149.318  1.00  0.00    -0.119 NA
BRANCH   3   4
HETATM    4  C7  UNL     1      20.570  -1.440 150.589  1.00  0.00     0.215 C 
BRANCH   4   5
HETATM    5  C6  UNL     1      20.163  -0.416 151.618  1.00  0.00     0.168 C 
HETATM    6  O1  UNL     1      19.034  -0.021 151.780  1.00  0.00    -0.295 OA
BRANCH   5   7
HETATM    7  C5  UNL     1      21.313   0.078 152.463  1.00  0.00     0.312 C 
BRANCH   7   8
HETATM    8  N1  UNL     1      21.805   1.347 152.018  1.00  0.00    -0.061 N 
ATOM      9  H12 UNL     1      21.363   1.664 151.155  1.00  0.00     0.278 HD
ATOM     10  H11 UNL     1      22.763   1.301 151.669  1.00  0.00     0.278 HD
BRANCH   8  11
HETATM   11  C2  UNL     1      21.644   2.290 153.115  1.00  0.00     0.115 C 
HETATM   12  C1  UNL     1      22.818   3.194 153.294  1.00  0.00     0.045 C 
HETATM   13  C3  UNL     1      20.379   3.067 152.873  1.00  0.00     0.045 C 
HETATM   14  C4  UNL     1      21.433   1.543 154.429  1.00  0.00     0.045 C 
ENDBRANCH   8  11
ENDBRANCH   7   8
ENDBRANCH   5   7
ENDBRANCH   4   5
ENDBRANCH   3   4
ENDBRANCH   1   3
BRANCH   1  15
HETATM   15  C8  UNL     1      21.020   0.418 147.878  1.00  0.00     0.710 A 
HETATM   16  N4  UNL     1      20.656   0.392 146.572  1.00  0.00    -0.161 N 
HETATM   17  C9  UNL     1      21.487   0.704 145.587  1.00  0.00     0.221 A 
ATOM     18  H4  UNL     1      19.701   0.120 146.337  1.00  0.00     0.187 HD
HETATM   19  N5  UNL     1      21.168   0.706 144.202  1.00  0.00    -0.062 NA
HETATM   20  N6  UNL     1      22.750   1.064 145.905  1.00  0.00    -0.163 N 
HETATM   21  C10 UNL     1      23.179   1.113 147.153  1.00  0.00     0.692 A 
ATOM     22  H6  UNL     1      23.395   1.305 145.154  1.00  0.00     0.187 HD
HETATM   23  N8  UNL     1      22.287   0.784 148.130  1.00  0.00    -0.021 N 
ATOM     24  H8  UNL     1      22.598   0.817 149.101  1.00  0.00     0.203 HD
BRANCH  21  25
HETATM   25  N7  UNL     1      24.400   1.455 147.481  1.00  0.00    -0.234 N 
ATOM     26  H72 UNL     1      24.621   2.436 147.645  1.00  0.00     0.174 HD
ATOM     27  H71 UNL     1      25.161   0.784 147.588  1.00  0.00     0.174 HD
ENDBRANCH  21  25
ENDBRANCH   1  15
TORSDOF 8
ENDMDL
MODEL 4
REMARK VINA RESULT: -5.710159381      1.283      2.286
REMARK  8 active torsions:
REMARK  status: ('A' for Active; 'I' for Inactive)
REMARK    1  A    between atoms: C2_2  and  N1_5 
REMARK    2  A    between atoms: N1_5  and  C5_8 
REMARK    3  A    between atoms: C5_8  and  C6_9 
REMARK    4  A    between atoms: C6_9  and  C7_11 
REMARK    5  A    between atoms: C7_11  and  N2_12 
REMARK    6  A    between atoms: N2_12  and  N3_13 
REMARK    7  A    between atoms: N3_13  and  C8_15 
REMARK    8  A    between atoms: C10_22  and  N7_23 
ROOT
HETATM    1  N3  UNL     1      20.396   0.680 148.942  1.00  0.00    -0.135 N 
ATOM      2  H3  UNL     1      20.203  -0.232 149.357  1.00  0.00     0.201 HD
ENDROOT
BRANCH   1   3
HETATM    3  N2  UNL     1      19.816   1.830 149.520  1.00  0.00    -0.119 NA
BRANCH   3   4
HETATM    4  C7  UNL     1      20.462   1.992 150.792  1.00  0.00     0.215 C 
BRANCH   4   5
HETATM    5  C6  UNL     1      19.524   2.414 151.895  1.00  0.00     0.168 C 
HETATM    6  O1  UNL     1      18.958   3.479 151.941  1.00  0.00    -0.295 OA
BRANCH   5   7
HETATM    7  C5  UNL     1      19.335   1.360 152.959  1.00  0.00     0.312 C 
BRANCH   7   8
HETATM    8  N1  UNL     1      19.705   1.832 154.259  1.00  0.00    -0.061 N 
ATOM      9  H12 UNL     1      18.968   1.706 154.952  1.00  0.00     0.278 HD
ATOM     10  H11 UNL     1      19.766   2.849 154.310  1.00  0.00     0.278 HD
BRANCH   8  11
HETATM   11  C2  UNL     1      20.948   1.170 154.629  1.00  0.00     0.115 C 
HETATM   12  C1  UNL     1      21.141  -0.147 153.954  1.00  0.00     0.045 C 
HETATM   13  C3  UNL     1      22.080   2.116 154.329  1.00  0.00     0.045 C 
HETATM   14  C4  UNL     1      20.992   0.927 156.134  1.00  0.00     0.045 C 
ENDBRANCH   8  11
ENDBRANCH   7   8
ENDBRANCH   5   7
ENDBRANCH   4   5
ENDBRANCH   3   4
ENDBRANCH   1   3
BRANCH   1  15
HETATM   15  C8  UNL     1      21.233   0.753 147.809  1.00  0.00     0.710 A 
HETATM   16  N4  UNL     1      20.858   0.400 146.555  1.00  0.00    -0.161 N 
HETATM   17  C9  UNL     1      21.677   0.468 145.513  1.00  0.00     0.221 A 
ATOM     18  H4  UNL     1      19.906   0.068 146.406  1.00  0.00     0.187 HD
HETATM   19  N5  UNL     1      21.345   0.123 144.174  1.00  0.00    -0.062 NA
HETATM   20  N6  UNL     1      22.937   0.909 145.717  1.00  0.00    -0.163 N 
HETATM   21  C10 UNL     1      23.377   1.271 146.909  1.00  0.00     0.692 A 
ATOM     22  H6  UNL     1      23.572   0.964 144.921  1.00  0.00     0.187 HD
HETATM   23  N8  UNL     1      22.498   1.184 147.947  1.00  0.00    -0.021 N 
ATOM     24  H8  UNL     1      22.816   1.461 148.875  1.00  0.00     0.203 HD
BRANCH  21  25
HETATM   25  N7  UNL     1      24.595   1.697 147.127  1.00  0.00    -0.234 N 
ATOM     26  H72 UNL     1      24.852   2.647 146.859  1.00  0.00     0.174 HD
ATOM     27  H71 UNL     1      25.320   1.125 147.561  1.00  0.00     0.174 HD
ENDBRANCH  21  25
ENDBRANCH   1  15
TORSDOF 8
ENDMDL
MODEL 5
REMARK VINA RESULT: -5.675123424      1.704      2.166
REMARK  8 active torsions:
REMARK  status: ('A' for Active; 'I' for Inactive)
REMARK    1  A    between atoms: C2_2  and  N1_5 
REMARK    2  A    between atoms: N1_5  and  C5_8 
REMARK    3  A    between atoms: C5_8  and  C6_9 
REMARK    4  A    between atoms: C6_9  and  C7_11 
REMARK    5  A    between atoms: C7_11  and  N2_12 
REMARK    6  A    between atoms: N2_12  and  N3_13 
REMARK    7  A    between atoms: N3_13  and  C8_15 
REMARK    8  A    between atoms: C10_22  and  N7_23 
ROOT
HETATM    1  N3  UNL     1      22.044   0.430 148.817  1.00  0.00    -0.135 N 
ATOM      2  H3  UNL     1      22.865   0.081 149.311  1.00  0.00     0.201 HD
ENDROOT
BRANCH   1   3
HETATM    3  N2  UNL     1      21.247   1.421 149.430  1.00  0.00    -0.119 NA
BRANCH   3   4
HETATM    4  C7  UNL     1      19.961   0.816 149.632  1.00  0.00     0.215 C 
BRANCH   4   5
HETATM    5  C6  UNL     1      19.983  -0.334 150.607  1.00  0.00     0.168 C 
HETATM    6  O1  UNL     1      20.026  -1.498 150.291  1.00  0.00    -0.295 OA
BRANCH   5   7
HETATM    7  C5  UNL     1      19.960   0.102 152.052  1.00  0.00     0.312 C 
BRANCH   7   8
HETATM    8  N1  UNL     1      21.151   0.803 152.424  1.00  0.00    -0.061 N 
ATOM      9  H12 UNL     1      21.671   1.157 151.622  1.00  0.00     0.278 HD
ATOM     10  H11 UNL     1      21.876   0.186 152.792  1.00  0.00     0.278 HD
BRANCH   8  11
HETATM   11  C2  UNL     1      20.770   1.852 153.360  1.00  0.00     0.115 C 
HETATM   12  C1  UNL     1      20.401   1.335 154.710  1.00  0.00     0.045 C 
HETATM   13  C3  UNL     1      21.907   2.836 153.436  1.00  0.00     0.045 C 
HETATM   14  C4  UNL     1      19.575   2.632 152.823  1.00  0.00     0.045 C 
ENDBRANCH   8  11
ENDBRANCH   7   8
ENDBRANCH   5   7
ENDBRANCH   4   5
ENDBRANCH   3   4
ENDBRANCH   1   3
BRANCH   1  15
HETATM   15  C8  UNL     1      21.738  -0.093 147.543  1.00  0.00     0.710 A 
HETATM   16  N4  UNL     1      21.590   0.657 146.422  1.00  0.00    -0.161 N 
HETATM   17  C9  UNL     1      21.288   0.134 145.241  1.00  0.00     0.221 A 
ATOM     18  H4  UNL     1      21.717   1.666 146.490  1.00  0.00     0.187 HD
HETATM   19  N5  UNL     1      21.128   0.860 144.029  1.00  0.00    -0.062 NA
HETATM   20  N6  UNL     1      21.122  -1.204 145.157  1.00  0.00    -0.163 N 
HETATM   21  C10 UNL     1      21.249  -2.001 146.203  1.00  0.00     0.692 A 
ATOM     22  H6  UNL     1      20.890  -1.614 144.253  1.00  0.00     0.187 HD
HETATM   23  N8  UNL     1      21.562  -1.416 147.394  1.00  0.00    -0.021 N 
ATOM     24  H8  UNL     1      21.666  -2.013 148.214  1.00  0.00     0.203 HD
BRANCH  21  25
HETATM   25  N7  UNL     1      21.088  -3.298 146.143  1.00  0.00    -0.234 N 
ATOM     26  H72 UNL     1      20.495  -3.764 146.829  1.00  0.00     0.174 HD
ATOM     27  H71 UNL     1      21.528  -3.886 145.435  1.00  0.00     0.174 HD
ENDBRANCH  21  25
ENDBRANCH   1  15
TORSDOF 8
ENDMDL
