MODEL 1
REMARK VINA RESULT: -6.297403959      0.000      0.000
REMARK  7 active torsions:
REMARK  status: ('A' for Active; 'I' for Inactive)
REMARK       I    between atoms: C1_2  and  N2_4 
REMARK    1  A    between atoms: N2_4  and  N3_6 
REMARK    2  A    between atoms: N3_6  and  C2_7 
REMARK    3  A    between atoms: C2_7  and  O2_8 
REMARK    4  A    between atoms: C2_7  and  N4_10 
REMARK    5  A    between atoms: N4_10  and  C3_12 
REMARK    6  A    between atoms: C7_16  and  N5_17 
REMARK    7  A    between atoms: N6_19  and  N7_21 
ROOT
HETATM    1  N7  UNL     1      19.837   1.109 156.858  1.00  0.00    -0.263 N 
ATOM      2  H7  UNL     1      18.963   0.827 157.302  1.00  0.00     0.191 HD
HETATM    3  C8  UNL     1      20.878   1.109 157.577  1.00  0.00     0.369 C 
HETATM    4  O3  UNL     1      21.870   1.110 158.299  1.00  0.00    -0.282 OA
ENDROOT
BRANCH   1   5
HETATM    5  N6  UNL     1      19.782   1.456 155.528  1.00  0.00    -0.240 N 
HETATM    6  N5  UNL     1      20.503   0.929 154.618  1.00  0.00    -0.286 N 
ATOM      7  H5  UNL     1      21.180   0.198 154.836  1.00  0.00     0.188 HD
ATOM      8  H6  UNL     1      19.122   2.183 155.252  1.00  0.00     0.208 HD
BRANCH   6   9
HETATM    9  C7  UNL     1      20.325   1.403 153.278  1.00  0.00     0.051 A 
HETATM   10  C6  UNL     1      19.734   2.624 153.027  1.00  0.00     0.031 A 
HETATM   11  C5  UNL     1      19.569   3.067 151.728  1.00  0.00     0.005 A 
HETATM   12  C4  UNL     1      19.981   2.323 150.632  1.00  0.00     0.029 A 
HETATM   13  C3  UNL     1      20.573   1.101 150.872  1.00  0.00     0.033 A 
HETATM   14  C9  UNL     1      20.730   0.672 152.185  1.00  0.00     0.060 A 
BRANCH  13  15
HETATM   15  N4  UNL     1      21.009   0.303 149.775  1.00  0.00    -0.349 N 
ATOM     16  H4  UNL     1      21.919  -0.153 149.818  1.00  0.00     0.163 HD
BRANCH  15  17
HETATM   17  C2  UNL     1      20.182   0.129 148.604  1.00  0.00     0.337 C 
BRANCH  17  18
HETATM   18  N3  UNL     1      20.734   0.953 147.518  1.00  0.00    -0.084 NA
BRANCH  18  19
HETATM   19  N2  UNL     1      21.231   0.083 146.536  1.00  0.00    -0.254 N 
HETATM   20  C1  UNL     1      21.073   0.433 145.181  1.00  0.00     0.344 C 
HETATM   21  N1  UNL     1      21.561  -0.422 144.176  1.00  0.00    -0.039 NA
HETATM   22  O1  UNL     1      20.499   1.504 144.861  1.00  0.00    -0.250 OA
ATOM     23  H2  UNL     1      21.697  -0.785 146.797  1.00  0.00     0.187 HD
ENDBRANCH  18  19
ENDBRANCH  17  18
BRANCH  17  24
HETATM   24  O2  UNL     1      20.188  -1.212 148.171  1.00  0.00    -0.361 OA
ATOM     25  H2  UNL     1      19.499  -1.311 147.524  1.00  0.00     0.213 HD
ENDBRANCH  17  24
ENDBRANCH  15  17
ENDBRANCH  13  15
ENDBRANCH   6   9
ENDBRANCH   1   5
TORSDOF 7
ENDMDL
MODEL 2
REMARK VINA RESULT: -6.243877184      2.509      2.603
REMARK  7 active torsions:
REMARK  status: ('A' for Active; 'I' for Inactive)
REMARK       I    between atoms: C1_2  and  N2_4 
REMARK    1  A    between atoms: N2_4  and  N3_6 
REMARK    2  A    between atoms: N3_6  and  C2_7 
REMARK    3  A    between atoms: C2_7  and  O2_8 
REMARK    4  A    between atoms: C2_7  and  N4_10 
REMARK    5  A    between atoms: N4_10  and  C3_12 
REMARK    6  A    between atoms: C7_16  and  N5_17 
REMARK    7  A    between atoms: N6_19  and  N7_21 
ROOT
HETATM    1  N7  UNL     1      24.411   2.594 155.770  1.00  0.00    -0.263 N 
ATOM      2  H7  UNL     1      24.605   1.859 156.450  1.00  0.00     0.191 HD
HETATM    3  C8  UNL     1      25.152   3.619 155.799  1.00  0.00     0.369 C 
HETATM    4  O3  UNL     1      25.878   4.607 155.856  1.00  0.00    -0.282 OA
ENDROOT
BRANCH   1   5
HETATM    5  N6  UNL     1      23.366   2.385 154.901  1.00  0.00    -0.240 N 
HETATM    6  N5  UNL     1      23.417   2.616 153.648  1.00  0.00    -0.286 N 
ATOM      7  H5  UNL     1      24.264   2.979 153.211  1.00  0.00     0.188 HD
ATOM      8  H6  UNL     1      22.492   2.023 155.283  1.00  0.00     0.208 HD
BRANCH   6   9
HETATM    9  C7  UNL     1      22.239   2.346 152.878  1.00  0.00     0.051 A 
HETATM   10  C6  UNL     1      21.030   2.928 153.199  1.00  0.00     0.031 A 
HETATM   11  C5  UNL     1      19.903   2.656 152.446  1.00  0.00     0.005 A 
HETATM   12  C4  UNL     1      19.928   1.802 151.352  1.00  0.00     0.029 A 
HETATM   13  C3  UNL     1      21.131   1.215 151.024  1.00  0.00     0.033 A 
HETATM   14  C9  UNL     1      22.255   1.501 151.793  1.00  0.00     0.060 A 
BRANCH  13  15
HETATM   15  N4  UNL     1      21.202   0.330 149.911  1.00  0.00    -0.349 N 
ATOM     16  H4  UNL     1      21.891  -0.421 149.910  1.00  0.00     0.163 HD
BRANCH  15  17
HETATM   17  C2  UNL     1      20.313   0.478 148.782  1.00  0.00     0.337 C 
BRANCH  17  18
HETATM   18  N3  UNL     1      21.067   1.077 147.671  1.00  0.00    -0.084 NA
BRANCH  18  19
HETATM   19  N2  UNL     1      20.910   0.244 146.553  1.00  0.00    -0.254 N 
HETATM   20  C1  UNL     1      21.544   0.603 145.349  1.00  0.00     0.344 C 
HETATM   21  N1  UNL     1      21.402  -0.215 144.212  1.00  0.00    -0.039 NA
HETATM   22  O1  UNL     1      22.236   1.649 145.279  1.00  0.00    -0.250 OA
ATOM     23  H2  UNL     1      20.348  -0.605 146.612  1.00  0.00     0.187 HD
ENDBRANCH  18  19
ENDBRANCH  17  18
BRANCH  17  24
HETATM   24  O2  UNL     1      19.829  -0.772 148.348  1.00  0.00    -0.361 OA
ATOM     25  H2  UNL     1      19.066  -0.986 148.872  1.00  0.00     0.213 HD
ENDBRANCH  17  24
ENDBRANCH  15  17
ENDBRANCH  13  15
ENDBRANCH   6   9
ENDBRANCH   1   5
TORSDOF 7
ENDMDL
MODEL 3
REMARK VINA RESULT: -6.043712465      3.092      3.310
REMARK  7 active torsions:
REMARK  status: ('A' for Active; 'I' for Inactive)
REMARK       I    between atoms: C1_2  and  N2_4 
REMARK    1  A    between atoms: N2_4  and  N3_6 
REMARK    2  A    between atoms: N3_6  and  C2_7 
REMARK    3  A    between atoms: C2_7  and  O2_8 
REMARK    4  A    between atoms: C2_7  and  N4_10 
REMARK    5  A    between atoms: N4_10  and  C3_12 
REMARK    6  A    between atoms: C7_16  and  N5_17 
REMARK    7  A    between atoms: N6_19  and  N7_21 
ROOT
HETATM    1  N7  UNL     1      24.545   2.744 155.682  1.00  0.00    -0.263 N 
ATOM      2  H7  UNL     1      24.723   2.015 156.373  1.00  0.00     0.191 HD
HETATM    3  C8  UNL     1      25.351   3.719 155.649  1.00  0.00     0.369 C 
HETATM    4  O3  UNL     1      26.142   4.657 155.646  1.00  0.00    -0.282 OA
ENDROOT
BRANCH   1   5
HETATM    5  N6  UNL     1      23.449   2.583 154.866  1.00  0.00    -0.240 N 
HETATM    6  N5  UNL     1      23.514   2.392 153.608  1.00  0.00    -0.286 N 
ATOM      7  H5  UNL     1      24.411   2.346 153.124  1.00  0.00     0.188 HD
ATOM      8  H6  UNL     1      22.525   2.620 155.296  1.00  0.00     0.208 HD
BRANCH   6   9
HETATM    9  C7  UNL     1      22.278   2.243 152.899  1.00  0.00     0.051 A 
HETATM   10  C6  UNL     1      21.156   2.957 153.266  1.00  0.00     0.031 A 
HETATM   11  C5  UNL     1      19.971   2.801 152.572  1.00  0.00     0.005 A 
HETATM   12  C4  UNL     1      19.850   1.938 151.492  1.00  0.00     0.029 A 
HETATM   13  C3  UNL     1      20.965   1.220 151.117  1.00  0.00     0.033 A 
HETATM   14  C9  UNL     1      22.149   1.389 151.827  1.00  0.00     0.060 A 
BRANCH  13  15
HETATM   15  N4  UNL     1      20.886   0.320 150.016  1.00  0.00    -0.349 N 
ATOM     16  H4  UNL     1      21.539   0.419 149.239  1.00  0.00     0.163 HD
BRANCH  15  17
HETATM   17  C2  UNL     1      19.895  -0.730 149.980  1.00  0.00     0.337 C 
BRANCH  17  18
HETATM   18  N3  UNL     1      19.894  -1.324 148.634  1.00  0.00    -0.084 NA
BRANCH  18  19
HETATM   19  N2  UNL     1      19.526  -0.318 147.728  1.00  0.00    -0.254 N 
HETATM   20  C1  UNL     1      18.315  -0.456 147.022  1.00  0.00     0.344 C 
HETATM   21  N1  UNL     1      17.923   0.537 146.106  1.00  0.00    -0.039 NA
HETATM   22  O1  UNL     1      17.581  -1.460 147.203  1.00  0.00    -0.250 OA
ATOM     23  H2  UNL     1      20.123   0.495 147.583  1.00  0.00     0.187 HD
ENDBRANCH  18  19
ENDBRANCH  17  18
BRANCH  17  24
HETATM   24  O2  UNL     1      20.203  -1.753 150.900  1.00  0.00    -0.361 OA
ATOM     25  H2  UNL     1      21.073  -1.583 151.242  1.00  0.00     0.213 HD
ENDBRANCH  17  24
ENDBRANCH  15  17
ENDBRANCH  13  15
ENDBRANCH   6   9
ENDBRANCH   1   5
TORSDOF 7
ENDMDL
MODEL 4
REMARK VINA RESULT: -5.988827480      3.237      3.483
REMARK  7 active torsions:
REMARK  status: ('A' for Active; 'I' for Inactive)
REMARK       I    between atoms: C1_2  and  N2_4 
REMARK    1  A    between atoms: N2_4  and  N3_6 
REMARK    2  A    between atoms: N3_6  and  C2_7 
REMARK    3  A    between atoms: C2_7  and  O2_8 
REMARK    4  A    between atoms: C2_7  and  N4_10 
REMARK    5  A    between atoms: N4_10  and  C3_12 
REMARK    6  A    between atoms: C7_16  and  N5_17 
REMARK    7  A    between atoms: N6_19  and  N7_21 
ROOT
HETATM    1  N7  UNL     1      25.112   4.468 153.970  1.00  0.00    -0.263 N 
ATOM      2  H7  UNL     1      24.998   5.019 154.821  1.00  0.00     0.191 HD
HETATM    3  C8  UNL     1      26.293   4.285 153.554  1.00  0.00     0.369 C 
HETATM    4  O3  UNL     1      27.447   4.133 153.166  1.00  0.00    -0.282 OA
ENDROOT
BRANCH   1   5
HETATM    5  N6  UNL     1      23.970   3.986 153.375  1.00  0.00    -0.240 N 
HETATM    6  N5  UNL     1      23.515   2.807 153.544  1.00  0.00    -0.286 N 
ATOM      7  H5  UNL     1      23.990   2.138 154.149  1.00  0.00     0.188 HD
ATOM      8  H6  UNL     1      23.453   4.613 152.758  1.00  0.00     0.208 HD
BRANCH   6   9
HETATM    9  C7  UNL     1      22.310   2.460 152.850  1.00  0.00     0.051 A 
HETATM   10  C6  UNL     1      21.087   2.948 153.260  1.00  0.00     0.031 A 
HETATM   11  C5  UNL     1      19.934   2.602 152.580  1.00  0.00     0.005 A 
HETATM   12  C4  UNL     1      19.947   1.765 151.473  1.00  0.00     0.029 A 
HETATM   13  C3  UNL     1      21.164   1.272 151.056  1.00  0.00     0.033 A 
HETATM   14  C9  UNL     1      22.314   1.631 151.752  1.00  0.00     0.060 A 
BRANCH  13  15
HETATM   15  N4  UNL     1      21.224   0.407 149.925  1.00  0.00    -0.349 N 
ATOM     16  H4  UNL     1      21.896  -0.359 149.915  1.00  0.00     0.163 HD
BRANCH  15  17
HETATM   17  C2  UNL     1      20.348   0.598 148.793  1.00  0.00     0.337 C 
BRANCH  17  18
HETATM   18  N3  UNL     1      21.139   1.140 147.678  1.00  0.00    -0.084 NA
BRANCH  18  19
HETATM   19  N2  UNL     1      20.940   0.302 146.570  1.00  0.00    -0.254 N 
HETATM   20  C1  UNL     1      21.574   0.626 145.356  1.00  0.00     0.344 C 
HETATM   21  N1  UNL     1      21.390  -0.197 144.229  1.00  0.00    -0.039 NA
HETATM   22  O1  UNL     1      22.303   1.646 145.269  1.00  0.00    -0.250 OA
ATOM     23  H2  UNL     1      20.348  -0.525 146.643  1.00  0.00     0.187 HD
ENDBRANCH  18  19
ENDBRANCH  17  18
BRANCH  17  24
HETATM   24  O2  UNL     1      19.790  -0.625 148.370  1.00  0.00    -0.361 OA
ATOM     25  H2  UNL     1      20.398  -1.317 148.601  1.00  0.00     0.213 HD
ENDBRANCH  17  24
ENDBRANCH  15  17
ENDBRANCH  13  15
ENDBRANCH   6   9
ENDBRANCH   1   5
TORSDOF 7
ENDMDL
MODEL 5
REMARK VINA RESULT: -5.938210270      1.691      1.727
REMARK  7 active torsions:
REMARK  status: ('A' for Active; 'I' for Inactive)
REMARK       I    between atoms: C1_2  and  N2_4 
REMARK    1  A    between atoms: N2_4  and  N3_6 
REMARK    2  A    between atoms: N3_6  and  C2_7 
REMARK    3  A    between atoms: C2_7  and  O2_8 
REMARK    4  A    between atoms: C2_7  and  N4_10 
REMARK    5  A    between atoms: N4_10  and  C3_12 
REMARK    6  A    between atoms: C7_16  and  N5_17 
REMARK    7  A    between atoms: N6_19  and  N7_21 
ROOT
HETATM    1  N7  UNL     1      23.002   1.552 156.489  1.00  0.00    -0.263 N 
ATOM      2  H7  UNL     1      22.567   1.884 157.350  1.00  0.00     0.191 HD
HETATM    3  C8  UNL     1      24.184   1.109 156.572  1.00  0.00     0.369 C 
HETATM    4  O3  UNL     1      25.334   0.694 156.679  1.00  0.00    -0.282 OA
ENDROOT
BRANCH   1   5
HETATM    5  N6  UNL     1      22.253   1.625 155.338  1.00  0.00    -0.240 N 
HETATM    6  N5  UNL     1      22.706   2.013 154.211  1.00  0.00    -0.286 N 
ATOM      7  H5  UNL     1      23.678   2.298 154.101  1.00  0.00     0.188 HD
ATOM      8  H6  UNL     1      21.272   1.352 155.389  1.00  0.00     0.208 HD
BRANCH   6   9
HETATM    9  C7  UNL     1      21.794   2.032 153.105  1.00  0.00     0.051 A 
HETATM   10  C6  UNL     1      20.667   2.827 153.125  1.00  0.00     0.031 A 
HETATM   11  C5  UNL     1      19.798   2.833 152.051  1.00  0.00     0.005 A 
HETATM   12  C4  UNL     1      20.009   2.057 150.919  1.00  0.00     0.029 A 
HETATM   13  C3  UNL     1      21.132   1.259 150.890  1.00  0.00     0.033 A 
HETATM   14  C9  UNL     1      21.996   1.266 151.980  1.00  0.00     0.060 A 
BRANCH  13  15
HETATM   15  N4  UNL     1      21.387   0.444 149.750  1.00  0.00    -0.349 N 
ATOM     16  H4  UNL     1      22.198  -0.173 149.746  1.00  0.00     0.163 HD
BRANCH  15  17
HETATM   17  C2  UNL     1      20.515   0.477 148.599  1.00  0.00     0.337 C 
BRANCH  17  18
HETATM   18  N3  UNL     1      21.202   1.194 147.514  1.00  0.00    -0.084 NA
BRANCH  18  19
HETATM   19  N2  UNL     1      21.553   0.250 146.538  1.00  0.00    -0.254 N 
HETATM   20  C1  UNL     1      21.163   0.480 145.205  1.00  0.00     0.344 C 
HETATM   21  N1  UNL     1      21.501  -0.452 144.206  1.00  0.00    -0.039 NA
HETATM   22  O1  UNL     1      20.514   1.511 144.898  1.00  0.00    -0.250 OA
ATOM     23  H2  UNL     1      22.080  -0.587 146.789  1.00  0.00     0.187 HD
ENDBRANCH  18  19
ENDBRANCH  17  18
BRANCH  17  24
HETATM   24  O2  UNL     1      20.227  -0.824 148.140  1.00  0.00    -0.361 OA
ATOM     25  H2  UNL     1      19.795  -0.745 147.298  1.00  0.00     0.213 HD
ENDBRANCH  17  24
ENDBRANCH  15  17
ENDBRANCH  13  15
ENDBRANCH   6   9
ENDBRANCH   1   5
TORSDOF 7
ENDMDL
