MODEL 1
REMARK VINA RESULT: -4.871391844      0.000      0.000
REMARK  2 active torsions:
REMARK  status: ('A' for Active; 'I' for Inactive)
REMARK    1  A    between atoms: O1_2  and  N1_3 
REMARK    2  A    between atoms: N1_3  and  C2_4 
ROOT
HETATM    1  C2  UNL     1     -19.228 -28.594  15.445  1.00  0.00     0.199 C 
HETATM    2  C3  UNL     1     -18.348 -29.720  15.927  1.00  0.00     0.047 C 
HETATM    3  C4  UNL     1     -18.116 -30.652  14.742  1.00  0.00     0.041 C 
HETATM    4  C5  UNL     1     -16.934 -30.118  13.989  1.00  0.00     0.171 C 
HETATM    5  F1  UNL     1     -16.235 -31.180  13.439  1.00  0.00    -0.249 F 
HETATM    6  C6  UNL     1     -17.263 -29.141  12.925  1.00  0.00     0.056 C 
HETATM    7  C7  UNL     1     -18.308 -28.139  13.267  1.00  0.00     0.118 C 
HETATM    8  N2  UNL     1     -19.400 -28.623  14.032  1.00  0.00    -0.403 N 
ATOM      9  H2  UNL     1     -20.256 -28.968  13.597  1.00  0.00     0.154 HD
ENDROOT
BRANCH   1  10
HETATM   10  N1  UNL     1     -18.719 -27.359  15.966  1.00  0.00    -0.076 NA
BRANCH  10  11
HETATM   11  O1  UNL     1     -19.446 -26.852  16.973  1.00  0.00    -0.289 OA
HETATM   12  C1  UNL     1     -20.172 -25.735  16.568  1.00  0.00     0.231 C 
ENDBRANCH  10  11
ENDBRANCH   1  10
TORSDOF 2
ENDMDL
MODEL 2
REMARK VINA RESULT: -4.739608447      2.062      2.621
REMARK  2 active torsions:
REMARK  status: ('A' for Active; 'I' for Inactive)
REMARK    1  A    between atoms: O1_2  and  N1_3 
REMARK    2  A    between atoms: N1_3  and  C2_4 
ROOT
HETATM    1  C2  UNL     1     -19.084 -29.695  15.018  1.00  0.00     0.199 C 
HETATM    2  C3  UNL     1     -17.707 -30.283  14.843  1.00  0.00     0.047 C 
HETATM    3  C4  UNL     1     -17.002 -29.474  13.761  1.00  0.00     0.041 C 
HETATM    4  C5  UNL     1     -16.359 -28.300  14.437  1.00  0.00     0.171 C 
HETATM    5  F1  UNL     1     -15.186 -27.984  13.773  1.00  0.00    -0.249 F 
HETATM    6  C6  UNL     1     -17.212 -27.093  14.534  1.00  0.00     0.056 C 
HETATM    7  C7  UNL     1     -18.636 -27.332  14.887  1.00  0.00     0.118 C 
HETATM    8  N2  UNL     1     -19.235 -28.476  14.298  1.00  0.00    -0.403 N 
ATOM      9  H2  UNL     1     -19.742 -28.428  13.414  1.00  0.00     0.154 HD
ENDROOT
BRANCH   1  10
HETATM   10  N1  UNL     1     -19.371 -29.607  16.420  1.00  0.00    -0.076 NA
BRANCH  10  11
HETATM   11  O1  UNL     1     -18.322 -29.884  17.209  1.00  0.00    -0.289 OA
HETATM   12  C1  UNL     1     -18.729 -30.346  18.457  1.00  0.00     0.231 C 
ENDBRANCH  10  11
ENDBRANCH   1  10
TORSDOF 2
ENDMDL
MODEL 3
REMARK VINA RESULT: -4.685465222      1.766      1.961
REMARK  2 active torsions:
REMARK  status: ('A' for Active; 'I' for Inactive)
REMARK    1  A    between atoms: O1_2  and  N1_3 
REMARK    2  A    between atoms: N1_3  and  C2_4 
ROOT
HETATM    1  C2  UNL     1     -18.005 -27.809  14.582  1.00  0.00     0.199 C 
HETATM    2  C3  UNL     1     -18.483 -28.810  15.603  1.00  0.00     0.047 C 
HETATM    3  C4  UNL     1     -18.864 -30.080  14.849  1.00  0.00     0.041 C 
HETATM    4  C5  UNL     1     -17.616 -30.898  14.707  1.00  0.00     0.171 C 
HETATM    5  F1  UNL     1     -17.951 -32.241  14.747  1.00  0.00    -0.249 F 
HETATM    6  C6  UNL     1     -16.827 -30.623  13.484  1.00  0.00     0.056 C 
HETATM    7  C7  UNL     1     -16.698 -29.191  13.104  1.00  0.00     0.118 C 
HETATM    8  N2  UNL     1     -17.858 -28.395  13.293  1.00  0.00    -0.403 N 
ATOM      9  H2  UNL     1     -18.543 -28.252  12.551  1.00  0.00     0.154 HD
ENDROOT
BRANCH   1  10
HETATM   10  N1  UNL     1     -16.829 -27.164  15.089  1.00  0.00    -0.076 NA
BRANCH  10  11
HETATM   11  O1  UNL     1     -16.902 -25.824  15.093  1.00  0.00    -0.289 OA
HETATM   12  C1  UNL     1     -18.178 -25.382  15.431  1.00  0.00     0.231 C 
ENDBRANCH  10  11
ENDBRANCH   1  10
TORSDOF 2
ENDMDL
MODEL 4
REMARK VINA RESULT: -4.685401847      1.190      1.226
REMARK  2 active torsions:
REMARK  status: ('A' for Active; 'I' for Inactive)
REMARK    1  A    between atoms: O1_2  and  N1_3 
REMARK    2  A    between atoms: N1_3  and  C2_4 
ROOT
HETATM    1  C2  UNL     1     -19.993 -27.999  15.093  1.00  0.00     0.199 C 
HETATM    2  C3  UNL     1     -19.011 -28.824  15.887  1.00  0.00     0.047 C 
HETATM    3  C4  UNL     1     -18.483 -29.915  14.962  1.00  0.00     0.041 C 
HETATM    4  C5  UNL     1     -17.318 -29.335  14.218  1.00  0.00     0.171 C 
HETATM    5  F1  UNL     1     -16.392 -30.337  13.980  1.00  0.00    -0.249 F 
HETATM    6  C6  UNL     1     -17.662 -28.668  12.941  1.00  0.00     0.056 C 
HETATM    7  C7  UNL     1     -18.890 -27.829  12.959  1.00  0.00     0.118 C 
HETATM    8  N2  UNL     1     -19.978 -28.342  13.712  1.00  0.00    -0.403 N 
ATOM      9  H2  UNL     1     -20.704 -28.920  13.288  1.00  0.00     0.154 HD
ENDROOT
BRANCH   1  10
HETATM   10  N1  UNL     1     -19.760 -26.613  15.374  1.00  0.00    -0.076 NA
BRANCH  10  11
HETATM   11  O1  UNL     1     -18.643 -26.380  16.080  1.00  0.00    -0.289 OA
HETATM   12  C1  UNL     1     -17.867 -25.383  15.498  1.00  0.00     0.231 C 
ENDBRANCH  10  11
ENDBRANCH   1  10
TORSDOF 2
ENDMDL
MODEL 5
REMARK VINA RESULT: -4.646570867      1.677      1.730
REMARK  2 active torsions:
REMARK  status: ('A' for Active; 'I' for Inactive)
REMARK    1  A    between atoms: O1_2  and  N1_3 
REMARK    2  A    between atoms: N1_3  and  C2_4 
ROOT
HETATM    1  C2  UNL     1     -19.800 -27.807  15.791  1.00  0.00     0.199 C 
HETATM    2  C3  UNL     1     -19.211 -29.189  15.916  1.00  0.00     0.047 C 
HETATM    3  C4  UNL     1     -18.480 -29.490  14.612  1.00  0.00     0.041 C 
HETATM    4  C5  UNL     1     -17.092 -28.940  14.749  1.00  0.00     0.171 C 
HETATM    5  F1  UNL     1     -16.216 -29.748  14.044  1.00  0.00    -0.249 F 
HETATM    6  C6  UNL     1     -16.931 -27.535  14.307  1.00  0.00     0.056 C 
HETATM    7  C7  UNL     1     -18.026 -26.606  14.691  1.00  0.00     0.118 C 
HETATM    8  N2  UNL     1     -19.340 -27.137  14.622  1.00  0.00    -0.403 N 
ATOM      9  H2  UNL     1     -19.918 -27.045  13.787  1.00  0.00     0.154 HD
ENDROOT
BRANCH   1  10
HETATM   10  N1  UNL     1     -19.576 -27.101  17.018  1.00  0.00    -0.076 NA
BRANCH  10  11
HETATM   11  O1  UNL     1     -19.635 -27.876  18.112  1.00  0.00    -0.289 OA
HETATM   12  C1  UNL     1     -20.669 -27.487  18.960  1.00  0.00     0.231 C 
ENDBRANCH  10  11
ENDBRANCH   1  10
TORSDOF 2
ENDMDL
