MODEL 1
REMARK VINA RESULT: -4.174708961      0.000      0.000
REMARK  2 active torsions:
REMARK  status: ('A' for Active; 'I' for Inactive)
REMARK    1  A    between atoms: C2_2  and  O1_4 
REMARK    2  A    between atoms: C2_2  and  C4_6 
ROOT
HETATM    1  C4  UNL     1     -18.423 -28.174  12.902  1.00  0.00     0.044 A 
HETATM    2  C5  UNL     1     -19.541 -28.513  13.900  1.00  0.00     0.035 A 
HETATM    3  C6  UNL     1     -19.078 -27.076  13.546  1.00  0.00     0.040 A 
HETATM    4  C7  UNL     1     -18.604 -26.313  14.727  1.00  0.00     0.033 C 
HETATM    5 CL1  UNL     1     -20.292 -26.166  12.569  1.00  0.00    -0.119 Cl
ENDROOT
BRANCH   1   6
HETATM    6  C2  UNL     1     -17.132 -28.812  13.210  1.00  0.00     0.056 C 
HETATM    7  C1  UNL     1     -15.949 -27.946  13.384  1.00  0.00     0.045 C 
HETATM    8  C3  UNL     1     -17.285 -29.669  14.475  1.00  0.00     0.045 C 
BRANCH   6   9
HETATM    9  O1  UNL     1     -16.814 -29.739  12.188  1.00  0.00    -0.390 OA
ATOM     10  H1  UNL     1     -17.635 -30.113  11.890  1.00  0.00     0.210 HD
ENDBRANCH   6   9
ENDBRANCH   1   6
TORSDOF 2
ENDMDL
MODEL 2
REMARK VINA RESULT: -4.167432897      2.722      3.399
REMARK  2 active torsions:
REMARK  status: ('A' for Active; 'I' for Inactive)
REMARK    1  A    between atoms: C2_2  and  O1_4 
REMARK    2  A    between atoms: C2_2  and  C4_6 
ROOT
HETATM    1  C4  UNL     1     -16.989 -29.272  14.619  1.00  0.00     0.044 A 
HETATM    2  C5  UNL     1     -17.252 -28.726  13.207  1.00  0.00     0.035 A 
HETATM    3  C6  UNL     1     -16.619 -27.913  14.366  1.00  0.00     0.040 A 
HETATM    4  C7  UNL     1     -17.391 -26.692  14.705  1.00  0.00     0.033 C 
HETATM    5 CL1  UNL     1     -14.862 -27.580  14.117  1.00  0.00    -0.119 Cl
ENDROOT
BRANCH   1   6
HETATM    6  C2  UNL     1     -18.187 -29.812  15.283  1.00  0.00     0.056 C 
HETATM    7  C1  UNL     1     -19.512 -29.382  14.794  1.00  0.00     0.045 C 
HETATM    8  C3  UNL     1     -18.137 -31.347  15.236  1.00  0.00     0.045 C 
BRANCH   6   9
HETATM    9  O1  UNL     1     -18.138 -29.496  16.663  1.00  0.00    -0.390 OA
ATOM     10  H1  UNL     1     -18.081 -28.550  16.726  1.00  0.00     0.210 HD
ENDBRANCH   6   9
ENDBRANCH   1   6
TORSDOF 2
ENDMDL
MODEL 3
REMARK VINA RESULT: -4.089707049      1.296      1.658
REMARK  2 active torsions:
REMARK  status: ('A' for Active; 'I' for Inactive)
REMARK    1  A    between atoms: C2_2  and  O1_4 
REMARK    2  A    between atoms: C2_2  and  C4_6 
ROOT
HETATM    1  C4  UNL     1     -18.381 -28.332  13.185  1.00  0.00     0.044 A 
HETATM    2  C5  UNL     1     -19.758 -28.482  13.850  1.00  0.00     0.035 A 
HETATM    3  C6  UNL     1     -19.172 -27.147  13.323  1.00  0.00     0.040 A 
HETATM    4  C7  UNL     1     -19.060 -26.109  14.378  1.00  0.00     0.033 C 
HETATM    5 CL1  UNL     1     -20.007 -26.547  11.840  1.00  0.00    -0.119 Cl
ENDROOT
BRANCH   1   6
HETATM    6  C2  UNL     1     -17.263 -28.818  14.009  1.00  0.00     0.056 C 
HETATM    7  C1  UNL     1     -16.755 -30.183  13.763  1.00  0.00     0.045 C 
HETATM    8  C3  UNL     1     -16.084 -27.842  13.882  1.00  0.00     0.045 C 
BRANCH   6   9
HETATM    9  O1  UNL     1     -17.630 -28.759  15.376  1.00  0.00    -0.390 OA
ATOM     10  H1  UNL     1     -18.233 -28.031  15.467  1.00  0.00     0.210 HD
ENDBRANCH   6   9
ENDBRANCH   1   6
TORSDOF 2
ENDMDL
MODEL 4
REMARK VINA RESULT: -4.052779336      2.579      3.655
REMARK  2 active torsions:
REMARK  status: ('A' for Active; 'I' for Inactive)
REMARK    1  A    between atoms: C2_2  and  O1_4 
REMARK    2  A    between atoms: C2_2  and  C4_6 
ROOT
HETATM    1  C4  UNL     1     -18.281 -28.326  13.196  1.00  0.00     0.044 A 
HETATM    2  C5  UNL     1     -17.074 -27.844  14.016  1.00  0.00     0.035 A 
HETATM    3  C6  UNL     1     -17.699 -29.261  14.111  1.00  0.00     0.040 A 
HETATM    4  C7  UNL     1     -18.170 -29.594  15.478  1.00  0.00     0.033 C 
HETATM    5 CL1  UNL     1     -16.645 -30.544  13.404  1.00  0.00    -0.119 Cl
ENDROOT
BRANCH   1   6
HETATM    6  C2  UNL     1     -19.480 -27.485  13.346  1.00  0.00     0.056 C 
HETATM    7  C1  UNL     1     -19.457 -26.410  14.358  1.00  0.00     0.045 C 
HETATM    8  C3  UNL     1     -19.824 -26.855  11.989  1.00  0.00     0.045 C 
BRANCH   6   9
HETATM    9  O1  UNL     1     -20.592 -28.308  13.650  1.00  0.00    -0.390 OA
ATOM     10  H1  UNL     1     -21.044 -28.472  12.830  1.00  0.00     0.210 HD
ENDBRANCH   6   9
ENDBRANCH   1   6
TORSDOF 2
ENDMDL
MODEL 5
REMARK VINA RESULT: -3.984626195      2.544      3.698
REMARK  2 active torsions:
REMARK  status: ('A' for Active; 'I' for Inactive)
REMARK    1  A    between atoms: C2_2  and  O1_4 
REMARK    2  A    between atoms: C2_2  and  C4_6 
ROOT
HETATM    1  C4  UNL     1     -17.827 -28.771  13.406  1.00  0.00     0.044 A 
HETATM    2  C5  UNL     1     -16.624 -28.586  14.342  1.00  0.00     0.035 A 
HETATM    3  C6  UNL     1     -17.465 -29.883  14.229  1.00  0.00     0.040 A 
HETATM    4  C7  UNL     1     -18.080 -30.287  15.518  1.00  0.00     0.033 C 
HETATM    5 CL1  UNL     1     -16.574 -31.233  13.429  1.00  0.00    -0.119 Cl
ENDROOT
BRANCH   1   6
HETATM    6  C2  UNL     1     -18.889 -27.769  13.592  1.00  0.00     0.056 C 
HETATM    7  C1  UNL     1     -20.218 -28.233  14.039  1.00  0.00     0.045 C 
HETATM    8  C3  UNL     1     -18.402 -26.698  14.579  1.00  0.00     0.045 C 
BRANCH   6   9
HETATM    9  O1  UNL     1     -19.089 -27.068  12.377  1.00  0.00    -0.390 OA
ATOM     10  H1  UNL     1     -19.710 -26.373  12.559  1.00  0.00     0.210 HD
ENDBRANCH   6   9
ENDBRANCH   1   6
TORSDOF 2
ENDMDL
