MODEL 1
REMARK VINA RESULT: -4.358384398      0.000      0.000
REMARK  1 active torsions:
REMARK  status: ('A' for Active; 'I' for Inactive)
REMARK    1  A    between atoms: C2_2  and  N1_3 
ROOT
HETATM    1  C1  UNL     1     -16.709 -29.856  13.670  1.00  0.00     0.037 C 
HETATM    2  C2  UNL     1     -17.480 -28.718  14.357  1.00  0.00     0.066 C 
HETATM    3  C3  UNL     1     -18.431 -29.389  15.292  1.00  0.00     0.031 C 
HETATM    4  C4  UNL     1     -19.664 -28.611  15.598  1.00  0.00     0.029 C 
HETATM    5  C5  UNL     1     -20.180 -27.802  14.443  1.00  0.00     0.232 C 
HETATM    6  N2  UNL     1     -19.553 -28.271  13.210  1.00  0.00    -0.073 N 
ATOM      7  H21 UNL     1     -20.016 -27.950  12.360  1.00  0.00     0.277 HD
ATOM      8  H22 UNL     1     -19.674 -29.269  13.036  1.00  0.00     0.277 HD
HETATM    9  C6  UNL     1     -18.155 -27.852  13.323  1.00  0.00     0.259 C 
ENDROOT
BRANCH   2  10
HETATM   10  N1  UNL     1     -16.461 -27.975  15.088  1.00  0.00    -0.131 NA
HETATM   11 CL1  UNL     1     -15.059 -27.683  14.149  1.00  0.00    -0.003 Cl
ENDBRANCH   2  10
TORSDOF 1
ENDMDL
MODEL 2
REMARK VINA RESULT: -4.220901890      1.114      1.306
REMARK  1 active torsions:
REMARK  status: ('A' for Active; 'I' for Inactive)
REMARK    1  A    between atoms: C2_2  and  N1_3 
ROOT
HETATM    1  C1  UNL     1     -17.090 -28.551  13.072  1.00  0.00     0.037 C 
HETATM    2  C2  UNL     1     -17.418 -28.386  14.564  1.00  0.00     0.066 C 
HETATM    3  C3  UNL     1     -17.770 -29.753  15.047  1.00  0.00     0.031 C 
HETATM    4  C4  UNL     1     -18.687 -29.786  16.222  1.00  0.00     0.029 C 
HETATM    5  C5  UNL     1     -19.714 -28.690  16.227  1.00  0.00     0.232 C 
HETATM    6  N2  UNL     1     -19.787 -28.094  14.896  1.00  0.00    -0.073 N 
ATOM      7  H21 UNL     1     -20.614 -27.518  14.743  1.00  0.00     0.277 HD
ATOM      8  H22 UNL     1     -19.976 -28.765  14.150  1.00  0.00     0.277 HD
HETATM    9  C6  UNL     1     -18.522 -27.374  14.743  1.00  0.00     0.259 C 
ENDROOT
BRANCH   2  10
HETATM   10  N1  UNL     1     -16.171 -27.923  15.162  1.00  0.00    -0.131 NA
HETATM   11 CL1  UNL     1     -14.961 -27.600  13.994  1.00  0.00    -0.003 Cl
ENDBRANCH   2  10
TORSDOF 1
ENDMDL
MODEL 3
REMARK VINA RESULT: -4.208455979      2.200      3.298
REMARK  1 active torsions:
REMARK  status: ('A' for Active; 'I' for Inactive)
REMARK    1  A    between atoms: C2_2  and  N1_3 
ROOT
HETATM    1  C1  UNL     1     -19.246 -27.974  12.820  1.00  0.00     0.037 C 
HETATM    2  C2  UNL     1     -18.071 -28.356  13.734  1.00  0.00     0.066 C 
HETATM    3  C3  UNL     1     -17.631 -27.079  14.370  1.00  0.00     0.031 C 
HETATM    4  C4  UNL     1     -16.201 -27.046  14.784  1.00  0.00     0.029 C 
HETATM    5  C5  UNL     1     -15.279 -27.792  13.863  1.00  0.00     0.232 C 
HETATM    6  N2  UNL     1     -15.967 -28.049  12.601  1.00  0.00    -0.073 N 
ATOM      7  H21 UNL     1     -15.348 -28.330  11.840  1.00  0.00     0.277 HD
ATOM      8  H22 UNL     1     -16.330 -27.210  12.148  1.00  0.00     0.277 HD
HETATM    9  C6  UNL     1     -16.992 -29.039  12.932  1.00  0.00     0.259 C 
ENDROOT
BRANCH   2  10
HETATM   10  N1  UNL     1     -18.654 -29.260  14.719  1.00  0.00    -0.131 NA
HETATM   11 CL1  UNL     1     -17.790 -30.733  14.852  1.00  0.00    -0.003 Cl
ENDBRANCH   2  10
TORSDOF 1
ENDMDL
MODEL 4
REMARK VINA RESULT: -4.206023920      2.100      2.526
REMARK  1 active torsions:
REMARK  status: ('A' for Active; 'I' for Inactive)
REMARK    1  A    between atoms: C2_2  and  N1_3 
ROOT
HETATM    1  C1  UNL     1     -15.849 -27.949  13.629  1.00  0.00     0.037 C 
HETATM    2  C2  UNL     1     -17.148 -28.753  13.464  1.00  0.00     0.066 C 
HETATM    3  C3  UNL     1     -18.134 -27.800  12.875  1.00  0.00     0.031 C 
HETATM    4  C4  UNL     1     -19.560 -28.105  13.181  1.00  0.00     0.029 C 
HETATM    5  C5  UNL     1     -19.783 -28.678  14.551  1.00  0.00     0.232 C 
HETATM    6  N2  UNL     1     -18.595 -28.447  15.367  1.00  0.00    -0.073 N 
ATOM      7  H21 UNL     1     -18.744 -28.582  16.367  1.00  0.00     0.277 HD
ATOM      8  H22 UNL     1     -18.314 -27.468  15.425  1.00  0.00     0.277 HD
HETATM    9  C6  UNL     1     -17.575 -29.325  14.793  1.00  0.00     0.259 C 
ENDROOT
BRANCH   2  10
HETATM   10  N1  UNL     1     -16.807 -29.808  12.517  1.00  0.00    -0.131 NA
HETATM   11 CL1  UNL     1     -16.567 -31.323  13.277  1.00  0.00    -0.003 Cl
ENDBRANCH   2  10
TORSDOF 1
ENDMDL
MODEL 5
REMARK VINA RESULT: -4.165415084      1.366      2.718
REMARK  1 active torsions:
REMARK  status: ('A' for Active; 'I' for Inactive)
REMARK    1  A    between atoms: C2_2  and  N1_3 
ROOT
HETATM    1  C1  UNL     1     -18.185 -27.429  13.975  1.00  0.00     0.037 C 
HETATM    2  C2  UNL     1     -17.382 -28.602  14.559  1.00  0.00     0.066 C 
HETATM    3  C3  UNL     1     -16.997 -29.443  13.388  1.00  0.00     0.031 C 
HETATM    4  C4  UNL     1     -16.777 -30.884  13.696  1.00  0.00     0.029 C 
HETATM    5  C5  UNL     1     -17.691 -31.430  14.755  1.00  0.00     0.232 C 
HETATM    6  N2  UNL     1     -18.806 -30.507  14.950  1.00  0.00    -0.073 N 
ATOM      7  H21 UNL     1     -19.591 -30.905  15.465  1.00  0.00     0.277 HD
ATOM      8  H22 UNL     1     -19.325 -30.296  14.097  1.00  0.00     0.277 HD
HETATM    9  C6  UNL     1     -18.208 -29.333  15.588  1.00  0.00     0.259 C 
ENDROOT
BRANCH   2  10
HETATM   10  N1  UNL     1     -16.211 -27.977  15.164  1.00  0.00    -0.131 NA
HETATM   11 CL1  UNL     1     -14.988 -27.626  14.019  1.00  0.00    -0.003 Cl
ENDBRANCH   2  10
TORSDOF 1
ENDMDL
