MODEL 1
REMARK VINA RESULT: -4.185544186      0.000      0.000
REMARK  2 active torsions:
REMARK  status: ('A' for Active; 'I' for Inactive)
REMARK    1  A    between atoms: O1_1  and  C1_3 
REMARK    2  A    between atoms: C4_6  and  C5_7 
ROOT
HETATM    1  C1  UNL     1     -18.528 -36.155  16.814  1.00  0.00     0.319 C 
HETATM    2  C2  UNL     1     -17.559 -36.416  15.689  1.00  0.00     0.063 C 
HETATM    3  C3  UNL     1     -16.715 -35.149  15.723  1.00  0.00     0.041 C 
HETATM    4  C4  UNL     1     -17.730 -34.095  16.104  1.00  0.00     0.212 C 
HETATM    5  N1  UNL     1     -18.904 -34.776  16.569  1.00  0.00    -0.042 N 
ATOM      6  H11 UNL     1     -19.331 -34.328  17.380  1.00  0.00     0.281 HD
ATOM      7  H12 UNL     1     -19.697 -34.684  15.935  1.00  0.00     0.281 HD
ENDROOT
BRANCH   4   8
HETATM    8  C5  UNL     1     -18.104 -33.227  14.967  1.00  0.00     0.018 C 
HETATM    9  C6  UNL     1     -18.325 -31.932  15.088  1.00  0.00     0.082 C 
HETATM   10 CL1  UNL     1     -18.157 -31.231  16.709  1.00  0.00    -0.097 Cl
ENDBRANCH   4   8
BRANCH   1  11
HETATM   11  O1  UNL     1     -17.955 -36.337  18.064  1.00  0.00    -0.370 OA
ATOM     12  H1  UNL     1     -17.693 -35.518  18.468  1.00  0.00     0.212 HD
ENDBRANCH   1  11
TORSDOF 2
ENDMDL
MODEL 2
REMARK VINA RESULT: -4.135599221      6.984      7.531
REMARK  2 active torsions:
REMARK  status: ('A' for Active; 'I' for Inactive)
REMARK    1  A    between atoms: O1_1  and  C1_3 
REMARK    2  A    between atoms: C4_6  and  C5_7 
ROOT
HETATM    1  C1  UNL     1     -15.838 -27.894  14.199  1.00  0.00     0.319 C 
HETATM    2  C2  UNL     1     -16.254 -29.331  14.020  1.00  0.00     0.063 C 
HETATM    3  C3  UNL     1     -17.315 -29.202  12.936  1.00  0.00     0.041 C 
HETATM    4  C4  UNL     1     -17.968 -27.883  13.279  1.00  0.00     0.212 C 
HETATM    5  N1  UNL     1     -17.119 -27.214  14.222  1.00  0.00    -0.042 N 
ATOM      6  H11 UNL     1     -17.043 -26.211  14.051  1.00  0.00     0.281 HD
ATOM      7  H12 UNL     1     -17.525 -27.157  15.156  1.00  0.00     0.281 HD
ENDROOT
BRANCH   4   8
HETATM    8  C5  UNL     1     -19.308 -28.050  13.881  1.00  0.00     0.018 C 
HETATM    9  C6  UNL     1     -20.396 -27.485  13.394  1.00  0.00     0.082 C 
HETATM   10 CL1  UNL     1     -20.204 -26.481  11.943  1.00  0.00    -0.097 Cl
ENDBRANCH   4   8
BRANCH   1  11
HETATM   11  O1  UNL     1     -15.015 -27.446  13.177  1.00  0.00    -0.370 OA
ATOM     12  H1  UNL     1     -15.495 -27.260  12.377  1.00  0.00     0.212 HD
ENDBRANCH   1  11
TORSDOF 2
ENDMDL
MODEL 3
REMARK VINA RESULT: -4.077784636      6.943      7.616
REMARK  2 active torsions:
REMARK  status: ('A' for Active; 'I' for Inactive)
REMARK    1  A    between atoms: O1_1  and  C1_3 
REMARK    2  A    between atoms: C4_6  and  C5_7 
ROOT
HETATM    1  C1  UNL     1     -19.559 -26.464  15.512  1.00  0.00     0.319 C 
HETATM    2  C2  UNL     1     -20.289 -27.668  14.974  1.00  0.00     0.063 C 
HETATM    3  C3  UNL     1     -19.189 -28.720  14.999  1.00  0.00     0.041 C 
HETATM    4  C4  UNL     1     -17.960 -27.911  14.654  1.00  0.00     0.212 C 
HETATM    5  N1  UNL     1     -18.307 -26.525  14.782  1.00  0.00    -0.042 N 
ATOM      6  H11 UNL     1     -17.569 -25.964  15.207  1.00  0.00     0.281 HD
ATOM      7  H12 UNL     1     -18.342 -26.037  13.887  1.00  0.00     0.281 HD
ENDROOT
BRANCH   4   8
HETATM    8  C5  UNL     1     -17.485 -28.156  13.276  1.00  0.00     0.018 C 
HETATM    9  C6  UNL     1     -16.213 -28.101  12.928  1.00  0.00     0.082 C 
HETATM   10 CL1  UNL     1     -15.044 -27.711  14.204  1.00  0.00    -0.097 Cl
ENDBRANCH   4   8
BRANCH   1  11
HETATM   11  O1  UNL     1     -19.377 -26.521  16.886  1.00  0.00    -0.370 OA
ATOM     12  H1  UNL     1     -19.186 -25.671  17.265  1.00  0.00     0.212 HD
ENDBRANCH   1  11
TORSDOF 2
ENDMDL
MODEL 4
REMARK VINA RESULT: -4.045293840      6.915      7.528
REMARK  2 active torsions:
REMARK  status: ('A' for Active; 'I' for Inactive)
REMARK    1  A    between atoms: O1_1  and  C1_3 
REMARK    2  A    between atoms: C4_6  and  C5_7 
ROOT
HETATM    1  C1  UNL     1     -15.732 -27.939  14.026  1.00  0.00     0.319 C 
HETATM    2  C2  UNL     1     -16.461 -29.258  14.030  1.00  0.00     0.063 C 
HETATM    3  C3  UNL     1     -17.829 -28.844  13.506  1.00  0.00     0.041 C 
HETATM    4  C4  UNL     1     -18.003 -27.468  14.106  1.00  0.00     0.212 C 
HETATM    5  N1  UNL     1     -16.723 -27.049  14.601  1.00  0.00    -0.042 N 
ATOM      6  H11 UNL     1     -16.527 -26.064  14.423  1.00  0.00     0.281 HD
ATOM      7  H12 UNL     1     -16.681 -27.009  15.619  1.00  0.00     0.281 HD
ENDROOT
BRANCH   4   8
HETATM    8  C5  UNL     1     -18.971 -27.451  15.223  1.00  0.00     0.018 C 
HETATM    9  C6  UNL     1     -20.256 -27.197  15.063  1.00  0.00     0.082 C 
HETATM   10 CL1  UNL     1     -20.814 -26.864  13.412  1.00  0.00    -0.097 Cl
ENDBRANCH   4   8
BRANCH   1  11
HETATM   11  O1  UNL     1     -15.341 -27.550  12.753  1.00  0.00    -0.370 OA
ATOM     12  H1  UNL     1     -14.603 -26.951  12.765  1.00  0.00     0.212 HD
ENDBRANCH   1  11
TORSDOF 2
ENDMDL
MODEL 5
REMARK VINA RESULT: -3.937798832      6.833      7.637
REMARK  2 active torsions:
REMARK  status: ('A' for Active; 'I' for Inactive)
REMARK    1  A    between atoms: O1_1  and  C1_3 
REMARK    2  A    between atoms: C4_6  and  C5_7 
ROOT
HETATM    1  C1  UNL     1     -18.966 -26.154  15.282  1.00  0.00     0.319 C 
HETATM    2  C2  UNL     1     -19.969 -26.813  14.371  1.00  0.00     0.063 C 
HETATM    3  C3  UNL     1     -19.427 -28.235  14.308  1.00  0.00     0.041 C 
HETATM    4  C4  UNL     1     -17.932 -28.012  14.352  1.00  0.00     0.212 C 
HETATM    5  N1  UNL     1     -17.711 -26.653  14.752  1.00  0.00    -0.042 N 
ATOM      6  H11 UNL     1     -16.932 -26.549  15.404  1.00  0.00     0.281 HD
ATOM      7  H12 UNL     1     -17.333 -26.072  14.004  1.00  0.00     0.281 HD
ENDROOT
BRANCH   4   8
HETATM    8  C5  UNL     1     -17.285 -28.233  13.042  1.00  0.00     0.018 C 
HETATM    9  C6  UNL     1     -16.761 -29.388  12.679  1.00  0.00     0.082 C 
HETATM   10 CL1  UNL     1     -16.857 -30.721  13.846  1.00  0.00    -0.097 Cl
ENDBRANCH   4   8
BRANCH   1  11
HETATM   11  O1  UNL     1     -19.153 -26.491  16.614  1.00  0.00    -0.370 OA
ATOM     12  H1  UNL     1     -18.382 -26.889  17.002  1.00  0.00     0.212 HD
ENDBRANCH   1  11
TORSDOF 2
ENDMDL
