MODEL 1
REMARK VINA RESULT: -4.874691063      0.000      0.000
REMARK  2 active torsions:
REMARK  status: ('A' for Active; 'I' for Inactive)
REMARK    1  A    between atoms: C2_2  and  N1_4 
REMARK       I    between atoms: N1_4  and  C4_6 
REMARK       I    between atoms: C4_6  and  N2_8 
REMARK    2  A    between atoms: N2_8  and  C5_10 
ROOT
HETATM    1  C5  UNL     1      11.895  -7.114  -9.820  1.00  0.00     0.056 C 
HETATM    2  C6  UNL     1      13.049  -6.557 -10.651  1.00  0.00     0.038 C 
HETATM    3  C7  UNL     1      13.967  -7.772 -10.640  1.00  0.00    -0.010 C 
HETATM    4  C8  UNL     1      14.380  -8.179  -9.255  1.00  0.00     0.009 C 
HETATM    5  C9  UNL     1      13.204  -8.310  -8.322  1.00  0.00    -0.010 C 
HETATM    6  C10 UNL     1      12.248  -9.328  -8.921  1.00  0.00     0.033 C 
HETATM    7  C11 UNL     1      11.822  -8.579 -10.192  1.00  0.00     0.063 C 
HETATM    8 CL1  UNL     1      10.298  -9.110 -10.849  1.00  0.00    -0.117 Cl
HETATM    9  C12 UNL     1      12.978  -8.802 -11.155  1.00  0.00     0.033 C 
HETATM   10  C13 UNL     1      12.320  -7.055  -8.391  1.00  0.00     0.038 C 
ENDROOT
BRANCH   1  11
HETATM   11  N2  UNL     1      10.658  -6.474 -10.106  1.00  0.00    -0.332 N 
HETATM   12  C4  UNL     1      10.378  -5.093 -10.109  1.00  0.00     0.317 C 
HETATM   13  N1  UNL     1       9.061  -4.658 -10.407  1.00  0.00    -0.339 N 
HETATM   14  O1  UNL     1      11.267  -4.205  -9.852  1.00  0.00    -0.247 OA
ATOM     15  H1  UNL     1       8.332  -5.340 -10.616  1.00  0.00     0.164 HD
ATOM     16  H2  UNL     1       9.879  -7.089 -10.337  1.00  0.00     0.165 HD
BRANCH  13  17
HETATM   17  C2  UNL     1       8.756  -3.246 -10.415  1.00  0.00     0.078 C 
HETATM   18  C1  UNL     1       7.843  -2.903  -9.256  1.00  0.00     0.032 C 
HETATM   19  C3  UNL     1       8.035  -2.958 -11.723  1.00  0.00     0.032 C 
ENDBRANCH  13  17
ENDBRANCH   1  11
TORSDOF 2
ENDMDL
MODEL 2
REMARK VINA RESULT: -4.623652154      1.666      2.476
REMARK  2 active torsions:
REMARK  status: ('A' for Active; 'I' for Inactive)
REMARK    1  A    between atoms: C2_2  and  N1_4 
REMARK       I    between atoms: N1_4  and  C4_6 
REMARK       I    between atoms: C4_6  and  N2_8 
REMARK    2  A    between atoms: N2_8  and  C5_10 
ROOT
HETATM    1  C5  UNL     1      12.470  -7.605 -10.241  1.00  0.00     0.056 C 
HETATM    2  C6  UNL     1      12.693  -7.617  -8.730  1.00  0.00     0.038 C 
HETATM    3  C7  UNL     1      13.782  -8.679  -8.652  1.00  0.00    -0.010 C 
HETATM    4  C8  UNL     1      13.342 -10.007  -9.194  1.00  0.00     0.009 C 
HETATM    5  C9  UNL     1      12.719  -9.890 -10.562  1.00  0.00    -0.010 C 
HETATM    6  C10 UNL     1      13.739  -9.242 -11.482  1.00  0.00     0.033 C 
HETATM    7  C11 UNL     1      13.839  -7.854 -10.836  1.00  0.00     0.063 C 
HETATM    8 CL1  UNL     1      14.426  -6.614 -11.910  1.00  0.00    -0.117 Cl
HETATM    9  C12 UNL     1      14.758  -8.069  -9.642  1.00  0.00     0.033 C 
HETATM   10  C13 UNL     1      11.637  -8.798 -10.568  1.00  0.00     0.038 C 
ENDROOT
BRANCH   1  11
HETATM   11  N2  UNL     1      11.953  -6.365 -10.706  1.00  0.00    -0.332 N 
HETATM   12  C4  UNL     1      10.627  -5.895 -10.624  1.00  0.00     0.317 C 
HETATM   13  N1  UNL     1      10.312  -4.624 -11.170  1.00  0.00    -0.339 N 
HETATM   14  O1  UNL     1       9.686  -6.569 -10.073  1.00  0.00    -0.247 OA
ATOM     15  H1  UNL     1      11.039  -4.064 -11.614  1.00  0.00     0.164 HD
ATOM     16  H2  UNL     1      12.622  -5.740 -11.153  1.00  0.00     0.165 HD
BRANCH  13  17
HETATM   17  C2  UNL     1       8.958  -4.126 -11.095  1.00  0.00     0.078 C 
HETATM   18  C1  UNL     1       8.609  -3.367 -12.358  1.00  0.00     0.032 C 
HETATM   19  C3  UNL     1       8.903  -3.175  -9.908  1.00  0.00     0.032 C 
ENDBRANCH  13  17
ENDBRANCH   1  11
TORSDOF 2
ENDMDL
MODEL 3
REMARK VINA RESULT: -4.557583686      6.475     10.513
REMARK  2 active torsions:
REMARK  status: ('A' for Active; 'I' for Inactive)
REMARK    1  A    between atoms: C2_2  and  N1_4 
REMARK       I    between atoms: N1_4  and  C4_6 
REMARK       I    between atoms: C4_6  and  N2_8 
REMARK    2  A    between atoms: N2_8  and  C5_10 
ROOT
HETATM    1  C5  UNL     1       7.517   0.166 -16.672  1.00  0.00     0.056 C 
HETATM    2  C6  UNL     1       6.699   1.455 -16.674  1.00  0.00     0.038 C 
HETATM    3  C7  UNL     1       6.423   1.568 -18.167  1.00  0.00    -0.010 C 
HETATM    4  C8  UNL     1       7.677   1.662 -18.988  1.00  0.00     0.009 C 
HETATM    5  C9  UNL     1       8.670   0.582 -18.644  1.00  0.00    -0.010 C 
HETATM    6  C10 UNL     1       7.987  -0.759 -18.853  1.00  0.00     0.033 C 
HETATM    7  C11 UNL     1       6.906  -0.682 -17.767  1.00  0.00     0.063 C 
HETATM    8 CL1  UNL     1       6.299  -2.235 -17.261  1.00  0.00    -0.117 Cl
HETATM    9  C12 UNL     1       5.823   0.190 -18.386  1.00  0.00     0.033 C 
HETATM   10  C13 UNL     1       8.893   0.522 -17.124  1.00  0.00     0.038 C 
ENDROOT
BRANCH   1  11
HETATM   11  N2  UNL     1       7.452  -0.519 -15.428  1.00  0.00    -0.332 N 
HETATM   12  C4  UNL     1       8.303  -1.537 -14.955  1.00  0.00     0.317 C 
HETATM   13  N1  UNL     1       8.053  -2.107 -13.680  1.00  0.00    -0.339 N 
HETATM   14  O1  UNL     1       9.302  -1.975 -15.630  1.00  0.00    -0.247 OA
ATOM     15  H1  UNL     1       7.266  -1.780 -13.119  1.00  0.00     0.164 HD
ATOM     16  H2  UNL     1       6.697  -0.241 -14.802  1.00  0.00     0.165 HD
BRANCH  13  17
HETATM   17  C2  UNL     1       8.916  -3.152 -13.179  1.00  0.00     0.078 C 
HETATM   18  C1  UNL     1       8.595  -4.466 -13.858  1.00  0.00     0.032 C 
HETATM   19  C3  UNL     1       8.636  -3.278 -11.689  1.00  0.00     0.032 C 
ENDBRANCH  13  17
ENDBRANCH   1  11
TORSDOF 2
ENDMDL
MODEL 4
REMARK VINA RESULT: -4.303234630      3.761      4.541
REMARK  2 active torsions:
REMARK  status: ('A' for Active; 'I' for Inactive)
REMARK    1  A    between atoms: C2_2  and  N1_4 
REMARK       I    between atoms: N1_4  and  C4_6 
REMARK       I    between atoms: C4_6  and  N2_8 
REMARK    2  A    between atoms: N2_8  and  C5_10 
ROOT
HETATM    1  C5  UNL     1      10.359  -7.301 -10.243  1.00  0.00     0.056 C 
HETATM    2  C6  UNL     1      10.624  -7.965  -8.894  1.00  0.00     0.038 C 
HETATM    3  C7  UNL     1      11.873  -7.196  -8.484  1.00  0.00    -0.010 C 
HETATM    4  C8  UNL     1      13.005  -7.360  -9.457  1.00  0.00     0.009 C 
HETATM    5  C9  UNL     1      12.582  -7.098 -10.879  1.00  0.00    -0.010 C 
HETATM    6  C10 UNL     1      12.017  -5.689 -10.942  1.00  0.00     0.033 C 
HETATM    7  C11 UNL     1      10.777  -5.858 -10.054  1.00  0.00     0.063 C 
HETATM    8 CL1  UNL     1       9.532  -4.674 -10.342  1.00  0.00    -0.117 Cl
HETATM    9  C12 UNL     1      11.327  -5.787  -8.637  1.00  0.00     0.033 C 
HETATM   10  C13 UNL     1      11.315  -7.899 -11.219  1.00  0.00     0.038 C 
ENDROOT
BRANCH   1  11
HETATM   11  N2  UNL     1       8.991  -7.368 -10.624  1.00  0.00    -0.332 N 
HETATM   12  C4  UNL     1       8.200  -8.519 -10.813  1.00  0.00     0.317 C 
HETATM   13  N1  UNL     1       6.848  -8.367 -11.214  1.00  0.00    -0.339 N 
HETATM   14  O1  UNL     1       8.651  -9.706 -10.637  1.00  0.00    -0.247 OA
ATOM     15  H1  UNL     1       6.460  -7.436 -11.362  1.00  0.00     0.164 HD
ATOM     16  H2  UNL     1       8.525  -6.474 -10.779  1.00  0.00     0.165 HD
BRANCH  13  17
HETATM   17  C2  UNL     1       6.022  -9.536 -11.413  1.00  0.00     0.078 C 
HETATM   18  C1  UNL     1       5.882  -9.832 -12.891  1.00  0.00     0.032 C 
HETATM   19  C3  UNL     1       4.653  -9.213 -10.835  1.00  0.00     0.032 C 
ENDBRANCH  13  17
ENDBRANCH   1  11
TORSDOF 2
ENDMDL
MODEL 5
REMARK VINA RESULT: -4.275177996      3.435      4.319
REMARK  2 active torsions:
REMARK  status: ('A' for Active; 'I' for Inactive)
REMARK    1  A    between atoms: C2_2  and  N1_4 
REMARK       I    between atoms: N1_4  and  C4_6 
REMARK       I    between atoms: C4_6  and  N2_8 
REMARK    2  A    between atoms: N2_8  and  C5_10 
ROOT
HETATM    1  C5  UNL     1      10.109  -6.478 -10.846  1.00  0.00     0.056 C 
HETATM    2  C6  UNL     1      10.217  -7.658  -9.885  1.00  0.00     0.038 C 
HETATM    3  C7  UNL     1      11.505  -7.273  -9.169  1.00  0.00    -0.010 C 
HETATM    4  C8  UNL     1      12.678  -7.159 -10.099  1.00  0.00     0.009 C 
HETATM    5  C9  UNL     1      12.378  -6.294 -11.296  1.00  0.00    -0.010 C 
HETATM    6  C10 UNL     1      11.958  -4.926 -10.787  1.00  0.00     0.033 C 
HETATM    7  C11 UNL     1      10.651  -5.296 -10.072  1.00  0.00     0.063 C 
HETATM    8 CL1  UNL     1       9.550  -3.960  -9.874  1.00  0.00    -0.117 Cl
HETATM    9  C12 UNL     1      11.110  -5.871  -8.740  1.00  0.00     0.033 C 
HETATM   10  C13 UNL     1      11.065  -6.735 -11.962  1.00  0.00     0.038 C 
ENDROOT
BRANCH   1  11
HETATM   11  N2  UNL     1       8.769  -6.225 -11.250  1.00  0.00    -0.332 N 
HETATM   12  C4  UNL     1       7.896  -7.087 -11.942  1.00  0.00     0.317 C 
HETATM   13  N1  UNL     1       6.592  -6.632 -12.268  1.00  0.00    -0.339 N 
HETATM   14  O1  UNL     1       8.229  -8.274 -12.294  1.00  0.00    -0.247 OA
ATOM     15  H1  UNL     1       6.297  -5.692 -12.001  1.00  0.00     0.164 HD
ATOM     16  H2  UNL     1       8.394  -5.308 -11.009  1.00  0.00     0.165 HD
BRANCH  13  17
HETATM   17  C2  UNL     1       5.684  -7.502 -12.978  1.00  0.00     0.078 C 
HETATM   18  C1  UNL     1       5.773  -7.247 -14.468  1.00  0.00     0.032 C 
HETATM   19  C3  UNL     1       4.281  -7.165 -12.495  1.00  0.00     0.032 C 
ENDBRANCH  13  17
ENDBRANCH   1  11
TORSDOF 2
ENDMDL
