MODEL 1
REMARK VINA RESULT: -5.035567604      0.000      0.000
REMARK  4 active torsions:
REMARK  status: ('A' for Active; 'I' for Inactive)
REMARK    1  A    between atoms: N1_2  and  C2_4 
REMARK    2  A    between atoms: C2_4  and  N2_6 
REMARK    3  A    between atoms: N2_6  and  C3_8 
REMARK    4  A    between atoms: C7_12  and  C8_13 
ROOT
HETATM    1  C3  UNL     1      10.689  -5.148 -10.714  1.00  0.00     0.040 A 
HETATM    2  C4  UNL     1      10.652  -5.631  -9.457  1.00  0.00     0.037 A 
HETATM    3  C5  UNL     1      11.569  -6.613  -8.998  1.00  0.00    -0.050 A 
HETATM    4  C6  UNL     1      11.442  -7.084  -7.623  1.00  0.00     0.049 C 
HETATM    5  C7  UNL     1      12.536  -7.116  -9.816  1.00  0.00    -0.013 A 
HETATM    6  C11 UNL     1      12.547  -6.596 -11.103  1.00  0.00     0.020 A 
HETATM    7  C12 UNL     1      11.690  -5.668 -11.556  1.00  0.00    -0.035 A 
HETATM    8  C13 UNL     1      11.733  -5.140 -12.946  1.00  0.00     0.050 C 
ENDROOT
BRANCH   1   9
HETATM    9  N2  UNL     1       9.842  -4.132 -11.194  1.00  0.00    -0.333 N 
ATOM     10  H2  UNL     1      10.329  -3.292 -11.507  1.00  0.00     0.168 HD
BRANCH   9  11
HETATM   11  C2  UNL     1       8.476  -4.072 -11.315  1.00  0.00     0.171 C 
HETATM   12  S1  UNL     1       7.840  -5.035 -12.549  1.00  0.00    -0.041 SA
BRANCH  11  13
HETATM   13  N1  UNL     1       7.488  -3.364 -10.614  1.00  0.00    -0.371 N 
HETATM   14  C1  UNL     1       7.796  -2.663  -9.349  1.00  0.00     0.148 C 
ATOM     15  H1  UNL     1       6.538  -3.332 -10.985  1.00  0.00     0.161 HD
ENDBRANCH  11  13
ENDBRANCH   9  11
ENDBRANCH   1   9
BRANCH   5  16
HETATM   16  C8  UNL     1      13.489  -8.116  -9.362  1.00  0.00     0.124 C 
HETATM   17  C9  UNL     1      14.846  -8.055 -10.028  1.00  0.00     0.057 C 
HETATM   18  C10 UNL     1      12.952  -9.519  -9.240  1.00  0.00     0.057 C 
HETATM   19  F1  UNL     1      13.782  -7.766  -8.015  1.00  0.00    -0.238 F 
ENDBRANCH   5  16
TORSDOF 4
ENDMDL
MODEL 2
REMARK VINA RESULT: -4.937827545      1.438      1.687
REMARK  4 active torsions:
REMARK  status: ('A' for Active; 'I' for Inactive)
REMARK    1  A    between atoms: N1_2  and  C2_4 
REMARK    2  A    between atoms: C2_4  and  N2_6 
REMARK    3  A    between atoms: N2_6  and  C3_8 
REMARK    4  A    between atoms: C7_12  and  C8_13 
ROOT
HETATM    1  C3  UNL     1      11.549  -5.388 -10.343  1.00  0.00     0.040 A 
HETATM    2  C4  UNL     1      11.675  -6.192  -9.270  1.00  0.00     0.037 A 
HETATM    3  C5  UNL     1      12.522  -7.331  -9.275  1.00  0.00    -0.050 A 
HETATM    4  C6  UNL     1      12.582  -8.149  -8.068  1.00  0.00     0.049 C 
HETATM    5  C7  UNL     1      13.253  -7.666 -10.375  1.00  0.00    -0.013 A 
HETATM    6  C11 UNL     1      13.103  -6.815 -11.462  1.00  0.00     0.020 A 
HETATM    7  C12 UNL     1      12.307  -5.734 -11.478  1.00  0.00    -0.035 A 
HETATM    8  C13 UNL     1      12.171  -4.851 -12.667  1.00  0.00     0.050 C 
ENDROOT
BRANCH   1   9
HETATM    9  N2  UNL     1      10.771  -4.216 -10.365  1.00  0.00    -0.333 N 
ATOM     10  H2  UNL     1      11.307  -3.358 -10.498  1.00  0.00     0.168 HD
BRANCH   9  11
HETATM   11  C2  UNL     1       9.418  -4.024 -10.238  1.00  0.00     0.171 C 
HETATM   12  S1  UNL     1       8.524  -4.407 -11.620  1.00  0.00    -0.041 SA
BRANCH  11  13
HETATM   13  N1  UNL     1       8.615  -3.567  -9.182  1.00  0.00    -0.371 N 
HETATM   14  C1  UNL     1       7.590  -2.522  -9.392  1.00  0.00     0.148 C 
ATOM     15  H1  UNL     1       8.741  -3.963  -8.250  1.00  0.00     0.161 HD
ENDBRANCH  11  13
ENDBRANCH   9  11
ENDBRANCH   1   9
BRANCH   5  16
HETATM   16  C8  UNL     1      14.133  -8.823 -10.396  1.00  0.00     0.124 C 
HETATM   17  C9  UNL     1      13.435 -10.157 -10.241  1.00  0.00     0.057 C 
HETATM   18  C10 UNL     1      15.381  -8.708  -9.560  1.00  0.00     0.057 C 
HETATM   19  F1  UNL     1      14.638  -8.884 -11.723  1.00  0.00    -0.238 F 
ENDBRANCH   5  16
TORSDOF 4
ENDMDL
MODEL 3
REMARK VINA RESULT: -4.894194274      4.091      6.461
REMARK  4 active torsions:
REMARK  status: ('A' for Active; 'I' for Inactive)
REMARK    1  A    between atoms: N1_2  and  C2_4 
REMARK    2  A    between atoms: C2_4  and  N2_6 
REMARK    3  A    between atoms: N2_6  and  C3_8 
REMARK    4  A    between atoms: C7_12  and  C8_13 
ROOT
HETATM    1  C3  UNL     1      13.572  -8.040 -10.137  1.00  0.00     0.040 A 
HETATM    2  C4  UNL     1      13.284  -7.148 -11.104  1.00  0.00     0.037 A 
HETATM    3  C5  UNL     1      12.362  -6.087 -10.903  1.00  0.00    -0.050 A 
HETATM    4  C6  UNL     1      12.107  -5.178 -12.015  1.00  0.00     0.049 C 
HETATM    5  C7  UNL     1      11.721  -5.921  -9.712  1.00  0.00    -0.013 A 
HETATM    6  C11 UNL     1      12.042  -6.856  -8.737  1.00  0.00     0.020 A 
HETATM    7  C12 UNL     1      12.910  -7.866  -8.907  1.00  0.00    -0.035 A 
HETATM    8  C13 UNL     1      13.222  -8.850  -7.835  1.00  0.00     0.050 C 
ENDROOT
BRANCH   1   9
HETATM    9  N2  UNL     1      14.522  -9.069 -10.269  1.00  0.00    -0.333 N 
ATOM     10  H2  UNL     1      14.128  -9.976 -10.516  1.00  0.00     0.168 HD
BRANCH   9  11
HETATM   11  C2  UNL     1      15.887  -9.066 -10.124  1.00  0.00     0.171 C 
HETATM   12  S1  UNL     1      16.640 -10.516 -10.555  1.00  0.00    -0.041 SA
BRANCH  11  13
HETATM   13  N1  UNL     1      16.797  -8.092  -9.685  1.00  0.00    -0.371 N 
HETATM   14  C1  UNL     1      17.770  -7.474 -10.612  1.00  0.00     0.148 C 
ATOM     15  H1  UNL     1      16.787  -7.804  -8.706  1.00  0.00     0.161 HD
ENDBRANCH  11  13
ENDBRANCH   9  11
ENDBRANCH   1   9
BRANCH   5  16
HETATM   16  C8  UNL     1      10.781  -4.836  -9.485  1.00  0.00     0.124 C 
HETATM   17  C9  UNL     1       9.566  -4.845 -10.386  1.00  0.00     0.057 C 
HETATM   18  C10 UNL     1      11.392  -3.467  -9.329  1.00  0.00     0.057 C 
HETATM   19  F1  UNL     1      10.224  -5.088  -8.201  1.00  0.00    -0.238 F 
ENDBRANCH   5  16
TORSDOF 4
ENDMDL
MODEL 4
REMARK VINA RESULT: -4.830085407      3.727      5.137
REMARK  4 active torsions:
REMARK  status: ('A' for Active; 'I' for Inactive)
REMARK    1  A    between atoms: N1_2  and  C2_4 
REMARK    2  A    between atoms: C2_4  and  N2_6 
REMARK    3  A    between atoms: N2_6  and  C3_8 
REMARK    4  A    between atoms: C7_12  and  C8_13 
ROOT
HETATM    1  C3  UNL     1       9.409  -2.729 -14.359  1.00  0.00     0.040 A 
HETATM    2  C4  UNL     1       8.648  -2.758 -13.248  1.00  0.00     0.037 A 
HETATM    3  C5  UNL     1       8.949  -3.604 -12.149  1.00  0.00    -0.050 A 
HETATM    4  C6  UNL     1       8.058  -3.574 -10.994  1.00  0.00     0.049 C 
HETATM    5  C7  UNL     1      10.031  -4.432 -12.167  1.00  0.00    -0.013 A 
HETATM    6  C11 UNL     1      10.795  -4.376 -13.325  1.00  0.00     0.020 A 
HETATM    7  C12 UNL     1      10.527  -3.584 -14.375  1.00  0.00    -0.035 A 
HETATM    8  C13 UNL     1      11.370  -3.559 -15.601  1.00  0.00     0.050 C 
ENDROOT
BRANCH   1   9
HETATM    9  N2  UNL     1       9.186  -1.865 -15.447  1.00  0.00    -0.333 N 
ATOM     10  H2  UNL     1      10.019  -1.660 -15.999  1.00  0.00     0.168 HD
BRANCH   9  11
HETATM   11  C2  UNL     1       8.044  -1.249 -15.895  1.00  0.00     0.171 C 
HETATM   12  S1  UNL     1       7.277  -2.042 -17.175  1.00  0.00    -0.041 SA
BRANCH  11  13
HETATM   13  N1  UNL     1       7.377  -0.078 -15.504  1.00  0.00    -0.371 N 
HETATM   14  C1  UNL     1       7.002   0.959 -16.490  1.00  0.00     0.148 C 
ATOM     15  H1  UNL     1       7.145   0.061 -14.520  1.00  0.00     0.161 HD
ENDBRANCH  11  13
ENDBRANCH   9  11
ENDBRANCH   1   9
BRANCH   5  16
HETATM   16  C8  UNL     1      10.359  -5.299 -11.047  1.00  0.00     0.124 C 
HETATM   17  C9  UNL     1       9.460  -6.505 -10.887  1.00  0.00     0.057 C 
HETATM   18  C10 UNL     1      10.646  -4.598  -9.744  1.00  0.00     0.057 C 
HETATM   19  F1  UNL     1      11.612  -5.882 -11.382  1.00  0.00    -0.238 F 
ENDBRANCH   5  16
TORSDOF 4
ENDMDL
MODEL 5
REMARK VINA RESULT: -4.764224967      1.096      1.435
REMARK  4 active torsions:
REMARK  status: ('A' for Active; 'I' for Inactive)
REMARK    1  A    between atoms: N1_2  and  C2_4 
REMARK    2  A    between atoms: C2_4  and  N2_6 
REMARK    3  A    between atoms: N2_6  and  C3_8 
REMARK    4  A    between atoms: C7_12  and  C8_13 
ROOT
HETATM    1  C3  UNL     1      10.828  -5.225 -10.700  1.00  0.00     0.040 A 
HETATM    2  C4  UNL     1      10.763  -5.725  -9.452  1.00  0.00     0.037 A 
HETATM    3  C5  UNL     1      11.671  -6.712  -8.985  1.00  0.00    -0.050 A 
HETATM    4  C6  UNL     1      11.513  -7.202  -7.620  1.00  0.00     0.049 C 
HETATM    5  C7  UNL     1      12.659  -7.201  -9.786  1.00  0.00    -0.013 A 
HETATM    6  C11 UNL     1      12.699  -6.662 -11.065  1.00  0.00     0.020 A 
HETATM    7  C12 UNL     1      11.850  -5.730 -11.525  1.00  0.00    -0.035 A 
HETATM    8  C13 UNL     1      11.925  -5.183 -12.907  1.00  0.00     0.050 C 
ENDROOT
BRANCH   1   9
HETATM    9  N2  UNL     1       9.990  -4.204 -11.186  1.00  0.00    -0.333 N 
ATOM     10  H2  UNL     1      10.469  -3.498 -11.746  1.00  0.00     0.168 HD
BRANCH   9  11
HETATM   11  C2  UNL     1       8.642  -3.991 -11.039  1.00  0.00     0.171 C 
HETATM   12  S1  UNL     1       8.236  -2.871  -9.842  1.00  0.00    -0.041 SA
BRANCH  11  13
HETATM   13  N1  UNL     1       7.517  -4.523 -11.689  1.00  0.00    -0.371 N 
HETATM   14  C1  UNL     1       7.656  -5.495 -12.794  1.00  0.00     0.148 C 
ATOM     15  H1  UNL     1       6.585  -4.233 -11.393  1.00  0.00     0.161 HD
ENDBRANCH  11  13
ENDBRANCH   9  11
ENDBRANCH   1   9
BRANCH   5  16
HETATM   16  C8  UNL     1      13.603  -8.205  -9.323  1.00  0.00     0.124 C 
HETATM   17  C9  UNL     1      14.974  -8.134  -9.960  1.00  0.00     0.057 C 
HETATM   18  C10 UNL     1      13.066  -9.610  -9.230  1.00  0.00     0.057 C 
HETATM   19  F1  UNL     1      13.867  -7.869  -7.967  1.00  0.00    -0.238 F 
ENDBRANCH   5  16
TORSDOF 4
ENDMDL
