MODEL 1
REMARK VINA RESULT: -4.285410257      0.000      0.000
REMARK  4 active torsions:
REMARK  status: ('A' for Active; 'I' for Inactive)
REMARK    1  A    between atoms: C2_2  and  N1_5 
REMARK    2  A    between atoms: N1_5  and  C5_7 
REMARK    3  A    between atoms: C5_7  and  N2_9 
REMARK    4  A    between atoms: N2_9  and  C6_11 
ROOT
HETATM    1  C5  UNL     1      10.674  -5.844 -11.047  1.00  0.00     0.168 C 
HETATM    2  S1  UNL     1      10.733  -6.249 -12.656  1.00  0.00    -0.041 SA
ENDROOT
BRANCH   1   3
HETATM    3  N1  UNL     1      11.788  -6.094 -10.209  1.00  0.00    -0.359 N 
ATOM      4  H1  UNL     1      12.668  -5.620 -10.412  1.00  0.00     0.162 HD
BRANCH   3   5
HETATM    5  C2  UNL     1      11.729  -6.994  -9.076  1.00  0.00     0.021 C 
HETATM    6  C1  UNL     1      13.066  -7.677  -8.920  1.00  0.00     0.037 C 
HETATM    7  C3  UNL     1      10.687  -8.066  -9.296  1.00  0.00     0.037 C 
HETATM    8  C4  UNL     1      11.417  -6.275  -7.790  1.00  0.00     0.037 C 
ENDBRANCH   3   5
ENDBRANCH   1   3
BRANCH   1   9
HETATM    9  N2  UNL     1       9.464  -5.251 -10.596  1.00  0.00    -0.363 N 
ATOM     10  H2  UNL     1       8.764  -5.832 -10.134  1.00  0.00     0.162 HD
BRANCH   9  11
HETATM   11  C6  UNL     1       9.207  -3.842 -10.778  1.00  0.00     0.083 C 
HETATM   12  C7  UNL     1       9.241  -3.048  -9.494  1.00  0.00     0.025 C 
HETATM   13  C8  UNL     1       7.866  -2.637  -9.033  1.00  0.00     0.002 C 
HETATM   14  C9  UNL     1       7.066  -1.930 -10.070  1.00  0.00     0.000 C 
HETATM   15  C10 UNL     1       7.534  -2.214 -11.465  1.00  0.00     0.002 C 
HETATM   16  C11 UNL     1       7.924  -3.676 -11.530  1.00  0.00     0.025 C 
ENDBRANCH   9  11
ENDBRANCH   1   9
TORSDOF 4
ENDMDL
MODEL 2
REMARK VINA RESULT: -4.256132769      0.727      1.510
REMARK  4 active torsions:
REMARK  status: ('A' for Active; 'I' for Inactive)
REMARK    1  A    between atoms: C2_2  and  N1_5 
REMARK    2  A    between atoms: N1_5  and  C5_7 
REMARK    3  A    between atoms: C5_7  and  N2_9 
REMARK    4  A    between atoms: N2_9  and  C6_11 
ROOT
HETATM    1  C5  UNL     1      11.513  -5.757 -11.163  1.00  0.00     0.168 C 
HETATM    2  S1  UNL     1      11.282  -6.506 -12.627  1.00  0.00    -0.041 SA
ENDROOT
BRANCH   1   3
HETATM    3  N1  UNL     1      12.290  -6.384 -10.159  1.00  0.00    -0.359 N 
ATOM      4  H1  UNL     1      13.307  -6.326 -10.221  1.00  0.00     0.162 HD
BRANCH   3   5
HETATM    5  C2  UNL     1      11.702  -7.102  -9.048  1.00  0.00     0.021 C 
HETATM    6  C1  UNL     1      12.676  -8.153  -8.570  1.00  0.00     0.037 C 
HETATM    7  C3  UNL     1      10.436  -7.808  -9.474  1.00  0.00     0.037 C 
HETATM    8  C4  UNL     1      11.383  -6.198  -7.887  1.00  0.00     0.037 C 
ENDBRANCH   3   5
ENDBRANCH   1   3
BRANCH   1   9
HETATM    9  N2  UNL     1      10.891  -4.490 -11.004  1.00  0.00    -0.363 N 
ATOM     10  H2  UNL     1      11.405  -3.646 -11.257  1.00  0.00     0.162 HD
BRANCH   9  11
HETATM   11  C6  UNL     1       9.546  -4.374 -10.491  1.00  0.00     0.083 C 
HETATM   12  C7  UNL     1       8.491  -4.304 -11.568  1.00  0.00     0.025 C 
HETATM   13  C8  UNL     1       7.919  -2.918 -11.726  1.00  0.00     0.002 C 
HETATM   14  C9  UNL     1       7.420  -2.320 -10.458  1.00  0.00     0.000 C 
HETATM   15  C10 UNL     1       8.028  -2.943  -9.239  1.00  0.00     0.002 C 
HETATM   16  C11 UNL     1       9.487  -3.218  -9.542  1.00  0.00     0.025 C 
ENDBRANCH   9  11
ENDBRANCH   1   9
TORSDOF 4
ENDMDL
MODEL 3
REMARK VINA RESULT: -4.179535383      1.882      5.813
REMARK  4 active torsions:
REMARK  status: ('A' for Active; 'I' for Inactive)
REMARK    1  A    between atoms: C2_2  and  N1_5 
REMARK    2  A    between atoms: N1_5  and  C5_7 
REMARK    3  A    between atoms: C5_7  and  N2_9 
REMARK    4  A    between atoms: N2_9  and  C6_11 
ROOT
HETATM    1  C5  UNL     1       9.856  -7.179 -10.493  1.00  0.00     0.168 C 
HETATM    2  S1  UNL     1       9.575  -8.441 -11.536  1.00  0.00    -0.041 SA
ENDROOT
BRANCH   1   3
HETATM    3  N1  UNL     1       9.133  -5.969 -10.630  1.00  0.00    -0.359 N 
ATOM      4  H1  UNL     1       8.117  -5.994 -10.542  1.00  0.00     0.162 HD
BRANCH   3   5
HETATM    5  C2  UNL     1       9.777  -4.698 -10.888  1.00  0.00     0.021 C 
HETATM    6  C1  UNL     1       8.745  -3.717 -11.390  1.00  0.00     0.037 C 
HETATM    7  C3  UNL     1      10.836  -4.839 -11.957  1.00  0.00     0.037 C 
HETATM    8  C4  UNL     1      10.413  -4.118  -9.652  1.00  0.00     0.037 C 
ENDBRANCH   3   5
ENDBRANCH   1   3
BRANCH   1   9
HETATM    9  N2  UNL     1      10.841  -7.402  -9.493  1.00  0.00    -0.363 N 
ATOM     10  H2  UNL     1      10.733  -6.963  -8.579  1.00  0.00     0.162 HD
BRANCH   9  11
HETATM   11  C6  UNL     1      11.990  -8.238  -9.747  1.00  0.00     0.083 C 
HETATM   12  C7  UNL     1      12.532  -8.916  -8.511  1.00  0.00     0.025 C 
HETATM   13  C8  UNL     1      13.823  -8.300  -8.036  1.00  0.00     0.002 C 
HETATM   14  C9  UNL     1      14.872  -8.203  -9.088  1.00  0.00     0.000 C 
HETATM   15  C10 UNL     1      14.311  -8.233 -10.477  1.00  0.00     0.002 C 
HETATM   16  C11 UNL     1      13.024  -7.435 -10.471  1.00  0.00     0.025 C 
ENDBRANCH   9  11
ENDBRANCH   1   9
TORSDOF 4
ENDMDL
MODEL 4
REMARK VINA RESULT: -4.175651672      1.375      1.805
REMARK  4 active torsions:
REMARK  status: ('A' for Active; 'I' for Inactive)
REMARK    1  A    between atoms: C2_2  and  N1_5 
REMARK    2  A    between atoms: N1_5  and  C5_7 
REMARK    3  A    between atoms: C5_7  and  N2_9 
REMARK    4  A    between atoms: N2_9  and  C6_11 
ROOT
HETATM    1  C5  UNL     1      10.000  -7.672 -10.649  1.00  0.00     0.168 C 
HETATM    2  S1  UNL     1      10.293  -8.399 -12.113  1.00  0.00    -0.041 SA
ENDROOT
BRANCH   1   3
HETATM    3  N1  UNL     1      10.686  -8.108  -9.489  1.00  0.00    -0.359 N 
ATOM      4  H1  UNL     1      10.338  -8.931  -8.996  1.00  0.00     0.162 HD
BRANCH   3   5
HETATM    5  C2  UNL     1      11.860  -7.435  -8.975  1.00  0.00     0.021 C 
HETATM    6  C1  UNL     1      12.749  -8.447  -8.293  1.00  0.00     0.037 C 
HETATM    7  C3  UNL     1      11.476  -6.395  -7.948  1.00  0.00     0.037 C 
HETATM    8  C4  UNL     1      12.658  -6.767 -10.063  1.00  0.00     0.037 C 
ENDBRANCH   3   5
ENDBRANCH   1   3
BRANCH   1   9
HETATM    9  N2  UNL     1       9.044  -6.621 -10.653  1.00  0.00    -0.363 N 
ATOM     10  H2  UNL     1       8.116  -6.788 -10.263  1.00  0.00     0.162 HD
BRANCH   9  11
HETATM   11  C6  UNL     1       9.362  -5.322 -11.197  1.00  0.00     0.083 C 
HETATM   12  C7  UNL     1       9.590  -4.263 -10.146  1.00  0.00     0.025 C 
HETATM   13  C8  UNL     1       8.443  -3.290 -10.050  1.00  0.00     0.002 C 
HETATM   14  C9  UNL     1       8.063  -2.670 -11.349  1.00  0.00     0.000 C 
HETATM   15  C10 UNL     1       8.502  -3.478 -12.532  1.00  0.00     0.002 C 
HETATM   16  C11 UNL     1       8.307  -4.941 -12.188  1.00  0.00     0.025 C 
ENDBRANCH   9  11
ENDBRANCH   1   9
TORSDOF 4
ENDMDL
MODEL 5
REMARK VINA RESULT: -4.169368585      2.037      5.985
REMARK  4 active torsions:
REMARK  status: ('A' for Active; 'I' for Inactive)
REMARK    1  A    between atoms: C2_2  and  N1_5 
REMARK    2  A    between atoms: N1_5  and  C5_7 
REMARK    3  A    between atoms: C5_7  and  N2_9 
REMARK    4  A    between atoms: N2_9  and  C6_11 
ROOT
HETATM    1  C5  UNL     1      10.124  -5.182  -9.916  1.00  0.00     0.168 C 
HETATM    2  S1  UNL     1      11.036  -3.989  -9.209  1.00  0.00    -0.041 SA
ENDROOT
BRANCH   1   3
HETATM    3  N1  UNL     1       8.927  -4.852 -10.598  1.00  0.00    -0.359 N 
ATOM      4  H1  UNL     1       8.058  -4.805 -10.065  1.00  0.00     0.162 HD
BRANCH   3   5
HETATM    5  C2  UNL     1       8.885  -4.577 -12.019  1.00  0.00     0.021 C 
HETATM    6  C1  UNL     1       8.436  -3.152 -12.232  1.00  0.00     0.037 C 
HETATM    7  C3  UNL     1       7.892  -5.481 -12.712  1.00  0.00     0.037 C 
HETATM    8  C4  UNL     1      10.231  -4.748 -12.673  1.00  0.00     0.037 C 
ENDBRANCH   3   5
ENDBRANCH   1   3
BRANCH   1   9
HETATM    9  N2  UNL     1      10.619  -6.507  -9.788  1.00  0.00    -0.363 N 
ATOM     10  H2  UNL     1       9.994  -7.294  -9.962  1.00  0.00     0.162 HD
BRANCH   9  11
HETATM   11  C6  UNL     1      11.992  -6.761  -9.417  1.00  0.00     0.083 C 
HETATM   12  C7  UNL     1      12.850  -7.246 -10.560  1.00  0.00     0.025 C 
HETATM   13  C8  UNL     1      13.168  -8.716 -10.459  1.00  0.00     0.002 C 
HETATM   14  C9  UNL     1      13.753  -9.120  -9.151  1.00  0.00     0.000 C 
HETATM   15  C10 UNL     1      13.438  -8.158  -8.047  1.00  0.00     0.002 C 
HETATM   16  C11 UNL     1      12.012  -7.686  -8.241  1.00  0.00     0.025 C 
ENDBRANCH   9  11
ENDBRANCH   1   9
TORSDOF 4
ENDMDL
