MODEL 1
REMARK VINA RESULT: -4.817988370      0.000      0.000
REMARK  3 active torsions:
REMARK  status: ('A' for Active; 'I' for Inactive)
REMARK    1  A    between atoms: C2_2  and  C3_4 
REMARK    2  A    between atoms: C3_4  and  N2_8 
REMARK    3  A    between atoms: N2_8  and  C4_10 
ROOT
HETATM    1  C4  UNL     1       9.873  -5.514 -11.410  1.00  0.00     0.091 C 
HETATM    2  C5  UNL     1       9.999  -7.003 -11.308  1.00  0.00     0.009 C 
HETATM    3  C6  UNL     1      10.144  -7.503  -9.902  1.00  0.00     0.011 C 
HETATM    4  C7  UNL     1      11.324  -6.857  -9.225  1.00  0.00    -0.013 C 
HETATM    5  C8  UNL     1      12.597  -7.198  -9.957  1.00  0.00     0.009 C 
HETATM    6  C9  UNL     1      12.464  -6.690 -11.373  1.00  0.00    -0.013 C 
HETATM    7  C10 UNL     1      11.286  -7.390 -12.028  1.00  0.00     0.011 C 
HETATM    8  C11 UNL     1      12.280  -5.182 -11.382  1.00  0.00     0.011 C 
HETATM    9  C12 UNL     1      10.987  -4.862 -10.664  1.00  0.00     0.009 C 
HETATM   10  C13 UNL     1      11.119  -5.369  -9.245  1.00  0.00     0.011 C 
ENDROOT
BRANCH   1  11
HETATM   11  N2  UNL     1       8.602  -4.995 -11.029  1.00  0.00    -0.373 N 
ATOM     12  H2  UNL     1       7.898  -5.665 -10.723  1.00  0.00     0.161 HD
BRANCH  11  13
HETATM   13  C3  UNL     1       8.235  -3.633 -11.038  1.00  0.00     0.089 C 
HETATM   14  N1  UNL     1       8.233  -3.018 -12.158  1.00  0.00    -0.388 N 
ATOM     15  H12 UNL     1       7.966  -2.033 -12.165  1.00  0.00     0.157 HD
ATOM     16  H11 UNL     1       8.493  -3.523 -13.006  1.00  0.00     0.157 HD
BRANCH  13  17
HETATM   17  C2  UNL     1       7.857  -2.901  -9.809  1.00  0.00     0.145 C 
HETATM   18  C1  UNL     1       6.890  -1.763 -10.095  1.00  0.00     0.034 C 
HETATM   19 CL1  UNL     1       9.316  -2.211  -9.017  1.00  0.00    -0.117 Cl
ENDBRANCH  13  17
ENDBRANCH  11  13
ENDBRANCH   1  11
TORSDOF 3
ENDMDL
MODEL 2
REMARK VINA RESULT: -4.650882994      1.388      1.549
REMARK  3 active torsions:
REMARK  status: ('A' for Active; 'I' for Inactive)
REMARK    1  A    between atoms: C2_2  and  C3_4 
REMARK    2  A    between atoms: C3_4  and  N2_8 
REMARK    3  A    between atoms: N2_8  and  C4_10 
ROOT
HETATM    1  C4  UNL     1      10.162  -5.364 -10.767  1.00  0.00     0.091 C 
HETATM    2  C5  UNL     1       9.721  -6.723 -11.218  1.00  0.00     0.009 C 
HETATM    3  C6  UNL     1      10.001  -7.811 -10.224  1.00  0.00     0.011 C 
HETATM    4  C7  UNL     1      11.466  -7.853  -9.878  1.00  0.00    -0.013 C 
HETATM    5  C8  UNL     1      12.284  -8.147 -11.110  1.00  0.00     0.009 C 
HETATM    6  C9  UNL     1      12.016  -7.052 -12.114  1.00  0.00    -0.013 C 
HETATM    7  C10 UNL     1      10.537  -7.066 -12.459  1.00  0.00     0.011 C 
HETATM    8  C11 UNL     1      12.436  -5.704 -11.555  1.00  0.00     0.011 C 
HETATM    9  C12 UNL     1      11.588  -5.416 -10.336  1.00  0.00     0.009 C 
HETATM   10  C13 UNL     1      11.858  -6.511  -9.327  1.00  0.00     0.011 C 
ENDROOT
BRANCH   1  11
HETATM   11  N2  UNL     1       9.329  -4.762  -9.782  1.00  0.00    -0.373 N 
ATOM     12  H2  UNL     1       9.050  -5.342  -8.990  1.00  0.00     0.161 HD
BRANCH  11  13
HETATM   13  C3  UNL     1       8.857  -3.434  -9.805  1.00  0.00     0.089 C 
HETATM   14  N1  UNL     1       9.465  -2.566  -9.090  1.00  0.00    -0.388 N 
ATOM     15  H12 UNL     1       9.123  -1.604  -9.108  1.00  0.00     0.157 HD
ATOM     16  H11 UNL     1      10.267  -2.855  -8.530  1.00  0.00     0.157 HD
BRANCH  13  17
HETATM   17  C2  UNL     1       7.694  -3.015 -10.619  1.00  0.00     0.145 C 
HETATM   18  C1  UNL     1       8.073  -2.752 -12.068  1.00  0.00     0.034 C 
HETATM   19 CL1  UNL     1       6.968  -1.514  -9.948  1.00  0.00    -0.117 Cl
ENDBRANCH  13  17
ENDBRANCH  11  13
ENDBRANCH   1  11
TORSDOF 3
ENDMDL
MODEL 3
REMARK VINA RESULT: -4.648547628      1.377      2.242
REMARK  3 active torsions:
REMARK  status: ('A' for Active; 'I' for Inactive)
REMARK    1  A    between atoms: C2_2  and  C3_4 
REMARK    2  A    between atoms: C3_4  and  N2_8 
REMARK    3  A    between atoms: N2_8  and  C4_10 
ROOT
HETATM    1  C4  UNL     1      10.673  -5.295  -9.896  1.00  0.00     0.091 C 
HETATM    2  C5  UNL     1      10.957  -5.232 -11.366  1.00  0.00     0.009 C 
HETATM    3  C6  UNL     1      10.217  -6.260 -12.169  1.00  0.00     0.011 C 
HETATM    4  C7  UNL     1      10.513  -7.647 -11.664  1.00  0.00    -0.013 C 
HETATM    5  C8  UNL     1      11.985  -7.946 -11.797  1.00  0.00     0.009 C 
HETATM    6  C9  UNL     1      12.739  -6.922 -10.984  1.00  0.00    -0.013 C 
HETATM    7  C10 UNL     1      12.438  -5.543 -11.545  1.00  0.00     0.011 C 
HETATM    8  C11 UNL     1      12.349  -7.014  -9.519  1.00  0.00     0.011 C 
HETATM    9  C12 UNL     1      10.876  -6.687  -9.403  1.00  0.00     0.009 C 
HETATM   10  C13 UNL     1      10.119  -7.714 -10.216  1.00  0.00     0.011 C 
ENDROOT
BRANCH   1  11
HETATM   11  N2  UNL     1       9.406  -4.773  -9.509  1.00  0.00    -0.373 N 
ATOM     12  H2  UNL     1       8.754  -5.417  -9.061  1.00  0.00     0.161 HD
BRANCH  11  13
HETATM   13  C3  UNL     1       8.974  -3.443  -9.694  1.00  0.00     0.089 C 
HETATM   14  N1  UNL     1       9.613  -2.514  -9.091  1.00  0.00    -0.388 N 
ATOM     15  H12 UNL     1       9.300  -1.552  -9.225  1.00  0.00     0.157 HD
ATOM     16  H11 UNL     1      10.408  -2.757  -8.501  1.00  0.00     0.157 HD
BRANCH  13  17
HETATM   17  C2  UNL     1       7.820  -3.091 -10.550  1.00  0.00     0.145 C 
HETATM   18  C1  UNL     1       8.224  -2.889 -12.002  1.00  0.00     0.034 C 
HETATM   19 CL1  UNL     1       7.047  -1.576  -9.967  1.00  0.00    -0.117 Cl
ENDBRANCH  13  17
ENDBRANCH  11  13
ENDBRANCH   1  11
TORSDOF 3
ENDMDL
MODEL 4
REMARK VINA RESULT: -4.551316062      1.470      2.617
REMARK  3 active torsions:
REMARK  status: ('A' for Active; 'I' for Inactive)
REMARK    1  A    between atoms: C2_2  and  C3_4 
REMARK    2  A    between atoms: C3_4  and  N2_8 
REMARK    3  A    between atoms: N2_8  and  C4_10 
ROOT
HETATM    1  C4  UNL     1      10.105  -5.217  -9.934  1.00  0.00     0.091 C 
HETATM    2  C5  UNL     1      11.569  -5.518  -9.828  1.00  0.00     0.009 C 
HETATM    3  C6  UNL     1      12.285  -5.507 -11.145  1.00  0.00     0.011 C 
HETATM    4  C7  UNL     1      11.647  -6.472 -12.108  1.00  0.00    -0.013 C 
HETATM    5  C8  UNL     1      11.725  -7.877 -11.566  1.00  0.00     0.009 C 
HETATM    6  C9  UNL     1      10.998  -7.901 -10.243  1.00  0.00    -0.013 C 
HETATM    7  C10 UNL     1      11.692  -6.940  -9.293  1.00  0.00     0.011 C 
HETATM    8  C11 UNL     1       9.538  -7.527 -10.432  1.00  0.00     0.011 C 
HETATM    9  C12 UNL     1       9.480  -6.107 -10.952  1.00  0.00     0.009 C 
HETATM   10  C13 UNL     1      10.206  -6.082 -12.279  1.00  0.00     0.011 C 
ENDROOT
BRANCH   1  11
HETATM   11  N2  UNL     1       9.792  -3.846 -10.161  1.00  0.00    -0.373 N 
ATOM     12  H2  UNL     1      10.541  -3.249 -10.510  1.00  0.00     0.161 HD
BRANCH  11  13
HETATM   13  C3  UNL     1       8.535  -3.244  -9.945  1.00  0.00     0.089 C 
HETATM   14  N1  UNL     1       8.198  -2.968  -8.743  1.00  0.00    -0.388 N 
ATOM     15  H12 UNL     1       7.289  -2.531  -8.588  1.00  0.00     0.157 HD
ATOM     16  H11 UNL     1       8.841  -3.188  -7.982  1.00  0.00     0.157 HD
BRANCH  13  17
HETATM   17  C2  UNL     1       7.604  -2.924 -11.050  1.00  0.00     0.145 C 
HETATM   18  C1  UNL     1       8.314  -2.838 -12.392  1.00  0.00     0.034 C 
HETATM   19 CL1  UNL     1       6.787  -1.352 -10.745  1.00  0.00    -0.117 Cl
ENDBRANCH  13  17
ENDBRANCH  11  13
ENDBRANCH   1  11
TORSDOF 3
ENDMDL
MODEL 5
REMARK VINA RESULT: -4.510772025      3.322      5.427
REMARK  3 active torsions:
REMARK  status: ('A' for Active; 'I' for Inactive)
REMARK    1  A    between atoms: C2_2  and  C3_4 
REMARK    2  A    between atoms: C3_4  and  N2_8 
REMARK    3  A    between atoms: N2_8  and  C4_10 
ROOT
HETATM    1  C4  UNL     1      11.864  -6.568 -11.087  1.00  0.00     0.091 C 
HETATM    2  C5  UNL     1      11.817  -5.118 -11.462  1.00  0.00     0.009 C 
HETATM    3  C6  UNL     1      11.892  -4.188 -10.288  1.00  0.00     0.011 C 
HETATM    4  C7  UNL     1      10.792  -4.482  -9.302  1.00  0.00    -0.013 C 
HETATM    5  C8  UNL     1       9.445  -4.283  -9.949  1.00  0.00     0.009 C 
HETATM    6  C9  UNL     1       9.356  -5.223 -11.127  1.00  0.00    -0.013 C 
HETATM    7  C10 UNL     1      10.460  -4.871 -12.110  1.00  0.00     0.011 C 
HETATM    8  C11 UNL     1       9.472  -6.666 -10.667  1.00  0.00     0.011 C 
HETATM    9  C12 UNL     1      10.838  -6.852 -10.043  1.00  0.00     0.009 C 
HETATM   10  C13 UNL     1      10.928  -5.912  -8.861  1.00  0.00     0.011 C 
ENDROOT
BRANCH   1  11
HETATM   11  N2  UNL     1      13.151  -7.047 -10.712  1.00  0.00    -0.373 N 
ATOM     12  H2  UNL     1      13.895  -6.356 -10.614  1.00  0.00     0.161 HD
BRANCH  11  13
HETATM   13  C3  UNL     1      13.487  -8.394 -10.464  1.00  0.00     0.089 C 
HETATM   14  N1  UNL     1      13.138  -9.270 -11.327  1.00  0.00    -0.388 N 
ATOM     15  H12 UNL     1      13.382 -10.245 -11.148  1.00  0.00     0.157 HD
ATOM     16  H11 UNL     1      12.633  -8.974 -12.162  1.00  0.00     0.157 HD
BRANCH  13  17
HETATM   17  C2  UNL     1      14.220  -8.824  -9.252  1.00  0.00     0.145 C 
HETATM   18  C1  UNL     1      13.541  -8.355  -7.975  1.00  0.00     0.034 C 
HETATM   19 CL1  UNL     1      15.895  -8.170  -9.269  1.00  0.00    -0.117 Cl
ENDBRANCH  13  17
ENDBRANCH  11  13
ENDBRANCH   1  11
TORSDOF 3
ENDMDL
