MODEL 1
REMARK VINA RESULT: -5.135569112      0.000      0.000
REMARK  2 active torsions:
REMARK  status: ('A' for Active; 'I' for Inactive)
REMARK    1  A    between atoms: C5_6  and  C6_7 
REMARK    2  A    between atoms: C6_7  and  O2_10 
ROOT
HETATM    1  C1  UNL     1      10.297   5.592  40.490  1.00  0.00     0.078 C 
HETATM    2  C2  UNL     1      10.732   5.024  41.814  1.00  0.00     0.157 C 
HETATM    3  C3  UNL     1      11.375   6.151  42.604  1.00  0.00     0.078 C 
HETATM    4  O1  UNL     1      11.682   4.062  41.607  1.00  0.00    -0.353 OA
HETATM    5  C4  UNL     1      11.258   2.890  42.229  1.00  0.00     0.206 C 
HETATM    6  C5  UNL     1      10.039   3.259  42.995  1.00  0.00     0.182 C 
HETATM    7  O3  UNL     1       9.658   4.461  42.472  1.00  0.00    -0.345 OA
ENDROOT
BRANCH   6   8
HETATM    8  C6  UNL     1       8.959   2.206  42.950  1.00  0.00     0.079 C 
HETATM    9  C7  UNL     1       7.642   2.799  42.496  1.00  0.00     0.048 C 
HETATM   10  C8  UNL     1       8.729   1.549  44.279  1.00  0.00     0.048 C 
BRANCH   8  11
HETATM   11  O2  UNL     1       9.314   1.210  42.043  1.00  0.00    -0.388 OA
ATOM     12  H2  UNL     1      10.260   1.175  41.962  1.00  0.00     0.210 HD
ENDBRANCH   8  11
ENDBRANCH   6   8
TORSDOF 2
ENDMDL
MODEL 2
REMARK VINA RESULT: -5.124771237      1.956      4.432
REMARK  2 active torsions:
REMARK  status: ('A' for Active; 'I' for Inactive)
REMARK    1  A    between atoms: C5_6  and  C6_7 
REMARK    2  A    between atoms: C6_7  and  O2_10 
ROOT
HETATM    1  C1  UNL     1       9.442   3.652  42.777  1.00  0.00     0.078 C 
HETATM    2  C2  UNL     1      10.593   4.278  42.037  1.00  0.00     0.157 C 
HETATM    3  C3  UNL     1      11.670   3.217  41.888  1.00  0.00     0.078 C 
HETATM    4  O1  UNL     1      11.113   5.300  42.784  1.00  0.00    -0.353 OA
HETATM    5  C4  UNL     1      11.117   6.453  42.003  1.00  0.00     0.206 C 
HETATM    6  C5  UNL     1      10.717   6.016  40.638  1.00  0.00     0.182 C 
HETATM    7  O3  UNL     1      10.170   4.778  40.824  1.00  0.00    -0.345 OA
ENDROOT
BRANCH   6   8
HETATM    8  C6  UNL     1       9.798   6.990  39.941  1.00  0.00     0.079 C 
HETATM    9  C7  UNL     1      10.572   8.176  39.405  1.00  0.00     0.048 C 
HETATM   10  C8  UNL     1       8.719   7.518  40.839  1.00  0.00     0.048 C 
BRANCH   8  11
HETATM   11  O2  UNL     1       9.180   6.360  38.864  1.00  0.00    -0.388 OA
ATOM     12  H2  UNL     1       9.838   6.077  38.239  1.00  0.00     0.210 HD
ENDBRANCH   8  11
ENDBRANCH   6   8
TORSDOF 2
ENDMDL
MODEL 3
REMARK VINA RESULT: -5.119414340     11.769     14.064
REMARK  2 active torsions:
REMARK  status: ('A' for Active; 'I' for Inactive)
REMARK    1  A    between atoms: C5_6  and  C6_7 
REMARK    2  A    between atoms: C6_7  and  O2_10 
ROOT
HETATM    1  C1  UNL     1      12.157  10.037  33.562  1.00  0.00     0.078 C 
HETATM    2  C2  UNL     1      12.985  10.795  32.560  1.00  0.00     0.157 C 
HETATM    3  C3  UNL     1      13.247   9.864  31.388  1.00  0.00     0.078 C 
HETATM    4  O1  UNL     1      14.193  11.117  33.117  1.00  0.00    -0.353 OA
HETATM    5  C4  UNL     1      14.371  12.494  33.004  1.00  0.00     0.206 C 
HETATM    6  C5  UNL     1      13.244  12.979  32.164  1.00  0.00     0.182 C 
HETATM    7  O3  UNL     1      12.341  11.954  32.181  1.00  0.00    -0.345 OA
ENDROOT
BRANCH   6   8
HETATM    8  C6  UNL     1      12.676  14.299  32.624  1.00  0.00     0.079 C 
HETATM    9  C7  UNL     1      13.358  15.456  31.925  1.00  0.00     0.048 C 
HETATM   10  C8  UNL     1      12.820  14.511  34.102  1.00  0.00     0.048 C 
BRANCH   8  11
HETATM   11  O2  UNL     1      11.318  14.356  32.320  1.00  0.00    -0.388 OA
ATOM     12  H2  UNL     1      10.971  15.206  32.565  1.00  0.00     0.210 HD
ENDBRANCH   8  11
ENDBRANCH   6   8
TORSDOF 2
ENDMDL
MODEL 4
REMARK VINA RESULT: -4.937877524      1.359      1.606
REMARK  2 active torsions:
REMARK  status: ('A' for Active; 'I' for Inactive)
REMARK    1  A    between atoms: C5_6  and  C6_7 
REMARK    2  A    between atoms: C6_7  and  O2_10 
ROOT
HETATM    1  C1  UNL     1      11.704   5.801  42.957  1.00  0.00     0.078 C 
HETATM    2  C2  UNL     1      11.890   4.375  43.399  1.00  0.00     0.157 C 
HETATM    3  C3  UNL     1      12.984   4.364  44.455  1.00  0.00     0.078 C 
HETATM    4  O1  UNL     1      12.322   3.622  42.342  1.00  0.00    -0.353 OA
HETATM    5  C4  UNL     1      11.450   2.546  42.188  1.00  0.00     0.206 C 
HETATM    6  C5  UNL     1      10.536   2.597  43.360  1.00  0.00     0.182 C 
HETATM    7  O3  UNL     1      10.700   3.856  43.865  1.00  0.00    -0.345 OA
ENDROOT
BRANCH   6   8
HETATM    8  C6  UNL     1       9.106   2.258  43.022  1.00  0.00     0.079 C 
HETATM    9  C7  UNL     1       8.374   3.470  42.485  1.00  0.00     0.048 C 
HETATM   10  C8  UNL     1       8.334   1.744  44.201  1.00  0.00     0.048 C 
BRANCH   8  11
HETATM   11  O2  UNL     1       9.079   1.272  42.038  1.00  0.00    -0.388 OA
ATOM     12  H2  UNL     1       8.728   1.634  41.233  1.00  0.00     0.210 HD
ENDBRANCH   8  11
ENDBRANCH   6   8
TORSDOF 2
ENDMDL
MODEL 5
REMARK VINA RESULT: -4.823310471      5.136      6.025
REMARK  2 active torsions:
REMARK  status: ('A' for Active; 'I' for Inactive)
REMARK    1  A    between atoms: C5_6  and  C6_7 
REMARK    2  A    between atoms: C6_7  and  O2_10 
ROOT
HETATM    1  C1  UNL     1      15.864   2.579  47.210  1.00  0.00     0.078 C 
HETATM    2  C2  UNL     1      14.543   1.878  47.375  1.00  0.00     0.157 C 
HETATM    3  C3  UNL     1      14.396   1.524  48.846  1.00  0.00     0.078 C 
HETATM    4  O1  UNL     1      14.554   0.710  46.663  1.00  0.00    -0.353 OA
HETATM    5  C4  UNL     1      13.457   0.713  45.804  1.00  0.00     0.206 C 
HETATM    6  C5  UNL     1      12.659   1.912  46.174  1.00  0.00     0.182 C 
HETATM    7  O3  UNL     1      13.514   2.674  46.917  1.00  0.00    -0.345 OA
ENDROOT
BRANCH   6   8
HETATM    8  C6  UNL     1      12.075   2.634  44.985  1.00  0.00     0.079 C 
HETATM    9  C7  UNL     1      12.810   3.932  44.725  1.00  0.00     0.048 C 
HETATM   10  C8  UNL     1      10.621   2.961  45.159  1.00  0.00     0.048 C 
BRANCH   8  11
HETATM   11  O2  UNL     1      12.195   1.839  43.848  1.00  0.00    -0.388 OA
ATOM     12  H2  UNL     1      11.515   1.176  43.848  1.00  0.00     0.210 HD
ENDBRANCH   8  11
ENDBRANCH   6   8
TORSDOF 2
ENDMDL
