MODEL 1
REMARK VINA RESULT: -5.725049921      0.000      0.000
REMARK  2 active torsions:
REMARK  status: ('A' for Active; 'I' for Inactive)
REMARK    1  A    between atoms: C2_2  and  C4_5 
REMARK    2  A    between atoms: N2_7  and  O1_8 
ROOT
HETATM    1  C1  UNL     1      11.319   6.975  41.241  1.00  0.00     0.026 C 
HETATM    2  C2  UNL     1      10.617   5.631  40.954  1.00  0.00     0.096 C 
HETATM    3  C3  UNL     1       9.392   5.963  40.281  1.00  0.00     0.064 C 
HETATM    4  N1  UNL     1       8.419   6.248  39.722  1.00  0.00    -0.197 NA
ENDROOT
BRANCH   2   5
HETATM    5  C4  UNL     1      10.470   4.936  42.226  1.00  0.00     0.042 C 
HETATM    6  C5  UNL     1       9.453   3.840  42.364  1.00  0.00     0.129 C 
HETATM    7  N2  UNL     1      10.277   3.383  43.502  1.00  0.00    -0.190 NA
HETATM    8  C6  UNL     1      11.413   3.919  42.721  1.00  0.00     0.037 C 
HETATM    9  C7  UNL     1      11.923   2.834  41.863  1.00  0.00     0.034 C 
HETATM   10  C8  UNL     1      12.475   4.551  43.589  1.00  0.00     0.034 C 
BRANCH   7  11
HETATM   11  O1  UNL     1      10.014   4.175  44.586  1.00  0.00    -0.312 OA
ATOM     12  H1  UNL     1       9.827   3.621  45.334  1.00  0.00     0.237 HD
ENDBRANCH   7  11
ENDBRANCH   2   5
TORSDOF 2
ENDMDL
MODEL 2
REMARK VINA RESULT: -5.286779652      2.148      3.004
REMARK  2 active torsions:
REMARK  status: ('A' for Active; 'I' for Inactive)
REMARK    1  A    between atoms: C2_2  and  C4_5 
REMARK    2  A    between atoms: N2_7  and  O1_8 
ROOT
HETATM    1  C1  UNL     1      10.352   5.594  40.306  1.00  0.00     0.026 C 
HETATM    2  C2  UNL     1      10.223   5.345  41.824  1.00  0.00     0.096 C 
HETATM    3  C3  UNL     1      11.266   6.117  42.438  1.00  0.00     0.064 C 
HETATM    4  N1  UNL     1      12.100   6.761  42.919  1.00  0.00    -0.197 NA
ENDROOT
BRANCH   2   5
HETATM    5  C4  UNL     1      10.292   3.906  42.037  1.00  0.00     0.042 C 
HETATM    6  C5  UNL     1      11.519   3.301  42.656  1.00  0.00     0.129 C 
HETATM    7  N2  UNL     1      10.639   2.169  43.006  1.00  0.00    -0.190 NA
HETATM    8  C6  UNL     1       9.582   3.198  43.115  1.00  0.00     0.037 C 
HETATM    9  C7  UNL     1       9.571   3.689  44.505  1.00  0.00     0.034 C 
HETATM   10  C8  UNL     1       8.235   2.709  42.638  1.00  0.00     0.034 C 
BRANCH   7  11
HETATM   11  O1  UNL     1      10.451   1.393  41.896  1.00  0.00    -0.312 OA
ATOM     12  H1  UNL     1      10.092   0.555  42.162  1.00  0.00     0.237 HD
ENDBRANCH   7  11
ENDBRANCH   2   5
TORSDOF 2
ENDMDL
MODEL 3
REMARK VINA RESULT: -5.102885435      2.584      4.528
REMARK  2 active torsions:
REMARK  status: ('A' for Active; 'I' for Inactive)
REMARK    1  A    between atoms: C2_2  and  C4_5 
REMARK    2  A    between atoms: N2_7  and  O1_8 
ROOT
HETATM    1  C1  UNL     1      13.267   4.706  44.101  1.00  0.00     0.026 C 
HETATM    2  C2  UNL     1      12.175   3.748  44.623  1.00  0.00     0.096 C 
HETATM    3  C3  UNL     1      12.803   2.959  45.646  1.00  0.00     0.064 C 
HETATM    4  N1  UNL     1      13.319   2.345  46.481  1.00  0.00    -0.197 NA
ENDROOT
BRANCH   2   5
HETATM    5  C4  UNL     1      11.662   3.008  43.479  1.00  0.00     0.042 C 
HETATM    6  C5  UNL     1      10.867   1.753  43.698  1.00  0.00     0.129 C 
HETATM    7  N2  UNL     1      10.333   1.998  42.344  1.00  0.00    -0.190 NA
HETATM    8  C6  UNL     1      10.497   3.427  42.682  1.00  0.00     0.037 C 
HETATM    9  C7  UNL     1       9.243   3.892  43.305  1.00  0.00     0.034 C 
HETATM   10  C8  UNL     1      10.929   4.265  41.502  1.00  0.00     0.034 C 
BRANCH   7  11
HETATM   11  O1  UNL     1      11.264   1.605  41.422  1.00  0.00    -0.312 OA
ATOM     12  H1  UNL     1      11.504   2.354  40.888  1.00  0.00     0.237 HD
ENDBRANCH   7  11
ENDBRANCH   2   5
TORSDOF 2
ENDMDL
MODEL 4
REMARK VINA RESULT: -5.066336276      1.320      1.764
REMARK  2 active torsions:
REMARK  status: ('A' for Active; 'I' for Inactive)
REMARK    1  A    between atoms: C2_2  and  C4_5 
REMARK    2  A    between atoms: N2_7  and  O1_8 
ROOT
HETATM    1  C1  UNL     1      11.147   7.321  40.238  1.00  0.00     0.026 C 
HETATM    2  C2  UNL     1      10.670   5.863  40.408  1.00  0.00     0.096 C 
HETATM    3  C3  UNL     1       9.235   5.912  40.368  1.00  0.00     0.064 C 
HETATM    4  N1  UNL     1       8.080   5.967  40.314  1.00  0.00    -0.197 NA
ENDROOT
BRANCH   2   5
HETATM    5  C4  UNL     1      11.251   5.356  41.644  1.00  0.00     0.042 C 
HETATM    6  C5  UNL     1      10.808   5.921  42.963  1.00  0.00     0.129 C 
HETATM    7  N2  UNL     1      11.313   4.658  43.537  1.00  0.00    -0.190 NA
HETATM    8  C6  UNL     1      10.897   4.061  42.249  1.00  0.00     0.037 C 
HETATM    9  C7  UNL     1       9.499   3.614  42.389  1.00  0.00     0.034 C 
HETATM   10  C8  UNL     1      11.833   2.975  41.775  1.00  0.00     0.034 C 
BRANCH   7  11
HETATM   11  O1  UNL     1      12.677   4.723  43.625  1.00  0.00    -0.312 OA
ATOM     12  H1  UNL     1      12.923   4.800  44.539  1.00  0.00     0.237 HD
ENDBRANCH   7  11
ENDBRANCH   2   5
TORSDOF 2
ENDMDL
MODEL 5
REMARK VINA RESULT: -5.016040164      3.478      5.090
REMARK  2 active torsions:
REMARK  status: ('A' for Active; 'I' for Inactive)
REMARK    1  A    between atoms: C2_2  and  C4_5 
REMARK    2  A    between atoms: N2_7  and  O1_8 
ROOT
HETATM    1  C1  UNL     1       8.581   0.633  46.132  1.00  0.00     0.026 C 
HETATM    2  C2  UNL     1       8.047   1.671  45.122  1.00  0.00     0.096 C 
HETATM    3  C3  UNL     1       6.671   1.328  44.897  1.00  0.00     0.064 C 
HETATM    4  N1  UNL     1       5.557   1.050  44.743  1.00  0.00    -0.197 NA
ENDROOT
BRANCH   2   5
HETATM    5  C4  UNL     1       8.910   1.622  43.950  1.00  0.00     0.042 C 
HETATM    6  C5  UNL     1       8.393   2.096  42.622  1.00  0.00     0.129 C 
HETATM    7  N2  UNL     1       9.815   2.258  42.261  1.00  0.00    -0.190 NA
HETATM    8  C6  UNL     1      10.005   2.573  43.694  1.00  0.00     0.037 C 
HETATM    9  C7  UNL     1       9.840   4.028  43.863  1.00  0.00     0.034 C 
HETATM   10  C8  UNL     1      11.310   2.047  44.243  1.00  0.00     0.034 C 
BRANCH   7  11
HETATM   11  O1  UNL     1      10.339   1.032  41.958  1.00  0.00    -0.312 OA
ATOM     12  H1  UNL     1      10.850   0.723  42.697  1.00  0.00     0.237 HD
ENDBRANCH   7  11
ENDBRANCH   2   5
TORSDOF 2
ENDMDL
