MODEL 1
REMARK VINA RESULT: -5.654620810      0.000      0.000
REMARK  2 active torsions:
REMARK  status: ('A' for Active; 'I' for Inactive)
REMARK    1  A    between atoms: N1_2  and  O1_3 
REMARK    2  A    between atoms: N1_2  and  C2_5 
ROOT
HETATM    1  C2  UNL     1       9.985   6.244  39.905  1.00  0.00     0.108 C 
HETATM    2  C3  UNL     1      10.909   7.315  40.282  1.00  0.00     0.030 C 
HETATM    3  C4  UNL     1      11.907   7.002  41.358  1.00  0.00     0.036 C 
HETATM    4  C5  UNL     1      11.310   6.665  42.685  1.00  0.00     0.151 A 
HETATM    5  O2  UNL     1      12.190   5.679  43.377  1.00  0.00    -0.375 OA
HETATM    6  C6  UNL     1      10.957   5.316  42.907  1.00  0.00     0.151 A 
HETATM    7  C7  UNL     1      10.807   4.557  41.603  1.00  0.00     0.036 C 
HETATM    8  C8  UNL     1       9.685   5.166  40.868  1.00  0.00     0.030 C 
ENDROOT
BRANCH   1   9
HETATM    9  N1  UNL     1       8.742   6.834  39.519  1.00  0.00    -0.296 N 
HETATM   10  C1  UNL     1       8.788   8.009  38.758  1.00  0.00     0.178 C 
BRANCH   9  11
HETATM   11  O1  UNL     1       7.729   6.646  40.338  1.00  0.00    -0.292 OA
ATOM     12  H1  UNL     1       7.907   6.455  41.252  1.00  0.00     0.244 HD
ENDBRANCH   9  11
ENDBRANCH   1   9
TORSDOF 2
ENDMDL
MODEL 2
REMARK VINA RESULT: -5.016480997      1.252      2.216
REMARK  2 active torsions:
REMARK  status: ('A' for Active; 'I' for Inactive)
REMARK    1  A    between atoms: N1_2  and  O1_3 
REMARK    2  A    between atoms: N1_2  and  C2_5 
ROOT
HETATM    1  C2  UNL     1       9.773   6.412  41.130  1.00  0.00     0.108 C 
HETATM    2  C3  UNL     1       9.197   5.072  41.261  1.00  0.00     0.030 C 
HETATM    3  C4  UNL     1       9.755   4.199  42.346  1.00  0.00     0.036 C 
HETATM    4  C5  UNL     1      11.205   3.869  42.200  1.00  0.00     0.151 A 
HETATM    5  O2  UNL     1      11.810   3.729  43.556  1.00  0.00    -0.375 OA
HETATM    6  C6  UNL     1      12.130   4.786  42.747  1.00  0.00     0.151 A 
HETATM    7  C7  UNL     1      11.506   6.151  42.955  1.00  0.00     0.036 C 
HETATM    8  C8  UNL     1      11.138   6.672  41.627  1.00  0.00     0.030 C 
ENDROOT
BRANCH   1   9
HETATM    9  N1  UNL     1       9.739   6.785  39.750  1.00  0.00    -0.296 N 
HETATM   10  C1  UNL     1      10.317   8.011  39.394  1.00  0.00     0.178 C 
BRANCH   9  11
HETATM   11  O1  UNL     1       8.719   6.335  39.051  1.00  0.00    -0.292 OA
ATOM     12  H1  UNL     1       8.840   6.156  38.125  1.00  0.00     0.244 HD
ENDBRANCH   9  11
ENDBRANCH   1   9
TORSDOF 2
ENDMDL
MODEL 3
REMARK VINA RESULT: -4.998387346      2.594      4.330
REMARK  2 active torsions:
REMARK  status: ('A' for Active; 'I' for Inactive)
REMARK    1  A    between atoms: N1_2  and  O1_3 
REMARK    2  A    between atoms: N1_2  and  C2_5 
ROOT
HETATM    1  C2  UNL     1      11.331   3.996  43.011  1.00  0.00     0.108 C 
HETATM    2  C3  UNL     1      12.056   5.246  43.252  1.00  0.00     0.030 C 
HETATM    3  C4  UNL     1      11.442   6.501  42.705  1.00  0.00     0.036 C 
HETATM    4  C5  UNL     1      11.309   6.535  41.217  1.00  0.00     0.151 A 
HETATM    5  O2  UNL     1      10.094   7.322  40.856  1.00  0.00    -0.375 OA
HETATM    6  C6  UNL     1      10.139   5.968  40.664  1.00  0.00     0.151 A 
HETATM    7  C7  UNL     1       9.469   5.015  41.633  1.00  0.00     0.036 C 
HETATM    8  C8  UNL     1      10.402   3.899  41.868  1.00  0.00     0.030 C 
ENDROOT
BRANCH   1   9
HETATM    9  N1  UNL     1      12.284   2.939  42.882  1.00  0.00    -0.296 N 
HETATM   10  C1  UNL     1      12.634   2.534  41.587  1.00  0.00     0.178 C 
BRANCH   9  11
HETATM   11  O1  UNL     1      12.303   2.051  43.853  1.00  0.00    -0.292 OA
ATOM     12  H1  UNL     1      11.518   1.921  44.372  1.00  0.00     0.244 HD
ENDBRANCH   9  11
ENDBRANCH   1   9
TORSDOF 2
ENDMDL
MODEL 4
REMARK VINA RESULT: -4.991589192      3.961      5.909
REMARK  2 active torsions:
REMARK  status: ('A' for Active; 'I' for Inactive)
REMARK    1  A    between atoms: N1_2  and  O1_3 
REMARK    2  A    between atoms: N1_2  and  C2_5 
ROOT
HETATM    1  C2  UNL     1      11.773   3.373  45.119  1.00  0.00     0.108 C 
HETATM    2  C3  UNL     1      12.581   4.125  44.157  1.00  0.00     0.030 C 
HETATM    3  C4  UNL     1      11.847   4.787  43.028  1.00  0.00     0.036 C 
HETATM    4  C5  UNL     1      11.125   3.849  42.117  1.00  0.00     0.151 A 
HETATM    5  O2  UNL     1       9.899   4.522  41.598  1.00  0.00    -0.375 OA
HETATM    6  C6  UNL     1       9.810   3.482  42.483  1.00  0.00     0.151 A 
HETATM    7  C7  UNL     1       9.554   3.725  43.957  1.00  0.00     0.036 C 
HETATM    8  C8  UNL     1      10.458   2.841  44.712  1.00  0.00     0.030 C 
ENDROOT
BRANCH   1   9
HETATM    9  N1  UNL     1      12.551   2.274  45.601  1.00  0.00    -0.296 N 
HETATM   10  C1  UNL     1      13.598   2.558  46.488  1.00  0.00     0.178 C 
BRANCH   9  11
HETATM   11  O1  UNL     1      12.665   1.243  44.792  1.00  0.00    -0.292 OA
ATOM     12  H1  UNL     1      11.883   0.895  44.379  1.00  0.00     0.244 HD
ENDBRANCH   9  11
ENDBRANCH   1   9
TORSDOF 2
ENDMDL
MODEL 5
REMARK VINA RESULT: -4.983966301      2.035      2.990
REMARK  2 active torsions:
REMARK  status: ('A' for Active; 'I' for Inactive)
REMARK    1  A    between atoms: N1_2  and  O1_3 
REMARK    2  A    between atoms: N1_2  and  C2_5 
ROOT
HETATM    1  C2  UNL     1      10.551   6.141  42.055  1.00  0.00     0.108 C 
HETATM    2  C3  UNL     1       9.851   4.916  41.664  1.00  0.00     0.030 C 
HETATM    3  C4  UNL     1      10.251   3.653  42.370  1.00  0.00     0.036 C 
HETATM    4  C5  UNL     1      11.673   3.245  42.162  1.00  0.00     0.151 A 
HETATM    5  O2  UNL     1      12.166   2.558  43.391  1.00  0.00    -0.375 OA
HETATM    6  C6  UNL     1      12.634   3.794  43.039  1.00  0.00     0.151 A 
HETATM    7  C7  UNL     1      12.120   5.050  43.713  1.00  0.00     0.036 C 
HETATM    8  C8  UNL     1      11.895   6.054  42.659  1.00  0.00     0.030 C 
ENDROOT
BRANCH   1   9
HETATM    9  N1  UNL     1      10.649   6.991  40.909  1.00  0.00    -0.296 N 
HETATM   10  C1  UNL     1       9.874   6.663  39.789  1.00  0.00     0.178 C 
BRANCH   9  11
HETATM   11  O1  UNL     1      11.804   7.594  40.730  1.00  0.00    -0.292 OA
ATOM     12  H1  UNL     1      11.821   8.427  40.273  1.00  0.00     0.244 HD
ENDBRANCH   9  11
ENDBRANCH   1   9
TORSDOF 2
ENDMDL
