MODEL 1
REMARK VINA RESULT: -5.327963108      0.000      0.000
REMARK  2 active torsions:
REMARK  status: ('A' for Active; 'I' for Inactive)
REMARK    1  A    between atoms: C2_2  and  C4_4 
REMARK    2  A    between atoms: C7_8  and  O1_9 
ROOT
HETATM    1  C4  UNL     1      11.210   3.983  42.491  1.00  0.00     0.137 C 
HETATM    2  C5  UNL     1      11.170   3.875  43.978  1.00  0.00     0.106 C 
HETATM    3  S1  UNL     1       9.581   3.219  44.587  1.00  0.00    -0.162 SA
HETATM    4  C6  UNL     1       9.067   2.066  43.274  1.00  0.00     0.134 C 
HETATM    5  C7  UNL     1      10.368   1.824  42.493  1.00  0.00     0.266 C 
HETATM    6  O2  UNL     1      10.637   2.969  41.800  1.00  0.00    -0.354 OA
ENDROOT
BRANCH   1   7
HETATM    7  C2  UNL     1      10.655   5.348  42.078  1.00  0.00     0.007 C 
HETATM    8  C1  UNL     1      11.528   6.464  42.609  1.00  0.00     0.012 C 
HETATM    9  C3  UNL     1      10.606   5.482  40.574  1.00  0.00     0.012 C 
ENDBRANCH   1   7
BRANCH   5  10
HETATM   10  O1  UNL     1      10.214   0.732  41.636  1.00  0.00    -0.370 OA
ATOM     11  H1  UNL     1      10.930   0.707  41.011  1.00  0.00     0.212 HD
ENDBRANCH   5  10
TORSDOF 2
ENDMDL
MODEL 2
REMARK VINA RESULT: -4.737064468      1.839      3.708
REMARK  2 active torsions:
REMARK  status: ('A' for Active; 'I' for Inactive)
REMARK    1  A    between atoms: C2_2  and  C4_4 
REMARK    2  A    between atoms: C7_8  and  O1_9 
ROOT
HETATM    1  C4  UNL     1       9.080   3.312  43.333  1.00  0.00     0.137 C 
HETATM    2  C5  UNL     1      10.144   3.383  44.376  1.00  0.00     0.106 C 
HETATM    3  S1  UNL     1      11.739   2.721  43.791  1.00  0.00    -0.162 SA
HETATM    4  C6  UNL     1      11.748   3.143  42.019  1.00  0.00     0.134 C 
HETATM    5  C7  UNL     1      10.664   4.227  41.912  1.00  0.00     0.266 C 
HETATM    6  O2  UNL     1       9.460   3.604  42.067  1.00  0.00    -0.354 OA
ENDROOT
BRANCH   1   7
HETATM    7  C2  UNL     1       8.383   1.951  43.427  1.00  0.00     0.007 C 
HETATM    8  C1  UNL     1       8.108   1.590  44.871  1.00  0.00     0.012 C 
HETATM    9  C3  UNL     1       7.060   1.967  42.699  1.00  0.00     0.012 C 
ENDBRANCH   1   7
BRANCH   5  10
HETATM   10  O1  UNL     1      10.752   4.870  40.675  1.00  0.00    -0.370 OA
ATOM     11  H1  UNL     1      11.574   4.650  40.253  1.00  0.00     0.212 HD
ENDBRANCH   5  10
TORSDOF 2
ENDMDL
MODEL 3
REMARK VINA RESULT: -4.658790300      4.878      5.820
REMARK  2 active torsions:
REMARK  status: ('A' for Active; 'I' for Inactive)
REMARK    1  A    between atoms: C2_2  and  C4_4 
REMARK    2  A    between atoms: C7_8  and  O1_9 
ROOT
HETATM    1  C4  UNL     1      13.534   3.718  46.543  1.00  0.00     0.137 C 
HETATM    2  C5  UNL     1      12.820   3.810  47.850  1.00  0.00     0.106 C 
HETATM    3  S1  UNL     1      12.615   2.183  48.649  1.00  0.00    -0.162 SA
HETATM    4  C6  UNL     1      14.109   1.272  48.145  1.00  0.00     0.134 C 
HETATM    5  C7  UNL     1      15.056   2.387  47.675  1.00  0.00     0.266 C 
HETATM    6  O2  UNL     1      14.571   2.848  46.485  1.00  0.00    -0.354 OA
ENDROOT
BRANCH   1   7
HETATM    7  C2  UNL     1      12.508   3.466  45.435  1.00  0.00     0.007 C 
HETATM    8  C1  UNL     1      12.799   4.335  44.230  1.00  0.00     0.012 C 
HETATM    9  C3  UNL     1      12.541   2.026  44.980  1.00  0.00     0.012 C 
ENDBRANCH   1   7
BRANCH   5  10
HETATM   10  O1  UNL     1      16.353   1.885  47.537  1.00  0.00    -0.370 OA
ATOM     11  H1  UNL     1      16.453   1.097  48.057  1.00  0.00     0.212 HD
ENDBRANCH   5  10
TORSDOF 2
ENDMDL
MODEL 4
REMARK VINA RESULT: -4.561424290      2.511      3.754
REMARK  2 active torsions:
REMARK  status: ('A' for Active; 'I' for Inactive)
REMARK    1  A    between atoms: C2_2  and  C4_4 
REMARK    2  A    between atoms: C7_8  and  O1_9 
ROOT
HETATM    1  C4  UNL     1      10.648   4.991  42.627  1.00  0.00     0.137 C 
HETATM    2  C5  UNL     1      11.076   6.419  42.572  1.00  0.00     0.106 C 
HETATM    3  S1  UNL     1      11.316   7.010  40.864  1.00  0.00    -0.162 SA
HETATM    4  C6  UNL     1      10.069   6.081  39.915  1.00  0.00     0.134 C 
HETATM    5  C7  UNL     1       9.105   5.579  41.001  1.00  0.00     0.266 C 
HETATM    6  O2  UNL     1       9.755   4.595  41.689  1.00  0.00    -0.354 OA
ENDROOT
BRANCH   1   7
HETATM    7  C2  UNL     1      11.893   4.101  42.649  1.00  0.00     0.007 C 
HETATM    8  C1  UNL     1      12.812   4.496  43.785  1.00  0.00     0.012 C 
HETATM    9  C3  UNL     1      11.521   2.650  42.845  1.00  0.00     0.012 C 
ENDBRANCH   1   7
BRANCH   5  10
HETATM   10  O1  UNL     1       7.931   5.102  40.414  1.00  0.00    -0.370 OA
ATOM     11  H1  UNL     1       7.397   4.665  41.067  1.00  0.00     0.212 HD
ENDBRANCH   5  10
TORSDOF 2
ENDMDL
MODEL 5
REMARK VINA RESULT: -4.531939232      2.090      2.666
REMARK  2 active torsions:
REMARK  status: ('A' for Active; 'I' for Inactive)
REMARK    1  A    between atoms: C2_2  and  C4_4 
REMARK    2  A    between atoms: C7_8  and  O1_9 
ROOT
HETATM    1  C4  UNL     1      11.866   2.564  44.676  1.00  0.00     0.137 C 
HETATM    2  C5  UNL     1      10.719   2.272  45.584  1.00  0.00     0.106 C 
HETATM    3  S1  UNL     1       9.136   2.898  44.931  1.00  0.00    -0.162 SA
HETATM    4  C6  UNL     1       9.326   2.732  43.127  1.00  0.00     0.134 C 
HETATM    5  C7  UNL     1      10.502   1.752  42.989  1.00  0.00     0.266 C 
HETATM    6  O2  UNL     1      11.631   2.429  43.349  1.00  0.00    -0.354 OA
ENDROOT
BRANCH   1   7
HETATM    7  C2  UNL     1      12.435   3.942  45.023  1.00  0.00     0.007 C 
HETATM    8  C1  UNL     1      13.579   3.816  46.005  1.00  0.00     0.012 C 
HETATM    9  C3  UNL     1      12.964   4.637  43.790  1.00  0.00     0.012 C 
ENDBRANCH   1   7
BRANCH   5  10
HETATM   10  O1  UNL     1      10.583   1.287  41.674  1.00  0.00    -0.370 OA
ATOM     11  H1  UNL     1      10.259   0.395  41.625  1.00  0.00     0.212 HD
ENDBRANCH   5  10
TORSDOF 2
ENDMDL
