MODEL 1
REMARK VINA RESULT: -5.513946276      0.000      0.000
REMARK  2 active torsions:
REMARK  status: ('A' for Active; 'I' for Inactive)
REMARK    1  A    between atoms: C2_2  and  C3_3 
REMARK    2  A    between atoms: C3_3  and  O1_4 
ROOT
HETATM    1  C3  UNL     1      11.575   3.908  43.510  1.00  0.00     0.084 C 
HETATM    2  C4  UNL     1      12.074   2.863  42.570  1.00  0.00     0.247 C 
HETATM    3  O2  UNL     1      11.093   2.700  41.572  1.00  0.00    -0.237 OA
HETATM    4  O3  UNL     1      10.138   1.977  42.105  1.00  0.00    -0.230 OA
HETATM    5  C5  UNL     1       9.452   2.669  43.079  1.00  0.00     0.092 C 
HETATM    6  C6  UNL     1       9.366   1.839  44.364  1.00  0.00     0.049 C 
HETATM    7  C7  UNL     1       8.023   2.856  42.614  1.00  0.00     0.049 C 
HETATM    8  C8  UNL     1      10.076   4.013  43.344  1.00  0.00     0.080 C 
ENDROOT
BRANCH   1   9
HETATM    9  C2  UNL     1      12.264   5.222  43.409  1.00  0.00     0.035 C 
HETATM   10  C1  UNL     1      11.512   6.301  42.712  1.00  0.00     0.008 C 
ENDBRANCH   1   9
BRANCH   1  11
HETATM   11  O1  UNL     1      11.789   3.431  44.819  1.00  0.00    -0.387 OA
ATOM     12  H1  UNL     1      10.938   3.378  45.238  1.00  0.00     0.210 HD
ENDBRANCH   1  11
TORSDOF 2
ENDMDL
MODEL 2
REMARK VINA RESULT: -5.311510018      1.772      1.929
REMARK  2 active torsions:
REMARK  status: ('A' for Active; 'I' for Inactive)
REMARK    1  A    between atoms: C2_2  and  C3_3 
REMARK    2  A    between atoms: C3_3  and  O1_4 
ROOT
HETATM    1  C3  UNL     1      10.592   4.591  41.916  1.00  0.00     0.084 C 
HETATM    2  C4  UNL     1      11.556   3.452  41.952  1.00  0.00     0.247 C 
HETATM    3  O2  UNL     1      10.807   2.269  41.791  1.00  0.00    -0.237 OA
HETATM    4  O3  UNL     1      10.244   2.026  42.950  1.00  0.00    -0.230 OA
HETATM    5  C5  UNL     1       9.269   2.950  43.252  1.00  0.00     0.092 C 
HETATM    6  C6  UNL     1       9.488   3.518  44.659  1.00  0.00     0.049 C 
HETATM    7  C7  UNL     1       7.935   2.236  43.301  1.00  0.00     0.049 C 
HETATM    8  C8  UNL     1       9.215   4.051  42.227  1.00  0.00     0.080 C 
ENDROOT
BRANCH   1   9
HETATM    9  C2  UNL     1      10.631   5.404  40.672  1.00  0.00     0.035 C 
HETATM   10  C1  UNL     1       9.355   6.066  40.286  1.00  0.00     0.008 C 
ENDBRANCH   1   9
BRANCH   1  11
HETATM   11  O1  UNL     1      10.923   5.453  42.981  1.00  0.00    -0.387 OA
ATOM     12  H1  UNL     1      11.831   5.283  43.204  1.00  0.00     0.210 HD
ENDBRANCH   1  11
TORSDOF 2
ENDMDL
MODEL 3
REMARK VINA RESULT: -5.251418302      1.602      2.441
REMARK  2 active torsions:
REMARK  status: ('A' for Active; 'I' for Inactive)
REMARK    1  A    between atoms: C2_2  and  C3_3 
REMARK    2  A    between atoms: C3_3  and  O1_4 
ROOT
HETATM    1  C3  UNL     1      12.029   3.850  44.059  1.00  0.00     0.084 C 
HETATM    2  C4  UNL     1      12.240   2.562  43.336  1.00  0.00     0.247 C 
HETATM    3  O2  UNL     1      12.424   2.875  41.974  1.00  0.00    -0.237 OA
HETATM    4  O3  UNL     1      11.233   3.128  41.487  1.00  0.00    -0.230 OA
HETATM    5  C5  UNL     1      10.710   4.299  41.989  1.00  0.00     0.092 C 
HETATM    6  C6  UNL     1       9.293   4.067  42.525  1.00  0.00     0.049 C 
HETATM    7  C7  UNL     1      10.561   5.283  40.848  1.00  0.00     0.049 C 
HETATM    8  C8  UNL     1      11.598   4.890  43.051  1.00  0.00     0.080 C 
ENDROOT
BRANCH   1   9
HETATM    9  C2  UNL     1      13.176   4.291  44.897  1.00  0.00     0.035 C 
HETATM   10  C1  UNL     1      13.251   3.704  46.262  1.00  0.00     0.008 C 
ENDBRANCH   1   9
BRANCH   1  11
HETATM   11  O1  UNL     1      10.933   3.669  44.926  1.00  0.00    -0.387 OA
ATOM     12  H1  UNL     1      10.372   4.430  44.826  1.00  0.00     0.210 HD
ENDBRANCH   1  11
TORSDOF 2
ENDMDL
MODEL 4
REMARK VINA RESULT: -5.081563545      1.154      3.971
REMARK  2 active torsions:
REMARK  status: ('A' for Active; 'I' for Inactive)
REMARK    1  A    between atoms: C2_2  and  C3_3 
REMARK    2  A    between atoms: C3_3  and  O1_4 
ROOT
HETATM    1  C3  UNL     1       8.870   2.686  42.850  1.00  0.00     0.084 C 
HETATM    2  C4  UNL     1       9.146   2.490  44.303  1.00  0.00     0.247 C 
HETATM    3  O2  UNL     1       9.553   3.737  44.821  1.00  0.00    -0.237 OA
HETATM    4  O3  UNL     1      10.800   3.903  44.452  1.00  0.00    -0.230 OA
HETATM    5  C5  UNL     1      10.913   4.100  43.093  1.00  0.00     0.092 C 
HETATM    6  C6  UNL     1      11.961   3.151  42.500  1.00  0.00     0.049 C 
HETATM    7  C7  UNL     1      11.443   5.498  42.856  1.00  0.00     0.049 C 
HETATM    8  C8  UNL     1       9.586   3.939  42.400  1.00  0.00     0.080 C 
ENDROOT
BRANCH   1   9
HETATM    9  C2  UNL     1       7.430   2.675  42.480  1.00  0.00     0.035 C 
HETATM   10  C1  UNL     1       6.617   1.570  43.057  1.00  0.00     0.008 C 
ENDBRANCH   1   9
BRANCH   1  11
HETATM   11  O1  UNL     1       9.480   1.619  42.160  1.00  0.00    -0.387 OA
ATOM     12  H1  UNL     1       8.970   1.471  41.372  1.00  0.00     0.210 HD
ENDBRANCH   1  11
TORSDOF 2
ENDMDL
MODEL 5
REMARK VINA RESULT: -4.972778201     12.720     14.054
REMARK  2 active torsions:
REMARK  status: ('A' for Active; 'I' for Inactive)
REMARK    1  A    between atoms: C2_2  and  C3_3 
REMARK    2  A    between atoms: C3_3  and  O1_4 
ROOT
HETATM    1  C3  UNL     1      13.351  13.227  34.172  1.00  0.00     0.084 C 
HETATM    2  C4  UNL     1      13.091  14.246  33.114  1.00  0.00     0.247 C 
HETATM    3  O2  UNL     1      12.392  13.598  32.076  1.00  0.00    -0.237 OA
HETATM    4  O3  UNL     1      13.282  12.908  31.404  1.00  0.00    -0.230 OA
HETATM    5  C5  UNL     1      13.770  11.848  32.135  1.00  0.00     0.092 C 
HETATM    6  C6  UNL     1      15.303  11.851  32.125  1.00  0.00     0.049 C 
HETATM    7  C7  UNL     1      13.358  10.564  31.447  1.00  0.00     0.049 C 
HETATM    8  C8  UNL     1      13.239  11.857  33.544  1.00  0.00     0.080 C 
ENDROOT
BRANCH   1   9
HETATM    9  C2  UNL     1      12.524  13.374  35.399  1.00  0.00     0.035 C 
HETATM   10  C1  UNL     1      13.268  13.400  36.688  1.00  0.00     0.008 C 
ENDBRANCH   1   9
BRANCH   1  11
HETATM   11  O1  UNL     1      14.698  13.366  34.566  1.00  0.00    -0.387 OA
ATOM     12  H1  UNL     1      15.218  12.848  33.962  1.00  0.00     0.210 HD
ENDBRANCH   1  11
TORSDOF 2
ENDMDL
