MODEL 1
REMARK VINA RESULT: -5.170866664      0.000      0.000
REMARK  2 active torsions:
REMARK  status: ('A' for Active; 'I' for Inactive)
REMARK    1  A    between atoms: O1_2  and  C2_3 
REMARK    2  A    between atoms: C9_10  and  O2_11 
ROOT
HETATM    1  C2  UNL     1      10.769   2.409  43.733  1.00  0.00     0.093 C 
HETATM    2  C3  UNL     1      11.916   3.145  43.156  1.00  0.00     0.042 C 
HETATM    3  C4  UNL     1      11.174   4.455  43.430  1.00  0.00     0.015 C 
HETATM    4  C5  UNL     1       9.956   3.676  43.769  1.00  0.00    -0.010 C 
HETATM    5  C6  UNL     1       9.402   3.969  45.144  1.00  0.00     0.018 C 
HETATM    6  C7  UNL     1       8.927   3.522  42.688  1.00  0.00     0.015 C 
HETATM    7  C8  UNL     1       8.632   2.040  42.730  1.00  0.00     0.035 C 
HETATM    8  C9  UNL     1      10.029   1.463  42.823  1.00  0.00     0.153 C 
ENDROOT
BRANCH   1   9
HETATM    9  O1  UNL     1      11.055   1.879  44.976  1.00  0.00    -0.382 OA
HETATM   10  C1  UNL     1      12.368   1.520  45.145  1.00  0.00     0.202 C 
ENDBRANCH   1   9
BRANCH   8  11
HETATM   11  O2  UNL     1      10.627   1.255  41.615  1.00  0.00    -0.393 OA
ATOM     12  H2  UNL     1      10.233   0.565  41.094  1.00  0.00     0.210 HD
ENDBRANCH   8  11
TORSDOF 2
ENDMDL
MODEL 2
REMARK VINA RESULT: -5.088979555      1.795      3.463
REMARK  2 active torsions:
REMARK  status: ('A' for Active; 'I' for Inactive)
REMARK    1  A    between atoms: O1_2  and  C2_3 
REMARK    2  A    between atoms: C9_10  and  O2_11 
ROOT
HETATM    1  C2  UNL     1      10.831   3.971  42.487  1.00  0.00     0.093 C 
HETATM    2  C3  UNL     1      11.364   5.100  43.281  1.00  0.00     0.042 C 
HETATM    3  C4  UNL     1      12.678   4.333  43.435  1.00  0.00     0.015 C 
HETATM    4  C5  UNL     1      12.027   3.133  42.852  1.00  0.00    -0.010 C 
HETATM    5  C6  UNL     1      12.736   2.577  41.638  1.00  0.00     0.018 C 
HETATM    6  C7  UNL     1      11.515   2.103  43.815  1.00  0.00     0.015 C 
HETATM    7  C8  UNL     1      10.120   1.839  43.296  1.00  0.00     0.035 C 
HETATM    8  C9  UNL     1       9.629   3.248  43.037  1.00  0.00     0.153 C 
ENDROOT
BRANCH   1   9
HETATM    9  O1  UNL     1      10.733   4.272  41.142  1.00  0.00    -0.382 OA
HETATM   10  C1  UNL     1      10.153   5.487  40.880  1.00  0.00     0.202 C 
ENDBRANCH   1   9
BRANCH   8  11
HETATM   11  O2  UNL     1       9.055   3.845  44.120  1.00  0.00    -0.393 OA
ATOM     12  H2  UNL     1       9.164   4.788  44.153  1.00  0.00     0.210 HD
ENDBRANCH   8  11
TORSDOF 2
ENDMDL
MODEL 3
REMARK VINA RESULT: -5.080569644      1.509      3.011
REMARK  2 active torsions:
REMARK  status: ('A' for Active; 'I' for Inactive)
REMARK    1  A    between atoms: O1_2  and  C2_3 
REMARK    2  A    between atoms: C9_10  and  O2_11 
ROOT
HETATM    1  C2  UNL     1       9.704   2.898  42.860  1.00  0.00     0.093 C 
HETATM    2  C3  UNL     1       8.653   1.881  42.641  1.00  0.00     0.042 C 
HETATM    3  C4  UNL     1       8.501   1.752  44.157  1.00  0.00     0.015 C 
HETATM    4  C5  UNL     1       9.717   2.585  44.334  1.00  0.00    -0.010 C 
HETATM    5  C6  UNL     1       9.504   3.813  45.188  1.00  0.00     0.018 C 
HETATM    6  C7  UNL     1      11.007   1.858  44.576  1.00  0.00     0.015 C 
HETATM    7  C8  UNL     1      11.946   2.529  43.598  1.00  0.00     0.035 C 
HETATM    8  C9  UNL     1      11.087   2.582  42.353  1.00  0.00     0.153 C 
ENDROOT
BRANCH   1   9
HETATM    9  O1  UNL     1       9.275   4.174  42.552  1.00  0.00    -0.382 OA
HETATM   10  C1  UNL     1      10.056   4.821  41.629  1.00  0.00     0.202 C 
ENDBRANCH   1   9
BRANCH   8  11
HETATM   11  O2  UNL     1      11.163   1.464  41.576  1.00  0.00    -0.393 OA
ATOM     12  H2  UNL     1      12.027   1.286  41.225  1.00  0.00     0.210 HD
ENDBRANCH   8  11
TORSDOF 2
ENDMDL
MODEL 4
REMARK VINA RESULT: -5.026195373      1.762      3.306
REMARK  2 active torsions:
REMARK  status: ('A' for Active; 'I' for Inactive)
REMARK    1  A    between atoms: O1_2  and  C2_3 
REMARK    2  A    between atoms: C9_10  and  O2_11 
ROOT
HETATM    1  C2  UNL     1      10.092   3.443  42.712  1.00  0.00     0.093 C 
HETATM    2  C3  UNL     1      10.991   2.366  42.240  1.00  0.00     0.042 C 
HETATM    3  C4  UNL     1       9.865   1.360  42.485  1.00  0.00     0.015 C 
HETATM    4  C5  UNL     1       9.088   2.420  43.175  1.00  0.00    -0.010 C 
HETATM    5  C6  UNL     1       7.713   2.654  42.594  1.00  0.00     0.018 C 
HETATM    6  C7  UNL     1       9.157   2.444  44.674  1.00  0.00     0.015 C 
HETATM    7  C8  UNL     1       9.437   3.902  44.963  1.00  0.00     0.035 C 
HETATM    8  C9  UNL     1      10.514   4.203  43.942  1.00  0.00     0.153 C 
ENDROOT
BRANCH   1   9
HETATM    9  O1  UNL     1       9.651   4.250  41.681  1.00  0.00    -0.382 OA
HETATM   10  C1  UNL     1      10.590   5.137  41.221  1.00  0.00     0.202 C 
ENDBRANCH   1   9
BRANCH   8  11
HETATM   11  O2  UNL     1      11.779   3.931  44.370  1.00  0.00    -0.393 OA
ATOM     12  H2  UNL     1      12.458   4.440  43.944  1.00  0.00     0.210 HD
ENDBRANCH   8  11
TORSDOF 2
ENDMDL
MODEL 5
REMARK VINA RESULT: -5.007836696      1.676      2.538
REMARK  2 active torsions:
REMARK  status: ('A' for Active; 'I' for Inactive)
REMARK    1  A    between atoms: O1_2  and  C2_3 
REMARK    2  A    between atoms: C9_10  and  O2_11 
ROOT
HETATM    1  C2  UNL     1      11.145   3.557  44.210  1.00  0.00     0.093 C 
HETATM    2  C3  UNL     1      12.393   3.833  44.956  1.00  0.00     0.042 C 
HETATM    3  C4  UNL     1      12.882   4.668  43.772  1.00  0.00     0.015 C 
HETATM    4  C5  UNL     1      11.737   4.170  42.968  1.00  0.00    -0.010 C 
HETATM    5  C6  UNL     1      10.868   5.263  42.391  1.00  0.00     0.018 C 
HETATM    6  C7  UNL     1      12.007   3.018  42.045  1.00  0.00     0.015 C 
HETATM    7  C8  UNL     1      10.863   2.079  42.355  1.00  0.00     0.035 C 
HETATM    8  C9  UNL     1      10.849   2.120  43.868  1.00  0.00     0.153 C 
ENDROOT
BRANCH   1   9
HETATM    9  O1  UNL     1      10.061   4.243  44.724  1.00  0.00    -0.382 OA
HETATM   10  C1  UNL     1       9.402   3.580  45.727  1.00  0.00     0.202 C 
ENDBRANCH   1   9
BRANCH   8  11
HETATM   11  O2  UNL     1      11.682   1.215  44.457  1.00  0.00    -0.393 OA
ATOM     12  H2  UNL     1      11.685   0.358  44.048  1.00  0.00     0.210 HD
ENDBRANCH   8  11
TORSDOF 2
ENDMDL
