MODEL 1
REMARK VINA RESULT: -4.737021460      0.000      0.000
REMARK  4 active torsions:
REMARK  status: ('A' for Active; 'I' for Inactive)
REMARK    1  A    between atoms: C1_2  and  N1_3 
REMARK    2  A    between atoms: N1_3  and  N2_5 
REMARK    3  A    between atoms: N2_5  and  S2_7 
REMARK    4  A    between atoms: S2_7  and  C2_8 
ROOT
HETATM    1  N2  UNL     1       8.366   6.182  40.010  1.00  0.00    -0.273 N 
ATOM      2  H2  UNL     1       7.645   5.550  40.357  1.00  0.00     0.195 HD
ENDROOT
BRANCH   1   3
HETATM    3  N1  UNL     1       7.970   7.281  39.265  1.00  0.00    -0.296 N 
ATOM      4  H1  UNL     1       6.986   7.479  39.085  1.00  0.00     0.187 HD
BRANCH   3   5
HETATM    5  C1  UNL     1       8.906   8.041  38.812  1.00  0.00     0.188 C 
HETATM    6  S1  UNL     1       9.753   8.770  37.643  1.00  0.00    -0.073 SA
ENDBRANCH   3   5
ENDBRANCH   1   3
BRANCH   1   7
HETATM    7  S2  UNL     1       9.908   5.846  40.361  1.00  0.00    -0.034 SA
BRANCH   7   8
HETATM    8  C2  UNL     1      10.272   5.202  42.023  1.00  0.00     0.070 C 
HETATM    9  C3  UNL     1      11.217   4.054  42.094  1.00  0.00     0.017 C 
HETATM   10  C4  UNL     1      12.017   4.839  43.137  1.00  0.00     0.002 C 
HETATM   11  C5  UNL     1      11.304   6.107  42.699  1.00  0.00     0.017 C 
ENDBRANCH   7   8
ENDBRANCH   1   7
TORSDOF 4
ENDMDL
MODEL 2
REMARK VINA RESULT: -4.539242872      0.906      1.256
REMARK  4 active torsions:
REMARK  status: ('A' for Active; 'I' for Inactive)
REMARK    1  A    between atoms: C1_2  and  N1_3 
REMARK    2  A    between atoms: N1_3  and  N2_5 
REMARK    3  A    between atoms: N2_5  and  S2_7 
REMARK    4  A    between atoms: S2_7  and  C2_8 
ROOT
HETATM    1  N2  UNL     1       8.575   5.975  40.239  1.00  0.00    -0.273 N 
ATOM      2  H2  UNL     1       7.965   5.278  40.666  1.00  0.00     0.195 HD
ENDROOT
BRANCH   1   3
HETATM    3  N1  UNL     1       7.990   7.004  39.519  1.00  0.00    -0.296 N 
ATOM      4  H1  UNL     1       6.980   7.056  39.384  1.00  0.00     0.187 HD
BRANCH   3   5
HETATM    5  C1  UNL     1       8.783   7.892  39.028  1.00  0.00     0.188 C 
HETATM    6  S1  UNL     1       9.595   8.619  37.831  1.00  0.00    -0.073 SA
ENDBRANCH   3   5
ENDBRANCH   1   3
BRANCH   1   7
HETATM    7  S2  UNL     1      10.171   5.817  40.439  1.00  0.00    -0.034 SA
BRANCH   7   8
HETATM    8  C2  UNL     1      10.750   4.621  41.682  1.00  0.00     0.070 C 
HETATM    9  C3  UNL     1      11.270   5.191  42.954  1.00  0.00     0.017 C 
HETATM   10  C4  UNL     1      10.329   4.246  43.706  1.00  0.00     0.002 C 
HETATM   11  C5  UNL     1       9.543   4.041  42.422  1.00  0.00     0.017 C 
ENDBRANCH   7   8
ENDBRANCH   1   7
TORSDOF 4
ENDMDL
MODEL 3
REMARK VINA RESULT: -4.401097429      0.926      1.464
REMARK  4 active torsions:
REMARK  status: ('A' for Active; 'I' for Inactive)
REMARK    1  A    between atoms: C1_2  and  N1_3 
REMARK    2  A    between atoms: N1_3  and  N2_5 
REMARK    3  A    between atoms: N2_5  and  S2_7 
REMARK    4  A    between atoms: S2_7  and  C2_8 
ROOT
HETATM    1  N2  UNL     1       8.462   5.940  40.279  1.00  0.00    -0.273 N 
ATOM      2  H2  UNL     1       7.762   5.260  40.576  1.00  0.00     0.195 HD
ENDROOT
BRANCH   1   3
HETATM    3  N1  UNL     1       8.045   7.015  39.510  1.00  0.00    -0.296 N 
ATOM      4  H1  UNL     1       7.056   7.209  39.353  1.00  0.00     0.187 HD
BRANCH   3   5
HETATM    5  C1  UNL     1       8.968   7.756  39.002  1.00  0.00     0.188 C 
HETATM    6  S1  UNL     1       9.643   8.646  37.832  1.00  0.00    -0.073 SA
ENDBRANCH   3   5
ENDBRANCH   1   3
BRANCH   1   7
HETATM    7  S2  UNL     1       9.995   5.705  40.733  1.00  0.00    -0.034 SA
BRANCH   7   8
HETATM    8  C2  UNL     1      10.287   4.717  42.232  1.00  0.00     0.070 C 
HETATM    9  C3  UNL     1       9.271   3.676  42.546  1.00  0.00     0.017 C 
HETATM   10  C4  UNL     1      10.413   2.665  42.670  1.00  0.00     0.002 C 
HETATM   11  C5  UNL     1      11.320   3.630  41.926  1.00  0.00     0.017 C 
ENDBRANCH   7   8
ENDBRANCH   1   7
TORSDOF 4
ENDMDL
MODEL 4
REMARK VINA RESULT: -4.332936694      4.347      5.215
REMARK  4 active torsions:
REMARK  status: ('A' for Active; 'I' for Inactive)
REMARK    1  A    between atoms: C1_2  and  N1_3 
REMARK    2  A    between atoms: N1_3  and  N2_5 
REMARK    3  A    between atoms: N2_5  and  S2_7 
REMARK    4  A    between atoms: S2_7  and  C2_8 
ROOT
HETATM    1  N2  UNL     1      11.649   2.335  42.166  1.00  0.00    -0.273 N 
ATOM      2  H2  UNL     1      12.337   2.245  41.418  1.00  0.00     0.195 HD
ENDROOT
BRANCH   1   3
HETATM    3  N1  UNL     1      10.680   1.352  42.286  1.00  0.00    -0.296 N 
ATOM      4  H1  UNL     1      10.847   0.395  41.975  1.00  0.00     0.187 HD
BRANCH   3   5
HETATM    5  C1  UNL     1       9.559   1.706  42.810  1.00  0.00     0.188 C 
HETATM    6  S1  UNL     1       8.023   2.213  42.761  1.00  0.00    -0.073 SA
ENDBRANCH   3   5
ENDBRANCH   1   3
BRANCH   1   7
HETATM    7  S2  UNL     1      11.751   3.617  43.145  1.00  0.00    -0.034 SA
BRANCH   7   8
HETATM    8  C2  UNL     1      10.782   5.092  42.706  1.00  0.00     0.070 C 
HETATM    9  C3  UNL     1      11.524   6.381  42.662  1.00  0.00     0.017 C 
HETATM   10  C4  UNL     1      10.944   6.613  41.265  1.00  0.00     0.002 C 
HETATM   11  C5  UNL     1      10.594   5.137  41.188  1.00  0.00     0.017 C 
ENDBRANCH   7   8
ENDBRANCH   1   7
TORSDOF 4
ENDMDL
MODEL 5
REMARK VINA RESULT: -4.238752624      3.334      4.993
REMARK  4 active torsions:
REMARK  status: ('A' for Active; 'I' for Inactive)
REMARK    1  A    between atoms: C1_2  and  N1_3 
REMARK    2  A    between atoms: N1_3  and  N2_5 
REMARK    3  A    between atoms: N2_5  and  S2_7 
REMARK    4  A    between atoms: S2_7  and  C2_8 
ROOT
HETATM    1  N2  UNL     1       9.750   3.720  42.379  1.00  0.00    -0.273 N 
ATOM      2  H2  UNL     1      10.247   2.851  42.574  1.00  0.00     0.195 HD
ENDROOT
BRANCH   1   3
HETATM    3  N1  UNL     1       8.364   3.693  42.366  1.00  0.00    -0.296 N 
ATOM      4  H1  UNL     1       7.815   4.506  42.088  1.00  0.00     0.187 HD
BRANCH   3   5
HETATM    5  C1  UNL     1       7.804   2.589  42.721  1.00  0.00     0.188 C 
HETATM    6  S1  UNL     1       6.542   1.657  43.118  1.00  0.00    -0.073 SA
ENDBRANCH   3   5
ENDBRANCH   1   3
BRANCH   1   7
HETATM    7  S2  UNL     1      10.622   5.052  42.101  1.00  0.00    -0.034 SA
BRANCH   7   8
HETATM    8  C2  UNL     1      10.559   5.767  40.430  1.00  0.00     0.070 C 
HETATM    9  C3  UNL     1       9.232   6.265  39.974  1.00  0.00     0.017 C 
HETATM   10  C4  UNL     1       9.909   7.587  39.605  1.00  0.00     0.002 C 
HETATM   11  C5  UNL     1      11.093   7.200  40.474  1.00  0.00     0.017 C 
ENDBRANCH   7   8
ENDBRANCH   1   7
TORSDOF 4
ENDMDL
