MODEL 1
REMARK VINA RESULT: -6.089682676      0.000      0.000
REMARK  2 active torsions:
REMARK  status: ('A' for Active; 'I' for Inactive)
REMARK    1  A    between atoms: C3_3  and  C4_4 
REMARK    2  A    between atoms: C7_8  and  O2_10 
ROOT
HETATM    1  C4  UNL     1      10.610   4.841  41.678  1.00  0.00     0.183 C 
HETATM    2  C5  UNL     1      11.271   5.795  42.668  1.00  0.00     0.084 C 
HETATM    3  O1  UNL     1       9.404   4.393  42.163  1.00  0.00    -0.347 OA
HETATM    4  C6  UNL     1       9.580   3.142  42.706  1.00  0.00     0.239 C 
HETATM    5  C7  UNL     1      10.980   2.731  42.301  1.00  0.00     0.183 C 
HETATM    6  C8  UNL     1      11.810   2.552  43.557  1.00  0.00     0.081 C 
HETATM    7  O3  UNL     1      11.444   3.758  41.497  1.00  0.00    -0.314 OA
ENDROOT
BRANCH   1   8
HETATM    8  C3  UNL     1      10.349   5.570  40.408  1.00  0.00     0.036 C 
HETATM    9  C2  UNL     1       9.362   6.436  40.303  1.00  0.00    -0.030 C 
HETATM   10  C1  UNL     1       9.098   7.167  39.037  1.00  0.00     0.036 C 
ENDBRANCH   1   8
BRANCH   5  11
HETATM   11  O2  UNL     1      10.959   1.544  41.535  1.00  0.00    -0.364 OA
ATOM     12  H2  UNL     1      11.810   1.371  41.150  1.00  0.00     0.213 HD
ENDBRANCH   5  11
TORSDOF 2
ENDMDL
MODEL 2
REMARK VINA RESULT: -5.643079849      1.414      2.178
REMARK  2 active torsions:
REMARK  status: ('A' for Active; 'I' for Inactive)
REMARK    1  A    between atoms: C3_3  and  C4_4 
REMARK    2  A    between atoms: C7_8  and  O2_10 
ROOT
HETATM    1  C4  UNL     1      10.626   4.484  41.882  1.00  0.00     0.183 C 
HETATM    2  C5  UNL     1       9.234   4.016  42.297  1.00  0.00     0.084 C 
HETATM    3  O1  UNL     1      11.388   3.425  41.448  1.00  0.00    -0.347 OA
HETATM    4  C6  UNL     1      12.216   3.024  42.471  1.00  0.00     0.239 C 
HETATM    5  C7  UNL     1      12.076   4.095  43.533  1.00  0.00     0.183 C 
HETATM    6  C8  UNL     1      11.495   3.459  44.781  1.00  0.00     0.081 C 
HETATM    7  O3  UNL     1      11.238   5.049  42.981  1.00  0.00    -0.314 OA
ENDROOT
BRANCH   1   8
HETATM    8  C3  UNL     1      10.494   5.445  40.755  1.00  0.00     0.036 C 
HETATM    9  C2  UNL     1       9.325   5.950  40.416  1.00  0.00    -0.030 C 
HETATM   10  C1  UNL     1       9.188   6.910  39.290  1.00  0.00     0.036 C 
ENDBRANCH   1   8
BRANCH   5  11
HETATM   11  O2  UNL     1      13.321   4.703  43.807  1.00  0.00    -0.364 OA
ATOM     12  H2  UNL     1      13.907   4.631  43.063  1.00  0.00     0.213 HD
ENDBRANCH   5  11
TORSDOF 2
ENDMDL
MODEL 3
REMARK VINA RESULT: -5.345524242      1.326      1.423
REMARK  2 active torsions:
REMARK  status: ('A' for Active; 'I' for Inactive)
REMARK    1  A    between atoms: C3_3  and  C4_4 
REMARK    2  A    between atoms: C7_8  and  O2_10 
ROOT
HETATM    1  C4  UNL     1      11.065   5.061  42.482  1.00  0.00     0.183 C 
HETATM    2  C5  UNL     1      11.726   6.368  42.910  1.00  0.00     0.084 C 
HETATM    3  O1  UNL     1      10.018   4.748  43.317  1.00  0.00    -0.347 OA
HETATM    4  C6  UNL     1      10.446   3.817  44.235  1.00  0.00     0.239 C 
HETATM    5  C7  UNL     1      11.814   3.386  43.751  1.00  0.00     0.183 C 
HETATM    6  C8  UNL     1      12.838   3.765  44.804  1.00  0.00     0.081 C 
HETATM    7  O3  UNL     1      12.006   4.056  42.555  1.00  0.00    -0.314 OA
ENDROOT
BRANCH   1   8
HETATM    8  C3  UNL     1      10.521   5.225  41.108  1.00  0.00     0.036 C 
HETATM    9  C2  UNL     1       9.887   6.323  40.746  1.00  0.00    -0.030 C 
HETATM   10  C1  UNL     1       9.341   6.491  39.374  1.00  0.00     0.036 C 
ENDBRANCH   1   8
BRANCH   5  11
HETATM   11  O2  UNL     1      11.846   1.998  43.491  1.00  0.00    -0.364 OA
ATOM     12  H2  UNL     1      12.199   1.820  42.628  1.00  0.00     0.213 HD
ENDBRANCH   5  11
TORSDOF 2
ENDMDL
MODEL 4
REMARK VINA RESULT: -5.326123937      1.783      3.955
REMARK  2 active torsions:
REMARK  status: ('A' for Active; 'I' for Inactive)
REMARK    1  A    between atoms: C3_3  and  C4_4 
REMARK    2  A    between atoms: C7_8  and  O2_10 
ROOT
HETATM    1  C4  UNL     1       9.395   3.304  42.815  1.00  0.00     0.183 C 
HETATM    2  C5  UNL     1       9.498   3.564  44.315  1.00  0.00     0.084 C 
HETATM    3  O1  UNL     1      10.458   2.550  42.376  1.00  0.00    -0.347 OA
HETATM    4  C6  UNL     1      11.391   3.386  41.807  1.00  0.00     0.239 C 
HETATM    5  C7  UNL     1      10.705   4.732  41.709  1.00  0.00     0.183 C 
HETATM    6  C8  UNL     1      11.469   5.723  42.567  1.00  0.00     0.081 C 
HETATM    7  O3  UNL     1       9.415   4.518  42.162  1.00  0.00    -0.314 OA
ENDROOT
BRANCH   1   8
HETATM    8  C3  UNL     1       8.149   2.539  42.543  1.00  0.00     0.036 C 
HETATM    9  C2  UNL     1       7.377   2.114  43.523  1.00  0.00    -0.030 C 
HETATM   10  C1  UNL     1       6.131   1.349  43.257  1.00  0.00     0.036 C 
ENDBRANCH   1   8
BRANCH   5  11
HETATM   11  O2  UNL     1      10.638   5.171  40.369  1.00  0.00    -0.364 OA
ATOM     12  H2  UNL     1       9.907   5.764  40.240  1.00  0.00     0.213 HD
ENDBRANCH   5  11
TORSDOF 2
ENDMDL
MODEL 5
REMARK VINA RESULT: -5.310659725      1.445      2.141
REMARK  2 active torsions:
REMARK  status: ('A' for Active; 'I' for Inactive)
REMARK    1  A    between atoms: C3_3  and  C4_4 
REMARK    2  A    between atoms: C7_8  and  O2_10 
ROOT
HETATM    1  C4  UNL     1      10.774   4.415  42.643  1.00  0.00     0.183 C 
HETATM    2  C5  UNL     1      12.092   3.646  42.660  1.00  0.00     0.084 C 
HETATM    3  O1  UNL     1      10.278   4.562  43.917  1.00  0.00    -0.347 OA
HETATM    4  C6  UNL     1       9.310   3.608  44.130  1.00  0.00     0.239 C 
HETATM    5  C7  UNL     1       9.065   2.986  42.772  1.00  0.00     0.183 C 
HETATM    6  C8  UNL     1       9.440   1.518  42.842  1.00  0.00     0.081 C 
HETATM    7  O3  UNL     1       9.864   3.698  41.894  1.00  0.00    -0.314 OA
ENDROOT
BRANCH   1   8
HETATM    8  C3  UNL     1      11.016   5.773  42.087  1.00  0.00     0.036 C 
HETATM    9  C2  UNL     1      10.631   6.095  40.869  1.00  0.00    -0.030 C 
HETATM   10  C1  UNL     1      10.871   7.451  40.309  1.00  0.00     0.036 C 
ENDBRANCH   1   8
BRANCH   5  11
HETATM   11  O2  UNL     1       7.719   3.146  42.375  1.00  0.00    -0.364 OA
ATOM     12  H2  UNL     1       7.526   4.055  42.182  1.00  0.00     0.213 HD
ENDBRANCH   5  11
TORSDOF 2
ENDMDL
