MODEL 1
REMARK VINA RESULT: -8.137330409      0.000      0.000
REMARK  5 active torsions:
REMARK  status: ('A' for Active; 'I' for Inactive)
REMARK    1  A    between atoms: O1_2  and  C2_3 
REMARK    2  A    between atoms: C2_3  and  C3_5 
REMARK    3  A    between atoms: C4_6  and  O3_7 
REMARK    4  A    between atoms: C5_9  and  O4_10 
REMARK    5  A    between atoms: C6_12  and  O5_13 
ROOT
HETATM    1  C3  UNL     1      25.373  21.947  73.737  1.00  0.00     0.089 A 
HETATM    2  C4  UNL     1      25.968  21.182  74.774  1.00  0.00     0.119 A 
HETATM    3  C5  UNL     1      27.290  20.886  74.839  1.00  0.00     0.134 A 
HETATM    4  C6  UNL     1      28.088  21.356  73.846  1.00  0.00     0.117 A 
HETATM    5  C7  UNL     1      27.585  22.112  72.821  1.00  0.00     0.065 A 
HETATM    6  C8  UNL     1      26.209  22.435  72.760  1.00  0.00     0.028 A 
HETATM    7  C9  UNL     1      25.985  23.265  71.590  1.00  0.00     0.070 A 
HETATM    8  C10 UNL     1      27.203  23.380  70.901  1.00  0.00     0.111 A 
HETATM    9  C11 UNL     1      27.305  24.130  69.762  1.00  0.00     0.267 A 
HETATM   10  O6  UNL     1      28.424  24.191  69.186  1.00  0.00    -0.267 OA
HETATM   11  N1  UNL     1      26.220  24.758  69.317  1.00  0.00    -0.270 N 
HETATM   12  C12 UNL     1      26.297  25.534  68.109  1.00  0.00     0.164 C 
HETATM   13  C13 UNL     1      25.050  24.667  69.982  1.00  0.00     0.331 A 
HETATM   14  O7  UNL     1      24.061  25.283  69.520  1.00  0.00    -0.246 OA
HETATM   15  N2  UNL     1      24.939  23.937  71.111  1.00  0.00    -0.302 N 
HETATM   16  C14 UNL     1      23.837  24.407  71.946  1.00  0.00     0.161 C 
HETATM   17  C15 UNL     1      28.224  22.683  71.652  1.00  0.00     0.203 A 
HETATM   18  O8  UNL     1      29.447  22.588  71.344  1.00  0.00    -0.286 OA
ENDROOT
BRANCH   1  19
HETATM   19  C2  UNL     1      23.958  21.693  73.516  1.00  0.00     0.296 C 
HETATM   20  O2  UNL     1      22.877  21.862  74.010  1.00  0.00    -0.259 OA
BRANCH  19  21
HETATM   21  O1  UNL     1      23.688  20.988  72.267  1.00  0.00    -0.322 OA
HETATM   22  C1  UNL     1      22.395  20.994  71.690  1.00  0.00     0.213 C 
ENDBRANCH  19  21
ENDBRANCH   1  19
BRANCH   2  23
HETATM   23  O3  UNL     1      25.117  20.726  75.767  1.00  0.00    -0.357 OA
ATOM     24  H3  UNL     1      25.488  20.115  76.393  1.00  0.00     0.217 HD
ENDBRANCH   2  23
BRANCH   3  25
HETATM   25  O4  UNL     1      27.815  20.137  75.875  1.00  0.00    -0.356 OA
ATOM     26  H4  UNL     1      28.610  20.398  76.326  1.00  0.00     0.218 HD
ENDBRANCH   3  25
BRANCH   4  27
HETATM   27  O5  UNL     1      29.439  21.068  73.864  1.00  0.00    -0.357 OA
ATOM     28  H5  UNL     1      30.024  21.601  74.388  1.00  0.00     0.217 HD
ENDBRANCH   4  27
TORSDOF 5
ENDMDL
MODEL 2
REMARK VINA RESULT: -7.862849470      1.480      4.272
REMARK  5 active torsions:
REMARK  status: ('A' for Active; 'I' for Inactive)
REMARK    1  A    between atoms: O1_2  and  C2_3 
REMARK    2  A    between atoms: C2_3  and  C3_5 
REMARK    3  A    between atoms: C4_6  and  O3_7 
REMARK    4  A    between atoms: C5_9  and  O4_10 
REMARK    5  A    between atoms: C6_12  and  O5_13 
ROOT
HETATM    1  C3  UNL     1      28.577  22.005  73.322  1.00  0.00     0.089 A 
HETATM    2  C4  UNL     1      28.675  21.160  74.459  1.00  0.00     0.119 A 
HETATM    3  C5  UNL     1      27.621  20.799  75.232  1.00  0.00     0.134 A 
HETATM    4  C6  UNL     1      26.398  21.280  74.891  1.00  0.00     0.117 A 
HETATM    5  C7  UNL     1      26.227  22.090  73.800  1.00  0.00     0.065 A 
HETATM    6  C8  UNL     1      27.322  22.455  72.982  1.00  0.00     0.028 A 
HETATM    7  C9  UNL     1      26.828  23.283  71.897  1.00  0.00     0.070 A 
HETATM    8  C10 UNL     1      25.454  23.487  72.099  1.00  0.00     0.111 A 
HETATM    9  C11 UNL     1      24.708  24.215  71.213  1.00  0.00     0.267 A 
HETATM   10  O6  UNL     1      23.479  24.365  71.451  1.00  0.00    -0.267 OA
HETATM   11  N1  UNL     1      25.313  24.728  70.147  1.00  0.00    -0.270 N 
HETATM   12  C12 UNL     1      24.554  25.518  69.214  1.00  0.00     0.164 C 
HETATM   13  C13 UNL     1      26.629  24.525  69.937  1.00  0.00     0.331 A 
HETATM   14  O7  UNL     1      27.147  25.029  68.912  1.00  0.00    -0.246 OA
HETATM   15  N2  UNL     1      27.374  23.801  70.797  1.00  0.00    -0.302 N 
HETATM   16  C14 UNL     1      28.550  23.234  70.143  1.00  0.00     0.161 C 
HETATM   17  C15 UNL     1      25.045  22.742  73.270  1.00  0.00     0.203 A 
HETATM   18  O8  UNL     1      23.875  22.675  73.744  1.00  0.00    -0.286 OA
ENDROOT
BRANCH   1  19
HETATM   19  C2  UNL     1      29.796  22.720  72.977  1.00  0.00     0.296 C 
HETATM   20  O2  UNL     1      30.305  23.805  73.033  1.00  0.00    -0.259 OA
BRANCH  19  21
HETATM   21  O1  UNL     1      30.798  21.875  72.335  1.00  0.00    -0.322 OA
HETATM   22  C1  UNL     1      31.980  22.430  71.790  1.00  0.00     0.213 C 
ENDBRANCH  19  21
ENDBRANCH   1  19
BRANCH   2  23
HETATM   23  O3  UNL     1      29.941  20.690  74.767  1.00  0.00    -0.357 OA
ATOM     24  H3  UNL     1      30.185  20.706  75.685  1.00  0.00     0.217 HD
ENDBRANCH   2  23
BRANCH   3  25
HETATM   25  O4  UNL     1      27.776  19.971  76.327  1.00  0.00    -0.356 OA
ATOM     26  H4  UNL     1      27.817  20.316  77.211  1.00  0.00     0.218 HD
ENDBRANCH   3  25
BRANCH   4  27
HETATM   27  O5  UNL     1      25.298  20.949  75.658  1.00  0.00    -0.357 OA
ATOM     28  H5  UNL     1      24.726  20.245  75.377  1.00  0.00     0.217 HD
ENDBRANCH   4  27
TORSDOF 5
ENDMDL
MODEL 3
REMARK VINA RESULT: -7.703099931      2.075      4.497
REMARK  5 active torsions:
REMARK  status: ('A' for Active; 'I' for Inactive)
REMARK    1  A    between atoms: O1_2  and  C2_3 
REMARK    2  A    between atoms: C2_3  and  C3_5 
REMARK    3  A    between atoms: C4_6  and  O3_7 
REMARK    4  A    between atoms: C5_9  and  O4_10 
REMARK    5  A    between atoms: C6_12  and  O5_13 
ROOT
HETATM    1  C3  UNL     1      26.114  21.407  74.064  1.00  0.00     0.089 A 
HETATM    2  C4  UNL     1      24.707  21.362  74.243  1.00  0.00     0.119 A 
HETATM    3  C5  UNL     1      23.811  21.881  73.366  1.00  0.00     0.134 A 
HETATM    4  C6  UNL     1      24.300  22.481  72.250  1.00  0.00     0.117 A 
HETATM    5  C7  UNL     1      25.646  22.550  72.006  1.00  0.00     0.065 A 
HETATM    6  C8  UNL     1      26.581  21.995  72.910  1.00  0.00     0.028 A 
HETATM    7  C9  UNL     1      27.914  22.192  72.371  1.00  0.00     0.070 A 
HETATM    8  C10 UNL     1      27.795  22.934  71.184  1.00  0.00     0.111 A 
HETATM    9  C11 UNL     1      28.894  23.253  70.435  1.00  0.00     0.267 A 
HETATM   10  O6  UNL     1      28.722  23.925  69.382  1.00  0.00    -0.267 OA
HETATM   11  N1  UNL     1      30.087  22.843  70.853  1.00  0.00    -0.270 N 
HETATM   12  C12 UNL     1      31.260  23.187  70.095  1.00  0.00     0.164 C 
HETATM   13  C13 UNL     1      30.209  22.117  71.983  1.00  0.00     0.331 A 
HETATM   14  O7  UNL     1      31.359  21.753  72.327  1.00  0.00    -0.246 OA
HETATM   15  N2  UNL     1      29.133  21.787  72.726  1.00  0.00    -0.302 N 
HETATM   16  C14 UNL     1      29.379  20.588  73.523  1.00  0.00     0.161 C 
HETATM   17  C15 UNL     1      26.390  23.160  70.922  1.00  0.00     0.203 A 
HETATM   18  O8  UNL     1      25.903  23.776  69.931  1.00  0.00    -0.286 OA
ENDROOT
BRANCH   1  19
HETATM   19  C2  UNL     1      26.895  21.336  75.289  1.00  0.00     0.296 C 
HETATM   20  O2  UNL     1      27.211  20.582  76.168  1.00  0.00    -0.259 OA
BRANCH  19  21
HETATM   21  O1  UNL     1      27.556  22.593  75.625  1.00  0.00    -0.322 OA
HETATM   22  C1  UNL     1      26.809  23.724  76.036  1.00  0.00     0.213 C 
ENDBRANCH  19  21
ENDBRANCH   1  19
BRANCH   2  23
HETATM   23  O3  UNL     1      24.253  20.739  75.393  1.00  0.00    -0.357 OA
ATOM     24  H3  UNL     1      23.314  20.611  75.461  1.00  0.00     0.217 HD
ENDBRANCH   2  23
BRANCH   3  25
HETATM   25  O4  UNL     1      22.450  21.807  73.591  1.00  0.00    -0.356 OA
ATOM     26  H4  UNL     1      21.837  22.366  73.129  1.00  0.00     0.218 HD
ENDBRANCH   3  25
BRANCH   4  27
HETATM   27  O5  UNL     1      23.425  23.035  71.336  1.00  0.00    -0.357 OA
ATOM     28  H5  UNL     1      23.719  23.202  70.449  1.00  0.00     0.217 HD
ENDBRANCH   4  27
TORSDOF 5
ENDMDL
MODEL 4
REMARK VINA RESULT: -7.686748156      2.690      5.159
REMARK  5 active torsions:
REMARK  status: ('A' for Active; 'I' for Inactive)
REMARK    1  A    between atoms: O1_2  and  C2_3 
REMARK    2  A    between atoms: C2_3  and  C3_5 
REMARK    3  A    between atoms: C4_6  and  O3_7 
REMARK    4  A    between atoms: C5_9  and  O4_10 
REMARK    5  A    between atoms: C6_12  and  O5_13 
ROOT
HETATM    1  C3  UNL     1      28.704  21.302  74.749  1.00  0.00     0.089 A 
HETATM    2  C4  UNL     1      27.515  20.929  75.429  1.00  0.00     0.119 A 
HETATM    3  C5  UNL     1      26.269  21.052  74.907  1.00  0.00     0.134 A 
HETATM    4  C6  UNL     1      26.161  21.565  73.655  1.00  0.00     0.117 A 
HETATM    5  C7  UNL     1      27.265  21.935  72.935  1.00  0.00     0.065 A 
HETATM    6  C8  UNL     1      28.567  21.792  73.470  1.00  0.00     0.028 A 
HETATM    7  C9  UNL     1      29.524  22.232  72.472  1.00  0.00     0.070 A 
HETATM    8  C10 UNL     1      28.806  22.715  71.366  1.00  0.00     0.111 A 
HETATM    9  C11 UNL     1      29.448  23.178  70.251  1.00  0.00     0.267 A 
HETATM   10  O6  UNL     1      28.747  23.602  69.292  1.00  0.00    -0.267 OA
HETATM   11  N1  UNL     1      30.777  23.160  70.231  1.00  0.00    -0.270 N 
HETATM   12  C12 UNL     1      31.475  23.663  69.079  1.00  0.00     0.164 C 
HETATM   13  C13 UNL     1      31.475  22.683  71.282  1.00  0.00     0.331 A 
HETATM   14  O7  UNL     1      32.726  22.686  71.207  1.00  0.00    -0.246 OA
HETATM   15  N2  UNL     1      30.854  22.216  72.384  1.00  0.00    -0.302 N 
HETATM   16  C14 UNL     1      31.693  21.266  73.110  1.00  0.00     0.161 C 
HETATM   17  C15 UNL     1      27.393  22.529  71.619  1.00  0.00     0.203 A 
HETATM   18  O8  UNL     1      26.446  22.831  70.836  1.00  0.00    -0.286 OA
ENDROOT
BRANCH   1  19
HETATM   19  C2  UNL     1      29.829  21.633  75.608  1.00  0.00     0.296 C 
HETATM   20  O2  UNL     1      30.687  21.131  76.281  1.00  0.00    -0.259 OA
BRANCH  19  21
HETATM   21  O1  UNL     1      30.051  23.070  75.740  1.00  0.00    -0.322 OA
HETATM   22  C1  UNL     1      31.292  23.579  76.193  1.00  0.00     0.213 C 
ENDBRANCH  19  21
ENDBRANCH   1  19
BRANCH   2  23
HETATM   23  O3  UNL     1      27.674  20.407  76.702  1.00  0.00    -0.357 OA
ATOM     24  H3  UNL     1      27.210  19.599  76.887  1.00  0.00     0.217 HD
ENDBRANCH   2  23
BRANCH   3  25
HETATM   25  O4  UNL     1      25.146  20.670  75.616  1.00  0.00    -0.356 OA
ATOM     26  H4  UNL     1      24.313  21.113  75.506  1.00  0.00     0.218 HD
ENDBRANCH   3  25
BRANCH   4  27
HETATM   27  O5  UNL     1      24.910  21.721  73.089  1.00  0.00    -0.357 OA
ATOM     28  H5  UNL     1      24.835  21.874  72.155  1.00  0.00     0.217 HD
ENDBRANCH   4  27
TORSDOF 5
ENDMDL
MODEL 5
REMARK VINA RESULT: -7.685808350      3.287      7.950
REMARK  5 active torsions:
REMARK  status: ('A' for Active; 'I' for Inactive)
REMARK    1  A    between atoms: O1_2  and  C2_3 
REMARK    2  A    between atoms: C2_3  and  C3_5 
REMARK    3  A    between atoms: C4_6  and  O3_7 
REMARK    4  A    between atoms: C5_9  and  O4_10 
REMARK    5  A    between atoms: C6_12  and  O5_13 
ROOT
HETATM    1  C3  UNL     1      27.398  24.359  65.765  1.00  0.00     0.089 A 
HETATM    2  C4  UNL     1      26.734  24.968  64.667  1.00  0.00     0.119 A 
HETATM    3  C5  UNL     1      25.633  25.751  64.783  1.00  0.00     0.134 A 
HETATM    4  C6  UNL     1      25.138  25.959  66.031  1.00  0.00     0.117 A 
HETATM    5  C7  UNL     1      25.734  25.413  67.136  1.00  0.00     0.065 A 
HETATM    6  C8  UNL     1      26.893  24.611  67.020  1.00  0.00     0.028 A 
HETATM    7  C9  UNL     1      27.308  24.208  68.352  1.00  0.00     0.070 A 
HETATM    8  C10 UNL     1      26.361  24.696  69.266  1.00  0.00     0.111 A 
HETATM    9  C11 UNL     1      26.502  24.491  70.611  1.00  0.00     0.267 A 
HETATM   10  O6  UNL     1      25.616  24.951  71.381  1.00  0.00    -0.267 OA
HETATM   11  N1  UNL     1      27.565  23.818  71.041  1.00  0.00    -0.270 N 
HETATM   12  C12 UNL     1      27.724  23.569  72.449  1.00  0.00     0.164 C 
HETATM   13  C13 UNL     1      28.488  23.359  70.171  1.00  0.00     0.331 A 
HETATM   14  O7  UNL     1      29.472  22.734  70.633  1.00  0.00    -0.246 OA
HETATM   15  N2  UNL     1      28.364  23.562  68.844  1.00  0.00    -0.302 N 
HETATM   16  C14 UNL     1      29.660  23.517  68.171  1.00  0.00     0.161 C 
HETATM   17  C15 UNL     1      25.373  25.466  68.540  1.00  0.00     0.203 A 
HETATM   18  O8  UNL     1      24.381  26.070  69.037  1.00  0.00    -0.286 OA
ENDROOT
BRANCH   1  19
HETATM   19  C2  UNL     1      28.155  23.161  65.440  1.00  0.00     0.296 C 
HETATM   20  O2  UNL     1      29.270  22.718  65.437  1.00  0.00    -0.259 OA
BRANCH  19  21
HETATM   21  O1  UNL     1      27.323  22.072  64.938  1.00  0.00    -0.322 OA
HETATM   22  C1  UNL     1      27.893  20.830  64.566  1.00  0.00     0.213 C 
ENDBRANCH  19  21
ENDBRANCH   1  19
BRANCH   2  23
HETATM   23  O3  UNL     1      27.275  24.731  63.414  1.00  0.00    -0.357 OA
ATOM     24  H3  UNL     1      27.446  25.496  62.877  1.00  0.00     0.217 HD
ENDBRANCH   2  23
BRANCH   3  25
HETATM   25  O4  UNL     1      25.029  26.320  63.678  1.00  0.00    -0.356 OA
ATOM     26  H4  UNL     1      24.195  26.772  63.743  1.00  0.00     0.218 HD
ENDBRANCH   3  25
BRANCH   4  27
HETATM   27  O5  UNL     1      24.009  26.738  66.195  1.00  0.00    -0.357 OA
ATOM     28  H5  UNL     1      24.033  27.654  65.947  1.00  0.00     0.217 HD
ENDBRANCH   4  27
TORSDOF 5
ENDMDL
