MODEL 1
REMARK VINA RESULT: -7.635720079      0.000      0.000
REMARK  5 active torsions:
REMARK  status: ('A' for Active; 'I' for Inactive)
REMARK    1  A    between atoms: O1_2  and  C2_3 
REMARK    2  A    between atoms: C2_3  and  C3_5 
REMARK    3  A    between atoms: N2_13  and  O6_15 
REMARK    4  A    between atoms: O6_15  and  C5_16 
REMARK    5  A    between atoms: C7_21  and  O7_22 
ROOT
HETATM    1  C3  UNL     1      26.256  21.528  73.224  1.00  0.00     0.268 C 
HETATM    2  O3  UNL     1      27.258  21.769  72.335  1.00  0.00    -0.242 OA
HETATM    3  S1  UNL     1      27.622  23.344  72.012  1.00  0.00     0.364 S 
HETATM    4  O4  UNL     1      28.470  23.382  70.754  1.00  0.00    -0.175 OA
HETATM    5  O5  UNL     1      26.465  24.235  71.795  1.00  0.00    -0.175 OA
HETATM    6  N1  UNL     1      28.512  23.953  73.367  1.00  0.00    -0.246 N 
ATOM      7  H1  UNL     1      29.222  24.661  73.182  1.00  0.00     0.182 HD
HETATM    8  C4  UNL     1      28.332  23.543  74.715  1.00  0.00     0.152 C 
HETATM    9  N2  UNL     1      29.135  24.111  75.544  1.00  0.00    -0.243 N 
ATOM     10  H2  UNL     1      29.071  23.871  76.533  1.00  0.00     0.196 HD
HETATM   11  C7  UNL     1      27.396  22.605  75.262  1.00  0.00     0.164 C 
HETATM   12  C8  UNL     1      27.948  21.266  75.707  1.00  0.00     0.243 C 
HETATM   13  O8  UNL     1      26.801  20.565  76.001  1.00  0.00    -0.282 OA
HETATM   14  N4  UNL     1      25.719  21.179  75.512  1.00  0.00    -0.089 NA
HETATM   15  C9  UNL     1      26.222  22.168  74.525  1.00  0.00     0.191 C 
ENDROOT
BRANCH   9  16
HETATM   16  O6  UNL     1      30.081  25.035  75.141  1.00  0.00    -0.224 OA
BRANCH  16  17
HETATM   17  C5  UNL     1      31.402  24.867  75.447  1.00  0.00     0.136 C 
HETATM   18  C6  UNL     1      32.124  23.571  75.383  1.00  0.00     0.099 C 
HETATM   19  N3  UNL     1      32.075  25.910  75.819  1.00  0.00    -0.382 N 
ATOM     20  H32 UNL     1      31.579  26.800  75.863  1.00  0.00     0.158 HD
ATOM     21  H31 UNL     1      33.060  25.785  76.047  1.00  0.00     0.158 HD
ENDBRANCH  16  17
ENDBRANCH   9  16
BRANCH  11  22
HETATM   22  O7  UNL     1      26.917  23.178  76.479  1.00  0.00    -0.378 OA
ATOM     23  H7  UNL     1      26.756  24.096  76.297  1.00  0.00     0.211 HD
ENDBRANCH  11  22
BRANCH   1  24
HETATM   24  C2  UNL     1      24.942  21.627  72.485  1.00  0.00     0.291 C 
HETATM   25  O2  UNL     1      24.869  21.080  71.366  1.00  0.00    -0.262 OA
BRANCH  24  26
HETATM   26  O1  UNL     1      23.859  22.291  73.015  1.00  0.00    -0.324 OA
HETATM   27  C1  UNL     1      22.608  21.652  73.262  1.00  0.00     0.213 C 
ENDBRANCH  24  26
ENDBRANCH   1  24
TORSDOF 5
ENDMDL
MODEL 2
REMARK VINA RESULT: -7.600145148      0.798      1.054
REMARK  5 active torsions:
REMARK  status: ('A' for Active; 'I' for Inactive)
REMARK    1  A    between atoms: O1_2  and  C2_3 
REMARK    2  A    between atoms: C2_3  and  C3_5 
REMARK    3  A    between atoms: N2_13  and  O6_15 
REMARK    4  A    between atoms: O6_15  and  C5_16 
REMARK    5  A    between atoms: C7_21  and  O7_22 
ROOT
HETATM    1  C3  UNL     1      25.841  21.514  73.101  1.00  0.00     0.268 C 
HETATM    2  O3  UNL     1      26.704  21.659  72.058  1.00  0.00    -0.242 OA
HETATM    3  S1  UNL     1      27.146  23.193  71.647  1.00  0.00     0.364 S 
HETATM    4  O4  UNL     1      27.779  23.146  70.269  1.00  0.00    -0.175 OA
HETATM    5  O5  UNL     1      26.050  24.181  71.599  1.00  0.00    -0.175 OA
HETATM    6  N1  UNL     1      28.292  23.730  72.829  1.00  0.00    -0.246 N 
ATOM      7  H1  UNL     1      29.021  24.371  72.517  1.00  0.00     0.182 HD
HETATM    8  C4  UNL     1      28.297  23.348  74.197  1.00  0.00     0.152 C 
HETATM    9  N2  UNL     1      29.269  23.848  74.874  1.00  0.00    -0.243 N 
ATOM     10  H2  UNL     1      29.345  23.622  75.866  1.00  0.00     0.196 HD
HETATM   11  C7  UNL     1      27.384  22.500  74.907  1.00  0.00     0.164 C 
HETATM   12  C8  UNL     1      27.883  21.121  75.286  1.00  0.00     0.243 C 
HETATM   13  O8  UNL     1      26.742  20.527  75.775  1.00  0.00    -0.282 OA
HETATM   14  N4  UNL     1      25.653  21.231  75.452  1.00  0.00    -0.089 NA
HETATM   15  C9  UNL     1      26.073  22.164  74.376  1.00  0.00     0.191 C 
ENDROOT
BRANCH   9  16
HETATM   16  O6  UNL     1      30.214  24.682  74.305  1.00  0.00    -0.224 OA
BRANCH  16  17
HETATM   17  C5  UNL     1      31.153  25.310  75.075  1.00  0.00     0.136 C 
HETATM   18  C6  UNL     1      32.143  24.610  75.932  1.00  0.00     0.099 C 
HETATM   19  N3  UNL     1      31.182  26.604  75.058  1.00  0.00    -0.382 N 
ATOM     20  H32 UNL     1      30.502  27.084  74.469  1.00  0.00     0.158 HD
ATOM     21  H31 UNL     1      31.883  27.072  75.633  1.00  0.00     0.158 HD
ENDBRANCH  16  17
ENDBRANCH   9  16
BRANCH  11  22
HETATM   22  O7  UNL     1      27.159  23.123  76.172  1.00  0.00    -0.378 OA
ATOM     23  H7  UNL     1      27.586  22.575  76.819  1.00  0.00     0.211 HD
ENDBRANCH  11  22
BRANCH   1  24
HETATM   24  C2  UNL     1      24.439  21.723  72.579  1.00  0.00     0.291 C 
HETATM   25  O2  UNL     1      23.686  22.468  73.238  1.00  0.00    -0.262 OA
BRANCH  24  26
HETATM   26  O1  UNL     1      23.997  21.121  71.423  1.00  0.00    -0.324 OA
HETATM   27  C1  UNL     1      22.727  20.480  71.324  1.00  0.00     0.213 C 
ENDBRANCH  24  26
ENDBRANCH   1  24
TORSDOF 5
ENDMDL
MODEL 3
REMARK VINA RESULT: -7.285215123      1.249      1.476
REMARK  5 active torsions:
REMARK  status: ('A' for Active; 'I' for Inactive)
REMARK    1  A    between atoms: O1_2  and  C2_3 
REMARK    2  A    between atoms: C2_3  and  C3_5 
REMARK    3  A    between atoms: N2_13  and  O6_15 
REMARK    4  A    between atoms: O6_15  and  C5_16 
REMARK    5  A    between atoms: C7_21  and  O7_22 
ROOT
HETATM    1  C3  UNL     1      25.872  21.589  73.825  1.00  0.00     0.268 C 
HETATM    2  O3  UNL     1      26.361  21.703  72.560  1.00  0.00    -0.242 OA
HETATM    3  S1  UNL     1      26.778  23.212  72.042  1.00  0.00     0.364 S 
HETATM    4  O4  UNL     1      26.927  23.165  70.532  1.00  0.00    -0.175 OA
HETATM    5  O5  UNL     1      25.815  24.284  72.360  1.00  0.00    -0.175 OA
HETATM    6  N1  UNL     1      28.286  23.613  72.792  1.00  0.00    -0.246 N 
ATOM      7  H1  UNL     1      28.928  24.206  72.267  1.00  0.00     0.182 HD
HETATM    8  C4  UNL     1      28.699  23.182  74.081  1.00  0.00     0.152 C 
HETATM    9  N2  UNL     1      29.877  23.579  74.411  1.00  0.00    -0.243 N 
ATOM     10  H2  UNL     1      30.249  23.311  75.322  1.00  0.00     0.196 HD
HETATM   11  C7  UNL     1      27.994  22.384  75.041  1.00  0.00     0.164 C 
HETATM   12  C8  UNL     1      28.467  20.956  75.225  1.00  0.00     0.243 C 
HETATM   13  O8  UNL     1      27.498  20.437  76.053  1.00  0.00    -0.282 OA
HETATM   14  N4  UNL     1      26.428  21.236  76.107  1.00  0.00    -0.089 NA
HETATM   15  C9  UNL     1      26.558  22.171  74.962  1.00  0.00     0.191 C 
ENDROOT
BRANCH   9  16
HETATM   16  O6  UNL     1      30.656  24.356  73.573  1.00  0.00    -0.224 OA
BRANCH  16  17
HETATM   17  C5  UNL     1      31.452  25.348  74.074  1.00  0.00     0.136 C 
HETATM   18  C6  UNL     1      32.780  25.720  73.523  1.00  0.00     0.099 C 
HETATM   19  N3  UNL     1      31.021  26.010  75.100  1.00  0.00    -0.382 N 
ATOM     20  H32 UNL     1      30.109  25.754  75.478  1.00  0.00     0.158 HD
ATOM     21  H31 UNL     1      31.615  26.750  75.473  1.00  0.00     0.158 HD
ENDBRANCH  16  17
ENDBRANCH   9  16
BRANCH  11  22
HETATM   22  O7  UNL     1      28.243  22.975  76.316  1.00  0.00    -0.378 OA
ATOM     23  H7  UNL     1      27.408  23.303  76.627  1.00  0.00     0.211 HD
ENDBRANCH  11  22
BRANCH   1  24
HETATM   24  C2  UNL     1      24.400  21.928  73.788  1.00  0.00     0.291 C 
HETATM   25  O2  UNL     1      23.960  22.674  74.685  1.00  0.00    -0.262 OA
BRANCH  24  26
HETATM   26  O1  UNL     1      23.566  21.438  72.808  1.00  0.00    -0.324 OA
HETATM   27  C1  UNL     1      22.726  22.279  72.020  1.00  0.00     0.213 C 
ENDBRANCH  24  26
ENDBRANCH   1  24
TORSDOF 5
ENDMDL
MODEL 4
REMARK VINA RESULT: -6.999223715      2.001      2.989
REMARK  5 active torsions:
REMARK  status: ('A' for Active; 'I' for Inactive)
REMARK    1  A    between atoms: O1_2  and  C2_3 
REMARK    2  A    between atoms: C2_3  and  C3_5 
REMARK    3  A    between atoms: N2_13  and  O6_15 
REMARK    4  A    between atoms: O6_15  and  C5_16 
REMARK    5  A    between atoms: C7_21  and  O7_22 
ROOT
HETATM    1  C3  UNL     1      26.560  22.210  73.859  1.00  0.00     0.268 C 
HETATM    2  O3  UNL     1      26.350  23.546  74.005  1.00  0.00    -0.242 OA
HETATM    3  S1  UNL     1      26.816  24.236  75.428  1.00  0.00     0.364 S 
HETATM    4  O4  UNL     1      26.159  25.601  75.525  1.00  0.00    -0.175 OA
HETATM    5  O5  UNL     1      26.461  23.485  76.648  1.00  0.00    -0.175 OA
HETATM    6  N1  UNL     1      28.540  24.389  75.383  1.00  0.00    -0.246 N 
ATOM      7  H1  UNL     1      28.953  25.183  75.870  1.00  0.00     0.182 HD
HETATM    8  C4  UNL     1      29.424  23.495  74.721  1.00  0.00     0.152 C 
HETATM    9  N2  UNL     1      30.662  23.835  74.797  1.00  0.00    -0.243 N 
ATOM     10  H2  UNL     1      31.362  23.245  74.346  1.00  0.00     0.196 HD
HETATM   11  C7  UNL     1      29.127  22.292  73.999  1.00  0.00     0.164 C 
HETATM   12  C8  UNL     1      29.244  22.352  72.490  1.00  0.00     0.243 C 
HETATM   13  O8  UNL     1      28.733  21.131  72.113  1.00  0.00    -0.282 OA
HETATM   14  N4  UNL     1      28.086  20.544  73.124  1.00  0.00    -0.089 NA
HETATM   15  C9  UNL     1      27.851  21.608  74.132  1.00  0.00     0.191 C 
ENDROOT
BRANCH   9  16
HETATM   16  O6  UNL     1      31.076  24.971  75.467  1.00  0.00    -0.224 OA
BRANCH  16  17
HETATM   17  C5  UNL     1      31.592  26.039  74.787  1.00  0.00     0.136 C 
HETATM   18  C6  UNL     1      32.629  25.942  73.729  1.00  0.00     0.099 C 
HETATM   19  N3  UNL     1      31.147  27.218  75.085  1.00  0.00    -0.382 N 
ATOM     20  H32 UNL     1      30.435  27.284  75.813  1.00  0.00     0.158 HD
ATOM     21  H31 UNL     1      31.532  28.014  74.579  1.00  0.00     0.158 HD
ENDBRANCH  16  17
ENDBRANCH   9  16
BRANCH  11  22
HETATM   22  O7  UNL     1      30.131  21.346  74.365  1.00  0.00    -0.378 OA
ATOM     23  H7  UNL     1      29.685  20.516  74.487  1.00  0.00     0.211 HD
ENDBRANCH  11  22
BRANCH   1  24
HETATM   24  C2  UNL     1      25.418  21.481  74.527  1.00  0.00     0.291 C 
HETATM   25  O2  UNL     1      25.696  20.733  75.486  1.00  0.00    -0.262 OA
BRANCH  24  26
HETATM   26  O1  UNL     1      24.116  21.629  74.105  1.00  0.00    -0.324 OA
HETATM   27  C1  UNL     1      23.738  21.561  72.731  1.00  0.00     0.213 C 
ENDBRANCH  24  26
ENDBRANCH   1  24
TORSDOF 5
ENDMDL
MODEL 5
REMARK VINA RESULT: -6.933931974      2.057      2.386
REMARK  5 active torsions:
REMARK  status: ('A' for Active; 'I' for Inactive)
REMARK    1  A    between atoms: O1_2  and  C2_3 
REMARK    2  A    between atoms: C2_3  and  C3_5 
REMARK    3  A    between atoms: N2_13  and  O6_15 
REMARK    4  A    between atoms: O6_15  and  C5_16 
REMARK    5  A    between atoms: C7_21  and  O7_22 
ROOT
HETATM    1  C3  UNL     1      24.333  22.992  72.363  1.00  0.00     0.268 C 
HETATM    2  O3  UNL     1      25.205  22.879  71.324  1.00  0.00    -0.242 OA
HETATM    3  S1  UNL     1      26.316  24.082  71.133  1.00  0.00     0.364 S 
HETATM    4  O4  UNL     1      26.909  23.956  69.741  1.00  0.00    -0.175 OA
HETATM    5  O5  UNL     1      25.798  25.457  71.271  1.00  0.00    -0.175 OA
HETATM    6  N1  UNL     1      27.535  23.851  72.340  1.00  0.00    -0.246 N 
ATOM      7  H1  UNL     1      28.488  24.125  72.103  1.00  0.00     0.182 HD
HETATM    8  C4  UNL     1      27.313  23.310  73.635  1.00  0.00     0.152 C 
HETATM    9  N2  UNL     1      28.379  23.202  74.345  1.00  0.00    -0.243 N 
ATOM     10  H2  UNL     1      28.306  22.820  75.288  1.00  0.00     0.196 HD
HETATM   11  C7  UNL     1      26.087  22.880  74.241  1.00  0.00     0.164 C 
HETATM   12  C8  UNL     1      25.884  21.386  74.391  1.00  0.00     0.243 C 
HETATM   13  O8  UNL     1      24.579  21.316  74.825  1.00  0.00    -0.282 OA
HETATM   14  N4  UNL     1      23.947  22.480  74.650  1.00  0.00    -0.089 NA
HETATM   15  C9  UNL     1      24.789  23.265  73.712  1.00  0.00     0.191 C 
ENDROOT
BRANCH   9  16
HETATM   16  O6  UNL     1      29.622  23.584  73.874  1.00  0.00    -0.224 OA
BRANCH  16  17
HETATM   17  C5  UNL     1      30.571  24.085  74.721  1.00  0.00     0.136 C 
HETATM   18  C6  UNL     1      31.609  23.269  75.399  1.00  0.00     0.099 C 
HETATM   19  N3  UNL     1      30.566  25.359  74.950  1.00  0.00    -0.382 N 
ATOM     20  H32 UNL     1      29.852  25.920  74.483  1.00  0.00     0.158 HD
ATOM     21  H31 UNL     1      31.273  25.733  75.581  1.00  0.00     0.158 HD
ENDBRANCH  16  17
ENDBRANCH   9  16
BRANCH  11  22
HETATM   22  O7  UNL     1      26.124  23.340  75.592  1.00  0.00    -0.378 OA
ATOM     23  H7  UNL     1      25.543  22.771  76.084  1.00  0.00     0.211 HD
ENDBRANCH  11  22
BRANCH   1  24
HETATM   24  C2  UNL     1      23.203  23.896  71.928  1.00  0.00     0.291 C 
HETATM   25  O2  UNL     1      22.744  24.689  72.775  1.00  0.00    -0.262 OA
BRANCH  24  26
HETATM   26  O1  UNL     1      22.693  23.858  70.650  1.00  0.00    -0.324 OA
HETATM   27  C1  UNL     1      22.285  25.030  69.947  1.00  0.00     0.213 C 
ENDBRANCH  24  26
ENDBRANCH   1  24
TORSDOF 5
ENDMDL
