MODEL 1
REMARK VINA RESULT: -8.262590530      0.000      0.000
REMARK  5 active torsions:
REMARK  status: ('A' for Active; 'I' for Inactive)
REMARK    1  A    between atoms: C2_2  and  O1_3 
REMARK    2  A    between atoms: N1_6  and  N2_8 
REMARK    3  A    between atoms: N2_8  and  C4_10 
REMARK    4  A    between atoms: C11_21  and  N5_22 
REMARK    5  A    between atoms: N8_29  and  O3_30 
ROOT
HETATM    1  C4  UNL     1      26.644  24.240  70.250  1.00  0.00     0.244 A 
HETATM    2  N3  UNL     1      27.690  23.853  70.886  1.00  0.00    -0.328 N 
ATOM      3  H3  UNL     1      28.614  24.164  70.584  1.00  0.00     0.165 HD
HETATM    4  C5  UNL     1      27.560  22.983  72.023  1.00  0.00     0.109 A 
HETATM    5  C6  UNL     1      28.142  23.628  73.276  1.00  0.00     0.054 C 
HETATM    6  C7  UNL     1      28.000  22.584  74.383  1.00  0.00     0.004 C 
HETATM    7  C8  UNL     1      28.896  21.418  74.038  1.00  0.00     0.000 C 
HETATM    8  C9  UNL     1      28.292  20.734  72.819  1.00  0.00     0.004 C 
HETATM    9  C10 UNL     1      28.384  21.732  71.681  1.00  0.00     0.054 C 
HETATM   10  N4  UNL     1      26.209  22.615  72.353  1.00  0.00    -0.329 N 
ATOM     11  H4  UNL     1      26.074  21.999  73.154  1.00  0.00     0.165 HD
HETATM   12  C11 UNL     1      25.158  23.000  71.721  1.00  0.00     0.231 A 
HETATM   13  O2  UNL     1      25.374  23.836  70.637  1.00  0.00    -0.245 OA
ENDROOT
BRANCH   1  14
HETATM   14  N2  UNL     1      26.773  25.110  69.112  1.00  0.00    -0.264 N 
ATOM     15  H2  UNL     1      27.672  25.528  68.870  1.00  0.00     0.190 HD
BRANCH  14  16
HETATM   16  N1  UNL     1      25.646  25.364  68.358  1.00  0.00    -0.290 N 
HETATM   17  C3  UNL     1      25.639  25.359  67.070  1.00  0.00     0.132 C 
HETATM   18  C2  UNL     1      24.580  25.596  66.060  1.00  0.00     0.196 C 
HETATM   19  S1  UNL     1      26.766  25.096  65.711  1.00  0.00     0.008 SA
HETATM   20  C1  UNL     1      23.174  25.376  66.555  1.00  0.00     0.075 C 
HETATM   21  N8  UNL     1      25.146  24.544  65.268  1.00  0.00    -0.090 NA
ATOM     22  H1  UNL     1      24.773  25.565  68.846  1.00  0.00     0.187 HD
BRANCH  18  23
HETATM   23  O1  UNL     1      24.738  26.882  65.525  1.00  0.00    -0.367 OA
ATOM     24  H1  UNL     1      25.349  26.883  64.798  1.00  0.00     0.212 HD
ENDBRANCH  18  23
BRANCH  21  25
HETATM   25  O3  UNL     1      24.859  24.631  63.952  1.00  0.00    -0.299 OA
ATOM     26  H3  UNL     1      24.430  23.861  63.597  1.00  0.00     0.238 HD
ENDBRANCH  21  25
ENDBRANCH  14  16
ENDBRANCH   1  14
BRANCH  12  27
HETATM   27  N5  UNL     1      23.880  22.572  72.137  1.00  0.00    -0.298 N 
HETATM   28  C12 UNL     1      23.350  21.455  71.884  1.00  0.00     0.204 C 
HETATM   29  N6  UNL     1      22.056  21.153  72.364  1.00  0.00    -0.066 NA
HETATM   30  N7  UNL     1      24.037  20.487  71.119  1.00  0.00    -0.066 NA
ATOM     31  H5  UNL     1      23.332  23.227  72.696  1.00  0.00     0.171 HD
ENDBRANCH  12  27
TORSDOF 5
ENDMDL
MODEL 2
REMARK VINA RESULT: -8.196358976      1.230      1.492
REMARK  5 active torsions:
REMARK  status: ('A' for Active; 'I' for Inactive)
REMARK    1  A    between atoms: C2_2  and  O1_3 
REMARK    2  A    between atoms: N1_6  and  N2_8 
REMARK    3  A    between atoms: N2_8  and  C4_10 
REMARK    4  A    between atoms: C11_21  and  N5_22 
REMARK    5  A    between atoms: N8_29  and  O3_30 
ROOT
HETATM    1  C4  UNL     1      25.793  24.811  70.820  1.00  0.00     0.244 A 
HETATM    2  N3  UNL     1      26.559  24.867  71.848  1.00  0.00    -0.328 N 
ATOM      3  H3  UNL     1      27.391  25.456  71.832  1.00  0.00     0.165 HD
HETATM    4  C5  UNL     1      26.244  24.100  73.022  1.00  0.00     0.109 A 
HETATM    5  C6  UNL     1      26.058  25.005  74.235  1.00  0.00     0.054 C 
HETATM    6  C7  UNL     1      25.795  24.068  75.414  1.00  0.00     0.004 C 
HETATM    7  C8  UNL     1      27.052  23.267  75.659  1.00  0.00     0.000 C 
HETATM    8  C9  UNL     1      27.216  22.321  74.477  1.00  0.00     0.004 C 
HETATM    9  C10 UNL     1      27.461  23.194  73.262  1.00  0.00     0.054 C 
HETATM   10  N4  UNL     1      25.046  23.310  72.926  1.00  0.00    -0.329 N 
ATOM     11  H4  UNL     1      24.787  22.751  73.739  1.00  0.00     0.165 HD
HETATM   12  C11 UNL     1      24.275  23.250  71.899  1.00  0.00     0.231 A 
HETATM   13  O2  UNL     1      24.653  24.020  70.811  1.00  0.00    -0.245 OA
ENDROOT
BRANCH   1  14
HETATM   14  N2  UNL     1      26.107  25.578  69.644  1.00  0.00    -0.264 N 
ATOM     15  H2  UNL     1      27.003  26.058  69.555  1.00  0.00     0.190 HD
BRANCH  14  16
HETATM   16  N1  UNL     1      25.162  25.646  68.641  1.00  0.00    -0.290 N 
HETATM   17  C3  UNL     1      25.447  25.538  67.390  1.00  0.00     0.132 C 
HETATM   18  C2  UNL     1      24.627  25.576  66.156  1.00  0.00     0.196 C 
HETATM   19  S1  UNL     1      26.871  25.292  66.342  1.00  0.00     0.008 SA
HETATM   20  C1  UNL     1      23.171  25.244  66.353  1.00  0.00     0.075 C 
HETATM   21  N8  UNL     1      25.449  24.533  65.617  1.00  0.00    -0.090 NA
ATOM     22  H1  UNL     1      24.188  25.789  68.905  1.00  0.00     0.187 HD
BRANCH  18  23
HETATM   23  O1  UNL     1      24.788  26.826  65.539  1.00  0.00    -0.367 OA
ATOM     24  H1  UNL     1      24.327  27.508  66.012  1.00  0.00     0.212 HD
ENDBRANCH  18  23
BRANCH  21  25
HETATM   25  O3  UNL     1      25.462  24.483  64.268  1.00  0.00    -0.299 OA
ATOM     26  H3  UNL     1      25.246  23.630  63.910  1.00  0.00     0.238 HD
ENDBRANCH  21  25
ENDBRANCH  14  16
ENDBRANCH   1  14
BRANCH  12  27
HETATM   27  N5  UNL     1      23.123  22.436  71.920  1.00  0.00    -0.298 N 
HETATM   28  C12 UNL     1      23.070  21.214  71.611  1.00  0.00     0.204 C 
HETATM   29  N6  UNL     1      21.844  20.513  71.676  1.00  0.00    -0.066 NA
HETATM   30  N7  UNL     1      24.230  20.523  71.197  1.00  0.00    -0.066 NA
ATOM     31  H5  UNL     1      22.250  22.877  72.212  1.00  0.00     0.171 HD
ENDBRANCH  12  27
TORSDOF 5
ENDMDL
MODEL 3
REMARK VINA RESULT: -8.166153915      3.138      7.601
REMARK  5 active torsions:
REMARK  status: ('A' for Active; 'I' for Inactive)
REMARK    1  A    between atoms: C2_2  and  O1_3 
REMARK    2  A    between atoms: N1_6  and  N2_8 
REMARK    3  A    between atoms: N2_8  and  C4_10 
REMARK    4  A    between atoms: C11_21  and  N5_22 
REMARK    5  A    between atoms: N8_29  and  O3_30 
ROOT
HETATM    1  C4  UNL     1      25.244  25.349  68.834  1.00  0.00     0.244 A 
HETATM    2  N3  UNL     1      24.347  25.817  68.043  1.00  0.00    -0.328 N 
ATOM      3  H3  UNL     1      23.484  26.205  68.424  1.00  0.00     0.165 HD
HETATM    4  C5  UNL     1      24.558  25.793  66.622  1.00  0.00     0.109 A 
HETATM    5  C6  UNL     1      24.518  27.201  66.039  1.00  0.00     0.054 C 
HETATM    6  C7  UNL     1      24.690  27.029  64.529  1.00  0.00     0.004 C 
HETATM    7  C8  UNL     1      23.472  26.306  64.004  1.00  0.00     0.000 C 
HETATM    8  C9  UNL     1      23.533  24.881  64.538  1.00  0.00     0.004 C 
HETATM    9  C10 UNL     1      23.389  24.983  66.044  1.00  0.00     0.054 C 
HETATM   10  N4  UNL     1      25.812  25.224  66.206  1.00  0.00    -0.329 N 
ATOM     11  H4  UNL     1      26.001  25.189  65.204  1.00  0.00     0.165 HD
HETATM   12  C11 UNL     1      26.714  24.755  66.992  1.00  0.00     0.231 A 
HETATM   13  O2  UNL     1      26.429  24.816  68.347  1.00  0.00    -0.245 OA
ENDROOT
BRANCH   1  14
HETATM   14  N2  UNL     1      25.033  25.372  70.257  1.00  0.00    -0.264 N 
ATOM     15  H2  UNL     1      25.378  26.145  70.826  1.00  0.00     0.190 HD
BRANCH  14  16
HETATM   16  N1  UNL     1      24.351  24.318  70.829  1.00  0.00    -0.290 N 
HETATM   17  C3  UNL     1      24.934  23.334  71.422  1.00  0.00     0.132 C 
HETATM   18  C2  UNL     1      24.430  22.115  72.098  1.00  0.00     0.196 C 
HETATM   19  S1  UNL     1      26.583  22.780  71.821  1.00  0.00     0.008 SA
HETATM   20  C1  UNL     1      23.009  22.204  72.588  1.00  0.00     0.075 C 
HETATM   21  N8  UNL     1      25.455  22.281  73.087  1.00  0.00    -0.090 NA
ATOM     22  H1  UNL     1      23.332  24.318  70.779  1.00  0.00     0.187 HD
BRANCH  18  23
HETATM   23  O1  UNL     1      24.610  21.015  71.247  1.00  0.00    -0.367 OA
ATOM     24  H1  UNL     1      25.523  20.759  71.199  1.00  0.00     0.212 HD
ENDBRANCH  18  23
BRANCH  21  25
HETATM   25  O3  UNL     1      25.791  21.141  73.726  1.00  0.00    -0.299 OA
ATOM     26  H3  UNL     1      26.152  20.470  73.158  1.00  0.00     0.238 HD
ENDBRANCH  21  25
ENDBRANCH  14  16
ENDBRANCH   1  14
BRANCH  12  27
HETATM   27  N5  UNL     1      27.909  24.219  66.467  1.00  0.00    -0.298 N 
HETATM   28  C12 UNL     1      28.001  23.421  65.494  1.00  0.00     0.204 C 
HETATM   29  N6  UNL     1      29.267  22.957  65.068  1.00  0.00    -0.066 NA
HETATM   30  N7  UNL     1      26.847  22.976  64.813  1.00  0.00    -0.066 NA
ATOM     31  H5  UNL     1      28.780  24.502  66.917  1.00  0.00     0.171 HD
ENDBRANCH  12  27
TORSDOF 5
ENDMDL
MODEL 4
REMARK VINA RESULT: -8.153754100      1.556      1.728
REMARK  5 active torsions:
REMARK  status: ('A' for Active; 'I' for Inactive)
REMARK    1  A    between atoms: C2_2  and  O1_3 
REMARK    2  A    between atoms: N1_6  and  N2_8 
REMARK    3  A    between atoms: N2_8  and  C4_10 
REMARK    4  A    between atoms: C11_21  and  N5_22 
REMARK    5  A    between atoms: N8_29  and  O3_30 
ROOT
HETATM    1  C4  UNL     1      26.019  24.723  70.659  1.00  0.00     0.244 A 
HETATM    2  N3  UNL     1      27.106  24.331  71.217  1.00  0.00    -0.328 N 
ATOM      3  H3  UNL     1      27.987  24.799  71.002  1.00  0.00     0.165 HD
HETATM    4  C5  UNL     1      27.083  23.234  72.146  1.00  0.00     0.109 A 
HETATM    5  C6  UNL     1      27.598  23.664  73.515  1.00  0.00     0.054 C 
HETATM    6  C7  UNL     1      27.582  22.402  74.378  1.00  0.00     0.004 C 
HETATM    7  C8  UNL     1      28.601  21.441  73.813  1.00  0.00     0.000 C 
HETATM    8  C9  UNL     1      28.068  20.964  72.469  1.00  0.00     0.004 C 
HETATM    9  C10 UNL     1      28.039  22.182  71.565  1.00  0.00     0.054 C 
HETATM   10  N4  UNL     1      25.784  22.658  72.370  1.00  0.00    -0.329 N 
ATOM     11  H4  UNL     1      25.725  21.877  73.023  1.00  0.00     0.165 HD
HETATM   12  C11 UNL     1      24.692  23.046  71.815  1.00  0.00     0.231 A 
HETATM   13  O2  UNL     1      24.805  24.109  70.933  1.00  0.00    -0.245 OA
ENDROOT
BRANCH   1  14
HETATM   14  N2  UNL     1      26.041  25.821  69.730  1.00  0.00    -0.264 N 
ATOM     15  H2  UNL     1      26.267  26.767  70.040  1.00  0.00     0.190 HD
BRANCH  14  16
HETATM   16  N1  UNL     1      25.747  25.558  68.408  1.00  0.00    -0.290 N 
HETATM   17  C3  UNL     1      24.592  25.777  67.880  1.00  0.00     0.132 C 
HETATM   18  C2  UNL     1      24.047  25.581  66.516  1.00  0.00     0.196 C 
HETATM   19  S1  UNL     1      22.988  26.403  68.348  1.00  0.00     0.008 SA
HETATM   20  C1  UNL     1      25.081  25.537  65.422  1.00  0.00     0.075 C 
HETATM   21  N8  UNL     1      23.329  26.813  66.663  1.00  0.00    -0.090 NA
ATOM     22  H1  UNL     1      26.483  25.170  67.818  1.00  0.00     0.187 HD
BRANCH  18  23
HETATM   23  O1  UNL     1      23.242  24.432  66.507  1.00  0.00    -0.367 OA
ATOM     24  H1  UNL     1      23.674  23.710  66.066  1.00  0.00     0.212 HD
ENDBRANCH  18  23
BRANCH  21  25
HETATM   25  O3  UNL     1      22.239  26.912  65.873  1.00  0.00    -0.299 OA
ATOM     26  H3  UNL     1      21.623  27.582  66.145  1.00  0.00     0.238 HD
ENDBRANCH  21  25
ENDBRANCH  14  16
ENDBRANCH   1  14
BRANCH  12  27
HETATM   27  N5  UNL     1      23.473  22.401  72.112  1.00  0.00    -0.298 N 
HETATM   28  C12 UNL     1      23.154  21.226  71.783  1.00  0.00     0.204 C 
HETATM   29  N6  UNL     1      21.894  20.700  72.147  1.00  0.00    -0.066 NA
HETATM   30  N7  UNL     1      24.045  20.415  71.048  1.00  0.00    -0.066 NA
ATOM     31  H5  UNL     1      22.785  22.936  72.644  1.00  0.00     0.171 HD
ENDBRANCH  12  27
TORSDOF 5
ENDMDL
MODEL 5
REMARK VINA RESULT: -7.897550105      2.878      3.813
REMARK  5 active torsions:
REMARK  status: ('A' for Active; 'I' for Inactive)
REMARK    1  A    between atoms: C2_2  and  O1_3 
REMARK    2  A    between atoms: N1_6  and  N2_8 
REMARK    3  A    between atoms: N2_8  and  C4_10 
REMARK    4  A    between atoms: C11_21  and  N5_22 
REMARK    5  A    between atoms: N8_29  and  O3_30 
ROOT
HETATM    1  C4  UNL     1      26.692  24.431  69.313  1.00  0.00     0.244 A 
HETATM    2  N3  UNL     1      26.791  23.897  70.476  1.00  0.00    -0.328 N 
ATOM      3  H3  UNL     1      27.654  23.427  70.749  1.00  0.00     0.165 HD
HETATM    4  C5  UNL     1      25.686  23.961  71.394  1.00  0.00     0.109 A 
HETATM    5  C6  UNL     1      26.083  24.674  72.681  1.00  0.00     0.054 C 
HETATM    6  C7  UNL     1      24.851  24.615  73.584  1.00  0.00     0.004 C 
HETATM    7  C8  UNL     1      24.609  23.169  73.946  1.00  0.00     0.000 C 
HETATM    8  C9  UNL     1      24.159  22.460  72.675  1.00  0.00     0.004 C 
HETATM    9  C10 UNL     1      25.338  22.501  71.723  1.00  0.00     0.054 C 
HETATM   10  N4  UNL     1      24.525  24.650  70.897  1.00  0.00    -0.329 N 
ATOM     11  H4  UNL     1      23.719  24.717  71.518  1.00  0.00     0.165 HD
HETATM   12  C11 UNL     1      24.420  25.187  69.734  1.00  0.00     0.231 A 
HETATM   13  O2  UNL     1      25.531  25.079  68.913  1.00  0.00    -0.245 OA
ENDROOT
BRANCH   1  14
HETATM   14  N2  UNL     1      27.796  24.368  68.394  1.00  0.00    -0.264 N 
ATOM     15  H2  UNL     1      28.736  24.136  68.718  1.00  0.00     0.190 HD
BRANCH  14  16
HETATM   16  N1  UNL     1      27.549  24.630  67.063  1.00  0.00    -0.290 N 
HETATM   17  C3  UNL     1      27.845  23.813  66.112  1.00  0.00     0.132 C 
HETATM   18  C2  UNL     1      27.682  23.867  64.640  1.00  0.00     0.196 C 
HETATM   19  S1  UNL     1      28.584  22.202  65.892  1.00  0.00     0.008 SA
HETATM   20  C1  UNL     1      26.608  24.806  64.157  1.00  0.00     0.075 C 
HETATM   21  N8  UNL     1      27.347  22.474  64.659  1.00  0.00    -0.090 NA
ATOM     22  H1  UNL     1      27.109  25.517  66.818  1.00  0.00     0.187 HD
BRANCH  18  23
HETATM   23  O1  UNL     1      28.922  24.163  64.054  1.00  0.00    -0.367 OA
ATOM     24  H1  UNL     1      28.851  24.878  63.434  1.00  0.00     0.212 HD
ENDBRANCH  18  23
BRANCH  21  25
HETATM   25  O3  UNL     1      27.567  21.838  63.489  1.00  0.00    -0.299 OA
ATOM     26  H3  UNL     1      27.547  20.891  63.552  1.00  0.00     0.238 HD
ENDBRANCH  21  25
ENDBRANCH  14  16
ENDBRANCH   1  14
BRANCH  12  27
HETATM   27  N5  UNL     1      23.227  25.838  69.355  1.00  0.00    -0.298 N 
HETATM   28  C12 UNL     1      22.665  25.764  68.228  1.00  0.00     0.204 C 
HETATM   29  N6  UNL     1      21.467  26.471  67.978  1.00  0.00    -0.066 NA
HETATM   30  N7  UNL     1      23.219  24.976  67.195  1.00  0.00    -0.066 NA
ATOM     31  H5  UNL     1      22.776  26.423  70.058  1.00  0.00     0.171 HD
ENDBRANCH  12  27
TORSDOF 5
ENDMDL
