MODEL 1
REMARK VINA RESULT: -8.846979831      0.000      0.000
REMARK  9 active torsions:
REMARK  status: ('A' for Active; 'I' for Inactive)
REMARK    1  A    between atoms: N1_1  and  C1_5 
REMARK    2  A    between atoms: C1_5  and  C2_6 
REMARK    3  A    between atoms: C1_5  and  C7_15 
REMARK    4  A    between atoms: C2_6  and  C3_7 
REMARK    5  A    between atoms: C5_11  and  O1_12 
REMARK       I    between atoms: C7_15  and  N3_17 
REMARK    6  A    between atoms: C8_19  and  N4_20 
REMARK    7  A    between atoms: C8_19  and  C19_32 
REMARK    8  A    between atoms: N4_20  and  C9_22 
REMARK       I    between atoms: C19_32  and  N5_34 
REMARK    9  A    between atoms: N5_34  and  C20_36 
ROOT
HETATM    1  C7  UNL     1       8.676  35.646  26.653  1.00  0.00     0.254 C 
HETATM    2  O2  UNL     1       9.859  35.617  26.201  1.00  0.00    -0.271 OA
HETATM    3  N3  UNL     1       7.530  35.500  25.860  1.00  0.00    -0.307 N 
ATOM      4  H3  UNL     1       7.120  34.567  25.835  1.00  0.00     0.170 HD
HETATM    5  C8  UNL     1       6.938  36.388  25.168  1.00  0.00     0.173 C 
ENDROOT
BRANCH   5   6
HETATM    6  N4  UNL     1       5.787  36.038  24.431  1.00  0.00    -0.362 N 
ATOM      7  H4  UNL     1       5.861  35.264  23.771  1.00  0.00     0.162 HD
BRANCH   6   8
HETATM    8  C9  UNL     1       4.517  36.702  24.550  1.00  0.00     0.033 C 
HETATM    9  C10 UNL     1       4.593  37.988  23.756  1.00  0.00     0.035 C 
HETATM   10  C11 UNL     1       3.318  38.796  23.876  1.00  0.00    -0.012 C 
HETATM   11  C12 UNL     1       3.127  39.101  25.343  1.00  0.00     0.009 C 
HETATM   12  C16 UNL     1       2.199  37.983  23.306  1.00  0.00     0.009 C 
HETATM   13  C13 UNL     1       2.921  37.820  26.082  1.00  0.00    -0.012 C 
HETATM   14  C14 UNL     1       1.784  37.017  25.499  1.00  0.00     0.009 C 
HETATM   15  C18 UNL     1       4.161  36.960  26.002  1.00  0.00     0.035 C 
HETATM   16  C15 UNL     1       2.121  36.682  24.059  1.00  0.00    -0.012 C 
HETATM   17  C17 UNL     1       3.380  35.881  23.966  1.00  0.00     0.035 C 
ENDBRANCH   6   8
ENDBRANCH   5   6
BRANCH   5  18
HETATM   18  C19 UNL     1       7.430  37.743  25.127  1.00  0.00     0.285 C 
HETATM   19  O3  UNL     1       7.165  38.569  26.047  1.00  0.00    -0.264 OA
HETATM   20  N5  UNL     1       8.229  38.163  24.030  1.00  0.00    -0.350 N 
ATOM     21  H5  UNL     1       8.430  37.483  23.297  1.00  0.00     0.163 HD
BRANCH  20  22
HETATM   22  C20 UNL     1       8.773  39.490  23.884  1.00  0.00     0.084 C 
HETATM   23  C21 UNL     1      10.142  39.364  23.269  1.00  0.00     0.025 C 
HETATM   24  C22 UNL     1      10.709  40.761  23.109  1.00  0.00     0.002 C 
HETATM   25  C23 UNL     1      10.603  41.094  21.623  1.00  0.00     0.000 C 
HETATM   26  C24 UNL     1       9.200  41.534  21.313  1.00  0.00     0.000 C 
HETATM   27  C25 UNL     1       8.178  40.471  21.646  1.00  0.00     0.002 C 
HETATM   28  C26 UNL     1       7.867  40.402  23.102  1.00  0.00     0.025 C 
ENDBRANCH  20  22
ENDBRANCH   5  18
BRANCH   1  29
HETATM   29  C1  UNL     1       8.527  35.849  28.121  1.00  0.00     0.279 C 
BRANCH  29  30
HETATM   30  N1  UNL     1       8.181  37.204  28.456  1.00  0.00    -0.066 N 
ATOM     31  H13 UNL     1       8.936  37.867  28.276  1.00  0.00     0.275 HD
ATOM     32  H12 UNL     1       7.496  37.612  27.819  1.00  0.00     0.275 HD
ATOM     33  H11 UNL     1       7.872  37.203  29.427  1.00  0.00     0.275 HD
ENDBRANCH  29  30
BRANCH  29  34
HETATM   34  C2  UNL     1       9.865  35.549  28.801  1.00  0.00     0.082 C 
BRANCH  34  35
HETATM   35  C3  UNL     1       9.923  34.139  29.239  1.00  0.00    -0.036 A 
HETATM   36  C4  UNL     1       9.803  33.616  30.509  1.00  0.00     0.097 A 
HETATM   37  N2  UNL     1       9.913  32.277  30.495  1.00  0.00    -0.347 N 
HETATM   38  C5  UNL     1      10.105  31.922  29.217  1.00  0.00     0.140 A 
ATOM     39  H2  UNL     1       9.861  31.652  31.299  1.00  0.00     0.167 HD
HETATM   40  C6  UNL     1      10.118  33.039  28.406  1.00  0.00     0.064 A 
BRANCH  38  41
HETATM   41  O1  UNL     1      10.270  30.604  28.761  1.00  0.00    -0.346 OA
ATOM     42  H1  UNL     1      10.152  30.319  27.863  1.00  0.00     0.219 HD
ENDBRANCH  38  41
ENDBRANCH  34  35
ENDBRANCH  29  34
ENDBRANCH   1  29
TORSDOF 9
ENDMDL
MODEL 2
REMARK VINA RESULT: -8.839353347      0.180      1.273
REMARK  9 active torsions:
REMARK  status: ('A' for Active; 'I' for Inactive)
REMARK    1  A    between atoms: N1_1  and  C1_5 
REMARK    2  A    between atoms: C1_5  and  C2_6 
REMARK    3  A    between atoms: C1_5  and  C7_15 
REMARK    4  A    between atoms: C2_6  and  C3_7 
REMARK    5  A    between atoms: C5_11  and  O1_12 
REMARK       I    between atoms: C7_15  and  N3_17 
REMARK    6  A    between atoms: C8_19  and  N4_20 
REMARK    7  A    between atoms: C8_19  and  C19_32 
REMARK    8  A    between atoms: N4_20  and  C9_22 
REMARK       I    between atoms: C19_32  and  N5_34 
REMARK    9  A    between atoms: N5_34  and  C20_36 
ROOT
HETATM    1  C7  UNL     1       8.677  35.643  26.652  1.00  0.00     0.254 C 
HETATM    2  O2  UNL     1       9.862  35.606  26.207  1.00  0.00    -0.271 OA
HETATM    3  N3  UNL     1       7.535  35.493  25.855  1.00  0.00    -0.307 N 
ATOM      4  H3  UNL     1       7.122  34.560  25.836  1.00  0.00     0.170 HD
HETATM    5  C8  UNL     1       6.949  36.376  25.152  1.00  0.00     0.173 C 
ENDROOT
BRANCH   5   6
HETATM    6  N4  UNL     1       5.801  36.023  24.412  1.00  0.00    -0.362 N 
ATOM      7  H4  UNL     1       5.849  35.189  23.826  1.00  0.00     0.162 HD
BRANCH   6   8
HETATM    8  C9  UNL     1       4.567  36.762  24.430  1.00  0.00     0.033 C 
HETATM    9  C10 UNL     1       3.493  35.882  23.828  1.00  0.00     0.035 C 
HETATM   10  C11 UNL     1       2.164  36.601  23.741  1.00  0.00    -0.012 C 
HETATM   11  C12 UNL     1       2.380  37.821  22.876  1.00  0.00     0.009 C 
HETATM   12  C16 UNL     1       1.733  36.949  25.130  1.00  0.00     0.009 C 
HETATM   13  C13 UNL     1       3.344  38.735  23.559  1.00  0.00    -0.012 C 
HETATM   14  C14 UNL     1       2.889  39.081  24.956  1.00  0.00     0.009 C 
HETATM   15  C18 UNL     1       4.698  38.076  23.682  1.00  0.00     0.035 C 
HETATM   16  C15 UNL     1       2.799  37.800  25.764  1.00  0.00    -0.012 C 
HETATM   17  C17 UNL     1       4.123  37.111  25.840  1.00  0.00     0.035 C 
ENDBRANCH   6   8
ENDBRANCH   5   6
BRANCH   5  18
HETATM   18  C19 UNL     1       7.445  37.729  25.101  1.00  0.00     0.285 C 
HETATM   19  O3  UNL     1       7.174  38.566  26.010  1.00  0.00    -0.264 OA
HETATM   20  N5  UNL     1       8.255  38.136  24.007  1.00  0.00    -0.350 N 
ATOM     21  H5  UNL     1       8.461  37.447  23.284  1.00  0.00     0.163 HD
BRANCH  20  22
HETATM   22  C20 UNL     1       8.804  39.460  23.853  1.00  0.00     0.084 C 
HETATM   23  C21 UNL     1      10.172  39.324  23.238  1.00  0.00     0.025 C 
HETATM   24  C22 UNL     1      10.745  40.718  23.069  1.00  0.00     0.002 C 
HETATM   25  C23 UNL     1      10.640  41.041  21.581  1.00  0.00     0.000 C 
HETATM   26  C24 UNL     1       9.240  41.484  21.267  1.00  0.00     0.000 C 
HETATM   27  C25 UNL     1       8.213  40.427  21.607  1.00  0.00     0.002 C 
HETATM   28  C26 UNL     1       7.901  40.369  23.064  1.00  0.00     0.025 C 
ENDBRANCH  20  22
ENDBRANCH   5  18
BRANCH   1  29
HETATM   29  C1  UNL     1       8.521  35.859  28.118  1.00  0.00     0.279 C 
BRANCH  29  30
HETATM   30  N1  UNL     1       8.172  37.217  28.438  1.00  0.00    -0.066 N 
ATOM     31  H13 UNL     1       8.324  37.450  29.420  1.00  0.00     0.275 HD
ATOM     32  H12 UNL     1       8.817  37.901  28.041  1.00  0.00     0.275 HD
ATOM     33  H11 UNL     1       7.207  37.356  28.138  1.00  0.00     0.275 HD
ENDBRANCH  29  30
BRANCH  29  34
HETATM   34  C2  UNL     1       9.856  35.566  28.806  1.00  0.00     0.082 C 
BRANCH  34  35
HETATM   35  C3  UNL     1       9.913  34.161  29.258  1.00  0.00    -0.036 A 
HETATM   36  C4  UNL     1       9.783  33.648  30.531  1.00  0.00     0.097 A 
HETATM   37  N2  UNL     1       9.896  32.310  30.530  1.00  0.00    -0.347 N 
HETATM   38  C5  UNL     1      10.101  31.945  29.257  1.00  0.00     0.140 A 
ATOM     39  H2  UNL     1       9.838  31.692  31.339  1.00  0.00     0.167 HD
HETATM   40  C6  UNL     1      10.119  33.055  28.436  1.00  0.00     0.064 A 
BRANCH  38  41
HETATM   41  O1  UNL     1      10.274  30.623  28.815  1.00  0.00    -0.346 OA
ATOM     42  H1  UNL     1      10.955  30.033  29.113  1.00  0.00     0.219 HD
ENDBRANCH  38  41
ENDBRANCH  34  35
ENDBRANCH  29  34
ENDBRANCH   1  29
TORSDOF 9
ENDMDL
MODEL 3
REMARK VINA RESULT: -8.648476042      0.156      1.300
REMARK  9 active torsions:
REMARK  status: ('A' for Active; 'I' for Inactive)
REMARK    1  A    between atoms: N1_1  and  C1_5 
REMARK    2  A    between atoms: C1_5  and  C2_6 
REMARK    3  A    between atoms: C1_5  and  C7_15 
REMARK    4  A    between atoms: C2_6  and  C3_7 
REMARK    5  A    between atoms: C5_11  and  O1_12 
REMARK       I    between atoms: C7_15  and  N3_17 
REMARK    6  A    between atoms: C8_19  and  N4_20 
REMARK    7  A    between atoms: C8_19  and  C19_32 
REMARK    8  A    between atoms: N4_20  and  C9_22 
REMARK       I    between atoms: C19_32  and  N5_34 
REMARK    9  A    between atoms: N5_34  and  C20_36 
ROOT
HETATM    1  C7  UNL     1       8.567  35.652  26.598  1.00  0.00     0.254 C 
HETATM    2  O2  UNL     1       9.749  35.579  26.146  1.00  0.00    -0.271 OA
HETATM    3  N3  UNL     1       7.417  35.547  25.804  1.00  0.00    -0.307 N 
ATOM      4  H3  UNL     1       6.973  34.629  25.780  1.00  0.00     0.170 HD
HETATM    5  C8  UNL     1       6.858  36.455  25.111  1.00  0.00     0.173 C 
ENDROOT
BRANCH   5   6
HETATM    6  N4  UNL     1       5.695  36.146  24.374  1.00  0.00    -0.362 N 
ATOM      7  H4  UNL     1       5.734  35.354  23.732  1.00  0.00     0.162 HD
BRANCH   6   8
HETATM    8  C9  UNL     1       4.460  36.876  24.468  1.00  0.00     0.033 C 
HETATM    9  C10 UNL     1       4.158  37.086  25.937  1.00  0.00     0.035 C 
HETATM   10  C11 UNL     1       2.834  37.790  26.141  1.00  0.00    -0.012 C 
HETATM   11  C12 UNL     1       1.771  36.920  25.511  1.00  0.00     0.009 C 
HETATM   12  C16 UNL     1       2.925  39.140  25.505  1.00  0.00     0.009 C 
HETATM   13  C13 UNL     1       2.018  36.841  24.040  1.00  0.00    -0.012 C 
HETATM   14  C14 UNL     1       2.098  38.212  23.414  1.00  0.00     0.009 C 
HETATM   15  C18 UNL     1       3.331  36.146  23.763  1.00  0.00     0.035 C 
HETATM   16  C15 UNL     1       3.255  38.962  24.047  1.00  0.00    -0.012 C 
HETATM   17  C17 UNL     1       4.551  38.251  23.829  1.00  0.00     0.035 C 
ENDBRANCH   6   8
ENDBRANCH   5   6
BRANCH   5  18
HETATM   18  C19 UNL     1       7.399  37.791  25.069  1.00  0.00     0.285 C 
HETATM   19  O3  UNL     1       7.170  38.625  25.992  1.00  0.00    -0.264 OA
HETATM   20  N5  UNL     1       8.206  38.183  23.968  1.00  0.00    -0.350 N 
ATOM     21  H5  UNL     1       8.379  37.497  23.234  1.00  0.00     0.163 HD
BRANCH  20  22
HETATM   22  C20 UNL     1       8.798  39.490  23.821  1.00  0.00     0.084 C 
HETATM   23  C21 UNL     1      10.174  39.311  23.235  1.00  0.00     0.025 C 
HETATM   24  C22 UNL     1      10.791  40.686  23.073  1.00  0.00     0.002 C 
HETATM   25  C23 UNL     1      10.726  41.007  21.582  1.00  0.00     0.000 C 
HETATM   26  C24 UNL     1       9.346  41.491  21.239  1.00  0.00     0.000 C 
HETATM   27  C25 UNL     1       8.281  40.467  21.561  1.00  0.00     0.002 C 
HETATM   28  C26 UNL     1       7.939  40.423  23.012  1.00  0.00     0.025 C 
ENDBRANCH  20  22
ENDBRANCH   5  18
BRANCH   1  29
HETATM   29  C1  UNL     1       8.425  35.862  28.066  1.00  0.00     0.279 C 
BRANCH  29  30
HETATM   30  N1  UNL     1       8.048  37.210  28.394  1.00  0.00    -0.066 N 
ATOM     31  H13 UNL     1       8.444  37.534  29.277  1.00  0.00     0.275 HD
ATOM     32  H12 UNL     1       8.487  37.906  27.791  1.00  0.00     0.275 HD
ATOM     33  H11 UNL     1       7.029  37.249  28.373  1.00  0.00     0.275 HD
ENDBRANCH  29  30
BRANCH  29  34
HETATM   34  C2  UNL     1       9.775  35.599  28.736  1.00  0.00     0.082 C 
BRANCH  34  35
HETATM   35  C3  UNL     1       9.858  34.203  29.214  1.00  0.00    -0.036 A 
HETATM   36  C4  UNL     1       9.741  33.712  30.497  1.00  0.00     0.097 A 
HETATM   37  N2  UNL     1       9.878  32.376  30.520  1.00  0.00    -0.347 N 
HETATM   38  C5  UNL     1      10.085  31.991  29.253  1.00  0.00     0.140 A 
ATOM     39  H2  UNL     1       9.833  31.772  31.341  1.00  0.00     0.167 HD
HETATM   40  C6  UNL     1      10.081  33.086  28.412  1.00  0.00     0.064 A 
BRANCH  38  41
HETATM   41  O1  UNL     1      10.279  30.664  28.835  1.00  0.00    -0.346 OA
ATOM     42  H1  UNL     1      11.122  30.233  28.765  1.00  0.00     0.219 HD
ENDBRANCH  38  41
ENDBRANCH  34  35
ENDBRANCH  29  34
ENDBRANCH   1  29
TORSDOF 9
ENDMDL
MODEL 4
REMARK VINA RESULT: -8.580006505      3.497      6.765
REMARK  9 active torsions:
REMARK  status: ('A' for Active; 'I' for Inactive)
REMARK    1  A    between atoms: N1_1  and  C1_5 
REMARK    2  A    between atoms: C1_5  and  C2_6 
REMARK    3  A    between atoms: C1_5  and  C7_15 
REMARK    4  A    between atoms: C2_6  and  C3_7 
REMARK    5  A    between atoms: C5_11  and  O1_12 
REMARK       I    between atoms: C7_15  and  N3_17 
REMARK    6  A    between atoms: C8_19  and  N4_20 
REMARK    7  A    between atoms: C8_19  and  C19_32 
REMARK    8  A    between atoms: N4_20  and  C9_22 
REMARK       I    between atoms: C19_32  and  N5_34 
REMARK    9  A    between atoms: N5_34  and  C20_36 
ROOT
HETATM    1  C7  UNL     1       5.257  38.898  26.467  1.00  0.00     0.254 C 
HETATM    2  O2  UNL     1       5.827  40.023  26.345  1.00  0.00    -0.271 OA
HETATM    3  N3  UNL     1       4.563  38.492  27.615  1.00  0.00    -0.307 N 
ATOM      4  H3  UNL     1       3.550  38.605  27.588  1.00  0.00     0.170 HD
HETATM    5  C8  UNL     1       5.041  37.998  28.685  1.00  0.00     0.173 C 
ENDROOT
BRANCH   5   6
HETATM    6  N4  UNL     1       4.168  37.650  29.736  1.00  0.00    -0.362 N 
ATOM      7  H4  UNL     1       4.538  37.663  30.687  1.00  0.00     0.162 HD
BRANCH   6   8
HETATM    8  C9  UNL     1       2.791  37.276  29.555  1.00  0.00     0.033 C 
HETATM    9  C10 UNL     1       2.727  36.287  28.412  1.00  0.00     0.035 C 
HETATM   10  C11 UNL     1       1.302  35.884  28.098  1.00  0.00    -0.012 C 
HETATM   11  C12 UNL     1       0.558  37.148  27.735  1.00  0.00     0.009 C 
HETATM   12  C16 UNL     1       0.735  35.209  29.307  1.00  0.00     0.009 C 
HETATM   13  C13 UNL     1       0.521  38.049  28.926  1.00  0.00    -0.012 C 
HETATM   14  C14 UNL     1      -0.061  37.354  30.132  1.00  0.00     0.009 C 
HETATM   15  C18 UNL     1       1.918  38.490  29.295  1.00  0.00     0.035 C 
HETATM   16  C15 UNL     1       0.815  36.162  30.469  1.00  0.00    -0.012 C 
HETATM   17  C17 UNL     1       2.214  36.584  30.779  1.00  0.00     0.035 C 
ENDBRANCH   6   8
ENDBRANCH   5   6
BRANCH   5  18
HETATM   18  C19 UNL     1       6.460  37.794  28.835  1.00  0.00     0.285 C 
HETATM   19  O3  UNL     1       7.211  38.697  29.304  1.00  0.00    -0.264 OA
HETATM   20  N5  UNL     1       7.032  36.552  28.447  1.00  0.00    -0.350 N 
ATOM     21  H5  UNL     1       6.410  35.837  28.071  1.00  0.00     0.163 HD
BRANCH  20  22
HETATM   22  C20 UNL     1       8.435  36.237  28.552  1.00  0.00     0.084 C 
HETATM   23  C21 UNL     1       8.573  35.028  29.440  1.00  0.00     0.025 C 
HETATM   24  C22 UNL     1      10.048  34.693  29.542  1.00  0.00     0.002 C 
HETATM   25  C23 UNL     1      10.267  33.469  28.657  1.00  0.00     0.000 C 
HETATM   26  C24 UNL     1      10.376  33.905  27.224  1.00  0.00     0.000 C 
HETATM   27  C25 UNL     1       9.138  34.631  26.749  1.00  0.00     0.002 C 
HETATM   28  C26 UNL     1       9.085  36.048  27.208  1.00  0.00     0.025 C 
ENDBRANCH  20  22
ENDBRANCH   5  18
BRANCH   1  29
HETATM   29  C1  UNL     1       5.346  37.974  25.302  1.00  0.00     0.279 C 
BRANCH  29  30
HETATM   30  N1  UNL     1       6.365  38.368  24.367  1.00  0.00    -0.066 N 
ATOM     31  H13 UNL     1       5.988  38.690  23.475  1.00  0.00     0.275 HD
ATOM     32  H12 UNL     1       6.837  39.234  24.629  1.00  0.00     0.275 HD
ATOM     33  H11 UNL     1       7.003  37.579  24.270  1.00  0.00     0.275 HD
ENDBRANCH  29  30
BRANCH  29  34
HETATM   34  C2  UNL     1       4.015  37.996  24.549  1.00  0.00     0.082 C 
BRANCH  34  35
HETATM   35  C3  UNL     1       3.700  36.660  24.003  1.00  0.00    -0.036 A 
HETATM   36  C4  UNL     1       2.736  36.297  23.086  1.00  0.00     0.097 A 
HETATM   37  N2  UNL     1       2.768  34.976  22.846  1.00  0.00    -0.347 N 
HETATM   38  C5  UNL     1       3.751  34.472  23.604  1.00  0.00     0.140 A 
ATOM     39  H2  UNL     1       2.161  34.457  22.210  1.00  0.00     0.167 HD
HETATM   40  C6  UNL     1       4.355  35.475  24.336  1.00  0.00     0.064 A 
BRANCH  38  41
HETATM   41  O1  UNL     1       4.119  33.118  23.652  1.00  0.00    -0.346 OA
ATOM     42  H1  UNL     1       4.935  32.763  23.321  1.00  0.00     0.219 HD
ENDBRANCH  38  41
ENDBRANCH  34  35
ENDBRANCH  29  34
ENDBRANCH   1  29
TORSDOF 9
ENDMDL
MODEL 5
REMARK VINA RESULT: -8.542831545      1.051      1.464
REMARK  9 active torsions:
REMARK  status: ('A' for Active; 'I' for Inactive)
REMARK    1  A    between atoms: N1_1  and  C1_5 
REMARK    2  A    between atoms: C1_5  and  C2_6 
REMARK    3  A    between atoms: C1_5  and  C7_15 
REMARK    4  A    between atoms: C2_6  and  C3_7 
REMARK    5  A    between atoms: C5_11  and  O1_12 
REMARK       I    between atoms: C7_15  and  N3_17 
REMARK    6  A    between atoms: C8_19  and  N4_20 
REMARK    7  A    between atoms: C8_19  and  C19_32 
REMARK    8  A    between atoms: N4_20  and  C9_22 
REMARK       I    between atoms: C19_32  and  N5_34 
REMARK    9  A    between atoms: N5_34  and  C20_36 
ROOT
HETATM    1  C7  UNL     1       7.986  35.618  26.867  1.00  0.00     0.254 C 
HETATM    2  O2  UNL     1       8.691  35.356  25.847  1.00  0.00    -0.271 OA
HETATM    3  N3  UNL     1       6.604  35.845  26.828  1.00  0.00    -0.307 N 
ATOM      4  H3  UNL     1       6.013  35.047  27.063  1.00  0.00     0.170 HD
HETATM    5  C8  UNL     1       5.996  36.923  26.537  1.00  0.00     0.173 C 
ENDROOT
BRANCH   5   6
HETATM    6  N4  UNL     1       4.585  36.948  26.556  1.00  0.00    -0.362 N 
ATOM      7  H4  UNL     1       4.116  36.716  27.431  1.00  0.00     0.162 HD
BRANCH   6   8
HETATM    8  C9  UNL     1       3.767  37.279  25.420  1.00  0.00     0.033 C 
HETATM    9  C10 UNL     1       4.239  36.442  24.251  1.00  0.00     0.035 C 
HETATM   10  C11 UNL     1       3.478  36.770  22.984  1.00  0.00    -0.012 C 
HETATM   11  C12 UNL     1       3.709  38.236  22.700  1.00  0.00     0.009 C 
HETATM   12  C16 UNL     1       2.036  36.447  23.213  1.00  0.00     0.009 C 
HETATM   13  C13 UNL     1       3.113  39.044  23.806  1.00  0.00    -0.012 C 
HETATM   14  C14 UNL     1       1.656  38.710  24.018  1.00  0.00     0.009 C 
HETATM   15  C18 UNL     1       3.828  38.763  25.107  1.00  0.00     0.035 C 
HETATM   16  C15 UNL     1       1.548  37.244  24.392  1.00  0.00    -0.012 C 
HETATM   17  C17 UNL     1       2.302  36.946  25.647  1.00  0.00     0.035 C 
ENDBRANCH   6   8
ENDBRANCH   5   6
BRANCH   5  18
HETATM   18  C19 UNL     1       6.729  38.114  26.189  1.00  0.00     0.285 C 
HETATM   19  O3  UNL     1       6.853  39.075  27.002  1.00  0.00    -0.264 OA
HETATM   20  N5  UNL     1       7.325  38.217  24.903  1.00  0.00    -0.350 N 
ATOM     21  H5  UNL     1       7.212  37.433  24.261  1.00  0.00     0.163 HD
BRANCH  20  22
HETATM   22  C20 UNL     1       8.079  39.358  24.447  1.00  0.00     0.084 C 
HETATM   23  C21 UNL     1       9.290  38.848  23.712  1.00  0.00     0.025 C 
HETATM   24  C22 UNL     1      10.078  40.050  23.226  1.00  0.00     0.002 C 
HETATM   25  C23 UNL     1       9.811  40.152  21.727  1.00  0.00     0.000 C 
HETATM   26  C24 UNL     1       8.485  40.822  21.504  1.00  0.00     0.000 C 
HETATM   27  C25 UNL     1       7.344  40.066  22.148  1.00  0.00     0.002 C 
HETATM   28  C26 UNL     1       7.250  40.301  23.617  1.00  0.00     0.025 C 
ENDBRANCH  20  22
ENDBRANCH   5  18
BRANCH   1  29
HETATM   29  C1  UNL     1       8.700  35.679  28.174  1.00  0.00     0.279 C 
BRANCH  29  30
HETATM   30  N1  UNL     1       8.900  37.030  28.626  1.00  0.00    -0.066 N 
ATOM     31  H13 UNL     1       9.550  37.556  28.041  1.00  0.00     0.275 HD
ATOM     32  H12 UNL     1       8.085  37.625  28.483  1.00  0.00     0.275 HD
ATOM     33  H11 UNL     1       9.192  36.977  29.601  1.00  0.00     0.275 HD
ENDBRANCH  29  30
BRANCH  29  34
HETATM   34  C2  UNL     1      10.086  35.052  28.010  1.00  0.00     0.082 C 
BRANCH  34  35
HETATM   35  C3  UNL     1      10.098  33.668  28.529  1.00  0.00    -0.036 A 
HETATM   36  C4  UNL     1      10.197  33.227  29.832  1.00  0.00     0.097 A 
HETATM   37  N2  UNL     1      10.170  31.886  29.894  1.00  0.00    -0.347 N 
HETATM   38  C5  UNL     1      10.055  31.447  28.632  1.00  0.00     0.140 A 
ATOM     39  H2  UNL     1      10.228  31.312  30.735  1.00  0.00     0.167 HD
HETATM   40  C6  UNL     1      10.006  32.513  27.756  1.00  0.00     0.064 A 
BRANCH  38  41
HETATM   41  O1  UNL     1       9.992  30.097  28.250  1.00  0.00    -0.346 OA
ATOM     42  H1  UNL     1       9.208  29.561  28.270  1.00  0.00     0.219 HD
ENDBRANCH  38  41
ENDBRANCH  34  35
ENDBRANCH  29  34
ENDBRANCH   1  29
TORSDOF 9
ENDMDL
