MODEL 1
REMARK VINA RESULT: -6.825444940      0.000      0.000
REMARK  7 active torsions:
REMARK  status: ('A' for Active; 'I' for Inactive)
REMARK    1  A    between atoms: C2_2  and  C3_3 
REMARK    2  A    between atoms: C3_3  and  C4_4 
REMARK    3  A    between atoms: C4_4  and  C5_5 
REMARK    4  A    between atoms: C5_5  and  C6_6 
REMARK    5  A    between atoms: C8_8  and  O1_9 
REMARK    6  A    between atoms: C16_18  and  O2_19 
REMARK    7  A    between atoms: C25_29  and  C26_30 
REMARK       I    between atoms: C26_30  and  N1_32 
REMARK       I    between atoms: N1_32  and  C27_33 
ROOT
HETATM    1  C6  UNL     1       3.350  37.885  26.207  1.00  0.00     0.006 C 
HETATM    2  C7  UNL     1       3.413  36.652  25.361  1.00  0.00     0.033 C 
HETATM    3  C8  UNL     1       4.869  36.567  24.843  1.00  0.00     0.128 C 
HETATM    4  C9  UNL     1       5.127  37.668  23.936  1.00  0.00     0.027 C 
HETATM    5  C10 UNL     1       4.202  38.248  22.989  1.00  0.00     0.013 C 
HETATM    6  C11 UNL     1       2.992  37.602  22.519  1.00  0.00    -0.009 C 
HETATM    7  C12 UNL     1       3.021  36.134  22.879  1.00  0.00     0.010 C 
HETATM    8  C13 UNL     1       2.574  36.190  24.306  1.00  0.00    -0.002 C 
HETATM    9  C14 UNL     1       1.253  36.860  24.011  1.00  0.00    -0.003 C 
HETATM   10  C15 UNL     1       0.391  37.042  25.165  1.00  0.00     0.038 C 
HETATM   11  C16 UNL     1       0.763  38.099  26.138  1.00  0.00     0.127 C 
HETATM   12  C17 UNL     1       2.077  38.723  26.103  1.00  0.00    -0.006 C 
HETATM   13  C18 UNL     1       2.022  39.680  27.311  1.00  0.00     0.019 C 
HETATM   14  C19 UNL     1       1.968  39.725  24.998  1.00  0.00     0.013 C 
HETATM   15  C20 UNL     1       1.538  39.347  23.658  1.00  0.00     0.006 C 
HETATM   16  C21 UNL     1       1.656  37.980  23.141  1.00  0.00    -0.006 C 
HETATM   17  C22 UNL     1       5.499  38.780  24.936  1.00  0.00    -0.011 C 
HETATM   18  C23 UNL     1       5.705  40.109  24.226  1.00  0.00     0.020 C 
HETATM   19  C24 UNL     1       6.968  38.448  25.217  1.00  0.00     0.020 C 
HETATM   20  C25 UNL     1       4.581  38.790  26.108  1.00  0.00     0.021 C 
ENDROOT
BRANCH  20  21
HETATM   21  C26 UNL     1       5.321  39.091  27.406  1.00  0.00     0.322 C 
HETATM   22  O3  UNL     1       5.269  40.298  27.870  1.00  0.00    -0.252 OA
HETATM   23  N1  UNL     1       6.056  38.275  28.183  1.00  0.00    -0.334 NA
HETATM   24  C27 UNL     1       6.807  37.442  28.978  1.00  0.00     0.264 C 
HETATM   25  N2  UNL     1       6.984  36.144  28.705  1.00  0.00    -0.362 N 
HETATM   26  N3  UNL     1       7.504  37.743  30.180  1.00  0.00    -0.049 NA
ATOM     27  H22 UNL     1       6.484  35.928  27.842  1.00  0.00     0.159 HD
ATOM     28  H21 UNL     1       7.541  35.526  29.295  1.00  0.00     0.159 HD
ENDBRANCH  20  21
BRANCH   1  29
HETATM   29  C5  UNL     1       3.457  37.292  27.604  1.00  0.00     0.016 C 
BRANCH  29  30
HETATM   30  C4  UNL     1       3.029  35.934  27.936  1.00  0.00     0.001 C 
BRANCH  30  31
HETATM   31  C3  UNL     1       2.045  35.873  29.125  1.00  0.00    -0.000 C 
BRANCH  31  32
HETATM   32  C2  UNL     1       0.708  35.354  28.737  1.00  0.00    -0.005 C 
HETATM   33  C1  UNL     1      -0.340  36.364  29.157  1.00  0.00     0.005 C 
ENDBRANCH  31  32
ENDBRANCH  30  31
ENDBRANCH  29  30
ENDBRANCH   1  29
BRANCH   3  34
HETATM   34  O1  UNL     1       5.239  35.279  24.459  1.00  0.00    -0.395 OA
ATOM     35  H1  UNL     1       5.195  35.142  23.520  1.00  0.00     0.210 HD
ENDBRANCH   3  34
BRANCH  11  36
HETATM   36  O2  UNL     1      -0.192  39.116  25.726  1.00  0.00    -0.395 OA
ATOM     37  H2  UNL     1       0.341  39.552  25.072  1.00  0.00     0.210 HD
ENDBRANCH  11  36
TORSDOF 7
ENDMDL
MODEL 2
REMARK VINA RESULT: -6.398420138      1.246      1.480
REMARK  7 active torsions:
REMARK  status: ('A' for Active; 'I' for Inactive)
REMARK    1  A    between atoms: C2_2  and  C3_3 
REMARK    2  A    between atoms: C3_3  and  C4_4 
REMARK    3  A    between atoms: C4_4  and  C5_5 
REMARK    4  A    between atoms: C5_5  and  C6_6 
REMARK    5  A    between atoms: C8_8  and  O1_9 
REMARK    6  A    between atoms: C16_18  and  O2_19 
REMARK    7  A    between atoms: C25_29  and  C26_30 
REMARK       I    between atoms: C26_30  and  N1_32 
REMARK       I    between atoms: N1_32  and  C27_33 
ROOT
HETATM    1  C6  UNL     1       3.597  37.287  26.397  1.00  0.00     0.006 C 
HETATM    2  C7  UNL     1       3.222  36.317  25.321  1.00  0.00     0.033 C 
HETATM    3  C8  UNL     1       4.555  35.841  24.695  1.00  0.00     0.128 C 
HETATM    4  C9  UNL     1       5.191  36.948  24.009  1.00  0.00     0.027 C 
HETATM    5  C10 UNL     1       4.536  37.999  23.263  1.00  0.00     0.013 C 
HETATM    6  C11 UNL     1       3.178  37.928  22.760  1.00  0.00    -0.009 C 
HETATM    7  C12 UNL     1       2.682  36.501  22.821  1.00  0.00     0.010 C 
HETATM    8  C13 UNL     1       2.279  36.408  24.258  1.00  0.00    -0.002 C 
HETATM    9  C14 UNL     1       1.282  37.541  24.195  1.00  0.00    -0.003 C 
HETATM   10  C15 UNL     1       0.536  37.765  25.421  1.00  0.00     0.038 C 
HETATM   11  C16 UNL     1       1.254  38.396  26.555  1.00  0.00     0.127 C 
HETATM   12  C17 UNL     1       2.705  38.517  26.551  1.00  0.00    -0.006 C 
HETATM   13  C18 UNL     1       2.987  39.157  27.926  1.00  0.00     0.019 C 
HETATM   14  C19 UNL     1       2.963  39.703  25.677  1.00  0.00     0.013 C 
HETATM   15  C20 UNL     1       2.433  39.788  24.323  1.00  0.00     0.006 C 
HETATM   16  C21 UNL     1       2.060  38.607  23.539  1.00  0.00    -0.006 C 
HETATM   17  C22 UNL     1       5.929  37.625  25.180  1.00  0.00    -0.011 C 
HETATM   18  C23 UNL     1       6.596  38.917  24.734  1.00  0.00     0.020 C 
HETATM   19  C24 UNL     1       7.184  36.751  25.285  1.00  0.00     0.020 C 
HETATM   20  C25 UNL     1       5.069  37.706  26.393  1.00  0.00     0.021 C 
ENDROOT
BRANCH  20  21
HETATM   21  C26 UNL     1       5.862  37.452  27.669  1.00  0.00     0.322 C 
HETATM   22  O3  UNL     1       6.334  36.262  27.866  1.00  0.00    -0.252 OA
HETATM   23  N1  UNL     1       6.163  38.294  28.674  1.00  0.00    -0.334 NA
HETATM   24  C27 UNL     1       6.471  39.154  29.702  1.00  0.00     0.264 C 
HETATM   25  N2  UNL     1       6.104  40.441  29.705  1.00  0.00    -0.362 N 
HETATM   26  N3  UNL     1       7.201  38.896  30.894  1.00  0.00    -0.049 NA
ATOM     27  H22 UNL     1       5.580  40.625  28.849  1.00  0.00     0.159 HD
ATOM     28  H21 UNL     1       6.332  41.079  30.467  1.00  0.00     0.159 HD
ENDBRANCH  20  21
BRANCH   1  29
HETATM   29  C5  UNL     1       3.481  36.414  27.638  1.00  0.00     0.016 C 
BRANCH  29  30
HETATM   30  C4  UNL     1       2.306  35.598  27.939  1.00  0.00     0.001 C 
BRANCH  30  31
HETATM   31  C3  UNL     1       1.766  35.803  29.371  1.00  0.00    -0.000 C 
BRANCH  31  32
HETATM   32  C2  UNL     1       0.341  36.224  29.392  1.00  0.00    -0.005 C 
HETATM   33  C1  UNL     1      -0.388  35.510  28.273  1.00  0.00     0.005 C 
ENDBRANCH  31  32
ENDBRANCH  30  31
ENDBRANCH  29  30
ENDBRANCH   1  29
BRANCH   3  34
HETATM   34  O1  UNL     1       4.446  34.617  24.039  1.00  0.00    -0.395 OA
ATOM     35  H1  UNL     1       4.769  34.641  23.146  1.00  0.00     0.210 HD
ENDBRANCH   3  34
BRANCH  11  36
HETATM   36  O2  UNL     1       0.724  39.745  26.421  1.00  0.00    -0.395 OA
ATOM     37  H2  UNL     1       1.012  39.920  25.532  1.00  0.00     0.210 HD
ENDBRANCH  11  36
TORSDOF 7
ENDMDL
MODEL 3
REMARK VINA RESULT: -6.156464504      2.241      3.252
REMARK  7 active torsions:
REMARK  status: ('A' for Active; 'I' for Inactive)
REMARK    1  A    between atoms: C2_2  and  C3_3 
REMARK    2  A    between atoms: C3_3  and  C4_4 
REMARK    3  A    between atoms: C4_4  and  C5_5 
REMARK    4  A    between atoms: C5_5  and  C6_6 
REMARK    5  A    between atoms: C8_8  and  O1_9 
REMARK    6  A    between atoms: C16_18  and  O2_19 
REMARK    7  A    between atoms: C25_29  and  C26_30 
REMARK       I    between atoms: C26_30  and  N1_32 
REMARK       I    between atoms: N1_32  and  C27_33 
ROOT
HETATM    1  C6  UNL     1       3.058  37.677  26.706  1.00  0.00     0.006 C 
HETATM    2  C7  UNL     1       4.124  36.627  26.692  1.00  0.00     0.033 C 
HETATM    3  C8  UNL     1       5.169  37.070  27.745  1.00  0.00     0.128 C 
HETATM    4  C9  UNL     1       5.821  38.285  27.299  1.00  0.00     0.027 C 
HETATM    5  C10 UNL     1       6.174  38.634  25.942  1.00  0.00     0.013 C 
HETATM    6  C11 UNL     1       6.277  37.687  24.849  1.00  0.00    -0.009 C 
HETATM    7  C12 UNL     1       6.308  36.277  25.393  1.00  0.00     0.010 C 
HETATM    8  C13 UNL     1       4.849  36.035  25.619  1.00  0.00    -0.002 C 
HETATM    9  C14 UNL     1       4.446  36.271  24.182  1.00  0.00    -0.003 C 
HETATM   10  C15 UNL     1       3.040  36.043  23.898  1.00  0.00     0.038 C 
HETATM   11  C16 UNL     1       2.069  37.053  24.386  1.00  0.00     0.127 C 
HETATM   12  C17 UNL     1       2.464  38.067  25.353  1.00  0.00    -0.006 C 
HETATM   13  C18 UNL     1       1.141  38.822  25.600  1.00  0.00     0.019 C 
HETATM   14  C19 UNL     1       3.174  39.092  24.528  1.00  0.00     0.013 C 
HETATM   15  C20 UNL     1       4.292  38.740  23.662  1.00  0.00     0.006 C 
HETATM   16  C21 UNL     1       5.117  37.546  23.874  1.00  0.00    -0.006 C 
HETATM   17  C22 UNL     1       4.814  39.345  27.785  1.00  0.00    -0.011 C 
HETATM   18  C23 UNL     1       5.218  40.738  27.325  1.00  0.00     0.020 C 
HETATM   19  C24 UNL     1       5.209  39.476  29.261  1.00  0.00     0.020 C 
HETATM   20  C25 UNL     1       3.411  38.935  27.504  1.00  0.00     0.021 C 
ENDROOT
BRANCH  20  21
HETATM   21  C26 UNL     1       2.468  39.318  28.638  1.00  0.00     0.322 C 
HETATM   22  O3  UNL     1       1.713  40.358  28.477  1.00  0.00    -0.252 OA
HETATM   23  N1  UNL     1       2.285  38.733  29.835  1.00  0.00    -0.334 NA
HETATM   24  C27 UNL     1       2.096  38.136  31.060  1.00  0.00     0.264 C 
HETATM   25  N2  UNL     1       2.755  37.034  31.438  1.00  0.00    -0.362 N 
HETATM   26  N3  UNL     1       1.221  38.516  32.114  1.00  0.00    -0.049 NA
ATOM     27  H22 UNL     1       3.383  36.762  30.681  1.00  0.00     0.159 HD
ATOM     28  H21 UNL     1       2.615  36.591  32.346  1.00  0.00     0.159 HD
ENDBRANCH  20  21
BRANCH   1  29
HETATM   29  C5  UNL     1       1.990  37.006  27.557  1.00  0.00     0.016 C 
BRANCH  29  30
HETATM   30  C4  UNL     1       2.105  35.637  28.058  1.00  0.00     0.001 C 
BRANCH  30  31
HETATM   31  C3  UNL     1       0.889  35.186  28.896  1.00  0.00    -0.000 C 
BRANCH  31  32
HETATM   32  C2  UNL     1      -0.286  36.079  28.729  1.00  0.00    -0.005 C 
HETATM   33  C1  UNL     1      -1.308  35.374  27.863  1.00  0.00     0.005 C 
ENDBRANCH  31  32
ENDBRANCH  30  31
ENDBRANCH  29  30
ENDBRANCH   1  29
BRANCH   3  34
HETATM   34  O1  UNL     1       5.954  36.018  28.214  1.00  0.00    -0.395 OA
ATOM     35  H1  UNL     1       6.641  36.300  28.806  1.00  0.00     0.210 HD
ENDBRANCH   3  34
BRANCH  11  36
HETATM   36  O2  UNL     1       1.832  37.747  23.130  1.00  0.00    -0.395 OA
ATOM     37  H2  UNL     1       1.856  38.639  23.455  1.00  0.00     0.210 HD
ENDBRANCH  11  36
TORSDOF 7
ENDMDL
MODEL 4
REMARK VINA RESULT: -6.151666667      2.264      5.081
REMARK  7 active torsions:
REMARK  status: ('A' for Active; 'I' for Inactive)
REMARK    1  A    between atoms: C2_2  and  C3_3 
REMARK    2  A    between atoms: C3_3  and  C4_4 
REMARK    3  A    between atoms: C4_4  and  C5_5 
REMARK    4  A    between atoms: C5_5  and  C6_6 
REMARK    5  A    between atoms: C8_8  and  O1_9 
REMARK    6  A    between atoms: C16_18  and  O2_19 
REMARK    7  A    between atoms: C25_29  and  C26_30 
REMARK       I    between atoms: C26_30  and  N1_32 
REMARK       I    between atoms: N1_32  and  C27_33 
ROOT
HETATM    1  C6  UNL     1       4.481  38.194  24.589  1.00  0.00     0.006 C 
HETATM    2  C7  UNL     1       4.059  39.578  24.971  1.00  0.00     0.033 C 
HETATM    3  C8  UNL     1       5.019  40.018  26.102  1.00  0.00     0.128 C 
HETATM    4  C9  UNL     1       4.785  39.206  27.280  1.00  0.00     0.027 C 
HETATM    5  C10 UNL     1       3.513  38.708  27.753  1.00  0.00     0.013 C 
HETATM    6  C11 UNL     1       2.222  39.234  27.351  1.00  0.00    -0.009 C 
HETATM    7  C12 UNL     1       2.404  40.567  26.662  1.00  0.00     0.010 C 
HETATM    8  C13 UNL     1       2.779  40.119  25.285  1.00  0.00    -0.002 C 
HETATM    9  C14 UNL     1       1.517  39.323  25.050  1.00  0.00    -0.003 C 
HETATM   10  C15 UNL     1       1.399  38.747  23.722  1.00  0.00     0.038 C 
HETATM   11  C16 UNL     1       2.253  37.576  23.405  1.00  0.00     0.127 C 
HETATM   12  C17 UNL     1       3.365  37.202  24.268  1.00  0.00    -0.006 C 
HETATM   13  C18 UNL     1       3.978  36.002  23.516  1.00  0.00     0.019 C 
HETATM   14  C19 UNL     1       2.712  36.469  25.396  1.00  0.00     0.013 C 
HETATM   15  C20 UNL     1       1.631  37.062  26.173  1.00  0.00     0.006 C 
HETATM   16  C21 UNL     1       1.426  38.510  26.275  1.00  0.00    -0.006 C 
HETATM   17  C22 UNL     1       5.654  37.975  26.957  1.00  0.00    -0.011 C 
HETATM   18  C23 UNL     1       5.485  36.892  28.012  1.00  0.00     0.020 C 
HETATM   19  C24 UNL     1       7.042  38.475  27.373  1.00  0.00     0.020 C 
HETATM   20  C25 UNL     1       5.495  37.551  25.539  1.00  0.00     0.021 C 
ENDROOT
BRANCH  20  21
HETATM   21  C26 UNL     1       6.815  37.094  24.931  1.00  0.00     0.322 C 
HETATM   22  O3  UNL     1       7.049  35.822  24.870  1.00  0.00    -0.252 OA
HETATM   23  N1  UNL     1       7.826  37.824  24.428  1.00  0.00    -0.334 NA
HETATM   24  C27 UNL     1       8.861  38.570  23.914  1.00  0.00     0.264 C 
HETATM   25  N2  UNL     1       8.831  39.907  23.855  1.00  0.00    -0.362 N 
HETATM   26  N3  UNL     1      10.094  38.127  23.363  1.00  0.00    -0.049 NA
ATOM     27  H22 UNL     1       7.946  40.224  24.251  1.00  0.00     0.159 HD
ATOM     28  H21 UNL     1       9.599  40.460  23.474  1.00  0.00     0.159 HD
ENDBRANCH  20  21
BRANCH   1  29
HETATM   29  C5  UNL     1       5.296  38.468  23.333  1.00  0.00     0.016 C 
BRANCH  29  30
HETATM   30  C4  UNL     1       5.121  39.660  22.506  1.00  0.00     0.001 C 
BRANCH  30  31
HETATM   31  C3  UNL     1       4.573  39.354  21.096  1.00  0.00    -0.000 C 
BRANCH  31  32
HETATM   32  C2  UNL     1       3.310  40.081  20.801  1.00  0.00    -0.005 C 
HETATM   33  C1  UNL     1       3.197  41.254  21.751  1.00  0.00     0.005 C 
ENDBRANCH  31  32
ENDBRANCH  30  31
ENDBRANCH  29  30
ENDBRANCH   1  29
BRANCH   3  34
HETATM   34  O1  UNL     1       5.101  41.401  26.245  1.00  0.00    -0.395 OA
ATOM     35  H1  UNL     1       4.548  41.873  25.633  1.00  0.00     0.210 HD
ENDBRANCH   3  34
BRANCH  11  36
HETATM   36  O2  UNL     1       1.248  36.533  23.546  1.00  0.00    -0.395 OA
ATOM     37  H2  UNL     1       1.199  36.262  22.637  1.00  0.00     0.210 HD
ENDBRANCH  11  36
TORSDOF 7
ENDMDL
MODEL 5
REMARK VINA RESULT: -6.060827024      2.763      5.299
REMARK  7 active torsions:
REMARK  status: ('A' for Active; 'I' for Inactive)
REMARK    1  A    between atoms: C2_2  and  C3_3 
REMARK    2  A    between atoms: C3_3  and  C4_4 
REMARK    3  A    between atoms: C4_4  and  C5_5 
REMARK    4  A    between atoms: C5_5  and  C6_6 
REMARK    5  A    between atoms: C8_8  and  O1_9 
REMARK    6  A    between atoms: C16_18  and  O2_19 
REMARK    7  A    between atoms: C25_29  and  C26_30 
REMARK       I    between atoms: C26_30  and  N1_32 
REMARK       I    between atoms: N1_32  and  C27_33 
ROOT
HETATM    1  C6  UNL     1       3.618  37.386  25.833  1.00  0.00     0.006 C 
HETATM    2  C7  UNL     1       3.904  38.288  26.992  1.00  0.00     0.033 C 
HETATM    3  C8  UNL     1       2.849  39.419  26.919  1.00  0.00     0.128 C 
HETATM    4  C9  UNL     1       3.084  40.226  25.737  1.00  0.00     0.027 C 
HETATM    5  C10 UNL     1       4.365  40.582  25.169  1.00  0.00     0.013 C 
HETATM    6  C11 UNL     1       5.628  40.512  25.878  1.00  0.00    -0.009 C 
HETATM    7  C12 UNL     1       5.375  40.356  27.361  1.00  0.00     0.010 C 
HETATM    8  C13 UNL     1       5.115  38.885  27.445  1.00  0.00    -0.002 C 
HETATM    9  C14 UNL     1       6.449  38.475  26.868  1.00  0.00    -0.003 C 
HETATM   10  C15 UNL     1       6.687  37.042  26.841  1.00  0.00     0.038 C 
HETATM   11  C16 UNL     1       5.951  36.244  25.831  1.00  0.00     0.127 C 
HETATM   12  C17 UNL     1       4.828  36.811  25.098  1.00  0.00    -0.006 C 
HETATM   13  C18 UNL     1       4.358  35.620  24.238  1.00  0.00     0.019 C 
HETATM   14  C19 UNL     1       5.476  37.636  24.032  1.00  0.00     0.013 C 
HETATM   15  C20 UNL     1       6.460  38.663  24.347  1.00  0.00     0.006 C 
HETATM   16  C21 UNL     1       6.539  39.313  25.659  1.00  0.00    -0.006 C 
HETATM   17  C22 UNL     1       2.338  39.398  24.673  1.00  0.00    -0.011 C 
HETATM   18  C23 UNL     1       2.537  39.984  23.284  1.00  0.00     0.020 C 
HETATM   19  C24 UNL     1       0.893  39.854  24.901  1.00  0.00     0.020 C 
HETATM   20  C25 UNL     1       2.610  37.942  24.824  1.00  0.00     0.021 C 
ENDROOT
BRANCH  20  21
HETATM   21  C26 UNL     1       1.368  37.101  24.557  1.00  0.00     0.322 C 
HETATM   22  O3  UNL     1       1.314  36.427  23.453  1.00  0.00    -0.252 OA
HETATM   23  N1  UNL     1       0.264  36.939  25.308  1.00  0.00    -0.334 NA
HETATM   24  C27 UNL     1      -0.865  36.773  26.076  1.00  0.00     0.264 C 
HETATM   25  N2  UNL     1      -1.023  37.359  27.269  1.00  0.00    -0.362 N 
HETATM   26  N3  UNL     1      -2.023  35.995  25.805  1.00  0.00    -0.049 NA
ATOM     27  H22 UNL     1      -0.192  37.918  27.463  1.00  0.00     0.159 HD
ATOM     28  H21 UNL     1      -1.861  37.236  27.838  1.00  0.00     0.159 HD
ENDBRANCH  20  21
BRANCH   1  29
HETATM   29  C5  UNL     1       2.854  36.260  26.514  1.00  0.00     0.016 C 
BRANCH  29  30
HETATM   30  C4  UNL     1       3.044  35.893  27.916  1.00  0.00     0.001 C 
BRANCH  30  31
HETATM   31  C3  UNL     1       1.720  35.740  28.696  1.00  0.00    -0.000 C 
BRANCH  31  32
HETATM   32  C2  UNL     1       1.687  36.559  29.936  1.00  0.00    -0.005 C 
HETATM   33  C1  UNL     1       1.748  35.628  31.128  1.00  0.00     0.005 C 
ENDBRANCH  31  32
ENDBRANCH  30  31
ENDBRANCH  29  30
ENDBRANCH   1  29
BRANCH   3  34
HETATM   34  O1  UNL     1       2.646  40.059  28.140  1.00  0.00    -0.395 OA
ATOM     35  H1  UNL     1       2.505  39.455  28.859  1.00  0.00     0.210 HD
ENDBRANCH   3  34
BRANCH  11  36
HETATM   36  O2  UNL     1       7.029  36.069  24.869  1.00  0.00    -0.395 OA
ATOM     37  H2  UNL     1       7.545  36.834  25.097  1.00  0.00     0.210 HD
ENDBRANCH  11  36
TORSDOF 7
ENDMDL
