MODEL 1
REMARK VINA RESULT: -8.495743969      0.000      0.000
REMARK  9 active torsions:
REMARK  status: ('A' for Active; 'I' for Inactive)
REMARK    1  A    between atoms: C5_5  and  N1_6 
REMARK       I    between atoms: C6_8  and  N2_9 
REMARK       I    between atoms: C6_8  and  N6_30 
REMARK    2  A    between atoms: N2_9  and  N3_11 
REMARK    3  A    between atoms: N3_11  and  C7_13 
REMARK    4  A    between atoms: C7_13  and  N4_15 
REMARK    5  A    between atoms: N4_15  and  C8_17 
REMARK    6  A    between atoms: C8_17  and  C10_19 
REMARK       I    between atoms: C10_19  and  N5_21 
REMARK    7  A    between atoms: N5_21  and  C11_23 
REMARK    8  A    between atoms: C11_23  and  C12_24 
REMARK    9  A    between atoms: N6_30  and  C18_32 
ROOT
HETATM    1  N1  UNL     1       9.184  36.523  25.690  1.00  0.00    -0.191 N 
ATOM      2  H1  UNL     1       9.962  36.638  25.039  1.00  0.00     0.184 HD
HETATM    3  C6  UNL     1       8.088  37.118  25.428  1.00  0.00     0.693 C 
HETATM    4  N2  UNL     1       7.998  37.914  24.242  1.00  0.00    -0.130 N 
ATOM      5  H2  UNL     1       7.360  37.646  23.493  1.00  0.00     0.205 HD
HETATM    6  N6  UNL     1       6.946  37.040  26.249  1.00  0.00    -0.220 N 
ATOM      7  H6  UNL     1       7.051  36.958  27.260  1.00  0.00     0.178 HD
ENDROOT
BRANCH   4   8
HETATM    8  N3  UNL     1       8.800  39.079  24.111  1.00  0.00    -0.262 N 
ATOM      9  H3  UNL     1       9.541  39.290  24.780  1.00  0.00     0.190 HD
BRANCH   8  10
HETATM   10  C7  UNL     1       8.534  39.932  23.023  1.00  0.00     0.187 C 
HETATM   11  S1  UNL     1       8.205  41.505  23.305  1.00  0.00    -0.040 SA
BRANCH  10  12
HETATM   12  N4  UNL     1       8.550  39.448  21.707  1.00  0.00    -0.353 N 
ATOM     13  H4  UNL     1       7.710  38.966  21.386  1.00  0.00     0.162 HD
BRANCH  12  14
HETATM   14  C8  UNL     1       9.630  39.562  20.767  1.00  0.00     0.172 C 
HETATM   15  C9  UNL     1       9.558  40.723  19.843  1.00  0.00     0.042 C 
BRANCH  14  16
HETATM   16  C10 UNL     1      10.985  39.536  21.473  1.00  0.00     0.240 C 
HETATM   17  O1  UNL     1      11.321  38.499  22.061  1.00  0.00    -0.271 OA
HETATM   18  N5  UNL     1      11.739  40.696  21.396  1.00  0.00    -0.359 N 
ATOM     19  H5  UNL     1      11.310  41.474  20.894  1.00  0.00     0.162 HD
BRANCH  18  20
HETATM   20  C11 UNL     1      13.025  40.935  21.924  1.00  0.00     0.127 C 
BRANCH  20  21
HETATM   21  C12 UNL     1      13.222  42.014  22.927  1.00  0.00     0.003 C 
HETATM   22  C13 UNL     1      11.817  42.449  23.344  1.00  0.00     0.006 C 
HETATM   23  C14 UNL     1      11.751  43.386  24.475  1.00  0.00     0.000 C 
HETATM   24  C15 UNL     1      12.819  43.180  25.522  1.00  0.00     0.000 C 
HETATM   25  C16 UNL     1      14.177  43.089  24.867  1.00  0.00     0.000 C 
HETATM   26  C17 UNL     1      14.123  41.765  24.042  1.00  0.00     0.006 C 
ENDBRANCH  20  21
ENDBRANCH  18  20
ENDBRANCH  14  16
ENDBRANCH  12  14
ENDBRANCH  10  12
ENDBRANCH   8  10
ENDBRANCH   4   8
BRANCH   1  27
HETATM   27  C5  UNL     1       9.384  35.713  26.831  1.00  0.00     0.049 A 
HETATM   28  C4  UNL     1       9.388  36.191  28.119  1.00  0.00     0.030 A 
HETATM   29  C3  UNL     1       9.592  35.332  29.205  1.00  0.00     0.009 A 
HETATM   30  C2  UNL     1       9.798  33.981  29.032  1.00  0.00    -0.062 A 
HETATM   31  C1  UNL     1      10.014  33.072  30.194  1.00  0.00     0.048 C 
HETATM   32  C25 UNL     1       9.795  33.493  27.741  1.00  0.00     0.009 A 
HETATM   33  C24 UNL     1       9.594  34.337  26.670  1.00  0.00     0.030 A 
ENDBRANCH   1  27
BRANCH   6  34
HETATM   34  C18 UNL     1       5.635  37.075  25.666  1.00  0.00     0.099 C 
HETATM   35  C19 UNL     1       4.588  37.059  26.763  1.00  0.00     0.026 C 
HETATM   36  C20 UNL     1       3.243  36.661  26.229  1.00  0.00     0.002 C 
HETATM   37  C21 UNL     1       3.119  36.792  24.729  1.00  0.00     0.000 C 
HETATM   38  C22 UNL     1       4.180  35.986  24.006  1.00  0.00     0.002 C 
HETATM   39  C23 UNL     1       5.426  35.833  24.851  1.00  0.00     0.026 C 
ENDBRANCH   6  34
TORSDOF 9
ENDMDL
MODEL 2
REMARK VINA RESULT: -8.321117277      0.747      1.029
REMARK  9 active torsions:
REMARK  status: ('A' for Active; 'I' for Inactive)
REMARK    1  A    between atoms: C5_5  and  N1_6 
REMARK       I    between atoms: C6_8  and  N2_9 
REMARK       I    between atoms: C6_8  and  N6_30 
REMARK    2  A    between atoms: N2_9  and  N3_11 
REMARK    3  A    between atoms: N3_11  and  C7_13 
REMARK    4  A    between atoms: C7_13  and  N4_15 
REMARK    5  A    between atoms: N4_15  and  C8_17 
REMARK    6  A    between atoms: C8_17  and  C10_19 
REMARK       I    between atoms: C10_19  and  N5_21 
REMARK    7  A    between atoms: N5_21  and  C11_23 
REMARK    8  A    between atoms: C11_23  and  C12_24 
REMARK    9  A    between atoms: N6_30  and  C18_32 
ROOT
HETATM    1  N1  UNL     1       9.282  36.432  25.673  1.00  0.00    -0.191 N 
ATOM      2  H1  UNL     1      10.066  36.486  25.023  1.00  0.00     0.184 HD
HETATM    3  C6  UNL     1       8.217  37.070  25.386  1.00  0.00     0.693 C 
HETATM    4  N2  UNL     1       8.169  37.827  24.172  1.00  0.00    -0.130 N 
ATOM      5  H2  UNL     1       7.520  37.563  23.430  1.00  0.00     0.205 HD
HETATM    6  N6  UNL     1       7.070  37.077  26.205  1.00  0.00    -0.220 N 
ATOM      7  H6  UNL     1       7.169  37.027  27.218  1.00  0.00     0.178 HD
ENDROOT
BRANCH   4   8
HETATM    8  N3  UNL     1       9.026  38.946  24.002  1.00  0.00    -0.262 N 
ATOM      9  H3  UNL     1      10.013  38.900  24.258  1.00  0.00     0.190 HD
BRANCH   8  10
HETATM   10  C7  UNL     1       8.464  40.121  23.468  1.00  0.00     0.187 C 
HETATM   11  S1  UNL     1       7.165  40.786  24.197  1.00  0.00    -0.040 SA
BRANCH  10  12
HETATM   12  N4  UNL     1       9.006  40.722  22.323  1.00  0.00    -0.353 N 
ATOM     13  H4  UNL     1       8.926  41.737  22.256  1.00  0.00     0.162 HD
BRANCH  12  14
HETATM   14  C8  UNL     1       9.663  40.051  21.235  1.00  0.00     0.172 C 
HETATM   15  C9  UNL     1       9.444  40.643  19.890  1.00  0.00     0.042 C 
BRANCH  14  16
HETATM   16  C10 UNL     1      11.158  39.893  21.503  1.00  0.00     0.240 C 
HETATM   17  O1  UNL     1      11.567  38.804  21.927  1.00  0.00    -0.271 OA
HETATM   18  N5  UNL     1      11.948  41.002  21.245  1.00  0.00    -0.359 N 
ATOM     19  H5  UNL     1      11.455  41.836  20.923  1.00  0.00     0.162 HD
BRANCH  18  20
HETATM   20  C11 UNL     1      13.348  41.123  21.373  1.00  0.00     0.127 C 
BRANCH  20  21
HETATM   21  C12 UNL     1      13.930  41.666  22.627  1.00  0.00     0.003 C 
HETATM   22  C13 UNL     1      14.633  42.963  22.226  1.00  0.00     0.006 C 
HETATM   23  C14 UNL     1      15.133  43.786  23.338  1.00  0.00     0.000 C 
HETATM   24  C15 UNL     1      14.275  43.746  24.581  1.00  0.00     0.000 C 
HETATM   25  C16 UNL     1      13.969  42.314  24.954  1.00  0.00     0.000 C 
HETATM   26  C17 UNL     1      13.066  41.794  23.792  1.00  0.00     0.006 C 
ENDBRANCH  20  21
ENDBRANCH  18  20
ENDBRANCH  14  16
ENDBRANCH  12  14
ENDBRANCH  10  12
ENDBRANCH   8  10
ENDBRANCH   4   8
BRANCH   1  27
HETATM   27  C5  UNL     1       9.439  35.655  26.844  1.00  0.00     0.049 A 
HETATM   28  C4  UNL     1       9.401  36.170  28.116  1.00  0.00     0.030 A 
HETATM   29  C3  UNL     1       9.565  35.343  29.234  1.00  0.00     0.009 A 
HETATM   30  C2  UNL     1       9.771  33.986  29.107  1.00  0.00    -0.062 A 
HETATM   31  C1  UNL     1       9.944  33.111  30.301  1.00  0.00     0.048 C 
HETATM   32  C25 UNL     1       9.810  33.461  27.831  1.00  0.00     0.009 A 
HETATM   33  C24 UNL     1       9.649  34.275  26.730  1.00  0.00     0.030 A 
ENDBRANCH   1  27
BRANCH   6  34
HETATM   34  C18 UNL     1       5.764  37.154  25.615  1.00  0.00     0.099 C 
HETATM   35  C19 UNL     1       4.717  37.266  26.708  1.00  0.00     0.026 C 
HETATM   36  C20 UNL     1       3.352  36.917  26.192  1.00  0.00     0.002 C 
HETATM   37  C21 UNL     1       3.236  36.965  24.688  1.00  0.00     0.000 C 
HETATM   38  C22 UNL     1       4.247  36.056  24.018  1.00  0.00     0.002 C 
HETATM   39  C23 UNL     1       5.482  35.880  24.876  1.00  0.00     0.026 C 
ENDBRANCH   6  34
TORSDOF 9
ENDMDL
MODEL 3
REMARK VINA RESULT: -8.295773246      2.722      5.032
REMARK  9 active torsions:
REMARK  status: ('A' for Active; 'I' for Inactive)
REMARK    1  A    between atoms: C5_5  and  N1_6 
REMARK       I    between atoms: C6_8  and  N2_9 
REMARK       I    between atoms: C6_8  and  N6_30 
REMARK    2  A    between atoms: N2_9  and  N3_11 
REMARK    3  A    between atoms: N3_11  and  C7_13 
REMARK    4  A    between atoms: C7_13  and  N4_15 
REMARK    5  A    between atoms: N4_15  and  C8_17 
REMARK    6  A    between atoms: C8_17  and  C10_19 
REMARK       I    between atoms: C10_19  and  N5_21 
REMARK    7  A    between atoms: N5_21  and  C11_23 
REMARK    8  A    between atoms: C11_23  and  C12_24 
REMARK    9  A    between atoms: N6_30  and  C18_32 
ROOT
HETATM    1  N1  UNL     1       8.978  36.824  25.610  1.00  0.00    -0.191 N 
ATOM      2  H1  UNL     1       9.765  37.010  24.988  1.00  0.00     0.184 HD
HETATM    3  C6  UNL     1       7.850  37.343  25.323  1.00  0.00     0.693 C 
HETATM    4  N2  UNL     1       7.739  38.156  24.151  1.00  0.00    -0.130 N 
ATOM      5  H2  UNL     1       7.146  37.858  23.376  1.00  0.00     0.205 HD
HETATM    6  N6  UNL     1       6.691  37.163  26.104  1.00  0.00    -0.220 N 
ATOM      7  H6  UNL     1       6.770  37.068  27.117  1.00  0.00     0.178 HD
ENDROOT
BRANCH   4   8
HETATM    8  N3  UNL     1       8.456  39.379  24.069  1.00  0.00    -0.262 N 
ATOM      9  H3  UNL     1       8.447  40.050  24.837  1.00  0.00     0.190 HD
BRANCH   8  10
HETATM   10  C7  UNL     1       9.181  39.630  22.889  1.00  0.00     0.187 C 
HETATM   11  S1  UNL     1      10.631  40.371  22.984  1.00  0.00    -0.040 SA
BRANCH  10  12
HETATM   12  N4  UNL     1       8.672  39.253  21.637  1.00  0.00    -0.353 N 
ATOM     13  H4  UNL     1       8.376  38.282  21.536  1.00  0.00     0.162 HD
BRANCH  12  14
HETATM   14  C8  UNL     1       8.526  40.098  20.484  1.00  0.00     0.172 C 
HETATM   15  C9  UNL     1       9.508  39.871  19.392  1.00  0.00     0.042 C 
BRANCH  14  16
HETATM   16  C10 UNL     1       7.103  40.040  19.931  1.00  0.00     0.240 C 
HETATM   17  O1  UNL     1       6.929  40.278  18.728  1.00  0.00    -0.271 OA
HETATM   18  N5  UNL     1       6.105  39.720  20.838  1.00  0.00    -0.359 N 
ATOM     19  H5  UNL     1       6.408  39.576  21.802  1.00  0.00     0.162 HD
BRANCH  18  20
HETATM   20  C11 UNL     1       4.724  39.569  20.595  1.00  0.00     0.127 C 
BRANCH  20  21
HETATM   21  C12 UNL     1       3.781  39.468  21.739  1.00  0.00     0.003 C 
HETATM   22  C13 UNL     1       4.549  39.992  22.953  1.00  0.00     0.006 C 
HETATM   23  C14 UNL     1       3.757  40.166  24.180  1.00  0.00     0.000 C 
HETATM   24  C15 UNL     1       2.329  40.597  23.948  1.00  0.00     0.000 C 
HETATM   25  C16 UNL     1       1.681  39.711  22.909  1.00  0.00     0.000 C 
HETATM   26  C17 UNL     1       2.448  40.034  21.588  1.00  0.00     0.006 C 
ENDBRANCH  20  21
ENDBRANCH  18  20
ENDBRANCH  14  16
ENDBRANCH  12  14
ENDBRANCH  10  12
ENDBRANCH   8  10
ENDBRANCH   4   8
BRANCH   1  27
HETATM   27  C5  UNL     1       9.200  36.006  26.741  1.00  0.00     0.049 A 
HETATM   28  C4  UNL     1       9.209  36.471  28.033  1.00  0.00     0.030 A 
HETATM   29  C3  UNL     1       9.436  35.605  29.110  1.00  0.00     0.009 A 
HETATM   30  C2  UNL     1       9.662  34.259  28.921  1.00  0.00    -0.062 A 
HETATM   31  C1  UNL     1       9.903  33.343  30.071  1.00  0.00     0.048 C 
HETATM   32  C25 UNL     1       9.655  33.784  27.625  1.00  0.00     0.009 A 
HETATM   33  C24 UNL     1       9.431  34.636  26.565  1.00  0.00     0.030 A 
ENDBRANCH   1  27
BRANCH   6  34
HETATM   34  C18 UNL     1       5.400  37.115  25.479  1.00  0.00     0.099 C 
HETATM   35  C19 UNL     1       4.317  37.160  26.540  1.00  0.00     0.026 C 
HETATM   36  C20 UNL     1       3.002  36.683  25.997  1.00  0.00     0.002 C 
HETATM   37  C21 UNL     1       2.926  36.688  24.489  1.00  0.00     0.000 C 
HETATM   38  C22 UNL     1       4.030  35.855  23.869  1.00  0.00     0.002 C 
HETATM   39  C23 UNL     1       5.250  35.805  24.763  1.00  0.00     0.026 C 
ENDBRANCH   6  34
TORSDOF 9
ENDMDL
MODEL 4
REMARK VINA RESULT: -8.291105558      2.995      6.845
REMARK  9 active torsions:
REMARK  status: ('A' for Active; 'I' for Inactive)
REMARK    1  A    between atoms: C5_5  and  N1_6 
REMARK       I    between atoms: C6_8  and  N2_9 
REMARK       I    between atoms: C6_8  and  N6_30 
REMARK    2  A    between atoms: N2_9  and  N3_11 
REMARK    3  A    between atoms: N3_11  and  C7_13 
REMARK    4  A    between atoms: C7_13  and  N4_15 
REMARK    5  A    between atoms: N4_15  and  C8_17 
REMARK    6  A    between atoms: C8_17  and  C10_19 
REMARK       I    between atoms: C10_19  and  N5_21 
REMARK    7  A    between atoms: N5_21  and  C11_23 
REMARK    8  A    between atoms: C11_23  and  C12_24 
REMARK    9  A    between atoms: N6_30  and  C18_32 
ROOT
HETATM    1  N1  UNL     1       7.325  37.748  24.043  1.00  0.00    -0.191 N 
ATOM      2  H1  UNL     1       6.661  37.548  23.294  1.00  0.00     0.184 HD
HETATM    3  C6  UNL     1       7.262  37.049  25.106  1.00  0.00     0.693 C 
HETATM    4  N2  UNL     1       6.270  36.021  25.201  1.00  0.00    -0.130 N 
ATOM      5  H2  UNL     1       6.552  35.043  25.267  1.00  0.00     0.205 HD
HETATM    6  N6  UNL     1       8.119  37.232  26.209  1.00  0.00    -0.220 N 
ATOM      7  H6  UNL     1       8.457  38.166  26.441  1.00  0.00     0.178 HD
ENDROOT
BRANCH   4   8
HETATM    8  N3  UNL     1       4.892  36.367  25.204  1.00  0.00    -0.262 N 
ATOM      9  H3  UNL     1       4.423  36.664  26.059  1.00  0.00     0.190 HD
BRANCH   8  10
HETATM   10  C7  UNL     1       4.199  36.284  23.981  1.00  0.00     0.187 C 
HETATM   11  S1  UNL     1       3.529  34.864  23.538  1.00  0.00    -0.040 SA
BRANCH  10  12
HETATM   12  N4  UNL     1       4.079  37.403  23.144  1.00  0.00    -0.353 N 
ATOM     13  H4  UNL     1       4.827  38.095  23.193  1.00  0.00     0.162 HD
BRANCH  12  14
HETATM   14  C8  UNL     1       3.009  37.672  22.224  1.00  0.00     0.172 C 
HETATM   15  C9  UNL     1       1.661  37.821  22.832  1.00  0.00     0.042 C 
BRANCH  14  16
HETATM   16  C10 UNL     1       3.324  38.879  21.343  1.00  0.00     0.240 C 
HETATM   17  O1  UNL     1       2.487  39.789  21.270  1.00  0.00    -0.271 OA
HETATM   18  N5  UNL     1       4.544  38.856  20.686  1.00  0.00    -0.359 N 
ATOM     19  H5  UNL     1       5.112  38.021  20.830  1.00  0.00     0.162 HD
BRANCH  18  20
HETATM   20  C11 UNL     1       5.097  39.842  19.843  1.00  0.00     0.127 C 
BRANCH  20  21
HETATM   21  C12 UNL     1       6.547  39.807  19.518  1.00  0.00     0.003 C 
HETATM   22  C13 UNL     1       6.689  40.551  18.190  1.00  0.00     0.006 C 
HETATM   23  C14 UNL     1       8.069  40.811  17.751  1.00  0.00     0.000 C 
HETATM   24  C15 UNL     1       9.043  41.077  18.874  1.00  0.00     0.000 C 
HETATM   25  C16 UNL     1       8.917  40.009  19.935  1.00  0.00     0.000 C 
HETATM   26  C17 UNL     1       7.494  40.226  20.540  1.00  0.00     0.006 C 
ENDBRANCH  20  21
ENDBRANCH  18  20
ENDBRANCH  14  16
ENDBRANCH  12  14
ENDBRANCH  10  12
ENDBRANCH   8  10
ENDBRANCH   4   8
BRANCH   1  27
HETATM   27  C5  UNL     1       8.263  38.787  23.842  1.00  0.00     0.049 A 
HETATM   28  C4  UNL     1       8.006  40.111  24.100  1.00  0.00     0.030 A 
HETATM   29  C3  UNL     1       8.981  41.091  23.878  1.00  0.00     0.009 A 
HETATM   30  C2  UNL     1      10.231  40.772  23.394  1.00  0.00    -0.062 A 
HETATM   31  C1  UNL     1      11.265  41.820  23.160  1.00  0.00     0.048 C 
HETATM   32  C25 UNL     1      10.497  39.443  23.131  1.00  0.00     0.009 A 
HETATM   33  C24 UNL     1       9.537  38.478  23.350  1.00  0.00     0.030 A 
ENDBRANCH   1  27
BRANCH   6  34
HETATM   34  C18 UNL     1       8.516  36.108  27.008  1.00  0.00     0.099 C 
HETATM   35  C19 UNL     1       8.920  36.582  28.391  1.00  0.00     0.026 C 
HETATM   36  C20 UNL     1       9.737  35.546  29.106  1.00  0.00     0.002 C 
HETATM   37  C21 UNL     1       9.613  34.160  28.520  1.00  0.00     0.000 C 
HETATM   38  C22 UNL     1       9.987  34.135  27.052  1.00  0.00     0.002 C 
HETATM   39  C23 UNL     1       9.730  35.475  26.396  1.00  0.00     0.026 C 
ENDBRANCH   6  34
TORSDOF 9
ENDMDL
MODEL 5
REMARK VINA RESULT: -8.240632031      0.629      1.124
REMARK  9 active torsions:
REMARK  status: ('A' for Active; 'I' for Inactive)
REMARK    1  A    between atoms: C5_5  and  N1_6 
REMARK       I    between atoms: C6_8  and  N2_9 
REMARK       I    between atoms: C6_8  and  N6_30 
REMARK    2  A    between atoms: N2_9  and  N3_11 
REMARK    3  A    between atoms: N3_11  and  C7_13 
REMARK    4  A    between atoms: C7_13  and  N4_15 
REMARK    5  A    between atoms: N4_15  and  C8_17 
REMARK    6  A    between atoms: C8_17  and  C10_19 
REMARK       I    between atoms: C10_19  and  N5_21 
REMARK    7  A    between atoms: N5_21  and  C11_23 
REMARK    8  A    between atoms: C11_23  and  C12_24 
REMARK    9  A    between atoms: N6_30  and  C18_32 
ROOT
HETATM    1  N1  UNL     1       9.116  36.609  25.608  1.00  0.00    -0.191 N 
ATOM      2  H1  UNL     1       9.893  36.740  24.961  1.00  0.00     0.184 HD
HETATM    3  C6  UNL     1       8.017  37.204  25.357  1.00  0.00     0.693 C 
HETATM    4  N2  UNL     1       7.925  38.024  24.187  1.00  0.00    -0.130 N 
ATOM      5  H2  UNL     1       7.289  37.767  23.432  1.00  0.00     0.205 HD
HETATM    6  N6  UNL     1       6.875  37.105  26.175  1.00  0.00    -0.220 N 
ATOM      7  H6  UNL     1       6.979  37.004  27.185  1.00  0.00     0.178 HD
ENDROOT
BRANCH   4   8
HETATM    8  N3  UNL     1       8.722  39.194  24.080  1.00  0.00    -0.262 N 
ATOM      9  H3  UNL     1       9.628  39.262  24.543  1.00  0.00     0.190 HD
BRANCH   8  10
HETATM   10  C7  UNL     1       8.215  40.258  23.310  1.00  0.00     0.187 C 
HETATM   11  S1  UNL     1       7.130  41.279  23.976  1.00  0.00    -0.040 SA
BRANCH  10  12
HETATM   12  N4  UNL     1       8.629  40.448  21.984  1.00  0.00    -0.353 N 
ATOM     13  H4  UNL     1       8.314  41.302  21.522  1.00  0.00     0.162 HD
BRANCH  12  14
HETATM   14  C8  UNL     1       9.454  39.562  21.210  1.00  0.00     0.172 C 
HETATM   15  C9  UNL     1       9.411  39.763  19.739  1.00  0.00     0.042 C 
BRANCH  14  16
HETATM   16  C10 UNL     1      10.901  39.581  21.701  1.00  0.00     0.240 C 
HETATM   17  O1  UNL     1      11.303  38.628  22.382  1.00  0.00    -0.271 OA
HETATM   18  N5  UNL     1      11.657  40.684  21.337  1.00  0.00    -0.359 N 
ATOM     19  H5  UNL     1      11.171  41.398  20.794  1.00  0.00     0.162 HD
BRANCH  18  20
HETATM   20  C11 UNL     1      13.014  40.942  21.624  1.00  0.00     0.127 C 
BRANCH  20  21
HETATM   21  C12 UNL     1      13.379  42.098  22.483  1.00  0.00     0.003 C 
HETATM   22  C13 UNL     1      12.784  41.792  23.858  1.00  0.00     0.006 C 
HETATM   23  C14 UNL     1      13.174  42.711  24.938  1.00  0.00     0.000 C 
HETATM   24  C15 UNL     1      14.581  43.247  24.827  1.00  0.00     0.000 C 
HETATM   25  C16 UNL     1      14.824  43.783  23.436  1.00  0.00     0.000 C 
HETATM   26  C17 UNL     1      14.771  42.521  22.518  1.00  0.00     0.006 C 
ENDBRANCH  20  21
ENDBRANCH  18  20
ENDBRANCH  14  16
ENDBRANCH  12  14
ENDBRANCH  10  12
ENDBRANCH   8  10
ENDBRANCH   4   8
BRANCH   1  27
HETATM   27  C5  UNL     1       9.318  35.777  26.733  1.00  0.00     0.049 A 
HETATM   28  C4  UNL     1       9.548  34.425  26.655  1.00  0.00     0.030 A 
HETATM   29  C3  UNL     1       9.739  33.659  27.811  1.00  0.00     0.009 A 
HETATM   30  C2  UNL     1       9.704  34.222  29.068  1.00  0.00    -0.062 A 
HETATM   31  C1  UNL     1       9.909  33.400  30.294  1.00  0.00     0.048 C 
HETATM   32  C25 UNL     1       9.472  35.580  29.155  1.00  0.00     0.009 A 
HETATM   33  C24 UNL     1       9.284  36.335  28.017  1.00  0.00     0.030 A 
ENDBRANCH   1  27
BRANCH   6  34
HETATM   34  C18 UNL     1       5.565  37.146  25.592  1.00  0.00     0.099 C 
HETATM   35  C19 UNL     1       4.516  37.129  26.689  1.00  0.00     0.026 C 
HETATM   36  C20 UNL     1       3.171  36.737  26.152  1.00  0.00     0.002 C 
HETATM   37  C21 UNL     1       3.048  36.874  24.653  1.00  0.00     0.000 C 
HETATM   38  C22 UNL     1       4.107  36.068  23.927  1.00  0.00     0.002 C 
HETATM   39  C23 UNL     1       5.353  35.908  24.772  1.00  0.00     0.026 C 
ENDBRANCH   6  34
TORSDOF 9
ENDMDL
