MODEL 1
REMARK VINA RESULT: -9.416845402      0.000      0.000
REMARK  7 active torsions:
REMARK  status: ('A' for Active; 'I' for Inactive)
REMARK    1  A    between atoms: C6_8  and  C7_9 
REMARK    2  A    between atoms: C12_14  and  C13_15 
REMARK    3  A    between atoms: C12_14  and  C20_25 
REMARK       I    between atoms: C13_15  and  N2_17 
REMARK    4  A    between atoms: N2_17  and  C14_19 
REMARK    5  A    between atoms: C14_19  and  C15_20 
REMARK    6  A    between atoms: C20_25  and  O2_26 
REMARK    7  A    between atoms: C20_25  and  N3_28 
ROOT
HETATM    1  C7  UNL     1       5.470  37.211  26.522  1.00  0.00    -0.041 C 
HETATM    2  C8  UNL     1       4.701  37.050  27.815  1.00  0.00     0.037 C 
HETATM    3  C9  UNL     1       5.165  38.091  28.825  1.00  0.00     0.004 C 
HETATM    4  C10 UNL     1       6.629  38.112  29.018  1.00  0.00     0.002 C 
HETATM    5  C11 UNL     1       7.350  38.304  27.726  1.00  0.00     0.032 C 
HETATM    6  C12 UNL     1       6.966  37.337  26.669  1.00  0.00     0.129 C 
ENDROOT
BRANCH   6   7
HETATM    7  C13 UNL     1       7.527  37.783  25.353  1.00  0.00     0.238 C 
HETATM    8  O1  UNL     1       7.728  36.901  24.437  1.00  0.00    -0.272 OA
HETATM    9  N2  UNL     1       7.860  39.104  25.004  1.00  0.00    -0.359 N 
ATOM     10  H2  UNL     1       7.763  39.857  25.685  1.00  0.00     0.162 HD
BRANCH   9  11
HETATM   11  C14 UNL     1       8.341  39.383  23.673  1.00  0.00     0.127 C 
BRANCH  11  12
HETATM   12  C15 UNL     1       9.806  39.316  23.463  1.00  0.00     0.003 C 
HETATM   13  C16 UNL     1      10.217  38.559  22.239  1.00  0.00     0.006 C 
HETATM   14  C17 UNL     1      10.758  39.619  21.280  1.00  0.00     0.000 C 
HETATM   15  C18 UNL     1      11.297  40.736  22.166  1.00  0.00     0.000 C 
HETATM   16  C19 UNL     1      10.352  40.727  23.334  1.00  0.00     0.006 C 
ENDBRANCH  11  12
ENDBRANCH   9  11
ENDBRANCH   6   7
BRANCH   6  17
HETATM   17  C20 UNL     1       7.630  36.041  26.975  1.00  0.00     0.136 C 
BRANCH  17  18
HETATM   18  O2  UNL     1       6.866  35.031  26.561  1.00  0.00    -0.348 OA
ATOM     19  H2  UNL     1       6.167  34.875  27.186  1.00  0.00     0.219 HD
ENDBRANCH  17  18
BRANCH  17  20
HETATM   20  N3  UNL     1       8.793  35.624  27.545  1.00  0.00    -0.359 N 
HETATM   21  C21 UNL     1       9.900  35.288  26.562  1.00  0.00     0.131 C 
HETATM   22  C22 UNL     1      10.068  33.807  26.557  1.00  0.00     0.079 C 
HETATM   23  C23 UNL     1      10.058  33.256  27.916  1.00  0.00     0.039 A 
HETATM   24  N4  UNL     1      10.398  32.045  28.367  1.00  0.00    -0.303 N 
HETATM   25  C25 UNL     1       9.654  33.978  29.046  1.00  0.00     0.029 A 
HETATM   26  N5  UNL     1      10.224  31.990  29.693  1.00  0.00    -0.285 N 
ATOM     27  H4  UNL     1      10.739  31.278  27.788  1.00  0.00     0.186 HD
HETATM   28  C24 UNL     1       9.768  33.168  30.131  1.00  0.00     0.123 A 
ATOM     29  H5  UNL     1      10.411  31.175  30.278  1.00  0.00     0.188 HD
HETATM   30  N6  UNL     1       9.501  33.463  31.361  1.00  0.00    -0.384 N 
ATOM     31  H62 UNL     1       9.586  32.855  32.176  1.00  0.00     0.157 HD
ATOM     32  H61 UNL     1       9.153  34.361  31.696  1.00  0.00     0.157 HD
HETATM   33  C26 UNL     1       9.238  35.418  28.887  1.00  0.00     0.169 C 
ENDBRANCH  17  20
ENDBRANCH   6  17
BRANCH   1  34
HETATM   34  C6  UNL     1       4.711  37.565  25.332  1.00  0.00    -0.003 A 
HETATM   35  C2  UNL     1       4.403  38.819  24.823  1.00  0.00    -0.034 A 
HETATM   36  C1  UNL     1       4.434  40.119  25.502  1.00  0.00     0.050 C 
HETATM   37  C3  UNL     1       3.847  38.686  23.552  1.00  0.00     0.095 A 
HETATM   38  N1  UNL     1       3.790  37.394  23.255  1.00  0.00    -0.368 N 
HETATM   39  C4  UNL     1       4.289  36.706  24.280  1.00  0.00     0.016 A 
ATOM     40  H1  UNL     1       3.427  36.996  22.389  1.00  0.00     0.165 HD
HETATM   41  C5  UNL     1       4.341  35.224  24.253  1.00  0.00     0.069 C 
ENDBRANCH   1  34
TORSDOF 7
ENDMDL
MODEL 2
REMARK VINA RESULT: -9.348624683      0.645      1.486
REMARK  7 active torsions:
REMARK  status: ('A' for Active; 'I' for Inactive)
REMARK    1  A    between atoms: C6_8  and  C7_9 
REMARK    2  A    between atoms: C12_14  and  C13_15 
REMARK    3  A    between atoms: C12_14  and  C20_25 
REMARK       I    between atoms: C13_15  and  N2_17 
REMARK    4  A    between atoms: N2_17  and  C14_19 
REMARK    5  A    between atoms: C14_19  and  C15_20 
REMARK    6  A    between atoms: C20_25  and  O2_26 
REMARK    7  A    between atoms: C20_25  and  N3_28 
ROOT
HETATM    1  C7  UNL     1       5.250  37.181  26.732  1.00  0.00    -0.041 C 
HETATM    2  C8  UNL     1       4.557  36.949  28.057  1.00  0.00     0.037 C 
HETATM    3  C9  UNL     1       4.995  38.005  29.061  1.00  0.00     0.004 C 
HETATM    4  C10 UNL     1       6.462  38.126  29.187  1.00  0.00     0.002 C 
HETATM    5  C11 UNL     1       7.105  38.386  27.867  1.00  0.00     0.032 C 
HETATM    6  C12 UNL     1       6.739  37.410  26.812  1.00  0.00     0.129 C 
ENDROOT
BRANCH   6   7
HETATM    7  C13 UNL     1       7.205  37.911  25.479  1.00  0.00     0.238 C 
HETATM    8  O1  UNL     1       7.400  37.061  24.533  1.00  0.00    -0.272 OA
HETATM    9  N2  UNL     1       7.452  39.255  25.144  1.00  0.00    -0.359 N 
ATOM     10  H2  UNL     1       7.353  39.987  25.848  1.00  0.00     0.162 HD
BRANCH   9  11
HETATM   11  C14 UNL     1       7.845  39.587  23.797  1.00  0.00     0.127 C 
BRANCH  11  12
HETATM   12  C15 UNL     1       9.273  39.917  23.579  1.00  0.00     0.003 C 
HETATM   13  C16 UNL     1      10.132  38.737  23.250  1.00  0.00     0.006 C 
HETATM   14  C17 UNL     1      10.512  38.922  21.780  1.00  0.00     0.000 C 
HETATM   15  C18 UNL     1      10.498  40.428  21.539  1.00  0.00     0.000 C 
HETATM   16  C19 UNL     1       9.382  40.901  22.428  1.00  0.00     0.006 C 
ENDBRANCH  11  12
ENDBRANCH   9  11
ENDBRANCH   6   7
BRANCH   6  17
HETATM   17  C20 UNL     1       7.505  36.159  27.064  1.00  0.00     0.136 C 
BRANCH  17  18
HETATM   18  O2  UNL     1       6.844  35.113  26.569  1.00  0.00    -0.348 OA
ATOM     19  H2  UNL     1       6.792  35.182  25.622  1.00  0.00     0.219 HD
ENDBRANCH  17  18
BRANCH  17  20
HETATM   20  N3  UNL     1       8.684  35.809  27.648  1.00  0.00    -0.359 N 
HETATM   21  C21 UNL     1       9.842  35.628  26.683  1.00  0.00     0.131 C 
HETATM   22  C22 UNL     1      10.138  34.169  26.600  1.00  0.00     0.079 C 
HETATM   23  C23 UNL     1      10.139  33.539  27.924  1.00  0.00     0.039 A 
HETATM   24  N4  UNL     1      10.571  32.337  28.317  1.00  0.00    -0.303 N 
HETATM   25  C25 UNL     1       9.644  34.157  29.080  1.00  0.00     0.029 A 
HETATM   26  N5  UNL     1      10.367  32.190  29.631  1.00  0.00    -0.285 N 
ATOM     27  H4  UNL     1      10.993  31.638  27.706  1.00  0.00     0.186 HD
HETATM   28  C24 UNL     1       9.798  33.296  30.120  1.00  0.00     0.123 A 
ATOM     29  H5  UNL     1      10.608  31.361  30.175  1.00  0.00     0.188 HD
HETATM   30  N6  UNL     1       9.473  33.494  31.355  1.00  0.00    -0.384 N 
ATOM     31  H62 UNL     1       9.588  32.848  32.137  1.00  0.00     0.157 HD
ATOM     32  H61 UNL     1       9.039  34.338  31.729  1.00  0.00     0.157 HD
HETATM   33  C26 UNL     1       9.109  35.563  28.990  1.00  0.00     0.169 C 
ENDBRANCH  17  20
ENDBRANCH   6  17
BRANCH   1  34
HETATM   34  C6  UNL     1       4.413  37.497  25.585  1.00  0.00    -0.003 A 
HETATM   35  C2  UNL     1       3.876  36.650  24.625  1.00  0.00    -0.034 A 
HETATM   36  C1  UNL     1       4.278  35.282  24.279  1.00  0.00     0.050 C 
HETATM   37  C3  UNL     1       2.962  37.350  23.840  1.00  0.00     0.095 A 
HETATM   38  N1  UNL     1       2.915  38.603  24.272  1.00  0.00    -0.368 N 
HETATM   39  C4  UNL     1       3.757  38.724  25.297  1.00  0.00     0.016 A 
ATOM     40  H1  UNL     1       2.333  39.346  23.885  1.00  0.00     0.165 HD
HETATM   41  C5  UNL     1       3.942  40.026  25.983  1.00  0.00     0.069 C 
ENDBRANCH   1  34
TORSDOF 7
ENDMDL
MODEL 3
REMARK VINA RESULT: -9.191403287      1.167      2.082
REMARK  7 active torsions:
REMARK  status: ('A' for Active; 'I' for Inactive)
REMARK    1  A    between atoms: C6_8  and  C7_9 
REMARK    2  A    between atoms: C12_14  and  C13_15 
REMARK    3  A    between atoms: C12_14  and  C20_25 
REMARK       I    between atoms: C13_15  and  N2_17 
REMARK    4  A    between atoms: N2_17  and  C14_19 
REMARK    5  A    between atoms: C14_19  and  C15_20 
REMARK    6  A    between atoms: C20_25  and  O2_26 
REMARK    7  A    between atoms: C20_25  and  N3_28 
ROOT
HETATM    1  C7  UNL     1       5.484  37.241  26.677  1.00  0.00    -0.041 C 
HETATM    2  C8  UNL     1       4.779  37.128  28.011  1.00  0.00     0.037 C 
HETATM    3  C9  UNL     1       5.315  38.182  28.970  1.00  0.00     0.004 C 
HETATM    4  C10 UNL     1       6.788  38.177  29.088  1.00  0.00     0.002 C 
HETATM    5  C11 UNL     1       7.445  38.322  27.757  1.00  0.00     0.032 C 
HETATM    6  C12 UNL     1       6.988  37.339  26.746  1.00  0.00     0.129 C 
ENDROOT
BRANCH   6   7
HETATM    7  C13 UNL     1       7.490  37.740  25.392  1.00  0.00     0.238 C 
HETATM    8  O1  UNL     1       7.711  36.821  24.518  1.00  0.00    -0.272 OA
HETATM    9  N2  UNL     1       7.746  39.055  24.964  1.00  0.00    -0.359 N 
ATOM     10  H2  UNL     1       7.628  39.838  25.608  1.00  0.00     0.162 HD
BRANCH   9  11
HETATM   11  C14 UNL     1       8.176  39.286  23.607  1.00  0.00     0.127 C 
BRANCH  11  12
HETATM   12  C15 UNL     1       7.377  40.242  22.805  1.00  0.00     0.003 C 
HETATM   13  C16 UNL     1       8.083  40.766  21.594  1.00  0.00     0.006 C 
HETATM   14  C17 UNL     1       7.358  40.131  20.407  1.00  0.00     0.000 C 
HETATM   15  C18 UNL     1       5.929  39.890  20.882  1.00  0.00     0.000 C 
HETATM   16  C19 UNL     1       6.108  39.554  22.335  1.00  0.00     0.006 C 
ENDBRANCH  11  12
ENDBRANCH   9  11
ENDBRANCH   6   7
BRANCH   6  17
HETATM   17  C20 UNL     1       7.640  36.036  27.050  1.00  0.00     0.136 C 
BRANCH  17  18
HETATM   18  O2  UNL     1       6.862  35.033  26.647  1.00  0.00    -0.348 OA
ATOM     19  H2  UNL     1       6.271  34.780  27.347  1.00  0.00     0.219 HD
ENDBRANCH  17  18
BRANCH  17  20
HETATM   20  N3  UNL     1       8.805  35.608  27.610  1.00  0.00    -0.359 N 
HETATM   21  C21 UNL     1       9.907  35.284  26.619  1.00  0.00     0.131 C 
HETATM   22  C22 UNL     1      10.071  33.802  26.592  1.00  0.00     0.079 C 
HETATM   23  C23 UNL     1      10.065  33.232  27.943  1.00  0.00     0.039 A 
HETATM   24  N4  UNL     1      10.404  32.014  28.376  1.00  0.00    -0.303 N 
HETATM   25  C25 UNL     1       9.666  33.939  29.085  1.00  0.00     0.029 A 
HETATM   26  N5  UNL     1      10.234  31.941  29.701  1.00  0.00    -0.285 N 
ATOM     27  H4  UNL     1      10.741  31.254  27.785  1.00  0.00     0.186 HD
HETATM   28  C24 UNL     1       9.782  33.113  30.158  1.00  0.00     0.123 A 
ATOM     29  H5  UNL     1      10.421  31.117  30.274  1.00  0.00     0.188 HD
HETATM   30  N6  UNL     1       9.519  33.391  31.392  1.00  0.00    -0.384 N 
ATOM     31  H62 UNL     1       9.606  32.771  32.198  1.00  0.00     0.157 HD
ATOM     32  H61 UNL     1       9.175  34.286  31.741  1.00  0.00     0.157 HD
HETATM   33  C26 UNL     1       9.254  35.382  28.948  1.00  0.00     0.169 C 
ENDBRANCH  17  20
ENDBRANCH   6  17
BRANCH   1  34
HETATM   34  C6  UNL     1       4.673  37.582  25.519  1.00  0.00    -0.003 A 
HETATM   35  C2  UNL     1       4.083  36.747  24.579  1.00  0.00    -0.034 A 
HETATM   36  C1  UNL     1       4.395  35.348  24.269  1.00  0.00     0.050 C 
HETATM   37  C3  UNL     1       3.219  37.486  23.772  1.00  0.00     0.095 A 
HETATM   38  N1  UNL     1       3.254  38.750  24.171  1.00  0.00    -0.368 N 
HETATM   39  C4  UNL     1       4.100  38.842  25.196  1.00  0.00     0.016 A 
ATOM     40  H1  UNL     1       2.724  39.520  23.763  1.00  0.00     0.165 HD
HETATM   41  C5  UNL     1       4.369  40.146  25.850  1.00  0.00     0.069 C 
ENDBRANCH   1  34
TORSDOF 7
ENDMDL
MODEL 4
REMARK VINA RESULT: -8.991297929      2.836      4.276
REMARK  7 active torsions:
REMARK  status: ('A' for Active; 'I' for Inactive)
REMARK    1  A    between atoms: C6_8  and  C7_9 
REMARK    2  A    between atoms: C12_14  and  C13_15 
REMARK    3  A    between atoms: C12_14  and  C20_25 
REMARK       I    between atoms: C13_15  and  N2_17 
REMARK    4  A    between atoms: N2_17  and  C14_19 
REMARK    5  A    between atoms: C14_19  and  C15_20 
REMARK    6  A    between atoms: C20_25  and  O2_26 
REMARK    7  A    between atoms: C20_25  and  N3_28 
ROOT
HETATM    1  C7  UNL     1       4.680  38.066  28.883  1.00  0.00    -0.041 C 
HETATM    2  C8  UNL     1       4.762  38.204  30.388  1.00  0.00     0.037 C 
HETATM    3  C9  UNL     1       5.679  39.364  30.751  1.00  0.00     0.004 C 
HETATM    4  C10 UNL     1       7.003  39.294  30.101  1.00  0.00     0.002 C 
HETATM    5  C11 UNL     1       6.881  39.190  28.618  1.00  0.00     0.032 C 
HETATM    6  C12 UNL     1       6.003  38.088  28.158  1.00  0.00     0.129 C 
ENDROOT
BRANCH   6   7
HETATM    7  C13 UNL     1       5.728  38.242  26.693  1.00  0.00     0.238 C 
HETATM    8  O1  UNL     1       5.882  39.400  26.155  1.00  0.00    -0.272 OA
HETATM    9  N2  UNL     1       5.314  37.219  25.820  1.00  0.00    -0.359 N 
ATOM     10  H2  UNL     1       5.136  36.280  26.175  1.00  0.00     0.162 HD
BRANCH   9  11
HETATM   11  C14 UNL     1       5.142  37.513  24.419  1.00  0.00     0.127 C 
BRANCH  11  12
HETATM   12  C15 UNL     1       4.170  36.679  23.674  1.00  0.00     0.003 C 
HETATM   13  C16 UNL     1       3.092  36.086  24.525  1.00  0.00     0.006 C 
HETATM   14  C17 UNL     1       1.817  36.826  24.119  1.00  0.00     0.000 C 
HETATM   15  C18 UNL     1       2.028  37.241  22.668  1.00  0.00     0.000 C 
HETATM   16  C19 UNL     1       3.501  37.531  22.610  1.00  0.00     0.006 C 
ENDBRANCH  11  12
ENDBRANCH   9  11
ENDBRANCH   6   7
BRANCH   6  17
HETATM   17  C20 UNL     1       6.760  36.814  28.296  1.00  0.00     0.136 C 
BRANCH  17  18
HETATM   18  O2  UNL     1       5.914  35.787  28.366  1.00  0.00    -0.348 OA
ATOM     19  H2  UNL     1       5.785  35.535  29.273  1.00  0.00     0.219 HD
ENDBRANCH  17  18
BRANCH  17  20
HETATM   20  N3  UNL     1       8.064  36.429  28.358  1.00  0.00    -0.359 N 
HETATM   21  C21 UNL     1       8.778  36.380  27.020  1.00  0.00     0.131 C 
HETATM   22  C22 UNL     1       8.992  34.946  26.672  1.00  0.00     0.079 C 
HETATM   23  C23 UNL     1       9.471  34.175  27.824  1.00  0.00     0.039 A 
HETATM   24  N4  UNL     1       9.993  32.946  27.893  1.00  0.00    -0.303 N 
HETATM   25  C25 UNL     1       9.452  34.650  29.141  1.00  0.00     0.029 A 
HETATM   26  N5  UNL     1      10.287  32.651  29.165  1.00  0.00    -0.285 N 
ATOM     27  H4  UNL     1      10.144  32.328  27.097  1.00  0.00     0.186 HD
HETATM   28  C24 UNL     1       9.963  33.685  29.949  1.00  0.00     0.123 A 
ATOM     29  H5  UNL     1      10.696  31.773  29.486  1.00  0.00     0.188 HD
HETATM   30  N6  UNL     1      10.124  33.738  31.230  1.00  0.00    -0.384 N 
ATOM     31  H62 UNL     1      10.508  33.013  31.837  1.00  0.00     0.157 HD
ATOM     32  H61 UNL     1       9.877  34.527  31.829  1.00  0.00     0.157 HD
HETATM   33  C26 UNL     1       8.951  36.046  29.411  1.00  0.00     0.169 C 
ENDBRANCH  17  20
ENDBRANCH   6  17
BRANCH   1  34
HETATM   34  C6  UNL     1       3.379  38.266  28.263  1.00  0.00    -0.003 A 
HETATM   35  C2  UNL     1       2.361  37.351  28.036  1.00  0.00    -0.034 A 
HETATM   36  C1  UNL     1       2.429  35.886  28.018  1.00  0.00     0.050 C 
HETATM   37  C3  UNL     1       1.213  38.021  27.617  1.00  0.00     0.095 A 
HETATM   38  N1  UNL     1       1.482  39.319  27.567  1.00  0.00    -0.368 N 
HETATM   39  C4  UNL     1       2.748  39.498  27.941  1.00  0.00     0.016 A 
ATOM     40  H1  UNL     1       0.830  40.054  27.292  1.00  0.00     0.165 HD
HETATM   41  C5  UNL     1       3.351  40.853  27.967  1.00  0.00     0.069 C 
ENDBRANCH   1  34
TORSDOF 7
ENDMDL
MODEL 5
REMARK VINA RESULT: -8.935632958      2.829      4.024
REMARK  7 active torsions:
REMARK  status: ('A' for Active; 'I' for Inactive)
REMARK    1  A    between atoms: C6_8  and  C7_9 
REMARK    2  A    between atoms: C12_14  and  C13_15 
REMARK    3  A    between atoms: C12_14  and  C20_25 
REMARK       I    between atoms: C13_15  and  N2_17 
REMARK    4  A    between atoms: N2_17  and  C14_19 
REMARK    5  A    between atoms: C14_19  and  C15_20 
REMARK    6  A    between atoms: C20_25  and  O2_26 
REMARK    7  A    between atoms: C20_25  and  N3_28 
ROOT
HETATM    1  C7  UNL     1       4.703  38.117  28.965  1.00  0.00    -0.041 C 
HETATM    2  C8  UNL     1       4.808  38.204  30.472  1.00  0.00     0.037 C 
HETATM    3  C9  UNL     1       5.753  39.334  30.859  1.00  0.00     0.004 C 
HETATM    4  C10 UNL     1       7.067  39.258  30.189  1.00  0.00     0.002 C 
HETATM    5  C11 UNL     1       6.923  39.205  28.706  1.00  0.00     0.032 C 
HETATM    6  C12 UNL     1       6.017  38.136  28.223  1.00  0.00     0.129 C 
ENDROOT
BRANCH   6   7
HETATM    7  C13 UNL     1       5.725  38.343  26.767  1.00  0.00     0.238 C 
HETATM    8  O1  UNL     1       5.880  39.518  26.268  1.00  0.00    -0.272 OA
HETATM    9  N2  UNL     1       5.294  37.354  25.865  1.00  0.00    -0.359 N 
ATOM     10  H2  UNL     1       5.114  36.404  26.189  1.00  0.00     0.162 HD
BRANCH   9  11
HETATM   11  C14 UNL     1       5.107  37.698  24.476  1.00  0.00     0.127 C 
BRANCH  11  12
HETATM   12  C15 UNL     1       4.259  36.790  23.670  1.00  0.00     0.003 C 
HETATM   13  C16 UNL     1       3.210  36.070  24.457  1.00  0.00     0.006 C 
HETATM   14  C17 UNL     1       1.885  36.688  24.009  1.00  0.00     0.000 C 
HETATM   15  C18 UNL     1       2.116  37.159  22.578  1.00  0.00     0.000 C 
HETATM   16  C19 UNL     1       3.554  37.597  22.595  1.00  0.00     0.006 C 
ENDBRANCH  11  12
ENDBRANCH   9  11
ENDBRANCH   6   7
BRANCH   6  17
HETATM   17  C20 UNL     1       6.750  36.844  28.309  1.00  0.00     0.136 C 
BRANCH  17  18
HETATM   18  O2  UNL     1       5.885  35.831  28.342  1.00  0.00    -0.348 OA
ATOM     19  H2  UNL     1       5.838  35.417  27.488  1.00  0.00     0.219 HD
ENDBRANCH  17  18
BRANCH  17  20
HETATM   20  N3  UNL     1       8.047  36.431  28.352  1.00  0.00    -0.359 N 
HETATM   21  C21 UNL     1       8.757  36.424  27.011  1.00  0.00     0.131 C 
HETATM   22  C22 UNL     1       8.943  35.002  26.604  1.00  0.00     0.079 C 
HETATM   23  C23 UNL     1       9.410  34.175  27.722  1.00  0.00     0.039 A 
HETATM   24  N4  UNL     1       9.908  32.936  27.739  1.00  0.00    -0.303 N 
HETATM   25  C25 UNL     1       9.402  34.596  29.058  1.00  0.00     0.029 A 
HETATM   26  N5  UNL     1      10.199  32.582  28.996  1.00  0.00    -0.285 N 
ATOM     27  H4  UNL     1      10.047  32.348  26.917  1.00  0.00     0.186 HD
HETATM   28  C24 UNL     1       9.896  33.588  29.823  1.00  0.00     0.123 A 
ATOM     29  H5  UNL     1      10.591  31.684  29.280  1.00  0.00     0.188 HD
HETATM   30  N6  UNL     1      10.059  33.586  31.105  1.00  0.00    -0.384 N 
ATOM     31  H62 UNL     1      10.430  32.829  31.681  1.00  0.00     0.157 HD
ATOM     32  H61 UNL     1       9.828  34.353  31.737  1.00  0.00     0.157 HD
HETATM   33  C26 UNL     1       8.928  35.988  29.386  1.00  0.00     0.169 C 
ENDBRANCH  17  20
ENDBRANCH   6  17
BRANCH   1  34
HETATM   34  C6  UNL     1       3.399  38.362  28.370  1.00  0.00    -0.003 A 
HETATM   35  C2  UNL     1       2.851  39.551  27.907  1.00  0.00    -0.034 A 
HETATM   36  C1  UNL     1       3.259  40.928  28.204  1.00  0.00     0.050 C 
HETATM   37  C3  UNL     1       1.668  39.285  27.220  1.00  0.00     0.095 A 
HETATM   38  N1  UNL     1       1.455  37.976  27.245  1.00  0.00    -0.368 N 
HETATM   39  C4  UNL     1       2.454  37.403  27.914  1.00  0.00     0.016 A 
ATOM     40  H1  UNL     1       0.663  37.492  26.823  1.00  0.00     0.165 HD
HETATM   41  C5  UNL     1       2.487  35.936  28.129  1.00  0.00     0.069 C 
ENDBRANCH   1  34
TORSDOF 7
ENDMDL
