MODEL 1
REMARK VINA RESULT: -6.737458480      0.000      0.000
REMARK  5 active torsions:
REMARK  status: ('A' for Active; 'I' for Inactive)
REMARK    1  A    between atoms: C2_2  and  C4_4 
REMARK    2  A    between atoms: C6_6  and  C7_7 
REMARK    3  A    between atoms: C7_7  and  C8_8 
REMARK    4  A    between atoms: C8_8  and  O1_9 
REMARK    5  A    between atoms: N1_11  and  O2_13 
ROOT
HETATM    1  C4  UNL     1      27.368  29.233   7.203  1.00  0.00     0.088 C 
HETATM    2  C5  UNL     1      28.288  28.551   8.136  1.00  0.00     0.031 C 
HETATM    3  C6  UNL     1      29.429  27.822   7.508  1.00  0.00     0.004 C 
HETATM    4  C9  UNL     1      30.164  28.602   6.473  1.00  0.00     0.108 C 
HETATM    5  C10 UNL     1      29.162  28.996   5.421  1.00  0.00     0.218 C 
HETATM    6  O3  UNL     1      29.474  28.998   4.194  1.00  0.00    -0.274 OA
HETATM    7  N2  UNL     1      27.865  29.361   5.853  1.00  0.00    -0.356 N 
ATOM      8  H2  UNL     1      27.229  29.745   5.154  1.00  0.00     0.162 HD
ENDROOT
BRANCH   3   9
HETATM    9  C7  UNL     1      30.414  27.496   8.638  1.00  0.00     0.091 C 
BRANCH   9  10
HETATM   10  C8  UNL     1      31.004  26.172   8.497  1.00  0.00     0.135 C 
HETATM   11  N1  UNL     1      31.023  25.366   9.495  1.00  0.00    -0.251 N 
ATOM     12  H1  UNL     1      31.443  24.444   9.373  1.00  0.00     0.196 HD
BRANCH  10  13
HETATM   13  O1  UNL     1      31.550  25.768   7.294  1.00  0.00    -0.348 OA
ATOM     14  H1  UNL     1      32.454  25.479   7.245  1.00  0.00     0.219 HD
ENDBRANCH  10  13
BRANCH  11  15
HETATM   15  O2  UNL     1      30.500  25.695  10.722  1.00  0.00    -0.288 OA
ATOM     16  H2  UNL     1      30.480  25.085  11.450  1.00  0.00     0.244 HD
ENDBRANCH  11  15
ENDBRANCH   9  10
ENDBRANCH   3   9
BRANCH   1  17
HETATM   17  C2  UNL     1      25.967  28.629   7.195  1.00  0.00     0.000 C 
HETATM   18  C1  UNL     1      25.376  28.579   5.822  1.00  0.00     0.011 C 
HETATM   19  C3  UNL     1      25.070  29.495   8.057  1.00  0.00     0.011 C 
ENDBRANCH   1  17
TORSDOF 5
ENDMDL
MODEL 2
REMARK VINA RESULT: -6.633010285      4.673      7.615
REMARK  5 active torsions:
REMARK  status: ('A' for Active; 'I' for Inactive)
REMARK    1  A    between atoms: C2_2  and  C4_4 
REMARK    2  A    between atoms: C6_6  and  C7_7 
REMARK    3  A    between atoms: C7_7  and  C8_8 
REMARK    4  A    between atoms: C8_8  and  O1_9 
REMARK    5  A    between atoms: N1_11  and  O2_13 
ROOT
HETATM    1  C4  UNL     1      25.232  28.760   6.899  1.00  0.00     0.088 C 
HETATM    2  C5  UNL     1      24.114  29.653   7.264  1.00  0.00     0.031 C 
HETATM    3  C6  UNL     1      23.237  30.092   6.139  1.00  0.00     0.004 C 
HETATM    4  C9  UNL     1      22.798  28.992   5.234  1.00  0.00     0.108 C 
HETATM    5  C10 UNL     1      24.043  28.340   4.695  1.00  0.00     0.218 C 
HETATM    6  O3  UNL     1      24.100  27.940   3.495  1.00  0.00    -0.274 OA
HETATM    7  N2  UNL     1      25.141  28.193   5.574  1.00  0.00    -0.356 N 
ATOM      8  H2  UNL     1      25.935  27.642   5.246  1.00  0.00     0.162 HD
ENDROOT
BRANCH   3   9
HETATM    9  C7  UNL     1      21.983  30.706   6.775  1.00  0.00     0.091 C 
BRANCH   9  10
HETATM   10  C8  UNL     1      21.500  31.869   6.043  1.00  0.00     0.135 C 
HETATM   11  N1  UNL     1      21.291  32.975   6.659  1.00  0.00    -0.251 N 
ATOM     12  H1  UNL     1      20.951  33.776   6.126  1.00  0.00     0.196 HD
BRANCH  10  13
HETATM   13  O1  UNL     1      21.260  31.797   4.685  1.00  0.00    -0.348 OA
ATOM     14  H1  UNL     1      20.694  32.429   4.258  1.00  0.00     0.219 HD
ENDBRANCH  10  13
BRANCH  11  15
HETATM   15  O2  UNL     1      21.505  33.124   8.007  1.00  0.00    -0.288 OA
ATOM     16  H2  UNL     1      21.150  32.523   8.651  1.00  0.00     0.244 HD
ENDBRANCH  11  15
ENDBRANCH   9  10
ENDBRANCH   3   9
BRANCH   1  17
HETATM   17  C2  UNL     1      26.602  29.400   7.107  1.00  0.00     0.000 C 
HETATM   18  C1  UNL     1      27.568  29.041   6.024  1.00  0.00     0.011 C 
HETATM   19  C3  UNL     1      27.167  28.899   8.422  1.00  0.00     0.011 C 
ENDBRANCH   1  17
TORSDOF 5
ENDMDL
MODEL 3
REMARK VINA RESULT: -6.568140389      4.613      7.649
REMARK  5 active torsions:
REMARK  status: ('A' for Active; 'I' for Inactive)
REMARK    1  A    between atoms: C2_2  and  C4_4 
REMARK    2  A    between atoms: C6_6  and  C7_7 
REMARK    3  A    between atoms: C7_7  and  C8_8 
REMARK    4  A    between atoms: C8_8  and  O1_9 
REMARK    5  A    between atoms: N1_11  and  O2_13 
ROOT
HETATM    1  C4  UNL     1      25.220  28.842   7.071  1.00  0.00     0.088 C 
HETATM    2  C5  UNL     1      24.022  29.640   7.398  1.00  0.00     0.031 C 
HETATM    3  C6  UNL     1      23.173  30.045   6.240  1.00  0.00     0.004 C 
HETATM    4  C9  UNL     1      22.862  28.941   5.288  1.00  0.00     0.108 C 
HETATM    5  C10 UNL     1      24.177  28.395   4.798  1.00  0.00     0.218 C 
HETATM    6  O3  UNL     1      24.323  28.034   3.594  1.00  0.00    -0.274 OA
HETATM    7  N2  UNL     1      25.238  28.306   5.730  1.00  0.00    -0.356 N 
ATOM      8  H2  UNL     1      26.086  27.823   5.430  1.00  0.00     0.162 HD
ENDROOT
BRANCH   3   9
HETATM    9  C7  UNL     1      21.846  30.547   6.824  1.00  0.00     0.091 C 
BRANCH   9  10
HETATM   10  C8  UNL     1      21.670  31.983   6.651  1.00  0.00     0.135 C 
HETATM   11  N1  UNL     1      21.256  32.449   5.529  1.00  0.00    -0.251 N 
ATOM     12  H1  UNL     1      21.142  33.458   5.430  1.00  0.00     0.196 HD
BRANCH  10  13
HETATM   13  O1  UNL     1      21.945  32.857   7.684  1.00  0.00    -0.348 OA
ATOM     14  H1  UNL     1      21.264  33.415   8.042  1.00  0.00     0.219 HD
ENDBRANCH  10  13
BRANCH  11  15
HETATM   15  O2  UNL     1      20.962  31.645   4.456  1.00  0.00    -0.288 OA
ATOM     16  H2  UNL     1      20.705  31.993   3.610  1.00  0.00     0.244 HD
ENDBRANCH  11  15
ENDBRANCH   9  10
ENDBRANCH   3   9
BRANCH   1  17
HETATM   17  C2  UNL     1      26.527  29.573   7.364  1.00  0.00     0.000 C 
HETATM   18  C1  UNL     1      27.652  29.099   6.500  1.00  0.00     0.011 C 
HETATM   19  C3  UNL     1      26.905  29.312   8.809  1.00  0.00     0.011 C 
ENDBRANCH   1  17
TORSDOF 5
ENDMDL
MODEL 4
REMARK VINA RESULT: -6.507547683      0.440      1.360
REMARK  5 active torsions:
REMARK  status: ('A' for Active; 'I' for Inactive)
REMARK    1  A    between atoms: C2_2  and  C4_4 
REMARK    2  A    between atoms: C6_6  and  C7_7 
REMARK    3  A    between atoms: C7_7  and  C8_8 
REMARK    4  A    between atoms: C8_8  and  O1_9 
REMARK    5  A    between atoms: N1_11  and  O2_13 
ROOT
HETATM    1  C4  UNL     1      27.489  29.201   7.304  1.00  0.00     0.088 C 
HETATM    2  C5  UNL     1      28.487  28.576   8.197  1.00  0.00     0.031 C 
HETATM    3  C6  UNL     1      29.609  27.863   7.521  1.00  0.00     0.004 C 
HETATM    4  C9  UNL     1      30.254  28.633   6.419  1.00  0.00     0.108 C 
HETATM    5  C10 UNL     1      29.177  28.963   5.421  1.00  0.00     0.218 C 
HETATM    6  O3  UNL     1      29.412  28.936   4.177  1.00  0.00    -0.274 OA
HETATM    7  N2  UNL     1      27.898  29.301   5.923  1.00  0.00    -0.356 N 
ATOM      8  H2  UNL     1      27.207  29.644   5.254  1.00  0.00     0.162 HD
ENDROOT
BRANCH   3   9
HETATM    9  C7  UNL     1      30.673  27.603   8.595  1.00  0.00     0.091 C 
BRANCH   9  10
HETATM   10  C8  UNL     1      30.614  26.245   9.120  1.00  0.00     0.135 C 
HETATM   11  N1  UNL     1      31.107  25.272   8.443  1.00  0.00    -0.251 N 
ATOM     12  H1  UNL     1      31.053  24.330   8.830  1.00  0.00     0.196 HD
BRANCH  10  13
HETATM   13  O1  UNL     1      30.029  25.987  10.344  1.00  0.00    -0.348 OA
ATOM     14  H1  UNL     1      30.434  25.386  10.958  1.00  0.00     0.219 HD
ENDBRANCH  10  13
BRANCH  11  15
HETATM   15  O2  UNL     1      31.704  25.450   7.219  1.00  0.00    -0.288 OA
ATOM     16  H2  UNL     1      32.583  25.142   7.029  1.00  0.00     0.244 HD
ENDBRANCH  11  15
ENDBRANCH   9  10
ENDBRANCH   3   9
BRANCH   1  17
HETATM   17  C2  UNL     1      26.110  28.554   7.401  1.00  0.00     0.000 C 
HETATM   18  C1  UNL     1      25.348  28.644   6.118  1.00  0.00     0.011 C 
HETATM   19  C3  UNL     1      25.317  29.283   8.468  1.00  0.00     0.011 C 
ENDBRANCH   1  17
TORSDOF 5
ENDMDL
MODEL 5
REMARK VINA RESULT: -6.292762928      3.952      6.513
REMARK  5 active torsions:
REMARK  status: ('A' for Active; 'I' for Inactive)
REMARK    1  A    between atoms: C2_2  and  C4_4 
REMARK    2  A    between atoms: C6_6  and  C7_7 
REMARK    3  A    between atoms: C7_7  and  C8_8 
REMARK    4  A    between atoms: C8_8  and  O1_9 
REMARK    5  A    between atoms: N1_11  and  O2_13 
ROOT
HETATM    1  C4  UNL     1      27.354  29.242   6.794  1.00  0.00     0.088 C 
HETATM    2  C5  UNL     1      26.630  28.811   5.581  1.00  0.00     0.031 C 
HETATM    3  C6  UNL     1      25.199  28.437   5.776  1.00  0.00     0.004 C 
HETATM    4  C9  UNL     1      24.410  29.417   6.576  1.00  0.00     0.108 C 
HETATM    5  C10 UNL     1      25.094  29.552   7.909  1.00  0.00     0.218 C 
HETATM    6  O3  UNL     1      24.422  29.673   8.975  1.00  0.00    -0.274 OA
HETATM    7  N2  UNL     1      26.509  29.538   7.926  1.00  0.00    -0.356 N 
ATOM      8  H2  UNL     1      26.969  29.754   8.811  1.00  0.00     0.162 HD
ENDROOT
BRANCH   3   9
HETATM    9  C7  UNL     1      24.573  28.361   4.377  1.00  0.00     0.091 C 
BRANCH   9  10
HETATM   10  C8  UNL     1      23.375  27.531   4.348  1.00  0.00     0.135 C 
HETATM   11  N1  UNL     1      22.215  28.077   4.325  1.00  0.00    -0.251 N 
ATOM     12  H1  UNL     1      21.391  27.476   4.306  1.00  0.00     0.196 HD
BRANCH  10  13
HETATM   13  O1  UNL     1      23.473  26.153   4.347  1.00  0.00    -0.348 OA
ATOM     14  H1  UNL     1      23.103  25.642   3.636  1.00  0.00     0.219 HD
ENDBRANCH  10  13
BRANCH  11  15
HETATM   15  O2  UNL     1      22.037  29.439   4.325  1.00  0.00    -0.288 OA
ATOM     16  H2  UNL     1      21.208  29.847   4.105  1.00  0.00     0.244 HD
ENDBRANCH  11  15
ENDBRANCH   9  10
ENDBRANCH   3   9
BRANCH   1  17
HETATM   17  C2  UNL     1      28.466  28.280   7.202  1.00  0.00     0.000 C 
HETATM   18  C1  UNL     1      28.775  28.354   8.664  1.00  0.00     0.011 C 
HETATM   19  C3  UNL     1      29.723  28.654   6.440  1.00  0.00     0.011 C 
ENDBRANCH   1  17
TORSDOF 5
ENDMDL
