MODEL 1
REMARK VINA RESULT: -7.466458132      0.000      0.000
REMARK  4 active torsions:
REMARK  status: ('A' for Active; 'I' for Inactive)
REMARK    1  A    between atoms: C2_2  and  C3_6 
REMARK    2  A    between atoms: C5_8  and  C6_9 
REMARK    3  A    between atoms: C8_13  and  C9_14 
REMARK    4  A    between atoms: C9_14  and  C10_15 
ROOT
HETATM    1  C6  UNL     1      26.409  28.763   7.483  1.00  0.00     0.124 C 
HETATM    2  C7  UNL     1      26.494  29.285   8.909  1.00  0.00     0.150 C 
HETATM    3  N2  UNL     1      25.091  29.567   9.174  1.00  0.00    -0.378 N 
ATOM      4  H2  UNL     1      24.692  29.641  10.110  1.00  0.00     0.160 HD
HETATM    5  C8  UNL     1      24.420  29.711   8.100  1.00  0.00     0.073 C 
HETATM    6  N3  UNL     1      25.292  29.547   6.996  1.00  0.00    -0.370 N 
ATOM      7  H3  UNL     1      25.161  29.908   6.051  1.00  0.00     0.161 HD
ENDROOT
BRANCH   1   8
HETATM    8  C5  UNL     1      27.647  28.971   6.735  1.00  0.00     0.008 C 
HETATM    9  C3  UNL     1      27.645  28.841   5.425  1.00  0.00    -0.042 C 
HETATM   10  C4  UNL     1      26.399  28.486   4.697  1.00  0.00     0.050 C 
BRANCH   9  11
HETATM   11  C2  UNL     1      28.865  29.042   4.655  1.00  0.00     0.004 C 
HETATM   12  C1  UNL     1      28.904  28.840   3.202  1.00  0.00     0.068 C 
HETATM   13  N1  UNL     1      29.940  29.408   5.263  1.00  0.00    -0.402 N 
ATOM     14  H12 UNL     1      30.794  29.549   4.724  1.00  0.00     0.156 HD
ATOM     15  H11 UNL     1      29.913  29.548   6.274  1.00  0.00     0.156 HD
ENDBRANCH   9  11
ENDBRANCH   1   8
BRANCH   5  16
HETATM   16  C9  UNL     1      22.942  30.010   8.039  1.00  0.00     0.079 C 
BRANCH  16  17
HETATM   17  C10 UNL     1      22.665  30.806   6.804  1.00  0.00    -0.016 C 
HETATM   18  C11 UNL     1      21.960  29.925   5.789  1.00  0.00     0.010 C 
HETATM   19  C12 UNL     1      21.766  31.985   7.080  1.00  0.00     0.010 C 
ENDBRANCH  16  17
ENDBRANCH   5  16
TORSDOF 4
ENDMDL
MODEL 2
REMARK VINA RESULT: -7.273921571      2.454      5.319
REMARK  4 active torsions:
REMARK  status: ('A' for Active; 'I' for Inactive)
REMARK    1  A    between atoms: C2_2  and  C3_6 
REMARK    2  A    between atoms: C5_8  and  C6_9 
REMARK    3  A    between atoms: C8_13  and  C9_14 
REMARK    4  A    between atoms: C9_14  and  C10_15 
ROOT
HETATM    1  C6  UNL     1      26.163  29.423   7.302  1.00  0.00     0.124 C 
HETATM    2  C7  UNL     1      25.667  29.449   8.739  1.00  0.00     0.150 C 
HETATM    3  N2  UNL     1      26.925  29.309   9.458  1.00  0.00    -0.378 N 
ATOM      4  H2  UNL     1      27.059  29.586  10.431  1.00  0.00     0.160 HD
HETATM    5  C8  UNL     1      27.839  28.800   8.730  1.00  0.00     0.073 C 
HETATM    6  N3  UNL     1      27.300  28.538   7.446  1.00  0.00    -0.370 N 
ATOM      7  H3  UNL     1      27.644  27.863   6.762  1.00  0.00     0.161 HD
ENDROOT
BRANCH   1   8
HETATM    8  C5  UNL     1      25.150  28.935   6.368  1.00  0.00     0.008 C 
HETATM    9  C3  UNL     1      25.505  28.573   5.154  1.00  0.00    -0.042 C 
HETATM   10  C4  UNL     1      26.924  28.655   4.719  1.00  0.00     0.050 C 
BRANCH   9  11
HETATM   11  C2  UNL     1      24.515  28.084   4.203  1.00  0.00     0.004 C 
HETATM   12  C1  UNL     1      24.869  27.769   2.814  1.00  0.00     0.068 C 
HETATM   13  N1  UNL     1      23.298  27.922   4.589  1.00  0.00    -0.402 N 
ATOM     14  H12 UNL     1      22.605  27.579   3.924  1.00  0.00     0.156 HD
ATOM     15  H11 UNL     1      23.052  28.141   5.555  1.00  0.00     0.156 HD
ENDBRANCH   9  11
ENDBRANCH   1   8
BRANCH   5  16
HETATM   16  C9  UNL     1      29.252  28.529   9.182  1.00  0.00     0.079 C 
BRANCH  16  17
HETATM   17  C10 UNL     1      29.775  27.344   8.435  1.00  0.00    -0.016 C 
HETATM   18  C11 UNL     1      30.742  27.815   7.365  1.00  0.00     0.010 C 
HETATM   19  C12 UNL     1      30.524  26.392   9.334  1.00  0.00     0.010 C 
ENDBRANCH  16  17
ENDBRANCH   5  16
TORSDOF 4
ENDMDL
MODEL 3
REMARK VINA RESULT: -6.832974328      2.538      5.740
REMARK  4 active torsions:
REMARK  status: ('A' for Active; 'I' for Inactive)
REMARK    1  A    between atoms: C2_2  and  C3_6 
REMARK    2  A    between atoms: C5_8  and  C6_9 
REMARK    3  A    between atoms: C8_13  and  C9_14 
REMARK    4  A    between atoms: C9_14  and  C10_15 
ROOT
HETATM    1  C6  UNL     1      25.725  29.292   7.171  1.00  0.00     0.124 C 
HETATM    2  C7  UNL     1      25.278  28.778   8.531  1.00  0.00     0.150 C 
HETATM    3  N2  UNL     1      26.537  28.823   9.260  1.00  0.00    -0.378 N 
ATOM      4  H2  UNL     1      26.606  28.851  10.277  1.00  0.00     0.160 HD
HETATM    5  C8  UNL     1      27.544  28.824   8.477  1.00  0.00     0.073 C 
HETATM    6  N3  UNL     1      27.078  28.775   7.140  1.00  0.00    -0.370 N 
ATOM      7  H3  UNL     1      27.590  28.444   6.323  1.00  0.00     0.161 HD
ENDROOT
BRANCH   1   8
HETATM    8  C5  UNL     1      24.881  28.802   6.082  1.00  0.00     0.008 C 
HETATM    9  C3  UNL     1      23.648  29.247   5.965  1.00  0.00    -0.042 C 
HETATM   10  C4  UNL     1      23.102  30.240   6.926  1.00  0.00     0.050 C 
BRANCH   9  11
HETATM   11  C2  UNL     1      22.786  28.775   4.889  1.00  0.00     0.004 C 
HETATM   12  C1  UNL     1      23.188  27.678   4.001  1.00  0.00     0.068 C 
HETATM   13  N1  UNL     1      21.640  29.333   4.711  1.00  0.00    -0.402 N 
ATOM     14  H12 UNL     1      21.036  29.003   3.958  1.00  0.00     0.156 HD
ATOM     15  H11 UNL     1      21.360  30.097   5.328  1.00  0.00     0.156 HD
ENDBRANCH   9  11
ENDBRANCH   1   8
BRANCH   5  16
HETATM   16  C9  UNL     1      28.984  28.866   8.924  1.00  0.00     0.079 C 
BRANCH  16  17
HETATM   17  C10 UNL     1      29.645  27.583   8.534  1.00  0.00    -0.016 C 
HETATM   18  C11 UNL     1      30.672  27.859   7.452  1.00  0.00     0.010 C 
HETATM   19  C12 UNL     1      30.368  26.943   9.693  1.00  0.00     0.010 C 
ENDBRANCH  16  17
ENDBRANCH   5  16
TORSDOF 4
ENDMDL
MODEL 4
REMARK VINA RESULT: -6.781012274      1.086      1.585
REMARK  4 active torsions:
REMARK  status: ('A' for Active; 'I' for Inactive)
REMARK    1  A    between atoms: C2_2  and  C3_6 
REMARK    2  A    between atoms: C5_8  and  C6_9 
REMARK    3  A    between atoms: C8_13  and  C9_14 
REMARK    4  A    between atoms: C9_14  and  C10_15 
ROOT
HETATM    1  C6  UNL     1      26.378  28.840   7.375  1.00  0.00     0.124 C 
HETATM    2  C7  UNL     1      26.456  29.799   8.553  1.00  0.00     0.150 C 
HETATM    3  N2  UNL     1      25.041  30.025   8.807  1.00  0.00    -0.378 N 
ATOM      4  H2  UNL     1      24.668  30.360   9.695  1.00  0.00     0.160 HD
HETATM    5  C8  UNL     1      24.322  29.755   7.789  1.00  0.00     0.073 C 
HETATM    6  N3  UNL     1      25.170  29.322   6.739  1.00  0.00    -0.370 N 
ATOM      7  H3  UNL     1      24.969  29.346   5.739  1.00  0.00     0.161 HD
ENDROOT
BRANCH   1   8
HETATM    8  C5  UNL     1      27.562  28.905   6.520  1.00  0.00     0.008 C 
HETATM    9  C3  UNL     1      28.738  28.578   7.012  1.00  0.00    -0.042 C 
HETATM   10  C4  UNL     1      28.878  28.144   8.427  1.00  0.00     0.050 C 
BRANCH   9  11
HETATM   11  C2  UNL     1      29.934  28.635   6.181  1.00  0.00     0.004 C 
HETATM   12  C1  UNL     1      29.891  29.120   4.797  1.00  0.00     0.068 C 
HETATM   13  N1  UNL     1      31.060  28.250   6.673  1.00  0.00    -0.402 N 
ATOM     14  H12 UNL     1      31.897  28.290   6.092  1.00  0.00     0.156 HD
ATOM     15  H11 UNL     1      31.090  27.912   7.636  1.00  0.00     0.156 HD
ENDBRANCH   9  11
ENDBRANCH   1   8
BRANCH   5  16
HETATM   16  C9  UNL     1      22.821  29.885   7.734  1.00  0.00     0.079 C 
BRANCH  16  17
HETATM   17  C10 UNL     1      22.471  31.029   6.838  1.00  0.00    -0.016 C 
HETATM   18  C11 UNL     1      21.707  30.507   5.635  1.00  0.00     0.010 C 
HETATM   19  C12 UNL     1      21.591  32.041   7.527  1.00  0.00     0.010 C 
ENDBRANCH  16  17
ENDBRANCH   5  16
TORSDOF 4
ENDMDL
MODEL 5
REMARK VINA RESULT: -6.774075931      1.808      2.775
REMARK  4 active torsions:
REMARK  status: ('A' for Active; 'I' for Inactive)
REMARK    1  A    between atoms: C2_2  and  C3_6 
REMARK    2  A    between atoms: C5_8  and  C6_9 
REMARK    3  A    between atoms: C8_13  and  C9_14 
REMARK    4  A    between atoms: C9_14  and  C10_15 
ROOT
HETATM    1  C6  UNL     1      25.488  29.344   6.461  1.00  0.00     0.124 C 
HETATM    2  C7  UNL     1      24.997  28.224   5.557  1.00  0.00     0.150 C 
HETATM    3  N2  UNL     1      23.659  28.703   5.240  1.00  0.00    -0.378 N 
ATOM      4  H2  UNL     1      23.122  28.399   4.428  1.00  0.00     0.160 HD
HETATM    5  C8  UNL     1      23.238  29.548   6.098  1.00  0.00     0.073 C 
HETATM    6  N3  UNL     1      24.238  29.728   7.084  1.00  0.00    -0.370 N 
ATOM      7  H3  UNL     1      24.105  30.060   8.040  1.00  0.00     0.161 HD
ENDROOT
BRANCH   1   8
HETATM    8  C5  UNL     1      26.506  28.894   7.408  1.00  0.00     0.008 C 
HETATM    9  C3  UNL     1      27.764  28.829   7.027  1.00  0.00    -0.042 C 
HETATM   10  C4  UNL     1      28.163  29.207   5.646  1.00  0.00     0.050 C 
BRANCH   9  11
HETATM   11  C2  UNL     1      28.800  28.383   7.950  1.00  0.00     0.004 C 
HETATM   12  C1  UNL     1      30.156  28.058   7.492  1.00  0.00     0.068 C 
HETATM   13  N1  UNL     1      28.521  28.272   9.202  1.00  0.00    -0.402 N 
ATOM     14  H12 UNL     1      29.246  27.961   9.849  1.00  0.00     0.156 HD
ATOM     15  H11 UNL     1      27.578  28.499   9.521  1.00  0.00     0.156 HD
ENDBRANCH   9  11
ENDBRANCH   1   8
BRANCH   5  16
HETATM   16  C9  UNL     1      21.892  30.227   6.050  1.00  0.00     0.079 C 
BRANCH  16  17
HETATM   17  C10 UNL     1      22.070  31.669   6.406  1.00  0.00    -0.016 C 
HETATM   18  C11 UNL     1      21.283  32.525   5.431  1.00  0.00     0.010 C 
HETATM   19  C12 UNL     1      21.561  31.977   7.791  1.00  0.00     0.010 C 
ENDBRANCH  16  17
ENDBRANCH   5  16
TORSDOF 4
ENDMDL
