MODEL 1
REMARK VINA RESULT: -5.353165939      0.000      0.000
REMARK  5 active torsions:
REMARK  status: ('A' for Active; 'I' for Inactive)
REMARK    1  A    between atoms: C2_2  and  O1_3 
REMARK    2  A    between atoms: O1_3  and  C3_4 
REMARK    3  A    between atoms: C3_4  and  C4_6 
REMARK    4  A    between atoms: C5_8  and  S2_9 
REMARK    5  A    between atoms: C8_13  and  N1_14 
REMARK       I    between atoms: N1_14  and  C9_16 
ROOT
HETATM    1  C4  UNL     1      31.083  21.543  -5.589  1.00  0.00     0.110 A 
HETATM    2  S1  UNL     1      32.615  21.157  -4.954  1.00  0.00    -0.073 SA
HETATM    3  C5  UNL     1      32.122  20.585  -3.409  1.00  0.00     0.066 A 
HETATM    4  C7  UNL     1      30.760  20.722  -3.455  1.00  0.00     0.086 A 
HETATM    5 CL1  UNL     1      29.803  20.238  -2.029  1.00  0.00    -0.080 Cl
HETATM    6  C8  UNL     1      30.222  21.215  -4.574  1.00  0.00     0.083 A 
ENDROOT
BRANCH   1   7
HETATM    7  C3  UNL     1      30.811  22.098  -6.924  1.00  0.00     0.302 C 
HETATM    8  O2  UNL     1      31.629  21.946  -7.868  1.00  0.00    -0.259 OA
BRANCH   7   9
HETATM    9  O1  UNL     1      29.660  22.805  -7.204  1.00  0.00    -0.317 OA
BRANCH   9  10
HETATM   10  C2  UNL     1      29.676  24.186  -7.525  1.00  0.00     0.174 C 
HETATM   11  C1  UNL     1      28.974  25.024  -6.496  1.00  0.00     0.034 C 
ENDBRANCH   9  10
ENDBRANCH   7   9
ENDBRANCH   1   7
BRANCH   6  12
HETATM   12  N1  UNL     1      28.806  21.423  -4.788  1.00  0.00    -0.308 N 
HETATM   13  C9  UNL     1      28.113  22.437  -4.077  1.00  0.00     0.333 C 
HETATM   14  N2  UNL     1      26.746  22.688  -4.238  1.00  0.00    -0.040 NA
HETATM   15  O3  UNL     1      28.767  23.159  -3.246  1.00  0.00    -0.251 OA
ATOM     16  H1  UNL     1      28.302  20.837  -5.454  1.00  0.00     0.170 HD
ENDBRANCH   6  12
BRANCH   3  17
HETATM   17  S2  UNL     1      33.179  19.968  -2.088  1.00  0.00    -0.125 SA
HETATM   18  C6  UNL     1      33.221  21.151  -0.731  1.00  0.00     0.096 C 
ENDBRANCH   3  17
TORSDOF 5
ENDMDL
MODEL 2
REMARK VINA RESULT: -5.218553407      8.607     10.680
REMARK  5 active torsions:
REMARK  status: ('A' for Active; 'I' for Inactive)
REMARK    1  A    between atoms: C2_2  and  O1_3 
REMARK    2  A    between atoms: O1_3  and  C3_4 
REMARK    3  A    between atoms: C3_4  and  C4_6 
REMARK    4  A    between atoms: C5_8  and  S2_9 
REMARK    5  A    between atoms: C8_13  and  N1_14 
REMARK       I    between atoms: N1_14  and  C9_16 
ROOT
HETATM    1  C4  UNL     1      26.843  30.890  -7.452  1.00  0.00     0.110 A 
HETATM    2  S1  UNL     1      25.196  31.321  -7.477  1.00  0.00    -0.073 SA
HETATM    3  C5  UNL     1      25.152  32.271  -6.045  1.00  0.00     0.066 A 
HETATM    4  C7  UNL     1      26.445  32.211  -5.600  1.00  0.00     0.086 A 
HETATM    5 CL1  UNL     1      26.876  33.076  -4.101  1.00  0.00    -0.080 Cl
HETATM    6  C8  UNL     1      27.318  31.501  -6.321  1.00  0.00     0.083 A 
ENDROOT
BRANCH   1   7
HETATM    7  C3  UNL     1      27.536  30.053  -8.444  1.00  0.00     0.302 C 
HETATM    8  O2  UNL     1      27.133  29.989  -9.634  1.00  0.00    -0.259 OA
BRANCH   7   9
HETATM    9  O1  UNL     1      28.649  29.304  -8.121  1.00  0.00    -0.317 OA
BRANCH   9  10
HETATM   10  C2  UNL     1      28.620  27.888  -8.057  1.00  0.00     0.174 C 
HETATM   11  C1  UNL     1      28.984  27.366  -6.697  1.00  0.00     0.034 C 
ENDBRANCH   9  10
ENDBRANCH   7   9
ENDBRANCH   1   7
BRANCH   6  12
HETATM   12  N1  UNL     1      28.718  31.335  -5.994  1.00  0.00    -0.308 N 
HETATM   13  C9  UNL     1      29.107  30.544  -4.882  1.00  0.00     0.333 C 
HETATM   14  N2  UNL     1      30.443  30.346  -4.514  1.00  0.00    -0.040 NA
HETATM   15  O3  UNL     1      28.196  29.985  -4.178  1.00  0.00    -0.251 OA
ATOM     16  H1  UNL     1      29.430  31.789  -6.567  1.00  0.00     0.170 HD
ENDBRANCH   6  12
BRANCH   3  17
HETATM   17  S2  UNL     1      23.725  33.117  -5.343  1.00  0.00    -0.125 SA
HETATM   18  C6  UNL     1      23.251  32.340  -3.790  1.00  0.00     0.096 C 
ENDBRANCH   3  17
TORSDOF 5
ENDMDL
MODEL 3
REMARK VINA RESULT: -5.159286374      3.629      4.606
REMARK  5 active torsions:
REMARK  status: ('A' for Active; 'I' for Inactive)
REMARK    1  A    between atoms: C2_2  and  O1_3 
REMARK    2  A    between atoms: O1_3  and  C3_4 
REMARK    3  A    between atoms: C3_4  and  C4_6 
REMARK    4  A    between atoms: C5_8  and  S2_9 
REMARK    5  A    between atoms: C8_13  and  N1_14 
REMARK       I    between atoms: N1_14  and  C9_16 
ROOT
HETATM    1  C4  UNL     1      29.298  24.577  -6.779  1.00  0.00     0.110 A 
HETATM    2  S1  UNL     1      28.549  25.383  -5.479  1.00  0.00    -0.073 SA
HETATM    3  C5  UNL     1      28.430  24.063  -4.385  1.00  0.00     0.066 A 
HETATM    4  C7  UNL     1      28.990  23.031  -5.090  1.00  0.00     0.086 A 
HETATM    5 CL1  UNL     1      29.083  21.422  -4.326  1.00  0.00    -0.080 Cl
HETATM    6  C8  UNL     1      29.437  23.292  -6.322  1.00  0.00     0.083 A 
ENDROOT
BRANCH   1   7
HETATM    7  C3  UNL     1      29.683  25.175  -8.067  1.00  0.00     0.302 C 
HETATM    8  O2  UNL     1      29.721  24.483  -9.117  1.00  0.00    -0.259 OA
BRANCH   7   9
HETATM    9  O1  UNL     1      30.018  26.508  -8.185  1.00  0.00    -0.317 OA
BRANCH   9  10
HETATM   10  C2  UNL     1      29.213  27.434  -8.897  1.00  0.00     0.174 C 
HETATM   11  C1  UNL     1      28.483  28.379  -7.988  1.00  0.00     0.034 C 
ENDBRANCH   9  10
ENDBRANCH   7   9
ENDBRANCH   1   7
BRANCH   6  12
HETATM   12  N1  UNL     1      30.053  22.320  -7.200  1.00  0.00    -0.308 N 
HETATM   13  C9  UNL     1      31.394  21.906  -6.986  1.00  0.00     0.333 C 
HETATM   14  N2  UNL     1      32.045  20.971  -7.799  1.00  0.00    -0.040 NA
HETATM   15  O3  UNL     1      32.042  22.411  -6.004  1.00  0.00    -0.251 OA
ATOM     16  H1  UNL     1      29.521  21.929  -7.978  1.00  0.00     0.170 HD
ENDBRANCH   6  12
BRANCH   3  17
HETATM   17  S2  UNL     1      27.731  24.084  -2.725  1.00  0.00    -0.125 SA
HETATM   18  C6  UNL     1      26.201  23.134  -2.690  1.00  0.00     0.096 C 
ENDBRANCH   3  17
TORSDOF 5
ENDMDL
MODEL 4
REMARK VINA RESULT: -4.942052535      6.376      8.029
REMARK  5 active torsions:
REMARK  status: ('A' for Active; 'I' for Inactive)
REMARK    1  A    between atoms: C2_2  and  O1_3 
REMARK    2  A    between atoms: O1_3  and  C3_4 
REMARK    3  A    between atoms: C3_4  and  C4_6 
REMARK    4  A    between atoms: C5_8  and  S2_9 
REMARK    5  A    between atoms: C8_13  and  N1_14 
REMARK       I    between atoms: N1_14  and  C9_16 
ROOT
HETATM    1  C4  UNL     1      28.820  27.718  -7.215  1.00  0.00     0.110 A 
HETATM    2  S1  UNL     1      29.050  27.297  -5.582  1.00  0.00    -0.073 SA
HETATM    3  C5  UNL     1      28.848  28.852  -4.879  1.00  0.00     0.066 A 
HETATM    4  C7  UNL     1      28.605  29.648  -5.965  1.00  0.00     0.086 A 
HETATM    5 CL1  UNL     1      28.328  31.391  -5.706  1.00  0.00    -0.080 Cl
HETATM    6  C8  UNL     1      28.591  29.069  -7.169  1.00  0.00     0.083 A 
ENDROOT
BRANCH   1   7
HETATM    7  C3  UNL     1      28.869  26.800  -8.364  1.00  0.00     0.302 C 
HETATM    8  O2  UNL     1      29.228  27.204  -9.501  1.00  0.00    -0.259 OA
BRANCH   7   9
HETATM    9  O1  UNL     1      28.526  25.469  -8.255  1.00  0.00    -0.317 OA
BRANCH   9  10
HETATM   10  C2  UNL     1      29.479  24.426  -8.384  1.00  0.00     0.174 C 
HETATM   11  C1  UNL     1      29.767  23.745  -7.078  1.00  0.00     0.034 C 
ENDBRANCH   9  10
ENDBRANCH   7   9
ENDBRANCH   1   7
BRANCH   6  12
HETATM   12  N1  UNL     1      28.351  29.762  -8.417  1.00  0.00    -0.308 N 
HETATM   13  C9  UNL     1      27.041  30.185  -8.763  1.00  0.00     0.333 C 
HETATM   14  N2  UNL     1      26.744  30.859  -9.954  1.00  0.00    -0.040 NA
HETATM   15  O3  UNL     1      26.082  29.941  -7.951  1.00  0.00    -0.251 OA
ATOM     16  H1  UNL     1      29.127  29.947  -9.052  1.00  0.00     0.170 HD
ENDBRANCH   6  12
BRANCH   3  17
HETATM   17  S2  UNL     1      28.942  29.278  -3.131  1.00  0.00    -0.125 SA
HETATM   18  C6  UNL     1      30.483  30.145  -2.792  1.00  0.00     0.096 C 
ENDBRANCH   3  17
TORSDOF 5
ENDMDL
MODEL 5
REMARK VINA RESULT: -4.906623446      2.922      3.780
REMARK  5 active torsions:
REMARK  status: ('A' for Active; 'I' for Inactive)
REMARK    1  A    between atoms: C2_2  and  O1_3 
REMARK    2  A    between atoms: O1_3  and  C3_4 
REMARK    3  A    between atoms: C3_4  and  C4_6 
REMARK    4  A    between atoms: C5_8  and  S2_9 
REMARK    5  A    between atoms: C8_13  and  N1_14 
REMARK       I    between atoms: N1_14  and  C9_16 
ROOT
HETATM    1  C4  UNL     1      30.049  22.266  -6.008  1.00  0.00     0.110 A 
HETATM    2  S1  UNL     1      28.798  22.716  -4.944  1.00  0.00    -0.073 SA
HETATM    3  C5  UNL     1      29.197  21.692  -3.623  1.00  0.00     0.066 A 
HETATM    4  C7  UNL     1      30.307  21.031  -4.074  1.00  0.00     0.086 A 
HETATM    5 CL1  UNL     1      31.084  19.833  -3.005  1.00  0.00    -0.080 Cl
HETATM    6  C8  UNL     1      30.748  21.323  -5.301  1.00  0.00     0.083 A 
ENDROOT
BRANCH   1   7
HETATM    7  C3  UNL     1      30.274  22.801  -7.360  1.00  0.00     0.302 C 
HETATM    8  O2  UNL     1      31.306  22.497  -8.013  1.00  0.00    -0.259 OA
BRANCH   7   9
HETATM    9  O1  UNL     1      29.378  23.652  -7.971  1.00  0.00    -0.317 OA
BRANCH   9  10
HETATM   10  C2  UNL     1      29.636  25.037  -8.138  1.00  0.00     0.174 C 
HETATM   11  C1  UNL     1      29.002  25.874  -7.066  1.00  0.00     0.034 C 
ENDBRANCH   9  10
ENDBRANCH   7   9
ENDBRANCH   1   7
BRANCH   6  12
HETATM   12  N1  UNL     1      31.904  20.719  -5.929  1.00  0.00    -0.308 N 
HETATM   13  C9  UNL     1      33.202  20.920  -5.390  1.00  0.00     0.333 C 
HETATM   14  N2  UNL     1      34.357  20.364  -5.950  1.00  0.00    -0.040 NA
HETATM   15  O3  UNL     1      33.325  21.644  -4.342  1.00  0.00    -0.251 OA
ATOM     16  H1  UNL     1      31.786  20.145  -6.764  1.00  0.00     0.170 HD
ENDBRANCH   6  12
BRANCH   3  17
HETATM   17  S2  UNL     1      28.330  21.559  -2.049  1.00  0.00    -0.125 SA
HETATM   18  C6  UNL     1      26.554  21.685  -2.312  1.00  0.00     0.096 C 
ENDBRANCH   3  17
TORSDOF 5
ENDMDL
