MODEL 1
REMARK VINA RESULT: -8.153147491      0.000      0.000
REMARK  7 active torsions:
REMARK  status: ('A' for Active; 'I' for Inactive)
REMARK    1  A    between atoms: O1_2  and  C2_3 
REMARK    2  A    between atoms: C2_3  and  C3_5 
REMARK    3  A    between atoms: C3_5  and  N1_6 
REMARK    4  A    between atoms: C4_7  and  O3_8 
REMARK    5  A    between atoms: C6_11  and  C7_12 
REMARK    6  A    between atoms: C8_13  and  C9_15 
REMARK    7  A    between atoms: C14_20  and  O4_21 
ROOT
HETATM    1  N1  UNL     1      29.381  23.517  -6.665  1.00  0.00    -0.298 N 
HETATM    2  C4  UNL     1      28.871  24.064  -5.528  1.00  0.00     0.145 A 
HETATM    3  C5  UNL     1      28.645  25.402  -5.765  1.00  0.00     0.072 A 
HETATM    4  C6  UNL     1      29.017  25.690  -7.060  1.00  0.00     0.020 A 
HETATM    5  C14 UNL     1      29.473  24.478  -7.590  1.00  0.00     0.155 A 
ENDROOT
BRANCH   4   6
HETATM    6  C7  UNL     1      28.932  26.991  -7.695  1.00  0.00     0.035 C 
HETATM    7  C8  UNL     1      28.911  28.115  -7.035  1.00  0.00     0.017 C 
HETATM    8 CL1  UNL     1      28.990  28.150  -5.277  1.00  0.00    -0.088 Cl
BRANCH   7   9
HETATM    9  C9  UNL     1      28.805  29.427  -7.761  1.00  0.00     0.030 C 
HETATM   10  C10 UNL     1      28.246  30.442  -6.803  1.00  0.00     0.010 C 
HETATM   11  C11 UNL     1      26.868  30.727  -7.333  1.00  0.00     0.001 C 
HETATM   12  C12 UNL     1      27.076  30.630  -8.830  1.00  0.00     0.001 C 
HETATM   13  C13 UNL     1      27.836  29.298  -8.905  1.00  0.00     0.010 C 
ENDBRANCH   7   9
ENDBRANCH   4   6
BRANCH   5  14
HETATM   14  O4  UNL     1      29.936  24.372  -8.890  1.00  0.00    -0.345 OA
ATOM     15  H4  UNL     1      30.760  24.680  -9.246  1.00  0.00     0.219 HD
ENDBRANCH   5  14
BRANCH   2  16
HETATM   16  O3  UNL     1      28.643  23.333  -4.355  1.00  0.00    -0.346 OA
ATOM     17  H3  UNL     1      28.003  23.583  -3.699  1.00  0.00     0.219 HD
ENDBRANCH   2  16
BRANCH   1  18
HETATM   18  C3  UNL     1      29.737  22.130  -6.805  1.00  0.00     0.244 C 
BRANCH  18  19
HETATM   19  C2  UNL     1      31.178  21.878  -6.899  1.00  0.00     0.276 C 
HETATM   20  O2  UNL     1      31.842  22.036  -7.953  1.00  0.00    -0.263 OA
BRANCH  19  21
HETATM   21  O1  UNL     1      31.834  21.447  -5.769  1.00  0.00    -0.325 OA
HETATM   22  C1  UNL     1      33.116  20.854  -5.853  1.00  0.00     0.213 C 
ENDBRANCH  19  21
ENDBRANCH  18  19
ENDBRANCH   1  18
TORSDOF 7
ENDMDL
MODEL 2
REMARK VINA RESULT: -8.030510243      3.236      7.286
REMARK  7 active torsions:
REMARK  status: ('A' for Active; 'I' for Inactive)
REMARK    1  A    between atoms: O1_2  and  C2_3 
REMARK    2  A    between atoms: C2_3  and  C3_5 
REMARK    3  A    between atoms: C3_5  and  N1_6 
REMARK    4  A    between atoms: C4_7  and  O3_8 
REMARK    5  A    between atoms: C6_11  and  C7_12 
REMARK    6  A    between atoms: C8_13  and  C9_15 
REMARK    7  A    between atoms: C14_20  and  O4_21 
ROOT
HETATM    1  N1  UNL     1      28.675  28.874  -7.305  1.00  0.00    -0.298 N 
HETATM    2  C4  UNL     1      28.820  28.638  -5.973  1.00  0.00     0.145 A 
HETATM    3  C5  UNL     1      29.046  27.290  -5.803  1.00  0.00     0.072 A 
HETATM    4  C6  UNL     1      29.042  26.683  -7.039  1.00  0.00     0.020 A 
HETATM    5  C14 UNL     1      28.807  27.713  -7.955  1.00  0.00     0.155 A 
ENDROOT
BRANCH   4   6
HETATM    6  C7  UNL     1      29.247  25.268  -7.288  1.00  0.00     0.035 C 
HETATM    7  C8  UNL     1      29.031  24.342  -6.397  1.00  0.00     0.017 C 
HETATM    8 CL1  UNL     1      28.456  24.736  -4.780  1.00  0.00    -0.088 Cl
BRANCH   7   9
HETATM    9  C9  UNL     1      29.282  22.895  -6.720  1.00  0.00     0.030 C 
HETATM   10  C10 UNL     1      29.204  22.114  -5.438  1.00  0.00     0.010 C 
HETATM   11  C11 UNL     1      30.621  21.677  -5.187  1.00  0.00     0.001 C 
HETATM   12  C12 UNL     1      31.131  21.432  -6.591  1.00  0.00     0.001 C 
HETATM   13  C13 UNL     1      30.673  22.730  -7.270  1.00  0.00     0.010 C 
ENDBRANCH   7   9
ENDBRANCH   4   6
BRANCH   5  14
HETATM   14  O4  UNL     1      28.734  27.484  -9.319  1.00  0.00    -0.345 OA
ATOM     15  H4  UNL     1      29.420  27.173  -9.898  1.00  0.00     0.219 HD
ENDBRANCH   5  14
BRANCH   2  16
HETATM   16  O3  UNL     1      28.739  29.641  -4.998  1.00  0.00    -0.346 OA
ATOM     17  H3  UNL     1      28.819  29.472  -4.066  1.00  0.00     0.219 HD
ENDBRANCH   2  16
BRANCH   1  18
HETATM   18  C3  UNL     1      28.433  30.173  -7.874  1.00  0.00     0.244 C 
BRANCH  18  19
HETATM   19  C2  UNL     1      27.166  30.292  -8.603  1.00  0.00     0.276 C 
HETATM   20  O2  UNL     1      27.005  29.890  -9.782  1.00  0.00    -0.263 OA
BRANCH  19  21
HETATM   21  O1  UNL     1      26.100  30.874  -7.957  1.00  0.00    -0.325 OA
HETATM   22  C1  UNL     1      26.296  31.690  -6.819  1.00  0.00     0.213 C 
ENDBRANCH  19  21
ENDBRANCH  18  19
ENDBRANCH   1  18
TORSDOF 7
ENDMDL
MODEL 3
REMARK VINA RESULT: -7.837109201      0.768      1.069
REMARK  7 active torsions:
REMARK  status: ('A' for Active; 'I' for Inactive)
REMARK    1  A    between atoms: O1_2  and  C2_3 
REMARK    2  A    between atoms: C2_3  and  C3_5 
REMARK    3  A    between atoms: C3_5  and  N1_6 
REMARK    4  A    between atoms: C4_7  and  O3_8 
REMARK    5  A    between atoms: C6_11  and  C7_12 
REMARK    6  A    between atoms: C8_13  and  C9_15 
REMARK    7  A    between atoms: C14_20  and  O4_21 
ROOT
HETATM    1  N1  UNL     1      29.318  23.352  -6.362  1.00  0.00    -0.298 N 
HETATM    2  C4  UNL     1      28.712  23.899  -5.273  1.00  0.00     0.145 A 
HETATM    3  C5  UNL     1      28.535  25.243  -5.516  1.00  0.00     0.072 A 
HETATM    4  C6  UNL     1      29.033  25.534  -6.767  1.00  0.00     0.020 A 
HETATM    5  C14 UNL     1      29.515  24.319  -7.264  1.00  0.00     0.155 A 
ENDROOT
BRANCH   4   6
HETATM    6  C7  UNL     1      29.034  26.843  -7.394  1.00  0.00     0.035 C 
HETATM    7  C8  UNL     1      28.993  27.961  -6.725  1.00  0.00     0.017 C 
HETATM    8 CL1  UNL     1      28.936  27.981  -4.966  1.00  0.00    -0.088 Cl
BRANCH   7   9
HETATM    9  C9  UNL     1      28.979  29.282  -7.443  1.00  0.00     0.030 C 
HETATM   10  C10 UNL     1      28.418  30.314  -6.505  1.00  0.00     0.010 C 
HETATM   11  C11 UNL     1      27.082  30.663  -7.099  1.00  0.00     0.001 C 
HETATM   12  C12 UNL     1      27.359  30.566  -8.585  1.00  0.00     0.001 C 
HETATM   13  C13 UNL     1      28.063  29.203  -8.635  1.00  0.00     0.010 C 
ENDBRANCH   7   9
ENDBRANCH   4   6
BRANCH   5  14
HETATM   14  O4  UNL     1      30.098  24.215  -8.515  1.00  0.00    -0.345 OA
ATOM     15  H4  UNL     1      29.695  24.358  -9.363  1.00  0.00     0.219 HD
ENDBRANCH   5  14
BRANCH   2  16
HETATM   16  O3  UNL     1      28.359  23.162  -4.134  1.00  0.00    -0.346 OA
ATOM     17  H3  UNL     1      28.157  23.560  -3.296  1.00  0.00     0.219 HD
ENDBRANCH   2  16
BRANCH   1  18
HETATM   18  C3  UNL     1      29.659  21.960  -6.482  1.00  0.00     0.244 C 
BRANCH  18  19
HETATM   19  C2  UNL     1      30.797  21.538  -5.658  1.00  0.00     0.276 C 
HETATM   20  O2  UNL     1      30.687  21.179  -4.459  1.00  0.00    -0.263 OA
BRANCH  19  21
HETATM   21  O1  UNL     1      32.046  21.535  -6.233  1.00  0.00    -0.325 OA
HETATM   22  C1  UNL     1      32.201  21.469  -7.637  1.00  0.00     0.213 C 
ENDBRANCH  19  21
ENDBRANCH  18  19
ENDBRANCH   1  18
TORSDOF 7
ENDMDL
MODEL 4
REMARK VINA RESULT: -7.765756016      3.418      7.344
REMARK  7 active torsions:
REMARK  status: ('A' for Active; 'I' for Inactive)
REMARK    1  A    between atoms: O1_2  and  C2_3 
REMARK    2  A    between atoms: C2_3  and  C3_5 
REMARK    3  A    between atoms: C3_5  and  N1_6 
REMARK    4  A    between atoms: C4_7  and  O3_8 
REMARK    5  A    between atoms: C6_11  and  C7_12 
REMARK    6  A    between atoms: C8_13  and  C9_15 
REMARK    7  A    between atoms: C14_20  and  O4_21 
ROOT
HETATM    1  N1  UNL     1      28.678  29.010  -7.168  1.00  0.00    -0.298 N 
HETATM    2  C4  UNL     1      28.864  28.756  -5.845  1.00  0.00     0.145 A 
HETATM    3  C5  UNL     1      29.057  27.401  -5.695  1.00  0.00     0.072 A 
HETATM    4  C6  UNL     1      28.991  26.806  -6.936  1.00  0.00     0.020 A 
HETATM    5  C14 UNL     1      28.752  27.852  -7.833  1.00  0.00     0.155 A 
ENDROOT
BRANCH   4   6
HETATM    6  C7  UNL     1      29.147  25.389  -7.204  1.00  0.00     0.035 C 
HETATM    7  C8  UNL     1      28.943  24.460  -6.312  1.00  0.00     0.017 C 
HETATM    8 CL1  UNL     1      28.449  24.856  -4.669  1.00  0.00    -0.088 Cl
BRANCH   7   9
HETATM    9  C9  UNL     1      29.140  23.011  -6.657  1.00  0.00     0.030 C 
HETATM   10  C10 UNL     1      29.132  22.224  -5.376  1.00  0.00     0.010 C 
HETATM   11  C11 UNL     1      30.553  21.756  -5.224  1.00  0.00     0.001 C 
HETATM   12  C12 UNL     1      30.962  21.508  -6.661  1.00  0.00     0.001 C 
HETATM   13  C13 UNL     1      30.487  22.819  -7.301  1.00  0.00     0.010 C 
ENDBRANCH   7   9
ENDBRANCH   4   6
BRANCH   5  14
HETATM   14  O4  UNL     1      28.623  27.638  -9.195  1.00  0.00    -0.345 OA
ATOM     15  H4  UNL     1      28.077  27.001  -9.639  1.00  0.00     0.219 HD
ENDBRANCH   5  14
BRANCH   2  16
HETATM   16  O3  UNL     1      28.848  29.751  -4.858  1.00  0.00    -0.346 OA
ATOM     17  H3  UNL     1      29.577  30.336  -4.693  1.00  0.00     0.219 HD
ENDBRANCH   2  16
BRANCH   1  18
HETATM   18  C3  UNL     1      28.452  30.320  -7.716  1.00  0.00     0.244 C 
BRANCH  18  19
HETATM   19  C2  UNL     1      27.102  30.849  -7.495  1.00  0.00     0.276 C 
HETATM   20  O2  UNL     1      26.780  31.528  -6.489  1.00  0.00    -0.263 OA
BRANCH  19  21
HETATM   21  O1  UNL     1      26.141  30.586  -8.444  1.00  0.00    -0.325 OA
HETATM   22  C1  UNL     1      26.482  30.468  -9.811  1.00  0.00     0.213 C 
ENDBRANCH  19  21
ENDBRANCH  18  19
ENDBRANCH   1  18
TORSDOF 7
ENDMDL
MODEL 5
REMARK VINA RESULT: -7.548433309      2.788      4.060
REMARK  7 active torsions:
REMARK  status: ('A' for Active; 'I' for Inactive)
REMARK    1  A    between atoms: O1_2  and  C2_3 
REMARK    2  A    between atoms: C2_3  and  C3_5 
REMARK    3  A    between atoms: C3_5  and  N1_6 
REMARK    4  A    between atoms: C4_7  and  O3_8 
REMARK    5  A    between atoms: C6_11  and  C7_12 
REMARK    6  A    between atoms: C8_13  and  C9_15 
REMARK    7  A    between atoms: C14_20  and  O4_21 
ROOT
HETATM    1  N1  UNL     1      28.929  25.613  -7.336  1.00  0.00    -0.298 N 
HETATM    2  C4  UNL     1      29.143  26.736  -8.074  1.00  0.00     0.145 A 
HETATM    3  C5  UNL     1      29.196  27.807  -7.210  1.00  0.00     0.072 A 
HETATM    4  C6  UNL     1      29.015  27.347  -5.925  1.00  0.00     0.020 A 
HETATM    5  C14 UNL     1      28.851  25.964  -6.048  1.00  0.00     0.155 A 
ENDROOT
BRANCH   4   6
HETATM    6  C7  UNL     1      29.006  28.166  -4.727  1.00  0.00     0.035 C 
HETATM    7  C8  UNL     1      28.826  29.457  -4.737  1.00  0.00     0.017 C 
HETATM    8 CL1  UNL     1      28.568  30.337  -6.240  1.00  0.00    -0.088 Cl
BRANCH   7   9
HETATM    9  C9  UNL     1      28.846  30.243  -3.457  1.00  0.00     0.030 C 
HETATM   10  C10 UNL     1      30.199  30.885  -3.328  1.00  0.00     0.010 C 
HETATM   11  C11 UNL     1      30.845  30.155  -2.183  1.00  0.00     0.001 C 
HETATM   12  C12 UNL     1      29.666  29.889  -1.270  1.00  0.00     0.001 C 
HETATM   13  C13 UNL     1      28.670  29.314  -2.286  1.00  0.00     0.010 C 
ENDBRANCH   7   9
ENDBRANCH   4   6
BRANCH   5  14
HETATM   14  O4  UNL     1      28.643  25.147  -4.950  1.00  0.00    -0.345 OA
ATOM     15  H4  UNL     1      29.285  24.825  -4.328  1.00  0.00     0.219 HD
ENDBRANCH   5  14
BRANCH   2  16
HETATM   16  O3  UNL     1      29.274  26.730  -9.469  1.00  0.00    -0.346 OA
ATOM     17  H3  UNL     1      29.927  27.238  -9.935  1.00  0.00     0.219 HD
ENDBRANCH   2  16
BRANCH   1  18
HETATM   18  C3  UNL     1      28.822  24.290  -7.890  1.00  0.00     0.244 C 
BRANCH  18  19
HETATM   19  C2  UNL     1      29.834  23.344  -7.410  1.00  0.00     0.276 C 
HETATM   20  O2  UNL     1      30.841  23.008  -8.081  1.00  0.00    -0.263 OA
BRANCH  19  21
HETATM   21  O1  UNL     1      29.669  22.800  -6.157  1.00  0.00    -0.325 OA
HETATM   22  C1  UNL     1      30.347  21.616  -5.783  1.00  0.00     0.213 C 
ENDBRANCH  19  21
ENDBRANCH  18  19
ENDBRANCH   1  18
TORSDOF 7
ENDMDL
