MODEL 1
REMARK VINA RESULT: -7.032186123      0.000      0.000
REMARK  5 active torsions:
REMARK  status: ('A' for Active; 'I' for Inactive)
REMARK    1  A    between atoms: O1_2  and  C2_3 
REMARK    2  A    between atoms: C6_10  and  N3_11 
REMARK    3  A    between atoms: N3_11  and  O2_13 
REMARK    4  A    between atoms: C7_15  and  C8_16 
REMARK    5  A    between atoms: C8_16  and  N4_17 
ROOT
HETATM    1  C2  UNL     1      30.563  21.714  -6.090  1.00  0.00     0.107 A 
HETATM    2  C3  UNL     1      31.820  21.365  -6.486  1.00  0.00     0.104 A 
HETATM    3  N1  UNL     1      32.293  21.600  -7.799  1.00  0.00    -0.098 NA
HETATM    4  C4  UNL     1      32.682  20.760  -5.596  1.00  0.00     0.087 A 
HETATM    5 CL1  UNL     1      34.318  20.309  -6.118  1.00  0.00    -0.080 Cl
HETATM    6  C5  UNL     1      32.252  20.524  -4.326  1.00  0.00     0.099 A 
HETATM    7  N2  UNL     1      33.117  19.908  -3.401  1.00  0.00    -0.098 NA
HETATM    8  C6  UNL     1      30.961  20.891  -3.946  1.00  0.00     0.094 A 
HETATM    9  C7  UNL     1      30.080  21.487  -4.791  1.00  0.00     0.040 A 
ENDROOT
BRANCH   9  10
HETATM   10  C8  UNL     1      28.738  21.960  -4.511  1.00  0.00     0.076 C 
BRANCH  10  11
HETATM   11  N4  UNL     1      28.298  22.200  -3.199  1.00  0.00    -0.288 NA
HETATM   12  C9  UNL     1      27.116  21.479  -2.772  1.00  0.00     0.095 C 
HETATM   13  C10 UNL     1      26.003  22.530  -2.819  1.00  0.00     0.016 C 
HETATM   14  C11 UNL     1      26.760  23.731  -2.282  1.00  0.00     0.021 C 
HETATM   15  C12 UNL     1      28.121  23.579  -2.901  1.00  0.00     0.058 C 
HETATM   16  C13 UNL     1      28.181  24.501  -4.099  1.00  0.00     0.026 C 
ENDBRANCH  10  11
ENDBRANCH   9  10
BRANCH   1  17
HETATM   17  O1  UNL     1      29.741  22.315  -7.017  1.00  0.00    -0.353 OA
HETATM   18  C1  UNL     1      29.874  23.686  -7.286  1.00  0.00     0.210 C 
ENDBRANCH   1  17
BRANCH   8  19
HETATM   19  N3  UNL     1      30.603  20.656  -2.582  1.00  0.00    -0.267 N 
ATOM     20  H3  UNL     1      30.740  21.367  -1.863  1.00  0.00     0.194 HD
BRANCH  19  21
HETATM   21  O2  UNL     1      30.113  19.537  -2.313  1.00  0.00    -0.289 OA
ATOM     22  H2  UNL     1      30.398  19.128  -1.504  1.00  0.00     0.244 HD
ENDBRANCH  19  21
ENDBRANCH   8  19
TORSDOF 5
ENDMDL
MODEL 2
REMARK VINA RESULT: -6.704714673      8.749     10.925
REMARK  5 active torsions:
REMARK  status: ('A' for Active; 'I' for Inactive)
REMARK    1  A    between atoms: O1_2  and  C2_3 
REMARK    2  A    between atoms: C6_10  and  N3_11 
REMARK    3  A    between atoms: N3_11  and  O2_13 
REMARK    4  A    between atoms: C7_15  and  C8_16 
REMARK    5  A    between atoms: C8_16  and  N4_17 
ROOT
HETATM    1  C2  UNL     1      27.448  30.644  -7.844  1.00  0.00     0.107 A 
HETATM    2  C3  UNL     1      26.427  30.891  -8.714  1.00  0.00     0.104 A 
HETATM    3  N1  UNL     1      26.417  30.384 -10.034  1.00  0.00    -0.098 NA
HETATM    4  C4  UNL     1      25.354  31.660  -8.317  1.00  0.00     0.087 A 
HETATM    5 CL1  UNL     1      24.028  31.979  -9.455  1.00  0.00    -0.080 Cl
HETATM    6  C5  UNL     1      25.338  32.159  -7.052  1.00  0.00     0.099 A 
HETATM    7  N2  UNL     1      24.250  32.947  -6.626  1.00  0.00    -0.098 NA
HETATM    8  C6  UNL     1      26.395  31.891  -6.182  1.00  0.00     0.094 A 
HETATM    9  C7  UNL     1      27.472  31.141  -6.531  1.00  0.00     0.040 A 
ENDROOT
BRANCH   9  10
HETATM   10  C8  UNL     1      28.603  30.748  -5.714  1.00  0.00     0.076 C 
BRANCH  10  11
HETATM   11  N4  UNL     1      28.582  30.871  -4.315  1.00  0.00    -0.288 NA
HETATM   12  C9  UNL     1      29.547  31.779  -3.731  1.00  0.00     0.095 C 
HETATM   13  C10 UNL     1      30.621  30.855  -3.148  1.00  0.00     0.016 C 
HETATM   14  C11 UNL     1      29.739  29.752  -2.594  1.00  0.00     0.021 C 
HETATM   15  C12 UNL     1      28.661  29.625  -3.634  1.00  0.00     0.058 C 
HETATM   16  C13 UNL     1      29.012  28.443  -4.510  1.00  0.00     0.026 C 
ENDBRANCH  10  11
ENDBRANCH   9  10
BRANCH   1  17
HETATM   17  O1  UNL     1      28.497  29.870  -8.289  1.00  0.00    -0.353 OA
HETATM   18  C1  UNL     1      28.423  28.472  -8.198  1.00  0.00     0.210 C 
ENDBRANCH   1  17
BRANCH   8  19
HETATM   19  N3  UNL     1      26.279  32.409  -4.854  1.00  0.00    -0.267 N 
ATOM     20  H3  UNL     1      25.885  31.852  -4.095  1.00  0.00     0.194 HD
BRANCH  19  21
HETATM   21  O2  UNL     1      26.684  33.577  -4.667  1.00  0.00    -0.289 OA
ATOM     22  H2  UNL     1      26.736  33.874  -3.766  1.00  0.00     0.244 HD
ENDBRANCH  19  21
ENDBRANCH   8  19
TORSDOF 5
ENDMDL
MODEL 3
REMARK VINA RESULT: -5.802989852      2.682      3.590
REMARK  5 active torsions:
REMARK  status: ('A' for Active; 'I' for Inactive)
REMARK    1  A    between atoms: O1_2  and  C2_3 
REMARK    2  A    between atoms: C6_10  and  N3_11 
REMARK    3  A    between atoms: N3_11  and  O2_13 
REMARK    4  A    between atoms: C7_15  and  C8_16 
REMARK    5  A    between atoms: C8_16  and  N4_17 
ROOT
HETATM    1  C2  UNL     1      30.234  21.274  -4.575  1.00  0.00     0.107 A 
HETATM    2  C3  UNL     1      30.684  21.494  -5.844  1.00  0.00     0.104 A 
HETATM    3  N1  UNL     1      29.860  22.035  -6.858  1.00  0.00    -0.098 NA
HETATM    4  C4  UNL     1      31.986  21.185  -6.177  1.00  0.00     0.087 A 
HETATM    5 CL1  UNL     1      32.567  21.473  -7.830  1.00  0.00    -0.080 Cl
HETATM    6  C5  UNL     1      32.801  20.665  -5.219  1.00  0.00     0.099 A 
HETATM    7  N2  UNL     1      34.135  20.344  -5.538  1.00  0.00    -0.098 NA
HETATM    8  C6  UNL     1      32.315  20.451  -3.929  1.00  0.00     0.094 A 
HETATM    9  C7  UNL     1      31.040  20.738  -3.559  1.00  0.00     0.040 A 
ENDROOT
BRANCH   9  10
HETATM   10  C8  UNL     1      30.429  20.611  -2.251  1.00  0.00     0.076 C 
BRANCH  10  11
HETATM   11  N4  UNL     1      30.864  19.652  -1.321  1.00  0.00    -0.288 NA
HETATM   12  C9  UNL     1      29.993  18.513  -1.113  1.00  0.00     0.095 C 
HETATM   13  C10 UNL     1      29.320  18.802   0.232  1.00  0.00     0.016 C 
HETATM   14  C11 UNL     1      30.499  19.384   0.991  1.00  0.00     0.021 C 
HETATM   15  C12 UNL     1      31.205  20.200  -0.054  1.00  0.00     0.058 C 
HETATM   16  C13 UNL     1      30.797  21.644   0.143  1.00  0.00     0.026 C 
ENDBRANCH  10  11
ENDBRANCH   9  10
BRANCH   1  17
HETATM   17  O1  UNL     1      28.925  21.599  -4.294  1.00  0.00    -0.353 OA
HETATM   18  C1  UNL     1      28.560  22.942  -4.113  1.00  0.00     0.210 C 
ENDBRANCH   1  17
BRANCH   8  19
HETATM   19  N3  UNL     1      33.248  19.949  -2.968  1.00  0.00    -0.267 N 
ATOM     20  H3  UNL     1      33.804  20.575  -2.386  1.00  0.00     0.194 HD
BRANCH  19  21
HETATM   21  O2  UNL     1      33.348  18.706  -2.876  1.00  0.00    -0.289 OA
ATOM     22  H2  UNL     1      34.185  18.364  -2.585  1.00  0.00     0.244 HD
ENDBRANCH  19  21
ENDBRANCH   8  19
TORSDOF 5
ENDMDL
MODEL 4
REMARK VINA RESULT: -5.754329577      0.936      3.155
REMARK  5 active torsions:
REMARK  status: ('A' for Active; 'I' for Inactive)
REMARK    1  A    between atoms: O1_2  and  C2_3 
REMARK    2  A    between atoms: C6_10  and  N3_11 
REMARK    3  A    between atoms: N3_11  and  O2_13 
REMARK    4  A    between atoms: C7_15  and  C8_16 
REMARK    5  A    between atoms: C8_16  and  N4_17 
ROOT
HETATM    1  C2  UNL     1      30.851  20.833  -4.025  1.00  0.00     0.107 A 
HETATM    2  C3  UNL     1      32.120  20.442  -4.334  1.00  0.00     0.104 A 
HETATM    3  N1  UNL     1      32.935  19.728  -3.425  1.00  0.00    -0.098 NA
HETATM    4  C4  UNL     1      32.653  20.740  -5.570  1.00  0.00     0.087 A 
HETATM    5 CL1  UNL     1      34.306  20.228  -5.966  1.00  0.00    -0.080 Cl
HETATM    6  C5  UNL     1      31.889  21.425  -6.464  1.00  0.00     0.099 A 
HETATM    7  N2  UNL     1      32.414  21.740  -7.733  1.00  0.00    -0.098 NA
HETATM    8  C6  UNL     1      30.593  21.814  -6.123  1.00  0.00     0.094 A 
HETATM    9  C7  UNL     1      30.031  21.543  -4.917  1.00  0.00     0.040 A 
ENDROOT
BRANCH   9  10
HETATM   10  C8  UNL     1      28.689  21.843  -4.458  1.00  0.00     0.076 C 
BRANCH  10  11
HETATM   11  N4  UNL     1      28.448  22.391  -3.187  1.00  0.00    -0.288 NA
HETATM   12  C9  UNL     1      27.341  21.827  -2.440  1.00  0.00     0.095 C 
HETATM   13  C10 UNL     1      26.234  22.878  -2.567  1.00  0.00     0.016 C 
HETATM   14  C11 UNL     1      27.063  24.143  -2.437  1.00  0.00     0.021 C 
HETATM   15  C12 UNL     1      28.317  23.807  -3.192  1.00  0.00     0.058 C 
HETATM   16  C13 UNL     1      28.200  24.428  -4.567  1.00  0.00     0.026 C 
ENDBRANCH  10  11
ENDBRANCH   9  10
BRANCH   1  17
HETATM   17  O1  UNL     1      30.365  20.511  -2.777  1.00  0.00    -0.353 OA
HETATM   18  C1  UNL     1      31.001  21.007  -1.629  1.00  0.00     0.210 C 
ENDBRANCH   1  17
BRANCH   8  19
HETATM   19  N3  UNL     1      29.838  22.485  -7.135  1.00  0.00    -0.267 N 
ATOM     20  H3  UNL     1      29.008  22.062  -7.551  1.00  0.00     0.194 HD
BRANCH  19  21
HETATM   21  O2  UNL     1      30.245  23.615  -7.485  1.00  0.00    -0.289 OA
ATOM     22  H2  UNL     1      31.175  23.783  -7.390  1.00  0.00     0.244 HD
ENDBRANCH  19  21
ENDBRANCH   8  19
TORSDOF 5
ENDMDL
MODEL 5
REMARK VINA RESULT: -5.650941162      1.386      3.546
REMARK  5 active torsions:
REMARK  status: ('A' for Active; 'I' for Inactive)
REMARK    1  A    between atoms: O1_2  and  C2_3 
REMARK    2  A    between atoms: C6_10  and  N3_11 
REMARK    3  A    between atoms: N3_11  and  O2_13 
REMARK    4  A    between atoms: C7_15  and  C8_16 
REMARK    5  A    between atoms: C8_16  and  N4_17 
ROOT
HETATM    1  C2  UNL     1      30.866  20.666  -2.797  1.00  0.00     0.107 A 
HETATM    2  C3  UNL     1      32.072  20.369  -3.361  1.00  0.00     0.104 A 
HETATM    3  N1  UNL     1      33.125  19.775  -2.627  1.00  0.00    -0.098 NA
HETATM    4  C4  UNL     1      32.299  20.648  -4.692  1.00  0.00     0.087 A 
HETATM    5 CL1  UNL     1      33.871  20.259  -5.419  1.00  0.00    -0.080 Cl
HETATM    6  C5  UNL     1      31.301  21.218  -5.420  1.00  0.00     0.099 A 
HETATM    7  N2  UNL     1      31.513  21.511  -6.782  1.00  0.00    -0.098 NA
HETATM    8  C6  UNL     1      30.077  21.512  -4.820  1.00  0.00     0.094 A 
HETATM    9  C7  UNL     1      29.812  21.256  -3.512  1.00  0.00     0.040 A 
ENDROOT
BRANCH   9  10
HETATM   10  C8  UNL     1      28.575  21.464  -2.784  1.00  0.00     0.076 C 
BRANCH  10  11
HETATM   11  N4  UNL     1      27.680  22.490  -3.127  1.00  0.00    -0.288 NA
HETATM   12  C9  UNL     1      27.978  23.809  -2.606  1.00  0.00     0.095 C 
HETATM   13  C10 UNL     1      26.984  23.988  -1.455  1.00  0.00     0.016 C 
HETATM   14  C11 UNL     1      25.754  23.349  -2.075  1.00  0.00     0.021 C 
HETATM   15  C12 UNL     1      26.323  22.183  -2.833  1.00  0.00     0.058 C 
HETATM   16  C13 UNL     1      26.121  20.947  -1.983  1.00  0.00     0.026 C 
ENDBRANCH  10  11
ENDBRANCH   9  10
BRANCH   1  17
HETATM   17  O1  UNL     1      30.690  20.368  -1.464  1.00  0.00    -0.353 OA
HETATM   18  C1  UNL     1      31.087  21.288  -0.482  1.00  0.00     0.210 C 
ENDBRANCH   1  17
BRANCH   8  19
HETATM   19  N3  UNL     1      29.064  22.063  -5.665  1.00  0.00    -0.267 N 
ATOM     20  H3  UNL     1      28.326  21.482  -6.064  1.00  0.00     0.194 HD
BRANCH  19  21
HETATM   21  O2  UNL     1      29.127  23.291  -5.892  1.00  0.00    -0.289 OA
ATOM     22  H2  UNL     1      28.492  23.646  -6.503  1.00  0.00     0.244 HD
ENDBRANCH  19  21
ENDBRANCH   8  19
TORSDOF 5
ENDMDL
