MODEL 1
REMARK VINA RESULT: -8.207912436      0.000      0.000
REMARK  10 active torsions:
REMARK  status: ('A' for Active; 'I' for Inactive)
REMARK    1  A    between atoms: C2_2  and  C3_3 
REMARK    2  A    between atoms: C3_3  and  C4_4 
REMARK    3  A    between atoms: C4_4  and  C5_5 
REMARK    4  A    between atoms: C6_7  and  C7_8 
REMARK    5  A    between atoms: C7_8  and  C8_9 
REMARK    6  A    between atoms: C8_9  and  C9_10 
REMARK    7  A    between atoms: C9_10  and  C10_11 
REMARK    8  A    between atoms: C13_18  and  C14_19 
REMARK    9  A    between atoms: C14_19  and  O3_20 
REMARK   10  A    between atoms: N2_22  and  O4_24 
ROOT
HETATM    1  C5  UNL     1      27.210  28.859   6.545  1.00  0.00     0.029 A 
HETATM    2  S1  UNL     1      26.252  28.610   5.105  1.00  0.00    -0.075 SA
HETATM    3  C6  UNL     1      24.699  28.806   5.778  1.00  0.00     0.051 A 
HETATM    4  N1  UNL     1      24.974  29.042   7.019  1.00  0.00    -0.356 N 
ATOM      5  H1  UNL     1      24.211  29.205   7.677  1.00  0.00     0.166 HD
HETATM    6  C11 UNL     1      26.215  29.079   7.451  1.00  0.00     0.023 A 
HETATM    7  C12 UNL     1      26.478  29.352   8.924  1.00  0.00     0.069 C 
ENDROOT
BRANCH   1   8
HETATM    8  C4  UNL     1      28.672  28.834   6.632  1.00  0.00     0.021 C 
BRANCH   8   9
HETATM    9  C3  UNL     1      29.728  28.415   6.830  1.00  0.00     0.008 C 
BRANCH   9  10
HETATM   10  C2  UNL     1      30.638  27.349   7.243  1.00  0.00    -0.058 C 
HETATM   11  C1  UNL     1      31.724  26.792   6.453  1.00  0.00     0.048 C 
HETATM   12  C13 UNL     1      30.382  26.791   8.409  1.00  0.00     0.064 C 
BRANCH  12  13
HETATM   13  C14 UNL     1      30.922  25.738   9.091  1.00  0.00     0.160 C 
HETATM   14  N2  UNL     1      31.470  24.606   8.727  1.00  0.00    -0.247 N 
ATOM     15  H2  UNL     1      31.550  24.359   7.741  1.00  0.00     0.196 HD
BRANCH  13  16
HETATM   16  O3  UNL     1      30.892  25.814  10.546  1.00  0.00    -0.345 OA
ATOM     17  H3  UNL     1      30.889  24.990  11.017  1.00  0.00     0.219 HD
ENDBRANCH  13  16
BRANCH  14  18
HETATM   18  O4  UNL     1      31.917  23.786   9.670  1.00  0.00    -0.288 OA
ATOM     19  H4  UNL     1      32.297  22.956   9.408  1.00  0.00     0.244 HD
ENDBRANCH  14  18
ENDBRANCH  12  13
ENDBRANCH   9  10
ENDBRANCH   8   9
ENDBRANCH   1   8
BRANCH   3  20
HETATM   20  C7  UNL     1      23.347  28.722   5.094  1.00  0.00     0.065 C 
BRANCH  20  21
HETATM   21  C8  UNL     1      22.265  29.144   6.044  1.00  0.00     0.017 C 
BRANCH  21  22
HETATM   22  C9  UNL     1      21.884  30.594   5.968  1.00  0.00     0.113 C 
BRANCH  22  23
HETATM   23  C10 UNL     1      22.045  31.296   7.245  1.00  0.00     0.172 C 
HETATM   24  O1  UNL     1      22.896  30.958   8.132  1.00  0.00    -0.648 OA
HETATM   25  O2  UNL     1      21.245  32.389   7.533  1.00  0.00    -0.648 OA
ENDBRANCH  22  23
ENDBRANCH  21  22
ENDBRANCH  20  21
ENDBRANCH   3  20
TORSDOF 10
ENDMDL
MODEL 2
REMARK VINA RESULT: -8.165832012      1.500      2.028
REMARK  10 active torsions:
REMARK  status: ('A' for Active; 'I' for Inactive)
REMARK    1  A    between atoms: C2_2  and  C3_3 
REMARK    2  A    between atoms: C3_3  and  C4_4 
REMARK    3  A    between atoms: C4_4  and  C5_5 
REMARK    4  A    between atoms: C6_7  and  C7_8 
REMARK    5  A    between atoms: C7_8  and  C8_9 
REMARK    6  A    between atoms: C8_9  and  C9_10 
REMARK    7  A    between atoms: C9_10  and  C10_11 
REMARK    8  A    between atoms: C13_18  and  C14_19 
REMARK    9  A    between atoms: C14_19  and  O3_20 
REMARK   10  A    between atoms: N2_22  and  O4_24 
ROOT
HETATM    1  C5  UNL     1      26.446  29.102   7.581  1.00  0.00     0.029 A 
HETATM    2  S1  UNL     1      24.895  29.481   8.289  1.00  0.00    -0.075 SA
HETATM    3  C6  UNL     1      23.928  29.378   6.889  1.00  0.00     0.051 A 
HETATM    4  N1  UNL     1      24.800  29.071   5.986  1.00  0.00    -0.356 N 
ATOM      5  H1  UNL     1      24.494  28.942   5.021  1.00  0.00     0.166 HD
HETATM    6  C11 UNL     1      26.073  28.922   6.283  1.00  0.00     0.023 A 
HETATM    7  C12 UNL     1      27.054  28.571   5.176  1.00  0.00     0.069 C 
ENDROOT
BRANCH   1   8
HETATM    8  C4  UNL     1      27.725  29.011   8.289  1.00  0.00     0.021 C 
BRANCH   8   9
HETATM    9  C3  UNL     1      28.792  28.646   8.536  1.00  0.00     0.008 C 
BRANCH   9  10
HETATM   10  C2  UNL     1      29.889  27.689   8.416  1.00  0.00    -0.058 C 
HETATM   11  C1  UNL     1      30.819  27.582   7.303  1.00  0.00     0.048 C 
HETATM   12  C13 UNL     1      29.978  26.788   9.375  1.00  0.00     0.064 C 
BRANCH  12  13
HETATM   13  C14 UNL     1      30.780  25.702   9.578  1.00  0.00     0.160 C 
HETATM   14  N2  UNL     1      31.344  24.828   8.782  1.00  0.00    -0.247 N 
ATOM     15  H2  UNL     1      31.209  24.880   7.773  1.00  0.00     0.196 HD
BRANCH  13  16
HETATM   16  O3  UNL     1      31.095  25.369  10.961  1.00  0.00    -0.345 OA
ATOM     17  H3  UNL     1      30.360  25.215  11.543  1.00  0.00     0.219 HD
ENDBRANCH  13  16
BRANCH  14  18
HETATM   18  O4  UNL     1      32.094  23.873   9.319  1.00  0.00    -0.288 OA
ATOM     19  H4  UNL     1      33.039  23.956   9.267  1.00  0.00     0.244 HD
ENDBRANCH  14  18
ENDBRANCH  12  13
ENDBRANCH   9  10
ENDBRANCH   8   9
ENDBRANCH   1   8
BRANCH   3  20
HETATM   20  C7  UNL     1      22.433  29.592   6.747  1.00  0.00     0.065 C 
BRANCH  20  21
HETATM   21  C8  UNL     1      22.082  31.007   7.105  1.00  0.00     0.017 C 
BRANCH  21  22
HETATM   22  C9  UNL     1      21.719  31.884   5.941  1.00  0.00     0.113 C 
BRANCH  22  23
HETATM   23  C10 UNL     1      20.950  33.068   6.336  1.00  0.00     0.172 C 
HETATM   24  O1  UNL     1      20.432  33.882   5.503  1.00  0.00    -0.648 OA
HETATM   25  O2  UNL     1      20.758  33.344   7.679  1.00  0.00    -0.648 OA
ENDBRANCH  22  23
ENDBRANCH  21  22
ENDBRANCH  20  21
ENDBRANCH   3  20
TORSDOF 10
ENDMDL
MODEL 3
REMARK VINA RESULT: -8.102147008      1.803      8.720
REMARK  10 active torsions:
REMARK  status: ('A' for Active; 'I' for Inactive)
REMARK    1  A    between atoms: C2_2  and  C3_3 
REMARK    2  A    between atoms: C3_3  and  C4_4 
REMARK    3  A    between atoms: C4_4  and  C5_5 
REMARK    4  A    between atoms: C6_7  and  C7_8 
REMARK    5  A    between atoms: C7_8  and  C8_9 
REMARK    6  A    between atoms: C8_9  and  C9_10 
REMARK    7  A    between atoms: C9_10  and  C10_11 
REMARK    8  A    between atoms: C13_18  and  C14_19 
REMARK    9  A    between atoms: C14_19  and  O3_20 
REMARK   10  A    between atoms: N2_22  and  O4_24 
ROOT
HETATM    1  C5  UNL     1      25.707  28.853   6.276  1.00  0.00     0.029 A 
HETATM    2  S1  UNL     1      27.039  28.636   5.167  1.00  0.00    -0.075 SA
HETATM    3  C6  UNL     1      28.331  28.753   6.273  1.00  0.00     0.051 A 
HETATM    4  N1  UNL     1      27.709  28.944   7.390  1.00  0.00    -0.356 N 
ATOM      5  H1  UNL     1      28.248  29.051   8.249  1.00  0.00     0.166 HD
HETATM    6  C11 UNL     1      26.396  29.002   7.443  1.00  0.00     0.023 A 
HETATM    7  C12 UNL     1      25.720  29.238   8.785  1.00  0.00     0.069 C 
ENDROOT
BRANCH   1   8
HETATM    8  C4  UNL     1      24.282  28.840   5.936  1.00  0.00     0.021 C 
BRANCH   8   9
HETATM    9  C3  UNL     1      23.192  29.211   5.865  1.00  0.00     0.008 C 
BRANCH   9  10
HETATM   10  C2  UNL     1      22.196  30.270   5.722  1.00  0.00    -0.058 C 
HETATM   11  C1  UNL     1      21.354  30.506   4.560  1.00  0.00     0.048 C 
HETATM   12  C13 UNL     1      22.126  31.137   6.713  1.00  0.00     0.064 C 
BRANCH  12  13
HETATM   13  C14 UNL     1      21.414  32.284   6.915  1.00  0.00     0.160 C 
HETATM   14  N2  UNL     1      21.004  33.249   6.130  1.00  0.00    -0.247 N 
ATOM     15  H2  UNL     1      21.219  33.237   5.134  1.00  0.00     0.196 HD
BRANCH  13  16
HETATM   16  O3  UNL     1      21.013  32.574   8.286  1.00  0.00    -0.345 OA
ATOM     17  H3  UNL     1      20.448  31.939   8.710  1.00  0.00     0.219 HD
ENDBRANCH  13  16
BRANCH  14  18
HETATM   18  O4  UNL     1      20.302  34.243   6.661  1.00  0.00    -0.288 OA
ATOM     19  H4  UNL     1      20.580  35.135   6.493  1.00  0.00     0.244 HD
ENDBRANCH  14  18
ENDBRANCH  12  13
ENDBRANCH   9  10
ENDBRANCH   8   9
ENDBRANCH   1   8
BRANCH   3  20
HETATM   20  C7  UNL     1      29.822  28.658   6.008  1.00  0.00     0.065 C 
BRANCH  20  21
HETATM   21  C8  UNL     1      30.568  28.578   7.308  1.00  0.00     0.017 C 
BRANCH  21  22
HETATM   22  C9  UNL     1      30.829  27.185   7.805  1.00  0.00     0.113 C 
BRANCH  22  23
HETATM   23  C10 UNL     1      30.338  26.963   9.168  1.00  0.00     0.172 C 
HETATM   24  O1  UNL     1      30.897  26.176   9.999  1.00  0.00    -0.648 OA
HETATM   25  O2  UNL     1      29.206  27.631   9.606  1.00  0.00    -0.648 OA
ENDBRANCH  22  23
ENDBRANCH  21  22
ENDBRANCH  20  21
ENDBRANCH   3  20
TORSDOF 10
ENDMDL
MODEL 4
REMARK VINA RESULT: -8.096346591      2.151      9.313
REMARK  10 active torsions:
REMARK  status: ('A' for Active; 'I' for Inactive)
REMARK    1  A    between atoms: C2_2  and  C3_3 
REMARK    2  A    between atoms: C3_3  and  C4_4 
REMARK    3  A    between atoms: C4_4  and  C5_5 
REMARK    4  A    between atoms: C6_7  and  C7_8 
REMARK    5  A    between atoms: C7_8  and  C8_9 
REMARK    6  A    between atoms: C8_9  and  C9_10 
REMARK    7  A    between atoms: C9_10  and  C10_11 
REMARK    8  A    between atoms: C13_18  and  C14_19 
REMARK    9  A    between atoms: C14_19  and  O3_20 
REMARK   10  A    between atoms: N2_22  and  O4_24 
ROOT
HETATM    1  C5  UNL     1      26.142  29.107   7.667  1.00  0.00     0.029 A 
HETATM    2  S1  UNL     1      27.428  29.104   8.850  1.00  0.00    -0.075 SA
HETATM    3  C6  UNL     1      28.732  28.707   7.827  1.00  0.00     0.051 A 
HETATM    4  N1  UNL     1      28.148  28.600   6.679  1.00  0.00    -0.356 N 
ATOM      5  H1  UNL     1      28.703  28.364   5.857  1.00  0.00     0.166 HD
HETATM    6  C11 UNL     1      26.853  28.791   6.549  1.00  0.00     0.023 A 
HETATM    7  C12 UNL     1      26.219  28.642   5.174  1.00  0.00     0.069 C 
ENDROOT
BRANCH   1   8
HETATM    8  C4  UNL     1      24.730  29.402   7.920  1.00  0.00     0.021 C 
BRANCH   8   9
HETATM    9  C3  UNL     1      23.651  29.752   7.707  1.00  0.00     0.008 C 
BRANCH   9  10
HETATM   10  C2  UNL     1      22.641  30.371   6.853  1.00  0.00    -0.058 C 
HETATM   11  C1  UNL     1      22.112  29.827   5.613  1.00  0.00     0.048 C 
HETATM   12  C13 UNL     1      22.243  31.577   7.209  1.00  0.00     0.064 C 
BRANCH  12  13
HETATM   13  C14 UNL     1      21.408  32.500   6.648  1.00  0.00     0.160 C 
HETATM   14  N2  UNL     1      21.041  32.763   5.418  1.00  0.00    -0.247 N 
ATOM     15  H2  UNL     1      21.410  32.221   4.637  1.00  0.00     0.196 HD
BRANCH  13  16
HETATM   16  O3  UNL     1      20.774  33.448   7.554  1.00  0.00    -0.345 OA
ATOM     17  H3  UNL     1      20.342  33.086   8.319  1.00  0.00     0.219 HD
ENDBRANCH  13  16
BRANCH  14  18
HETATM   18  O4  UNL     1      20.179  33.752   5.212  1.00  0.00    -0.288 OA
ATOM     19  H4  UNL     1      20.477  34.646   5.327  1.00  0.00     0.244 HD
ENDBRANCH  14  18
ENDBRANCH  12  13
ENDBRANCH   9  10
ENDBRANCH   8   9
ENDBRANCH   1   8
BRANCH   3  20
HETATM   20  C7  UNL     1      30.197  28.527   8.179  1.00  0.00     0.065 C 
BRANCH  20  21
HETATM   21  C8  UNL     1      30.695  27.217   7.643  1.00  0.00     0.017 C 
BRANCH  21  22
HETATM   22  C9  UNL     1      30.759  26.103   8.648  1.00  0.00     0.113 C 
BRANCH  22  23
HETATM   23  C10 UNL     1      31.516  24.943   8.169  1.00  0.00     0.172 C 
HETATM   24  O1  UNL     1      31.647  24.648   6.936  1.00  0.00    -0.648 OA
HETATM   25  O2  UNL     1      32.133  24.103   9.080  1.00  0.00    -0.648 OA
ENDBRANCH  22  23
ENDBRANCH  21  22
ENDBRANCH  20  21
ENDBRANCH   3  20
TORSDOF 10
ENDMDL
MODEL 5
REMARK VINA RESULT: -7.903012393      2.570      8.952
REMARK  10 active torsions:
REMARK  status: ('A' for Active; 'I' for Inactive)
REMARK    1  A    between atoms: C2_2  and  C3_3 
REMARK    2  A    between atoms: C3_3  and  C4_4 
REMARK    3  A    between atoms: C4_4  and  C5_5 
REMARK    4  A    between atoms: C6_7  and  C7_8 
REMARK    5  A    between atoms: C7_8  and  C8_9 
REMARK    6  A    between atoms: C8_9  and  C9_10 
REMARK    7  A    between atoms: C9_10  and  C10_11 
REMARK    8  A    between atoms: C13_18  and  C14_19 
REMARK    9  A    between atoms: C14_19  and  O3_20 
REMARK   10  A    between atoms: N2_22  and  O4_24 
ROOT
HETATM    1  C5  UNL     1      26.470  29.100   7.667  1.00  0.00     0.029 A 
HETATM    2  S1  UNL     1      27.731  29.046   8.876  1.00  0.00    -0.075 SA
HETATM    3  C6  UNL     1      29.043  28.620   7.876  1.00  0.00     0.051 A 
HETATM    4  N1  UNL     1      28.480  28.543   6.715  1.00  0.00    -0.356 N 
ATOM      5  H1  UNL     1      29.044  28.298   5.902  1.00  0.00     0.166 HD
HETATM    6  C11 UNL     1      27.194  28.774   6.560  1.00  0.00     0.023 A 
HETATM    7  C12 UNL     1      26.584  28.659   5.171  1.00  0.00     0.069 C 
ENDROOT
BRANCH   1   8
HETATM    8  C4  UNL     1      25.062  29.435   7.895  1.00  0.00     0.021 C 
BRANCH   8   9
HETATM    9  C3  UNL     1      23.975  29.730   7.645  1.00  0.00     0.008 C 
BRANCH   9  10
HETATM   10  C2  UNL     1      22.880  29.942   6.702  1.00  0.00    -0.058 C 
HETATM   11  C1  UNL     1      21.743  30.828   6.890  1.00  0.00     0.048 C 
HETATM   12  C13 UNL     1      22.893  29.187   5.621  1.00  0.00     0.064 C 
BRANCH  12  13
HETATM   13  C14 UNL     1      22.031  29.021   4.575  1.00  0.00     0.160 C 
HETATM   14  N2  UNL     1      21.536  29.827   3.670  1.00  0.00    -0.247 N 
ATOM     15  H2  UNL     1      21.781  30.817   3.663  1.00  0.00     0.196 HD
BRANCH  13  16
HETATM   16  O3  UNL     1      21.482  27.684   4.383  1.00  0.00    -0.345 OA
ATOM     17  H3  UNL     1      22.050  27.044   3.971  1.00  0.00     0.219 HD
ENDBRANCH  13  16
BRANCH  14  18
HETATM   18  O4  UNL     1      20.708  29.327   2.760  1.00  0.00    -0.288 OA
ATOM     19  H4  UNL     1      20.189  29.928   2.239  1.00  0.00     0.244 HD
ENDBRANCH  14  18
ENDBRANCH  12  13
ENDBRANCH   9  10
ENDBRANCH   8   9
ENDBRANCH   1   8
BRANCH   3  20
HETATM   20  C7  UNL     1      30.495  28.392   8.255  1.00  0.00     0.065 C 
BRANCH  20  21
HETATM   21  C8  UNL     1      30.946  27.046   7.768  1.00  0.00     0.017 C 
BRANCH  21  22
HETATM   22  C9  UNL     1      30.850  25.940   8.780  1.00  0.00     0.113 C 
BRANCH  22  23
HETATM   23  C10 UNL     1      31.835  24.877   8.559  1.00  0.00     0.172 C 
HETATM   24  O1  UNL     1      31.960  23.864   9.322  1.00  0.00    -0.648 OA
HETATM   25  O2  UNL     1      32.689  24.948   7.472  1.00  0.00    -0.648 OA
ENDBRANCH  22  23
ENDBRANCH  21  22
ENDBRANCH  20  21
ENDBRANCH   3  20
TORSDOF 10
ENDMDL
