MODEL 1
REMARK VINA RESULT: -9.027370626      0.000      0.000
REMARK  8 active torsions:
REMARK  status: ('A' for Active; 'I' for Inactive)
REMARK    1  A    between atoms: C5_5  and  C6_6 
REMARK    2  A    between atoms: C6_6  and  C8_8 
REMARK    3  A    between atoms: C8_8  and  C9_9 
REMARK    4  A    between atoms: C9_9  and  C10_10 
REMARK    5  A    between atoms: C10_10  and  C11_11 
REMARK    6  A    between atoms: C11_11  and  C12_13 
REMARK    7  A    between atoms: C15_19  and  O2_20 
REMARK    8  A    between atoms: C16_24  and  O3_25 
ROOT
HETATM    1  C12 UNL     1      32.412  26.366   5.525  1.00  0.00     0.155 A 
HETATM    2  N1  UNL     1      31.725  25.914   6.580  1.00  0.00    -0.327 N 
ATOM      3  H1  UNL     1      30.747  26.112   6.791  1.00  0.00     0.168 HD
HETATM    4  C13 UNL     1      32.550  25.158   7.307  1.00  0.00     0.167 A 
HETATM    5  C14 UNL     1      32.259  24.453   8.543  1.00  0.00     0.122 C 
HETATM    6  N2  UNL     1      32.031  23.895   9.536  1.00  0.00    -0.190 NA
HETATM    7  C15 UNL     1      33.772  25.147   6.684  1.00  0.00     0.180 A 
HETATM    8  N3  UNL     1      33.668  25.901   5.579  1.00  0.00    -0.318 N 
ATOM      9  H3  UNL     1      34.410  26.086   4.904  1.00  0.00     0.169 HD
ENDROOT
BRANCH   7  10
HETATM   10  O2  UNL     1      34.927  24.463   7.127  1.00  0.00    -0.344 OA
ATOM     11  H2  UNL     1      35.145  23.556   6.948  1.00  0.00     0.219 HD
ENDBRANCH   7  10
BRANCH   1  12
HETATM   12  C11 UNL     1      31.889  27.240   4.454  1.00  0.00     0.193 C 
HETATM   13  O1  UNL     1      31.816  26.845   3.281  1.00  0.00    -0.289 OA
BRANCH  12  14
HETATM   14  C10 UNL     1      31.461  28.593   4.830  1.00  0.00     0.087 C 
BRANCH  14  15
HETATM   15  C9  UNL     1      30.759  28.726   6.132  1.00  0.00     0.008 C 
BRANCH  15  16
HETATM   16  C8  UNL     1      29.263  28.659   6.020  1.00  0.00     0.005 C 
BRANCH  16  17
HETATM   17  C6  UNL     1      28.652  28.780   7.398  1.00  0.00    -0.012 C 
HETATM   18  C7  UNL     1      29.450  27.892   8.323  1.00  0.00     0.010 C 
BRANCH  17  19
HETATM   19  C5  UNL     1      27.191  28.559   7.428  1.00  0.00     0.018 C 
HETATM   20  C4  UNL     1      26.623  28.894   6.061  1.00  0.00     0.008 C 
HETATM   21  C3  UNL     1      25.143  28.606   5.980  1.00  0.00     0.005 C 
HETATM   22  C2  UNL     1      24.508  29.499   7.058  1.00  0.00    -0.016 C 
HETATM   23  C1  UNL     1      23.027  29.569   6.912  1.00  0.00     0.010 C 
HETATM   24  C17 UNL     1      24.960  28.932   8.377  1.00  0.00     0.036 C 
HETATM   25  C16 UNL     1      26.434  29.171   8.547  1.00  0.00     0.122 C 
BRANCH  25  26
HETATM   26  O3  UNL     1      26.634  30.507   8.753  1.00  0.00    -0.395 OA
ATOM     27  H3  UNL     1      25.852  31.039   8.844  1.00  0.00     0.210 HD
ENDBRANCH  25  26
ENDBRANCH  17  19
ENDBRANCH  16  17
ENDBRANCH  15  16
ENDBRANCH  14  15
ENDBRANCH  12  14
ENDBRANCH   1  12
TORSDOF 8
ENDMDL
MODEL 2
REMARK VINA RESULT: -8.996399071      6.142     10.271
REMARK  8 active torsions:
REMARK  status: ('A' for Active; 'I' for Inactive)
REMARK    1  A    between atoms: C5_5  and  C6_6 
REMARK    2  A    between atoms: C6_6  and  C8_8 
REMARK    3  A    between atoms: C8_8  and  C9_9 
REMARK    4  A    between atoms: C9_9  and  C10_10 
REMARK    5  A    between atoms: C10_10  and  C11_11 
REMARK    6  A    between atoms: C11_11  and  C12_13 
REMARK    7  A    between atoms: C15_19  and  O2_20 
REMARK    8  A    between atoms: C16_24  and  O3_25 
ROOT
HETATM    1  C12 UNL     1      20.943  30.584   3.083  1.00  0.00     0.155 A 
HETATM    2  N1  UNL     1      21.346  31.413   4.053  1.00  0.00    -0.327 N 
ATOM      3  H1  UNL     1      22.234  31.368   4.552  1.00  0.00     0.168 HD
HETATM    4  C13 UNL     1      20.376  32.308   4.249  1.00  0.00     0.167 A 
HETATM    5  C14 UNL     1      20.355  33.407   5.198  1.00  0.00     0.122 C 
HETATM    6  N2  UNL     1      20.332  34.282   5.963  1.00  0.00    -0.190 NA
HETATM    7  C15 UNL     1      19.354  32.022   3.381  1.00  0.00     0.180 A 
HETATM    8  N3  UNL     1      19.723  30.949   2.664  1.00  0.00    -0.318 N 
ATOM      9  H3  UNL     1      19.174  30.495   1.934  1.00  0.00     0.169 HD
ENDROOT
BRANCH   7  10
HETATM   10  O2  UNL     1      18.136  32.730   3.264  1.00  0.00    -0.344 OA
ATOM     11  H2  UNL     1      17.687  32.943   2.454  1.00  0.00     0.219 HD
ENDBRANCH   7  10
BRANCH   1  12
HETATM   12  C11 UNL     1      21.706  29.441   2.540  1.00  0.00     0.193 C 
HETATM   13  O1  UNL     1      22.117  29.440   1.372  1.00  0.00    -0.289 OA
BRANCH  12  14
HETATM   14  C10 UNL     1      21.957  28.305   3.438  1.00  0.00     0.087 C 
BRANCH  14  15
HETATM   15  C9  UNL     1      22.266  28.636   4.852  1.00  0.00     0.008 C 
BRANCH  15  16
HETATM   16  C8  UNL     1      23.736  28.679   5.154  1.00  0.00     0.005 C 
BRANCH  16  17
HETATM   17  C6  UNL     1      23.940  29.119   6.587  1.00  0.00    -0.012 C 
HETATM   18  C7  UNL     1      22.955  30.232   6.860  1.00  0.00     0.010 C 
BRANCH  17  19
HETATM   19  C5  UNL     1      25.344  29.433   6.924  1.00  0.00     0.018 C 
HETATM   20  C4  UNL     1      26.251  28.633   6.008  1.00  0.00     0.008 C 
HETATM   21  C3  UNL     1      27.708  28.967   6.227  1.00  0.00     0.005 C 
HETATM   22  C2  UNL     1      27.978  28.608   7.697  1.00  0.00    -0.016 C 
HETATM   23  C1  UNL     1      29.438  28.588   7.999  1.00  0.00     0.010 C 
HETATM   24  C17 UNL     1      27.205  29.612   8.511  1.00  0.00     0.036 C 
HETATM   25  C16 UNL     1      25.733  29.358   8.353  1.00  0.00     0.122 C 
BRANCH  25  26
HETATM   26  O3  UNL     1      25.423  28.196   9.003  1.00  0.00    -0.395 OA
ATOM     27  H3  UNL     1      25.754  27.396   8.613  1.00  0.00     0.210 HD
ENDBRANCH  25  26
ENDBRANCH  17  19
ENDBRANCH  16  17
ENDBRANCH  15  16
ENDBRANCH  14  15
ENDBRANCH  12  14
ENDBRANCH   1  12
TORSDOF 8
ENDMDL
MODEL 3
REMARK VINA RESULT: -8.958600121      2.333      3.763
REMARK  8 active torsions:
REMARK  status: ('A' for Active; 'I' for Inactive)
REMARK    1  A    between atoms: C5_5  and  C6_6 
REMARK    2  A    between atoms: C6_6  and  C8_8 
REMARK    3  A    between atoms: C8_8  and  C9_9 
REMARK    4  A    between atoms: C9_9  and  C10_10 
REMARK    5  A    between atoms: C10_10  and  C11_11 
REMARK    6  A    between atoms: C11_11  and  C12_13 
REMARK    7  A    between atoms: C15_19  and  O2_20 
REMARK    8  A    between atoms: C16_24  and  O3_25 
ROOT
HETATM    1  C12 UNL     1      30.400  26.758   8.303  1.00  0.00     0.155 A 
HETATM    2  N1  UNL     1      31.268  26.539   7.309  1.00  0.00    -0.327 N 
ATOM      3  H1  UNL     1      31.376  27.106   6.468  1.00  0.00     0.168 HD
HETATM    4  C13 UNL     1      31.967  25.444   7.615  1.00  0.00     0.167 A 
HETATM    5  C14 UNL     1      33.023  24.814   6.843  1.00  0.00     0.122 C 
HETATM    6  N2  UNL     1      33.863  24.304   6.223  1.00  0.00    -0.190 NA
HETATM    7  C15 UNL     1      31.516  24.980   8.824  1.00  0.00     0.180 A 
HETATM    8  N3  UNL     1      30.544  25.807   9.237  1.00  0.00    -0.318 N 
ATOM      9  H3  UNL     1      30.013  25.728  10.104  1.00  0.00     0.169 HD
ENDROOT
BRANCH   7  10
HETATM   10  O2  UNL     1      31.992  23.838   9.509  1.00  0.00    -0.344 OA
ATOM     11  H2  UNL     1      32.447  23.834  10.343  1.00  0.00     0.219 HD
ENDBRANCH   7  10
BRANCH   1  12
HETATM   12  C11 UNL     1      29.427  27.867   8.382  1.00  0.00     0.193 C 
HETATM   13  O1  UNL     1      28.829  28.123   9.437  1.00  0.00    -0.289 OA
BRANCH  12  14
HETATM   14  C10 UNL     1      29.194  28.654   7.164  1.00  0.00     0.087 C 
BRANCH  14  15
HETATM   15  C9  UNL     1      27.895  29.368   7.077  1.00  0.00     0.008 C 
BRANCH  15  16
HETATM   16  C8  UNL     1      26.886  28.681   6.202  1.00  0.00     0.005 C 
BRANCH  16  17
HETATM   17  C6  UNL     1      25.492  29.032   6.674  1.00  0.00    -0.012 C 
HETATM   18  C7  UNL     1      25.408  28.665   8.137  1.00  0.00     0.010 C 
BRANCH  17  19
HETATM   19  C5  UNL     1      24.415  28.475   5.830  1.00  0.00     0.018 C 
HETATM   20  C4  UNL     1      24.895  28.447   4.390  1.00  0.00     0.008 C 
HETATM   21  C3  UNL     1      23.884  27.805   3.472  1.00  0.00     0.005 C 
HETATM   22  C2  UNL     1      22.625  28.677   3.600  1.00  0.00    -0.016 C 
HETATM   23  C1  UNL     1      21.630  28.367   2.534  1.00  0.00     0.010 C 
HETATM   24  C17 UNL     1      22.109  28.447   4.995  1.00  0.00     0.036 C 
HETATM   25  C16 UNL     1      23.059  29.055   5.987  1.00  0.00     0.122 C 
BRANCH  25  26
HETATM   26  O3  UNL     1      22.970  30.415   5.894  1.00  0.00    -0.395 OA
ATOM     27  H3  UNL     1      22.338  30.835   6.466  1.00  0.00     0.210 HD
ENDBRANCH  25  26
ENDBRANCH  17  19
ENDBRANCH  16  17
ENDBRANCH  15  16
ENDBRANCH  14  15
ENDBRANCH  12  14
ENDBRANCH   1  12
TORSDOF 8
ENDMDL
MODEL 4
REMARK VINA RESULT: -8.939355161      1.934      2.887
REMARK  8 active torsions:
REMARK  status: ('A' for Active; 'I' for Inactive)
REMARK    1  A    between atoms: C5_5  and  C6_6 
REMARK    2  A    between atoms: C6_6  and  C8_8 
REMARK    3  A    between atoms: C8_8  and  C9_9 
REMARK    4  A    between atoms: C9_9  and  C10_10 
REMARK    5  A    between atoms: C10_10  and  C11_11 
REMARK    6  A    between atoms: C11_11  and  C12_13 
REMARK    7  A    between atoms: C15_19  and  O2_20 
REMARK    8  A    between atoms: C16_24  and  O3_25 
ROOT
HETATM    1  C12 UNL     1      32.294  24.754   7.030  1.00  0.00     0.155 A 
HETATM    2  N1  UNL     1      31.801  24.534   5.805  1.00  0.00    -0.327 N 
ATOM      3  H1  UNL     1      30.886  24.826   5.463  1.00  0.00     0.168 HD
HETATM    4  C13 UNL     1      32.724  23.863   5.113  1.00  0.00     0.167 A 
HETATM    5  C14 UNL     1      32.646  23.399   3.738  1.00  0.00     0.122 C 
HETATM    6  N2  UNL     1      32.583  23.020   2.642  1.00  0.00    -0.190 NA
HETATM    7  C15 UNL     1      33.806  23.665   5.931  1.00  0.00     0.180 A 
HETATM    8  N3  UNL     1      33.523  24.226   7.117  1.00  0.00    -0.318 N 
ATOM      9  H3  UNL     1      34.132  24.246   7.935  1.00  0.00     0.169 HD
ENDROOT
BRANCH   7  10
HETATM   10  O2  UNL     1      35.002  22.996   5.585  1.00  0.00    -0.344 OA
ATOM     11  H2  UNL     1      35.080  22.084   5.328  1.00  0.00     0.219 HD
ENDBRANCH   7  10
BRANCH   1  12
HETATM   12  C11 UNL     1      31.610  25.467   8.129  1.00  0.00     0.193 C 
HETATM   13  O1  UNL     1      31.569  24.993   9.273  1.00  0.00    -0.289 OA
BRANCH  12  14
HETATM   14  C10 UNL     1      30.981  26.756   7.815  1.00  0.00     0.087 C 
BRANCH  14  15
HETATM   15  C9  UNL     1      29.975  27.255   8.786  1.00  0.00     0.008 C 
BRANCH  15  16
HETATM   16  C8  UNL     1      29.369  28.575   8.403  1.00  0.00     0.005 C 
BRANCH  16  17
HETATM   17  C6  UNL     1      28.571  28.408   7.129  1.00  0.00    -0.012 C 
HETATM   18  C7  UNL     1      29.069  29.443   6.148  1.00  0.00     0.010 C 
BRANCH  17  19
HETATM   19  C5  UNL     1      27.107  28.399   7.336  1.00  0.00     0.018 C 
HETATM   20  C4  UNL     1      26.432  28.764   6.026  1.00  0.00     0.008 C 
HETATM   21  C3  UNL     1      24.928  28.688   6.128  1.00  0.00     0.005 C 
HETATM   22  C2  UNL     1      24.555  29.699   7.224  1.00  0.00    -0.016 C 
HETATM   23  C1  UNL     1      23.090  29.974   7.243  1.00  0.00     0.010 C 
HETATM   24  C17 UNL     1      25.078  29.118   8.511  1.00  0.00     0.036 C 
HETATM   25  C16 UNL     1      26.580  29.150   8.500  1.00  0.00     0.122 C 
BRANCH  25  26
HETATM   26  O3  UNL     1      26.985  30.450   8.614  1.00  0.00    -0.395 OA
ATOM     27  H3  UNL     1      27.725  30.610   9.189  1.00  0.00     0.210 HD
ENDBRANCH  25  26
ENDBRANCH  17  19
ENDBRANCH  16  17
ENDBRANCH  15  16
ENDBRANCH  14  15
ENDBRANCH  12  14
ENDBRANCH   1  12
TORSDOF 8
ENDMDL
MODEL 5
REMARK VINA RESULT: -8.934730606      5.395      9.990
REMARK  8 active torsions:
REMARK  status: ('A' for Active; 'I' for Inactive)
REMARK    1  A    between atoms: C5_5  and  C6_6 
REMARK    2  A    between atoms: C6_6  and  C8_8 
REMARK    3  A    between atoms: C8_8  and  C9_9 
REMARK    4  A    between atoms: C9_9  and  C10_10 
REMARK    5  A    between atoms: C10_10  and  C11_11 
REMARK    6  A    between atoms: C11_11  and  C12_13 
REMARK    7  A    between atoms: C15_19  and  O2_20 
REMARK    8  A    between atoms: C16_24  and  O3_25 
ROOT
HETATM    1  C12 UNL     1      22.063  31.369   6.380  1.00  0.00     0.155 A 
HETATM    2  N1  UNL     1      21.458  31.126   5.211  1.00  0.00    -0.327 N 
ATOM      3  H1  UNL     1      21.520  30.264   4.670  1.00  0.00     0.168 HD
HETATM    4  C13 UNL     1      20.759  32.214   4.883  1.00  0.00     0.167 A 
HETATM    5  C14 UNL     1      19.939  32.426   3.704  1.00  0.00     0.122 C 
HETATM    6  N2  UNL     1      19.289  32.601   2.757  1.00  0.00    -0.190 NA
HETATM    7  C15 UNL     1      20.940  33.147   5.872  1.00  0.00     0.180 A 
HETATM    8  N3  UNL     1      21.752  32.606   6.793  1.00  0.00    -0.318 N 
ATOM      9  H3  UNL     1      22.073  33.054   7.652  1.00  0.00     0.169 HD
ENDROOT
BRANCH   7  10
HETATM   10  O2  UNL     1      20.373  34.441   5.912  1.00  0.00    -0.344 OA
ATOM     11  H2  UNL     1      20.727  35.195   6.370  1.00  0.00     0.219 HD
ENDBRANCH   7  10
BRANCH   1  12
HETATM   12  C11 UNL     1      22.940  30.436   7.118  1.00  0.00     0.193 C 
HETATM   13  O1  UNL     1      23.133  30.564   8.335  1.00  0.00    -0.289 OA
BRANCH  12  14
HETATM   14  C10 UNL     1      23.574  29.353   6.356  1.00  0.00     0.087 C 
BRANCH  14  15
HETATM   15  C9  UNL     1      24.763  28.715   6.977  1.00  0.00     0.008 C 
BRANCH  15  16
HETATM   16  C8  UNL     1      26.006  28.813   6.141  1.00  0.00     0.005 C 
BRANCH  16  17
HETATM   17  C6  UNL     1      27.218  28.822   7.046  1.00  0.00    -0.012 C 
HETATM   18  C7  UNL     1      26.908  29.741   8.203  1.00  0.00     0.010 C 
BRANCH  17  19
HETATM   19  C5  UNL     1      28.488  29.108   6.345  1.00  0.00     0.018 C 
HETATM   20  C4  UNL     1      28.361  28.642   4.907  1.00  0.00     0.008 C 
HETATM   21  C3  UNL     1      29.588  28.983   4.094  1.00  0.00     0.005 C 
HETATM   22  C2  UNL     1      30.742  28.249   4.796  1.00  0.00    -0.016 C 
HETATM   23  C1  UNL     1      31.972  28.228   3.955  1.00  0.00     0.010 C 
HETATM   24  C17 UNL     1      30.924  28.946   6.119  1.00  0.00     0.036 C 
HETATM   25  C16 UNL     1      29.741  28.664   7.001  1.00  0.00     0.122 C 
BRANCH  25  26
HETATM   26  O3  UNL     1      29.791  27.353   7.384  1.00  0.00    -0.395 OA
ATOM     27  H3  UNL     1      28.985  26.987   7.730  1.00  0.00     0.210 HD
ENDBRANCH  25  26
ENDBRANCH  17  19
ENDBRANCH  16  17
ENDBRANCH  15  16
ENDBRANCH  14  15
ENDBRANCH  12  14
ENDBRANCH   1  12
TORSDOF 8
ENDMDL
