MODEL 1
REMARK VINA RESULT: -8.251172246      0.000      0.000
REMARK  9 active torsions:
REMARK  status: ('A' for Active; 'I' for Inactive)
REMARK    1  A    between atoms: C2_2  and  C4_4 
REMARK    2  A    between atoms: C4_4  and  O1_5 
REMARK    3  A    between atoms: C4_4  and  C5_7 
REMARK    4  A    between atoms: C5_7  and  O2_8 
REMARK    5  A    between atoms: C5_7  and  C6_10 
REMARK    6  A    between atoms: C8_12  and  N1_13 
REMARK    7  A    between atoms: N1_13  and  N2_15 
REMARK    8  A    between atoms: C9_17  and  C10_18 
REMARK    9  A    between atoms: C17_25  and  O3_26 
ROOT
HETATM    1  C6  UNL     1      29.600  27.741   8.464  1.00  0.00     0.089 A 
HETATM    2  C7  UNL     1      30.367  26.864   7.727  1.00  0.00     0.071 A 
HETATM    3  C8  UNL     1      30.918  25.961   8.624  1.00  0.00     0.108 A 
HETATM    4  C17 UNL     1      30.453  26.340   9.862  1.00  0.00     0.212 A 
HETATM    5  O4  UNL     1      29.688  27.384   9.713  1.00  0.00    -0.288 OA
ENDROOT
BRANCH   3   6
HETATM    6  N1  UNL     1      31.780  24.885   8.280  1.00  0.00    -0.297 N 
ATOM      7  H1  UNL     1      32.243  24.356   9.019  1.00  0.00     0.187 HD
BRANCH   6   8
HETATM    8  N2  UNL     1      31.999  24.543   6.958  1.00  0.00    -0.315 N 
HETATM    9  C9  UNL     1      33.189  24.576   6.467  1.00  0.00     0.084 C 
ATOM     10  H2  UNL     1      31.214  24.264   6.369  1.00  0.00     0.185 HD
BRANCH   9  11
HETATM   11  C10 UNL     1      33.440  24.214   5.060  1.00  0.00     0.025 C 
HETATM   12  C11 UNL     1      33.982  25.399   4.327  1.00  0.00     0.010 C 
HETATM   13  C12 UNL     1      32.903  26.341   3.849  1.00  0.00     0.001 C 
HETATM   14  C13 UNL     1      32.074  25.798   2.742  1.00  0.00     0.000 C 
HETATM   15  C14 UNL     1      32.578  24.526   2.141  1.00  0.00     0.000 C 
HETATM   16  C15 UNL     1      32.331  23.329   3.000  1.00  0.00     0.001 C 
HETATM   17  C16 UNL     1      32.165  23.668   4.457  1.00  0.00     0.010 C 
ENDBRANCH   9  11
ENDBRANCH   6   8
ENDBRANCH   3   6
BRANCH   4  18
HETATM   18  O3  UNL     1      30.747  25.719  11.067  1.00  0.00    -0.339 OA
ATOM     19  H3  UNL     1      30.795  24.782  11.215  1.00  0.00     0.220 HD
ENDBRANCH   4  18
BRANCH   1  20
HETATM   20  C5  UNL     1      28.801  28.902   7.933  1.00  0.00     0.204 C 
BRANCH  20  21
HETATM   21  C4  UNL     1      27.352  28.610   8.255  1.00  0.00     0.156 C 
BRANCH  21  22
HETATM   22  C2  UNL     1      26.409  29.382   7.365  1.00  0.00     0.009 C 
HETATM   23  C1  UNL     1      26.065  28.674   6.098  1.00  0.00     0.012 C 
HETATM   24  C3  UNL     1      25.119  29.568   8.164  1.00  0.00     0.012 C 
ENDBRANCH  21  22
BRANCH  21  25
HETATM   25  O1  UNL     1      27.066  28.963   9.572  1.00  0.00    -0.392 OA
ATOM     26  H1  UNL     1      26.759  28.182  10.018  1.00  0.00     0.210 HD
ENDBRANCH  21  25
ENDBRANCH  20  21
BRANCH  20  27
HETATM   27  O2  UNL     1      28.975  28.927   6.556  1.00  0.00    -0.386 OA
ATOM     28  H2  UNL     1      29.896  29.046   6.354  1.00  0.00     0.210 HD
ENDBRANCH  20  27
ENDBRANCH   1  20
TORSDOF 9
ENDMDL
MODEL 2
REMARK VINA RESULT: -8.251164733      2.215      3.545
REMARK  9 active torsions:
REMARK  status: ('A' for Active; 'I' for Inactive)
REMARK    1  A    between atoms: C2_2  and  C4_4 
REMARK    2  A    between atoms: C4_4  and  O1_5 
REMARK    3  A    between atoms: C4_4  and  C5_7 
REMARK    4  A    between atoms: C5_7  and  O2_8 
REMARK    5  A    between atoms: C5_7  and  C6_10 
REMARK    6  A    between atoms: C8_12  and  N1_13 
REMARK    7  A    between atoms: N1_13  and  N2_15 
REMARK    8  A    between atoms: C9_17  and  C10_18 
REMARK    9  A    between atoms: C17_25  and  O3_26 
ROOT
HETATM    1  C6  UNL     1      26.470  28.750   7.987  1.00  0.00     0.089 A 
HETATM    2  C7  UNL     1      27.214  28.937   6.842  1.00  0.00     0.071 A 
HETATM    3  C8  UNL     1      28.534  28.669   7.174  1.00  0.00     0.108 A 
HETATM    4  C17 UNL     1      28.519  28.332   8.507  1.00  0.00     0.212 A 
HETATM    5  O4  UNL     1      27.289  28.395   8.935  1.00  0.00    -0.288 OA
ENDROOT
BRANCH   3   6
HETATM    6  N1  UNL     1      29.636  28.743   6.279  1.00  0.00    -0.297 N 
ATOM      7  H1  UNL     1      29.607  29.400   5.499  1.00  0.00     0.187 HD
BRANCH   6   8
HETATM    8  N2  UNL     1      30.747  27.938   6.450  1.00  0.00    -0.315 N 
HETATM    9  C9  UNL     1      31.335  27.416   5.430  1.00  0.00     0.084 C 
ATOM     10  H2  UNL     1      31.103  27.757   7.389  1.00  0.00     0.185 HD
BRANCH   9  11
HETATM   11  C10 UNL     1      32.521  26.556   5.596  1.00  0.00     0.025 C 
HETATM   12  C11 UNL     1      32.975  26.067   4.258  1.00  0.00     0.010 C 
HETATM   13  C12 UNL     1      32.213  24.852   3.785  1.00  0.00     0.001 C 
HETATM   14  C13 UNL     1      32.512  23.615   4.549  1.00  0.00     0.000 C 
HETATM   15  C14 UNL     1      33.665  23.721   5.495  1.00  0.00     0.000 C 
HETATM   16  C15 UNL     1      33.341  24.487   6.736  1.00  0.00     0.001 C 
HETATM   17  C16 UNL     1      32.191  25.441   6.561  1.00  0.00     0.010 C 
ENDBRANCH   9  11
ENDBRANCH   6   8
ENDBRANCH   3   6
BRANCH   4  18
HETATM   18  O3  UNL     1      29.623  27.985   9.272  1.00  0.00    -0.339 OA
ATOM     19  H3  UNL     1      29.678  28.020  10.220  1.00  0.00     0.220 HD
ENDBRANCH   4  18
BRANCH   1  20
HETATM   20  C5  UNL     1      24.980  28.921   8.128  1.00  0.00     0.204 C 
BRANCH  20  21
HETATM   21  C4  UNL     1      24.477  29.425   6.793  1.00  0.00     0.156 C 
BRANCH  21  22
HETATM   22  C2  UNL     1      22.978  29.595   6.783  1.00  0.00     0.009 C 
HETATM   23  C1  UNL     1      22.533  31.010   6.938  1.00  0.00     0.012 C 
HETATM   24  C3  UNL     1      22.498  29.100   5.418  1.00  0.00     0.012 C 
ENDBRANCH  21  22
BRANCH  21  25
HETATM   25  O1  UNL     1      24.803  28.525   5.780  1.00  0.00    -0.392 OA
ATOM     26  H1  UNL     1      25.736  28.354   5.839  1.00  0.00     0.210 HD
ENDBRANCH  21  25
ENDBRANCH  20  21
BRANCH  20  27
HETATM   27  O2  UNL     1      24.765  29.888   9.100  1.00  0.00    -0.386 OA
ATOM     28  H2  UNL     1      23.951  30.343   8.921  1.00  0.00     0.210 HD
ENDBRANCH  20  27
ENDBRANCH   1  20
TORSDOF 9
ENDMDL
MODEL 3
REMARK VINA RESULT: -8.167621552      7.280     11.053
REMARK  9 active torsions:
REMARK  status: ('A' for Active; 'I' for Inactive)
REMARK    1  A    between atoms: C2_2  and  C4_4 
REMARK    2  A    between atoms: C4_4  and  O1_5 
REMARK    3  A    between atoms: C4_4  and  C5_7 
REMARK    4  A    between atoms: C5_7  and  O2_8 
REMARK    5  A    between atoms: C5_7  and  C6_10 
REMARK    6  A    between atoms: C8_12  and  N1_13 
REMARK    7  A    between atoms: N1_13  and  N2_15 
REMARK    8  A    between atoms: C9_17  and  C10_18 
REMARK    9  A    between atoms: C17_25  and  O3_26 
ROOT
HETATM    1  C6  UNL     1      22.208  30.806   6.736  1.00  0.00     0.089 A 
HETATM    2  C7  UNL     1      21.588  31.346   5.629  1.00  0.00     0.071 A 
HETATM    3  C8  UNL     1      21.031  32.551   6.030  1.00  0.00     0.108 A 
HETATM    4  C17 UNL     1      21.345  32.678   7.363  1.00  0.00     0.212 A 
HETATM    5  O4  UNL     1      22.033  31.632   7.726  1.00  0.00    -0.288 OA
ENDROOT
BRANCH   3   6
HETATM    6  N1  UNL     1      20.297  33.434   5.193  1.00  0.00    -0.297 N 
ATOM      7  H1  UNL     1      20.022  34.350   5.548  1.00  0.00     0.187 HD
BRANCH   6   8
HETATM    8  N2  UNL     1      19.949  33.070   3.906  1.00  0.00    -0.315 N 
HETATM    9  C9  UNL     1      20.859  32.757   3.050  1.00  0.00     0.084 C 
ATOM     10  H2  UNL     1      18.966  33.050   3.631  1.00  0.00     0.185 HD
BRANCH   9  11
HETATM   11  C10 UNL     1      20.505  32.366   1.673  1.00  0.00     0.025 C 
HETATM   12  C11 UNL     1      20.268  30.890   1.618  1.00  0.00     0.010 C 
HETATM   13  C12 UNL     1      21.543  30.094   1.471  1.00  0.00     0.001 C 
HETATM   14  C13 UNL     1      22.192  30.231   0.142  1.00  0.00     0.000 C 
HETATM   15  C14 UNL     1      21.375  30.939  -0.889  1.00  0.00     0.000 C 
HETATM   16  C15 UNL     1      21.325  32.419  -0.689  1.00  0.00     0.001 C 
HETATM   17  C16 UNL     1      21.592  32.834   0.733  1.00  0.00     0.010 C 
ENDBRANCH   9  11
ENDBRANCH   6   8
ENDBRANCH   3   6
BRANCH   4  18
HETATM   18  O3  UNL     1      20.991  33.737   8.186  1.00  0.00    -0.339 OA
ATOM     19  H3  UNL     1      21.524  34.106   8.880  1.00  0.00     0.220 HD
ENDBRANCH   4  18
BRANCH   1  20
HETATM   20  C5  UNL     1      22.956  29.500   6.799  1.00  0.00     0.204 C 
BRANCH  20  21
HETATM   21  C4  UNL     1      24.334  29.819   7.337  1.00  0.00     0.156 C 
BRANCH  21  22
HETATM   22  C2  UNL     1      25.292  28.668   7.152  1.00  0.00     0.009 C 
HETATM   23  C1  UNL     1      26.171  28.805   5.955  1.00  0.00     0.012 C 
HETATM   24  C3  UNL     1      26.186  28.650   8.392  1.00  0.00     0.012 C 
ENDBRANCH  21  22
BRANCH  21  25
HETATM   25  O1  UNL     1      24.271  30.096   8.701  1.00  0.00    -0.392 OA
ATOM     26  H1  UNL     1      23.470  30.583   8.857  1.00  0.00     0.210 HD
ENDBRANCH  21  25
ENDBRANCH  20  21
BRANCH  20  27
HETATM   27  O2  UNL     1      23.063  29.022   5.500  1.00  0.00    -0.386 OA
ATOM     28  H2  UNL     1      22.365  28.400   5.331  1.00  0.00     0.210 HD
ENDBRANCH  20  27
ENDBRANCH   1  20
TORSDOF 9
ENDMDL
MODEL 4
REMARK VINA RESULT: -8.115289859      4.218      9.144
REMARK  9 active torsions:
REMARK  status: ('A' for Active; 'I' for Inactive)
REMARK    1  A    between atoms: C2_2  and  C4_4 
REMARK    2  A    between atoms: C4_4  and  O1_5 
REMARK    3  A    between atoms: C4_4  and  C5_7 
REMARK    4  A    between atoms: C5_7  and  O2_8 
REMARK    5  A    between atoms: C5_7  and  C6_10 
REMARK    6  A    between atoms: C8_12  and  N1_13 
REMARK    7  A    between atoms: N1_13  and  N2_15 
REMARK    8  A    between atoms: C9_17  and  C10_18 
REMARK    9  A    between atoms: C17_25  and  O3_26 
ROOT
HETATM    1  C6  UNL     1      28.042  28.688   8.286  1.00  0.00     0.089 A 
HETATM    2  C7  UNL     1      27.393  28.554   7.077  1.00  0.00     0.071 A 
HETATM    3  C8  UNL     1      26.067  28.898   7.295  1.00  0.00     0.108 A 
HETATM    4  C17 UNL     1      25.983  29.223   8.629  1.00  0.00     0.212 A 
HETATM    5  O4  UNL     1      27.165  29.083   9.162  1.00  0.00    -0.288 OA
ENDROOT
BRANCH   3   6
HETATM    6  N1  UNL     1      25.046  28.897   6.306  1.00  0.00    -0.297 N 
ATOM      7  H1  UNL     1      25.151  28.311   5.477  1.00  0.00     0.187 HD
BRANCH   6   8
HETATM    8  N2  UNL     1      23.914  29.676   6.450  1.00  0.00    -0.315 N 
HETATM    9  C9  UNL     1      22.963  29.609   5.584  1.00  0.00     0.084 C 
ATOM     10  H2  UNL     1      23.831  30.307   7.248  1.00  0.00     0.185 HD
BRANCH   9  11
HETATM   11  C10 UNL     1      21.749  30.433   5.725  1.00  0.00     0.025 C 
HETATM   12  C11 UNL     1      20.950  30.366   4.463  1.00  0.00     0.010 C 
HETATM   13  C12 UNL     1      21.432  31.332   3.408  1.00  0.00     0.001 C 
HETATM   14  C13 UNL     1      21.163  32.758   3.725  1.00  0.00     0.000 C 
HETATM   15  C14 UNL     1      20.274  32.985   4.905  1.00  0.00     0.000 C 
HETATM   16  C15 UNL     1      20.960  32.756   6.212  1.00  0.00     0.001 C 
HETATM   17  C16 UNL     1      22.149  31.840   6.106  1.00  0.00     0.010 C 
ENDBRANCH   9  11
ENDBRANCH   6   8
ENDBRANCH   3   6
BRANCH   4  18
HETATM   18  O3  UNL     1      24.838  29.630   9.298  1.00  0.00    -0.339 OA
ATOM     19  H3  UNL     1      24.685  29.561  10.233  1.00  0.00     0.220 HD
ENDBRANCH   4  18
BRANCH   1  20
HETATM   20  C5  UNL     1      29.501  28.427   8.555  1.00  0.00     0.204 C 
BRANCH  20  21
HETATM   21  C4  UNL     1      30.057  27.769   7.312  1.00  0.00     0.156 C 
BRANCH  21  22
HETATM   22  C2  UNL     1      31.230  26.873   7.624  1.00  0.00     0.009 C 
HETATM   23  C1  UNL     1      30.843  25.562   8.220  1.00  0.00     0.012 C 
HETATM   24  C3  UNL     1      31.926  26.595   6.291  1.00  0.00     0.012 C 
ENDBRANCH  21  22
BRANCH  21  25
HETATM   25  O1  UNL     1      30.497  28.733   6.407  1.00  0.00    -0.392 OA
ATOM     26  H1  UNL     1      29.883  29.458   6.441  1.00  0.00     0.210 HD
ENDBRANCH  21  25
ENDBRANCH  20  21
BRANCH  20  27
HETATM   27  O2  UNL     1      29.572  27.541   9.622  1.00  0.00    -0.386 OA
ATOM     28  H2  UNL     1      29.523  26.649   9.297  1.00  0.00     0.210 HD
ENDBRANCH  20  27
ENDBRANCH   1  20
TORSDOF 9
ENDMDL
MODEL 5
REMARK VINA RESULT: -8.114253432      5.466      9.776
REMARK  9 active torsions:
REMARK  status: ('A' for Active; 'I' for Inactive)
REMARK    1  A    between atoms: C2_2  and  C4_4 
REMARK    2  A    between atoms: C4_4  and  O1_5 
REMARK    3  A    between atoms: C4_4  and  C5_7 
REMARK    4  A    between atoms: C5_7  and  O2_8 
REMARK    5  A    between atoms: C5_7  and  C6_10 
REMARK    6  A    between atoms: C8_12  and  N1_13 
REMARK    7  A    between atoms: N1_13  and  N2_15 
REMARK    8  A    between atoms: C9_17  and  C10_18 
REMARK    9  A    between atoms: C17_25  and  O3_26 
ROOT
HETATM    1  C6  UNL     1      25.767  29.507   7.686  1.00  0.00     0.089 A 
HETATM    2  C7  UNL     1      25.396  28.867   6.523  1.00  0.00     0.071 A 
HETATM    3  C8  UNL     1      24.048  29.131   6.334  1.00  0.00     0.108 A 
HETATM    4  C17 UNL     1      23.673  29.920   7.396  1.00  0.00     0.212 A 
HETATM    5  O4  UNL     1      24.714  30.111   8.156  1.00  0.00    -0.288 OA
ENDROOT
BRANCH   3   6
HETATM    6  N1  UNL     1      23.264  28.657   5.247  1.00  0.00    -0.297 N 
ATOM      7  H1  UNL     1      23.521  27.784   4.785  1.00  0.00     0.187 HD
BRANCH   6   8
HETATM    8  N2  UNL     1      22.158  29.359   4.807  1.00  0.00    -0.315 N 
HETATM    9  C9  UNL     1      21.969  29.554   3.549  1.00  0.00     0.084 C 
ATOM     10  H2  UNL     1      21.487  29.726   5.484  1.00  0.00     0.185 HD
BRANCH   9  11
HETATM   11  C10 UNL     1      20.794  30.300   3.064  1.00  0.00     0.025 C 
HETATM   12  C11 UNL     1      20.813  30.348   1.569  1.00  0.00     0.010 C 
HETATM   13  C12 UNL     1      21.687  31.454   1.026  1.00  0.00     0.001 C 
HETATM   14  C13 UNL     1      21.146  32.818   1.251  1.00  0.00     0.000 C 
HETATM   15  C14 UNL     1      19.744  32.864   1.766  1.00  0.00     0.000 C 
HETATM   16  C15 UNL     1      19.635  32.512   3.213  1.00  0.00     0.001 C 
HETATM   17  C16 UNL     1      20.779  31.669   3.707  1.00  0.00     0.010 C 
ENDBRANCH   9  11
ENDBRANCH   6   8
ENDBRANCH   3   6
BRANCH   4  18
HETATM   18  O3  UNL     1      22.403  30.429   7.624  1.00  0.00    -0.339 OA
ATOM     19  H3  UNL     1      21.953  30.452   8.460  1.00  0.00     0.220 HD
ENDBRANCH   4  18
BRANCH   1  20
HETATM   20  C5  UNL     1      27.139  29.515   8.308  1.00  0.00     0.204 C 
BRANCH  20  21
HETATM   21  C4  UNL     1      28.001  28.605   7.462  1.00  0.00     0.156 C 
BRANCH  21  22
HETATM   22  C2  UNL     1      29.423  28.547   7.963  1.00  0.00     0.009 C 
HETATM   23  C1  UNL     1      29.731  27.322   8.756  1.00  0.00     0.012 C 
HETATM   24  C3  UNL     1      30.316  28.539   6.721  1.00  0.00     0.012 C 
ENDBRANCH  21  22
BRANCH  21  25
HETATM   25  O1  UNL     1      28.040  29.059   6.145  1.00  0.00    -0.392 OA
ATOM     26  H1  UNL     1      27.274  29.605   6.008  1.00  0.00     0.210 HD
ENDBRANCH  21  25
ENDBRANCH  20  21
BRANCH  20  27
HETATM   27  O2  UNL     1      27.017  28.984   9.585  1.00  0.00    -0.386 OA
ATOM     28  H2  UNL     1      26.191  29.260   9.966  1.00  0.00     0.210 HD
ENDBRANCH  20  27
ENDBRANCH   1  20
TORSDOF 9
ENDMDL
