MODEL 1
REMARK VINA RESULT: -5.880954079      0.000      0.000
REMARK  10 active torsions:
REMARK  status: ('A' for Active; 'I' for Inactive)
REMARK    1  A    between atoms: C2_2  and  C3_4 
REMARK    2  A    between atoms: C3_4  and  O1_5 
REMARK    3  A    between atoms: C3_4  and  C4_7 
REMARK    4  A    between atoms: C3_4  and  C7_12 
REMARK    5  A    between atoms: C5_8  and  O2_10 
REMARK    6  A    between atoms: C7_12  and  C8_13 
REMARK    7  A    between atoms: C8_13  and  C9_14 
REMARK    8  A    between atoms: C10_15  and  C11_16 
REMARK    9  A    between atoms: C11_16  and  O3_17 
REMARK   10  A    between atoms: N1_19  and  O4_21 
ROOT
HETATM    1  C9  UNL     1      32.918  25.563   4.807  1.00  0.00     0.013 C 
HETATM    2  C10 UNL     1      32.353  24.489   5.658  1.00  0.00     0.089 C 
HETATM    3  C12 UNL     1      33.307  23.352   5.339  1.00  0.00    -0.017 C 
HETATM    4  C13 UNL     1      34.404  23.793   4.780  1.00  0.00    -0.021 C 
HETATM    5  C14 UNL     1      34.365  25.297   4.633  1.00  0.00    -0.026 C 
HETATM    6  C15 UNL     1      35.336  25.951   5.503  1.00  0.00     0.019 C 
HETATM    7  C16 UNL     1      34.799  25.534   3.175  1.00  0.00     0.019 C 
ENDROOT
BRANCH   1   8
HETATM    8  C8  UNL     1      32.522  26.958   5.091  1.00  0.00     0.010 C 
BRANCH   8   9
HETATM    9  C7  UNL     1      31.094  27.262   4.709  1.00  0.00     0.048 C 
BRANCH   9  10
HETATM   10  C3  UNL     1      30.677  28.679   5.024  1.00  0.00     0.111 C 
BRANCH  10  11
HETATM   11  C2  UNL     1      30.426  29.294   3.695  1.00  0.00     0.021 C 
HETATM   12  C1  UNL     1      29.534  28.618   2.741  1.00  0.00     0.060 C 
HETATM   13  S1  UNL     1      31.047  30.518   3.369  1.00  0.00    -0.086 SA
ENDBRANCH  10  11
BRANCH  10  14
HETATM   14  O1  UNL     1      31.784  29.307   5.593  1.00  0.00    -0.380 OA
ATOM     15  H1  UNL     1      31.793  29.109   6.521  1.00  0.00     0.211 HD
ENDBRANCH  10  14
BRANCH  10  16
HETATM   16  C4  UNL     1      29.532  28.762   5.915  1.00  0.00     0.047 C 
HETATM   17  C5  UNL     1      29.601  28.416   7.175  1.00  0.00     0.038 C 
HETATM   18  C6  UNL     1      28.422  28.503   8.093  1.00  0.00     0.076 C 
BRANCH  17  19
HETATM   19  O2  UNL     1      30.787  27.955   7.698  1.00  0.00    -0.366 OA
ATOM     20  H2  UNL     1      30.943  28.000   8.634  1.00  0.00     0.217 HD
ENDBRANCH  17  19
ENDBRANCH  10  16
ENDBRANCH   9  10
ENDBRANCH   8   9
ENDBRANCH   1   8
BRANCH   2  21
HETATM   21  C11 UNL     1      32.363  24.668   7.097  1.00  0.00     0.143 C 
HETATM   22  N1  UNL     1      31.299  25.044   7.704  1.00  0.00    -0.251 N 
ATOM     23  H1  UNL     1      30.468  25.206   7.136  1.00  0.00     0.196 HD
BRANCH  21  24
HETATM   24  O3  UNL     1      33.474  24.455   7.883  1.00  0.00    -0.348 OA
ATOM     25  H3  UNL     1      33.436  24.348   8.826  1.00  0.00     0.219 HD
ENDBRANCH  21  24
BRANCH  22  26
HETATM   26  O4  UNL     1      31.188  25.244   9.039  1.00  0.00    -0.288 OA
ATOM     27  H4  UNL     1      30.434  25.012   9.568  1.00  0.00     0.244 HD
ENDBRANCH  22  26
ENDBRANCH   2  21
TORSDOF 10
ENDMDL
MODEL 2
REMARK VINA RESULT: -5.879106242      9.380     12.584
REMARK  10 active torsions:
REMARK  status: ('A' for Active; 'I' for Inactive)
REMARK    1  A    between atoms: C2_2  and  C3_4 
REMARK    2  A    between atoms: C3_4  and  O1_5 
REMARK    3  A    between atoms: C3_4  and  C4_7 
REMARK    4  A    between atoms: C3_4  and  C7_12 
REMARK    5  A    between atoms: C5_8  and  O2_10 
REMARK    6  A    between atoms: C7_12  and  C8_13 
REMARK    7  A    between atoms: C8_13  and  C9_14 
REMARK    8  A    between atoms: C10_15  and  C11_16 
REMARK    9  A    between atoms: C11_16  and  O3_17 
REMARK   10  A    between atoms: N1_19  and  O4_21 
ROOT
HETATM    1  C9  UNL     1      20.643  31.056   2.003  1.00  0.00     0.013 C 
HETATM    2  C10 UNL     1      21.024  32.380   2.550  1.00  0.00     0.089 C 
HETATM    3  C12 UNL     1      20.238  33.296   1.631  1.00  0.00    -0.017 C 
HETATM    4  C13 UNL     1      19.299  32.645   0.997  1.00  0.00    -0.021 C 
HETATM    5  C14 UNL     1      19.302  31.184   1.387  1.00  0.00    -0.026 C 
HETATM    6  C15 UNL     1      18.112  30.825   2.150  1.00  0.00     0.019 C 
HETATM    7  C16 UNL     1      19.241  30.445   0.037  1.00  0.00     0.019 C 
ENDROOT
BRANCH   1   8
HETATM    8  C8  UNL     1      20.887  29.860   2.836  1.00  0.00     0.010 C 
BRANCH   8   9
HETATM    9  C7  UNL     1      22.347  29.493   2.938  1.00  0.00     0.048 C 
BRANCH   9  10
HETATM   10  C3  UNL     1      22.609  28.327   3.862  1.00  0.00     0.111 C 
BRANCH  10  11
HETATM   11  C2  UNL     1      23.260  27.310   2.996  1.00  0.00     0.021 C 
HETATM   12  C1  UNL     1      24.440  27.684   2.202  1.00  0.00     0.060 C 
HETATM   13  S1  UNL     1      22.737  26.001   2.950  1.00  0.00    -0.086 SA
ENDBRANCH  10  11
BRANCH  10  14
HETATM   14  O1  UNL     1      21.364  27.834   4.251  1.00  0.00    -0.380 OA
ATOM     15  H1  UNL     1      20.865  27.638   3.468  1.00  0.00     0.211 HD
ENDBRANCH  10  14
BRANCH  10  16
HETATM   16  C4  UNL     1      23.405  28.676   5.027  1.00  0.00     0.047 C 
HETATM   17  C5  UNL     1      22.928  29.405   6.004  1.00  0.00     0.038 C 
HETATM   18  C6  UNL     1      23.747  29.764   7.204  1.00  0.00     0.076 C 
BRANCH  17  19
HETATM   19  O2  UNL     1      21.634  29.867   5.951  1.00  0.00    -0.366 OA
ATOM     20  H2  UNL     1      21.454  30.740   5.623  1.00  0.00     0.217 HD
ENDBRANCH  17  19
ENDBRANCH  10  16
ENDBRANCH   9  10
ENDBRANCH   8   9
ENDBRANCH   1   8
BRANCH   2  21
HETATM   21  C11 UNL     1      20.642  32.702   3.912  1.00  0.00     0.143 C 
HETATM   22  N1  UNL     1      21.508  32.636   4.854  1.00  0.00    -0.251 N 
ATOM     23  H1  UNL     1      22.454  32.353   4.602  1.00  0.00     0.196 HD
BRANCH  21  24
HETATM   24  O3  UNL     1      19.371  33.088   4.273  1.00  0.00    -0.348 OA
ATOM     25  H3  UNL     1      19.104  33.995   4.365  1.00  0.00     0.219 HD
ENDBRANCH  21  24
BRANCH  22  26
HETATM   26  O4  UNL     1      21.268  32.913   6.157  1.00  0.00    -0.288 OA
ATOM     27  H4  UNL     1      21.384  32.305   6.878  1.00  0.00     0.244 HD
ENDBRANCH  22  26
ENDBRANCH   2  21
TORSDOF 10
ENDMDL
MODEL 3
REMARK VINA RESULT: -5.856406248      0.961      1.026
REMARK  10 active torsions:
REMARK  status: ('A' for Active; 'I' for Inactive)
REMARK    1  A    between atoms: C2_2  and  C3_4 
REMARK    2  A    between atoms: C3_4  and  O1_5 
REMARK    3  A    between atoms: C3_4  and  C4_7 
REMARK    4  A    between atoms: C3_4  and  C7_12 
REMARK    5  A    between atoms: C5_8  and  O2_10 
REMARK    6  A    between atoms: C7_12  and  C8_13 
REMARK    7  A    between atoms: C8_13  and  C9_14 
REMARK    8  A    between atoms: C10_15  and  C11_16 
REMARK    9  A    between atoms: C11_16  and  O3_17 
REMARK   10  A    between atoms: N1_19  and  O4_21 
ROOT
HETATM    1  C9  UNL     1      32.659  25.592   4.829  1.00  0.00     0.013 C 
HETATM    2  C10 UNL     1      32.208  24.469   5.685  1.00  0.00     0.089 C 
HETATM    3  C12 UNL     1      33.167  23.380   5.241  1.00  0.00    -0.017 C 
HETATM    4  C13 UNL     1      34.194  23.880   4.606  1.00  0.00    -0.021 C 
HETATM    5  C14 UNL     1      34.092  25.385   4.520  1.00  0.00    -0.026 C 
HETATM    6  C15 UNL     1      35.114  26.044   5.326  1.00  0.00     0.019 C 
HETATM    7  C16 UNL     1      34.387  25.688   3.040  1.00  0.00     0.019 C 
ENDROOT
BRANCH   1   8
HETATM    8  C8  UNL     1      32.242  26.961   5.199  1.00  0.00     0.010 C 
BRANCH   8   9
HETATM    9  C7  UNL     1      31.499  27.676   4.098  1.00  0.00     0.048 C 
BRANCH   9  10
HETATM   10  C3  UNL     1      31.034  29.059   4.488  1.00  0.00     0.111 C 
BRANCH  10  11
HETATM   11  C2  UNL     1      31.518  29.935   3.390  1.00  0.00     0.021 C 
HETATM   12  C1  UNL     1      30.545  30.575   2.493  1.00  0.00     0.060 C 
HETATM   13  S1  UNL     1      32.904  30.138   3.225  1.00  0.00    -0.086 SA
ENDBRANCH  10  11
BRANCH  10  14
HETATM   14  O1  UNL     1      31.720  29.401   5.652  1.00  0.00    -0.380 OA
ATOM     15  H1  UNL     1      32.651  29.327   5.481  1.00  0.00     0.211 HD
ENDBRANCH  10  14
BRANCH  10  16
HETATM   16  C4  UNL     1      29.598  29.151   4.698  1.00  0.00     0.047 C 
HETATM   17  C5  UNL     1      29.039  28.842   5.841  1.00  0.00     0.038 C 
HETATM   18  C6  UNL     1      27.561  28.937   6.057  1.00  0.00     0.076 C 
BRANCH  17  19
HETATM   19  O2  UNL     1      29.814  28.413   6.893  1.00  0.00    -0.366 OA
ATOM     20  H2  UNL     1      30.648  27.989   6.728  1.00  0.00     0.217 HD
ENDBRANCH  17  19
ENDBRANCH  10  16
ENDBRANCH   9  10
ENDBRANCH   8   9
ENDBRANCH   1   8
BRANCH   2  21
HETATM   21  C11 UNL     1      32.338  24.599   7.124  1.00  0.00     0.143 C 
HETATM   22  N1  UNL     1      31.313  24.879   7.838  1.00  0.00    -0.251 N 
ATOM     23  H1  UNL     1      30.424  25.003   7.354  1.00  0.00     0.196 HD
BRANCH  21  24
HETATM   24  O3  UNL     1      33.529  24.434   7.797  1.00  0.00    -0.348 OA
ATOM     25  H3  UNL     1      33.594  24.392   8.744  1.00  0.00     0.219 HD
ENDBRANCH  21  24
BRANCH  22  26
HETATM   26  O4  UNL     1      31.313  25.025   9.185  1.00  0.00    -0.288 OA
ATOM     27  H4  UNL     1      32.064  25.275   9.710  1.00  0.00     0.244 HD
ENDBRANCH  22  26
ENDBRANCH   2  21
TORSDOF 10
ENDMDL
MODEL 4
REMARK VINA RESULT: -5.778180442      1.719      2.151
REMARK  10 active torsions:
REMARK  status: ('A' for Active; 'I' for Inactive)
REMARK    1  A    between atoms: C2_2  and  C3_4 
REMARK    2  A    between atoms: C3_4  and  O1_5 
REMARK    3  A    between atoms: C3_4  and  C4_7 
REMARK    4  A    between atoms: C3_4  and  C7_12 
REMARK    5  A    between atoms: C5_8  and  O2_10 
REMARK    6  A    between atoms: C7_12  and  C8_13 
REMARK    7  A    between atoms: C8_13  and  C9_14 
REMARK    8  A    between atoms: C10_15  and  C11_16 
REMARK    9  A    between atoms: C11_16  and  O3_17 
REMARK   10  A    between atoms: N1_19  and  O4_21 
ROOT
HETATM    1  C9  UNL     1      32.280  25.464   4.252  1.00  0.00     0.013 C 
HETATM    2  C10 UNL     1      32.249  24.261   5.117  1.00  0.00     0.089 C 
HETATM    3  C12 UNL     1      32.147  23.169   4.069  1.00  0.00    -0.017 C 
HETATM    4  C13 UNL     1      32.480  23.612   2.885  1.00  0.00    -0.021 C 
HETATM    5  C14 UNL     1      32.858  25.074   2.946  1.00  0.00    -0.026 C 
HETATM    6  C15 UNL     1      34.280  25.276   2.687  1.00  0.00     0.019 C 
HETATM    7  C16 UNL     1      32.071  25.705   1.782  1.00  0.00     0.019 C 
ENDROOT
BRANCH   1   8
HETATM    8  C8  UNL     1      32.752  26.735   4.842  1.00  0.00     0.010 C 
BRANCH   8   9
HETATM    9  C7  UNL     1      31.895  27.919   4.468  1.00  0.00     0.048 C 
BRANCH   9  10
HETATM   10  C3  UNL     1      30.975  28.368   5.578  1.00  0.00     0.111 C 
BRANCH  10  11
HETATM   11  C2  UNL     1      29.699  28.695   4.890  1.00  0.00     0.021 C 
HETATM   12  C1  UNL     1      28.489  28.945   5.688  1.00  0.00     0.060 C 
HETATM   13  S1  UNL     1      29.668  28.762   3.481  1.00  0.00    -0.086 SA
ENDBRANCH  10  11
BRANCH  10  14
HETATM   14  O1  UNL     1      31.508  29.550   6.090  1.00  0.00    -0.380 OA
ATOM     15  H1  UNL     1      31.807  30.081   5.361  1.00  0.00     0.211 HD
ENDBRANCH  10  14
BRANCH  10  16
HETATM   16  C4  UNL     1      30.815  27.383   6.635  1.00  0.00     0.047 C 
HETATM   17  C5  UNL     1      30.712  27.722   7.895  1.00  0.00     0.038 C 
HETATM   18  C6  UNL     1      30.547  26.707   8.983  1.00  0.00     0.076 C 
BRANCH  17  19
HETATM   19  O2  UNL     1      30.753  29.048   8.257  1.00  0.00    -0.366 OA
ATOM     20  H2  UNL     1      31.555  29.423   8.600  1.00  0.00     0.217 HD
ENDBRANCH  17  19
ENDBRANCH  10  16
ENDBRANCH   9  10
ENDBRANCH   8   9
ENDBRANCH   1   8
BRANCH   2  21
HETATM   21  C11 UNL     1      33.409  23.966   5.936  1.00  0.00     0.143 C 
HETATM   22  N1  UNL     1      33.577  24.573   7.052  1.00  0.00    -0.251 N 
ATOM     23  H1  UNL     1      32.871  25.255   7.326  1.00  0.00     0.196 HD
BRANCH  21  24
HETATM   24  O3  UNL     1      34.374  23.048   5.586  1.00  0.00    -0.348 OA
ATOM     25  H3  UNL     1      35.292  23.140   5.810  1.00  0.00     0.219 HD
ENDBRANCH  21  24
BRANCH  22  26
HETATM   26  O4  UNL     1      34.617  24.381   7.898  1.00  0.00    -0.288 OA
ATOM     27  H4  UNL     1      34.590  24.510   8.839  1.00  0.00     0.244 HD
ENDBRANCH  22  26
ENDBRANCH   2  21
TORSDOF 10
ENDMDL
MODEL 5
REMARK VINA RESULT: -5.507599480      2.434      2.830
REMARK  10 active torsions:
REMARK  status: ('A' for Active; 'I' for Inactive)
REMARK    1  A    between atoms: C2_2  and  C3_4 
REMARK    2  A    between atoms: C3_4  and  O1_5 
REMARK    3  A    between atoms: C3_4  and  C4_7 
REMARK    4  A    between atoms: C3_4  and  C7_12 
REMARK    5  A    between atoms: C5_8  and  O2_10 
REMARK    6  A    between atoms: C7_12  and  C8_13 
REMARK    7  A    between atoms: C8_13  and  C9_14 
REMARK    8  A    between atoms: C10_15  and  C11_16 
REMARK    9  A    between atoms: C11_16  and  O3_17 
REMARK   10  A    between atoms: N1_19  and  O4_21 
ROOT
HETATM    1  C9  UNL     1      33.289  25.534   4.208  1.00  0.00     0.013 C 
HETATM    2  C10 UNL     1      33.031  24.618   3.071  1.00  0.00     0.089 C 
HETATM    3  C12 UNL     1      34.395  23.971   2.922  1.00  0.00    -0.017 C 
HETATM    4  C13 UNL     1      35.128  24.152   3.989  1.00  0.00    -0.021 C 
HETATM    5  C14 UNL     1      34.375  24.950   5.028  1.00  0.00    -0.026 C 
HETATM    6  C15 UNL     1      34.052  24.144   6.200  1.00  0.00     0.019 C 
HETATM    7  C16 UNL     1      35.383  26.032   5.460  1.00  0.00     0.019 C 
ENDROOT
BRANCH   1   8
HETATM    8  C8  UNL     1      32.127  26.091   4.932  1.00  0.00     0.010 C 
BRANCH   8   9
HETATM    9  C7  UNL     1      31.866  27.542   4.612  1.00  0.00     0.048 C 
BRANCH   9  10
HETATM   10  C3  UNL     1      30.994  28.234   5.633  1.00  0.00     0.111 C 
BRANCH  10  11
HETATM   11  C2  UNL     1      29.783  28.637   4.872  1.00  0.00     0.021 C 
HETATM   12  C1  UNL     1      28.539  28.935   5.597  1.00  0.00     0.060 C 
HETATM   13  S1  UNL     1      29.846  28.729   3.466  1.00  0.00    -0.086 SA
ENDBRANCH  10  11
BRANCH  10  14
HETATM   14  O1  UNL     1      31.670  29.390   6.021  1.00  0.00    -0.380 OA
ATOM     15  H1  UNL     1      31.181  29.797   6.727  1.00  0.00     0.211 HD
ENDBRANCH  10  14
BRANCH  10  16
HETATM   16  C4  UNL     1      30.690  27.410   6.792  1.00  0.00     0.047 C 
HETATM   17  C5  UNL     1      30.603  27.909   7.999  1.00  0.00     0.038 C 
HETATM   18  C6  UNL     1      30.290  27.060   9.191  1.00  0.00     0.076 C 
BRANCH  17  19
HETATM   19  O2  UNL     1      30.801  29.254   8.204  1.00  0.00    -0.366 OA
ATOM     20  H2  UNL     1      31.662  29.578   8.441  1.00  0.00     0.217 HD
ENDBRANCH  17  19
ENDBRANCH  10  16
ENDBRANCH   9  10
ENDBRANCH   8   9
ENDBRANCH   1   8
BRANCH   2  21
HETATM   21  C11 UNL     1      32.064  23.552   3.246  1.00  0.00     0.143 C 
HETATM   22  N1  UNL     1      31.032  23.490   2.489  1.00  0.00    -0.251 N 
ATOM     23  H1  UNL     1      30.931  24.212   1.776  1.00  0.00     0.196 HD
BRANCH  21  24
HETATM   24  O3  UNL     1      32.183  22.567   4.201  1.00  0.00    -0.348 OA
ATOM     25  H3  UNL     1      31.517  21.910   4.363  1.00  0.00     0.219 HD
ENDBRANCH  21  24
BRANCH  22  26
HETATM   26  O4  UNL     1      30.066  22.544   2.558  1.00  0.00    -0.288 OA
ATOM     27  H4  UNL     1      30.086  21.705   2.114  1.00  0.00     0.244 HD
ENDBRANCH  22  26
ENDBRANCH   2  21
TORSDOF 10
ENDMDL
