MODEL 1
REMARK VINA RESULT: -7.984341121      0.000      0.000
REMARK  16 active torsions:
REMARK  status: ('A' for Active; 'I' for Inactive)
REMARK    1  A    between atoms: N1_1  and  C1_4 
REMARK    2  A    between atoms: N3_8  and  C3_9 
REMARK    3  A    between atoms: C3_9  and  C4_10 
REMARK    4  A    between atoms: C3_9  and  C6_16 
REMARK    5  A    between atoms: C4_10  and  C5_11 
REMARK    6  A    between atoms: C5_11  and  O1_12 
REMARK    7  A    between atoms: C5_11  and  O2_14 
REMARK    8  A    between atoms: C6_16  and  C7_17 
REMARK    9  A    between atoms: C6_16  and  N5_31 
REMARK   10  A    between atoms: C7_17  and  C8_18 
REMARK   11  A    between atoms: C11_22  and  O3_23 
REMARK   12  A    between atoms: C12_25  and  O4_26 
REMARK   13  A    between atoms: C13_28  and  O5_29 
REMARK   14  A    between atoms: C14_33  and  N6_34 
REMARK   15  A    between atoms: N6_34  and  C15_36 
REMARK   16  A    between atoms: C17_52  and  N14_53 
ROOT
HETATM    1  C6  UNL     1     -12.078  20.003   8.466  1.00  0.00     0.155 C 
ENDROOT
BRANCH   1   2
HETATM    2  C3  UNL     1     -13.035  19.578   7.468  1.00  0.00     0.063 C 
BRANCH   2   3
HETATM    3  N3  UNL     1     -13.365  20.404   6.353  1.00  0.00    -0.073 N 
HETATM    4  C2  UNL     1     -13.145  20.048   5.026  1.00  0.00     0.756 A 
HETATM    5  N2  UNL     1     -12.621  18.933   4.538  1.00  0.00    -0.018 N 
HETATM    6  N13 UNL     1     -13.550  21.038   4.221  1.00  0.00     0.108 N 
HETATM    7  C1  UNL     1     -12.481  18.762   3.213  1.00  0.00     0.705 A 
ATOM      8  H2  UNL     1     -12.320  18.196   5.175  1.00  0.00     0.203 HD
HETATM    9  N15 UNL     1     -12.880  19.741   2.380  1.00  0.00    -0.020 N 
HETATM   10  C17 UNL     1     -13.409  20.863   2.903  1.00  0.00     0.728 A 
ATOM     11  H15 UNL     1     -12.784  19.635   1.370  1.00  0.00     0.203 HD
HETATM   12  N12 UNL     1     -14.008  21.981   4.988  1.00  0.00    -0.191 N 
HETATM   13  N11 UNL     1     -13.890  21.589   6.231  1.00  0.00    -0.206 N 
ATOM     14  H12 UNL     1     -14.392  22.872   4.676  1.00  0.00     0.211 HD
ATOM     15  H11 UNL     1     -14.181  22.157   7.026  1.00  0.00     0.211 HD
BRANCH   7  16
HETATM   16  N1  UNL     1     -11.966  17.667   2.724  1.00  0.00    -0.234 N 
ATOM     17  H12 UNL     1     -11.929  16.825   3.300  1.00  0.00     0.174 HD
ATOM     18  H11 UNL     1     -11.599  17.634   1.773  1.00  0.00     0.174 HD
ENDBRANCH   7  16
BRANCH  10  19
HETATM   19  N14 UNL     1     -13.808  21.839   2.124  1.00  0.00    -0.232 N 
ATOM     20 2H14 UNL     1     -13.317  22.043   1.253  1.00  0.00     0.174 HD
ATOM     21 1H14 UNL     1     -14.618  22.377   2.431  1.00  0.00     0.174 HD
ENDBRANCH  10  19
ENDBRANCH   2   3
BRANCH   2  22
HETATM   22  C4  UNL     1     -14.291  18.916   8.028  1.00  0.00     0.118 C 
BRANCH  22  23
HETATM   23  C5  UNL     1     -14.395  17.471   7.749  1.00  0.00     0.259 C 
BRANCH  23  24
HETATM   24  O1  UNL     1     -14.092  17.098   6.451  1.00  0.00    -0.371 OA
ATOM     25  H1  UNL     1     -13.401  16.451   6.366  1.00  0.00     0.212 HD
ENDBRANCH  23  24
BRANCH  23  26
HETATM   26  O2  UNL     1     -13.488  16.757   8.567  1.00  0.00    -0.371 OA
ATOM     27  H2  UNL     1     -12.731  16.495   8.056  1.00  0.00     0.212 HD
ENDBRANCH  23  26
ENDBRANCH  22  23
ENDBRANCH   2  22
ENDBRANCH   1   2
BRANCH   1  28
HETATM   28  C7  UNL     1     -12.265  20.552   9.771  1.00  0.00     0.018 C 
BRANCH  28  29
HETATM   29  C8  UNL     1     -12.526  21.928  10.140  1.00  0.00     0.000 A 
HETATM   30  C9  UNL     1     -11.570  22.651  10.812  1.00  0.00     0.043 A 
HETATM   31  C10 UNL     1     -11.698  23.972  11.153  1.00  0.00     0.083 A 
HETATM   32  N4  UNL     1     -10.688  24.694  11.849  1.00  0.00    -0.099 NA
HETATM   33  C11 UNL     1     -12.870  24.609  10.793  1.00  0.00     0.126 A 
HETATM   34  C12 UNL     1     -13.862  23.921  10.115  1.00  0.00     0.135 A 
HETATM   35  C13 UNL     1     -13.681  22.594   9.798  1.00  0.00     0.111 A 
BRANCH  33  36
HETATM   36  O3  UNL     1     -13.085  25.960  11.102  1.00  0.00    -0.356 OA
ATOM     37  H3  UNL     1     -13.961  26.329  11.103  1.00  0.00     0.218 HD
ENDBRANCH  33  36
BRANCH  34  38
HETATM   38  O4  UNL     1     -15.054  24.582   9.753  1.00  0.00    -0.356 OA
ATOM     39  H4  UNL     1     -15.024  25.482   9.451  1.00  0.00     0.218 HD
ENDBRANCH  34  38
BRANCH  35  40
HETATM   40  O5  UNL     1     -14.722  21.972   9.117  1.00  0.00    -0.357 OA
ATOM     41  H5  UNL     1     -15.502  22.442   8.848  1.00  0.00     0.217 HD
ENDBRANCH  35  40
ENDBRANCH  28  29
ENDBRANCH   1  28
BRANCH   1  42
HETATM   42  N5  UNL     1     -11.102  18.865   8.673  1.00  0.00    -0.372 N 
HETATM   43  C14 UNL     1     -10.907  18.391   9.836  1.00  0.00     0.194 C 
ATOM     44  H5  UNL     1     -10.599  18.475   7.875  1.00  0.00     0.161 HD
BRANCH  43  45
HETATM   45  N6  UNL     1      -9.978  17.325   9.951  1.00  0.00    -0.186 N 
ATOM     46  H6  UNL     1      -9.117  17.378   9.407  1.00  0.00     0.185 HD
BRANCH  45  47
HETATM   47  C15 UNL     1     -10.157  16.303  10.695  1.00  0.00     0.702 A 
HETATM   48  N7  UNL     1      -9.969  15.053  10.185  1.00  0.00    -0.117 N 
HETATM   49  N8  UNL     1     -10.144  13.970  10.925  1.00  0.00    -0.224 N 
ATOM     50  H7  UNL     1      -9.686  14.949   9.210  1.00  0.00     0.207 HD
HETATM   51  N9  UNL     1     -10.505  14.100  12.166  1.00  0.00    -0.236 N 
ATOM     52  H8  UNL     1      -9.998  13.043  10.524  1.00  0.00     0.209 HD
HETATM   53  C16 UNL     1     -10.696  15.309  12.692  1.00  0.00     0.354 A 
ATOM     54  H9  UNL     1     -10.643  13.269  12.743  1.00  0.00     0.193 HD
HETATM   55  O6  UNL     1     -11.043  15.373  13.899  1.00  0.00    -0.245 OA
HETATM   56  N10 UNL     1     -10.527  16.446  11.974  1.00  0.00    -0.139 N 
ATOM     57  H10 UNL     1     -10.675  17.366  12.387  1.00  0.00     0.189 HD
ENDBRANCH  45  47
ENDBRANCH  43  45
ENDBRANCH   1  42
TORSDOF 16
ENDMDL
MODEL 2
REMARK VINA RESULT: -7.922984147      2.450      3.362
REMARK  16 active torsions:
REMARK  status: ('A' for Active; 'I' for Inactive)
REMARK    1  A    between atoms: N1_1  and  C1_4 
REMARK    2  A    between atoms: N3_8  and  C3_9 
REMARK    3  A    between atoms: C3_9  and  C4_10 
REMARK    4  A    between atoms: C3_9  and  C6_16 
REMARK    5  A    between atoms: C4_10  and  C5_11 
REMARK    6  A    between atoms: C5_11  and  O1_12 
REMARK    7  A    between atoms: C5_11  and  O2_14 
REMARK    8  A    between atoms: C6_16  and  C7_17 
REMARK    9  A    between atoms: C6_16  and  N5_31 
REMARK   10  A    between atoms: C7_17  and  C8_18 
REMARK   11  A    between atoms: C11_22  and  O3_23 
REMARK   12  A    between atoms: C12_25  and  O4_26 
REMARK   13  A    between atoms: C13_28  and  O5_29 
REMARK   14  A    between atoms: C14_33  and  N6_34 
REMARK   15  A    between atoms: N6_34  and  C15_36 
REMARK   16  A    between atoms: C17_52  and  N14_53 
ROOT
HETATM    1  C6  UNL     1     -12.627  19.536   9.069  1.00  0.00     0.155 C 
ENDROOT
BRANCH   1   2
HETATM    2  C3  UNL     1     -13.826  18.868   8.615  1.00  0.00     0.063 C 
BRANCH   2   3
HETATM    3  N3  UNL     1     -13.996  18.487   7.251  1.00  0.00    -0.073 N 
HETATM    4  C2  UNL     1     -14.432  17.231   6.841  1.00  0.00     0.756 A 
HETATM    5  N2  UNL     1     -14.771  16.183   7.579  1.00  0.00    -0.018 N 
HETATM    6  N13 UNL     1     -14.475  17.183   5.504  1.00  0.00     0.108 N 
HETATM    7  C1  UNL     1     -15.170  15.037   7.005  1.00  0.00     0.705 A 
ATOM      8  H2  UNL     1     -14.727  16.248   8.596  1.00  0.00     0.203 HD
HETATM    9  N15 UNL     1     -15.223  14.962   5.662  1.00  0.00    -0.020 N 
HETATM   10  C17 UNL     1     -14.874  16.040   4.936  1.00  0.00     0.728 A 
ATOM     11  H15 UNL     1     -15.523  14.102   5.201  1.00  0.00     0.203 HD
HETATM   12  N12 UNL     1     -14.088  18.347   5.076  1.00  0.00    -0.191 N 
HETATM   13  N11 UNL     1     -13.813  19.093   6.114  1.00  0.00    -0.206 N 
ATOM     14  H12 UNL     1     -14.012  18.630   4.099  1.00  0.00     0.211 HD
ATOM     15  H11 UNL     1     -13.487  20.057   6.040  1.00  0.00     0.211 HD
BRANCH   7  16
HETATM   16  N1  UNL     1     -15.506  14.002   7.725  1.00  0.00    -0.234 N 
ATOM     17  H12 UNL     1     -15.437  14.049   8.742  1.00  0.00     0.174 HD
ATOM     18  H11 UNL     1     -15.837  13.140   7.289  1.00  0.00     0.174 HD
ENDBRANCH   7  16
BRANCH  10  19
HETATM   19  N14 UNL     1     -14.910  16.004   3.626  1.00  0.00    -0.232 N 
ATOM     20 2H14 UNL     1     -14.108  15.669   3.093  1.00  0.00     0.174 HD
ATOM     21 1H14 UNL     1     -15.767  16.326   3.176  1.00  0.00     0.174 HD
ENDBRANCH  10  19
ENDBRANCH   2   3
BRANCH   2  22
HETATM   22  C4  UNL     1     -15.126  19.444   9.171  1.00  0.00     0.118 C 
BRANCH  22  23
HETATM   23  C5  UNL     1     -15.948  18.478   9.925  1.00  0.00     0.259 C 
BRANCH  23  24
HETATM   24  O1  UNL     1     -16.667  19.012  10.980  1.00  0.00    -0.371 OA
ATOM     25  H1  UNL     1     -17.584  18.767  11.011  1.00  0.00     0.212 HD
ENDBRANCH  23  24
BRANCH  23  26
HETATM   26  O2  UNL     1     -16.913  17.896   9.069  1.00  0.00    -0.371 OA
ATOM     27  H2  UNL     1     -17.670  17.625   9.575  1.00  0.00     0.212 HD
ENDBRANCH  23  26
ENDBRANCH  22  23
ENDBRANCH   2  22
ENDBRANCH   1   2
BRANCH   1  28
HETATM   28  C7  UNL     1     -12.383  20.351  10.217  1.00  0.00     0.018 C 
BRANCH  28  29
HETATM   29  C8  UNL     1     -12.501  21.789  10.341  1.00  0.00     0.000 A 
HETATM   30  C9  UNL     1     -13.621  22.429   9.865  1.00  0.00     0.043 A 
HETATM   31  C10 UNL     1     -13.852  23.774   9.986  1.00  0.00     0.083 A 
HETATM   32  N4  UNL     1     -15.024  24.407   9.483  1.00  0.00    -0.099 NA
HETATM   33  C11 UNL     1     -12.889  24.527  10.629  1.00  0.00     0.126 A 
HETATM   34  C12 UNL     1     -11.744  23.927  11.125  1.00  0.00     0.135 A 
HETATM   35  C13 UNL     1     -11.563  22.570  10.976  1.00  0.00     0.111 A 
BRANCH  33  36
HETATM   36  O3  UNL     1     -13.044  25.911  10.798  1.00  0.00    -0.356 OA
ATOM     37  H3  UNL     1     -13.314  26.466  10.075  1.00  0.00     0.218 HD
ENDBRANCH  33  36
BRANCH  34  38
HETATM   38  O4  UNL     1     -10.768  24.707  11.780  1.00  0.00    -0.356 OA
ATOM     39  H4  UNL     1     -10.938  25.623  11.963  1.00  0.00     0.218 HD
ENDBRANCH  34  38
BRANCH  35  40
HETATM   40  O5  UNL     1     -10.388  22.041  11.499  1.00  0.00    -0.357 OA
ATOM     41  H5  UNL     1      -9.709  21.672  10.947  1.00  0.00     0.217 HD
ENDBRANCH  35  40
ENDBRANCH  28  29
ENDBRANCH   1  28
BRANCH   1  42
HETATM   42  N5  UNL     1     -11.517  18.507   9.097  1.00  0.00    -0.372 N 
HETATM   43  C14 UNL     1     -11.087  18.058  10.205  1.00  0.00     0.194 C 
ATOM     44  H5  UNL     1     -11.113  18.171   8.222  1.00  0.00     0.161 HD
BRANCH  43  45
HETATM   45  N6  UNL     1     -10.045  17.095  10.151  1.00  0.00    -0.186 N 
ATOM     46  H6  UNL     1      -9.139  17.388   9.785  1.00  0.00     0.185 HD
BRANCH  45  47
HETATM   47  C15 UNL     1     -10.176  15.884  10.532  1.00  0.00     0.702 A 
HETATM   48  N7  UNL     1      -9.803  14.869   9.702  1.00  0.00    -0.117 N 
HETATM   49  N8  UNL     1      -9.924  13.601  10.062  1.00  0.00    -0.224 N 
ATOM     50  H7  UNL     1      -9.422  15.091   8.783  1.00  0.00     0.207 HD
HETATM   51  N9  UNL     1     -10.410  13.316  11.233  1.00  0.00    -0.236 N 
ATOM     52  H8  UNL     1      -9.638  12.856   9.427  1.00  0.00     0.209 HD
HETATM   53  C16 UNL     1     -10.783  14.287  12.065  1.00  0.00     0.354 A 
ATOM     54  H9  UNL     1     -10.507  12.341  11.517  1.00  0.00     0.193 HD
HETATM   55  O6  UNL     1     -11.245  13.952  13.185  1.00  0.00    -0.245 OA
HETATM   56  N10 UNL     1     -10.677  15.599  11.741  1.00  0.00    -0.139 N 
ATOM     57  H10 UNL     1     -10.965  16.334  12.386  1.00  0.00     0.189 HD
ENDBRANCH  45  47
ENDBRANCH  43  45
ENDBRANCH   1  42
TORSDOF 16
ENDMDL
MODEL 3
REMARK VINA RESULT: -7.913301718      1.202      1.582
REMARK  16 active torsions:
REMARK  status: ('A' for Active; 'I' for Inactive)
REMARK    1  A    between atoms: N1_1  and  C1_4 
REMARK    2  A    between atoms: N3_8  and  C3_9 
REMARK    3  A    between atoms: C3_9  and  C4_10 
REMARK    4  A    between atoms: C3_9  and  C6_16 
REMARK    5  A    between atoms: C4_10  and  C5_11 
REMARK    6  A    between atoms: C5_11  and  O1_12 
REMARK    7  A    between atoms: C5_11  and  O2_14 
REMARK    8  A    between atoms: C6_16  and  C7_17 
REMARK    9  A    between atoms: C6_16  and  N5_31 
REMARK   10  A    between atoms: C7_17  and  C8_18 
REMARK   11  A    between atoms: C11_22  and  O3_23 
REMARK   12  A    between atoms: C12_25  and  O4_26 
REMARK   13  A    between atoms: C13_28  and  O5_29 
REMARK   14  A    between atoms: C14_33  and  N6_34 
REMARK   15  A    between atoms: N6_34  and  C15_36 
REMARK   16  A    between atoms: C17_52  and  N14_53 
ROOT
HETATM    1  C6  UNL     1     -12.055  19.988   8.545  1.00  0.00     0.155 C 
ENDROOT
BRANCH   1   2
HETATM    2  C3  UNL     1     -13.073  19.564   7.609  1.00  0.00     0.063 C 
BRANCH   2   3
HETATM    3  N3  UNL     1     -13.466  20.387   6.512  1.00  0.00    -0.073 N 
HETATM    4  C2  UNL     1     -13.265  20.053   5.176  1.00  0.00     0.756 A 
HETATM    5  N2  UNL     1     -12.709  18.965   4.663  1.00  0.00    -0.018 N 
HETATM    6  N13 UNL     1     -13.731  21.032   4.392  1.00  0.00     0.108 N 
HETATM    7  C1  UNL     1     -12.596  18.811   3.333  1.00  0.00     0.705 A 
ATOM      8  H2  UNL     1     -12.362  18.234   5.285  1.00  0.00     0.203 HD
HETATM    9  N15 UNL     1     -13.057  19.782   2.521  1.00  0.00    -0.020 N 
HETATM   10  C17 UNL     1     -13.617  20.876   3.069  1.00  0.00     0.728 A 
ATOM     11  H15 UNL     1     -12.982  19.689   1.508  1.00  0.00     0.203 HD
HETATM   12  N12 UNL     1     -14.206  21.949   5.181  1.00  0.00    -0.191 N 
HETATM   13  N11 UNL     1     -14.041  21.550   6.416  1.00  0.00    -0.206 N 
ATOM     14  H12 UNL     1     -14.635  22.827   4.888  1.00  0.00     0.211 HD
ATOM     15  H11 UNL     1     -14.334  22.098   7.224  1.00  0.00     0.211 HD
BRANCH   7  16
HETATM   16  N1  UNL     1     -12.051  17.743   2.820  1.00  0.00    -0.234 N 
ATOM     17  H12 UNL     1     -11.754  16.983   3.432  1.00  0.00     0.174 HD
ATOM     18  H11 UNL     1     -11.914  17.651   1.813  1.00  0.00     0.174 HD
ENDBRANCH   7  16
BRANCH  10  19
HETATM   19  N14 UNL     1     -14.075  21.843   2.311  1.00  0.00    -0.232 N 
ATOM     20 2H14 UNL     1     -14.757  22.508   2.673  1.00  0.00     0.174 HD
ATOM     21 1H14 UNL     1     -13.721  21.892   1.355  1.00  0.00     0.174 HD
ENDBRANCH  10  19
ENDBRANCH   2   3
BRANCH   2  22
HETATM   22  C4  UNL     1     -14.297  18.914   8.249  1.00  0.00     0.118 C 
BRANCH  22  23
HETATM   23  C5  UNL     1     -14.433  17.471   7.977  1.00  0.00     0.259 C 
BRANCH  23  24
HETATM   24  O1  UNL     1     -14.215  17.095   6.663  1.00  0.00    -0.371 OA
ATOM     25  H1  UNL     1     -13.525  16.455   6.533  1.00  0.00     0.212 HD
ENDBRANCH  23  24
BRANCH  23  26
HETATM   26  O2  UNL     1     -13.484  16.746   8.737  1.00  0.00    -0.371 OA
ATOM     27  H2  UNL     1     -12.607  16.946   8.431  1.00  0.00     0.212 HD
ENDBRANCH  23  26
ENDBRANCH  22  23
ENDBRANCH   2  22
ENDBRANCH   1   2
BRANCH   1  28
HETATM   28  C7  UNL     1     -12.158  20.577   9.841  1.00  0.00     0.018 C 
BRANCH  28  29
HETATM   29  C8  UNL     1     -12.363  21.969  10.183  1.00  0.00     0.000 A 
HETATM   30  C9  UNL     1     -13.489  22.625   9.744  1.00  0.00     0.043 A 
HETATM   31  C10 UNL     1     -13.802  23.921  10.061  1.00  0.00     0.083 A 
HETATM   32  N4  UNL     1     -14.978  24.571   9.591  1.00  0.00    -0.099 NA
HETATM   33  C11 UNL     1     -12.920  24.604  10.876  1.00  0.00     0.126 A 
HETATM   34  C12 UNL     1     -11.773  23.986  11.342  1.00  0.00     0.135 A 
HETATM   35  C13 UNL     1     -11.507  22.681  10.992  1.00  0.00     0.111 A 
BRANCH  33  36
HETATM   36  O3  UNL     1     -13.163  25.934  11.250  1.00  0.00    -0.356 OA
ATOM     37  H3  UNL     1     -12.459  26.572  11.276  1.00  0.00     0.218 HD
ENDBRANCH  33  36
BRANCH  34  38
HETATM   38  O4  UNL     1     -10.881  24.695  12.173  1.00  0.00    -0.356 OA
ATOM     39  H4  UNL     1     -10.051  24.304  12.420  1.00  0.00     0.218 HD
ENDBRANCH  34  38
BRANCH  35  40
HETATM   40  O5  UNL     1     -10.336  22.130  11.499  1.00  0.00    -0.357 OA
ATOM     41  H5  UNL     1      -9.546  22.644  11.622  1.00  0.00     0.217 HD
ENDBRANCH  35  40
ENDBRANCH  28  29
ENDBRANCH   1  28
BRANCH   1  42
HETATM   42  N5  UNL     1     -11.102  18.827   8.734  1.00  0.00    -0.372 N 
HETATM   43  C14 UNL     1     -10.807  18.424   9.903  1.00  0.00     0.194 C 
ATOM     44  H5  UNL     1     -10.694  18.365   7.920  1.00  0.00     0.161 HD
BRANCH  43  45
HETATM   45  N6  UNL     1      -9.907  17.331  10.000  1.00  0.00    -0.186 N 
ATOM     46  H6  UNL     1      -9.043  17.370   9.459  1.00  0.00     0.185 HD
BRANCH  45  47
HETATM   47  C15 UNL     1     -10.115  16.301  10.725  1.00  0.00     0.702 A 
HETATM   48  N7  UNL     1      -9.940  15.056  10.200  1.00  0.00    -0.117 N 
HETATM   49  N8  UNL     1     -10.146  13.965  10.920  1.00  0.00    -0.224 N 
ATOM     50  H7  UNL     1      -9.643  14.962   9.228  1.00  0.00     0.207 HD
HETATM   51  N9  UNL     1     -10.525  14.082  12.157  1.00  0.00    -0.236 N 
ATOM     52  H8  UNL     1     -10.009  13.042  10.508  1.00  0.00     0.209 HD
HETATM   53  C16 UNL     1     -10.705  15.287  12.698  1.00  0.00     0.354 A 
ATOM     54  H9  UNL     1     -10.687  13.246  12.718  1.00  0.00     0.193 HD
HETATM   55  O6  UNL     1     -11.071  15.338  13.900  1.00  0.00    -0.245 OA
HETATM   56  N10 UNL     1     -10.505  16.431  12.000  1.00  0.00    -0.139 N 
ATOM     57  H10 UNL     1     -10.644  17.347  12.425  1.00  0.00     0.189 HD
ENDBRANCH  45  47
ENDBRANCH  43  45
ENDBRANCH   1  42
TORSDOF 16
ENDMDL
MODEL 4
REMARK VINA RESULT: -7.784071829      1.055      2.042
REMARK  16 active torsions:
REMARK  status: ('A' for Active; 'I' for Inactive)
REMARK    1  A    between atoms: N1_1  and  C1_4 
REMARK    2  A    between atoms: N3_8  and  C3_9 
REMARK    3  A    between atoms: C3_9  and  C4_10 
REMARK    4  A    between atoms: C3_9  and  C6_16 
REMARK    5  A    between atoms: C4_10  and  C5_11 
REMARK    6  A    between atoms: C5_11  and  O1_12 
REMARK    7  A    between atoms: C5_11  and  O2_14 
REMARK    8  A    between atoms: C6_16  and  C7_17 
REMARK    9  A    between atoms: C6_16  and  N5_31 
REMARK   10  A    between atoms: C7_17  and  C8_18 
REMARK   11  A    between atoms: C11_22  and  O3_23 
REMARK   12  A    between atoms: C12_25  and  O4_26 
REMARK   13  A    between atoms: C13_28  and  O5_29 
REMARK   14  A    between atoms: C14_33  and  N6_34 
REMARK   15  A    between atoms: N6_34  and  C15_36 
REMARK   16  A    between atoms: C17_52  and  N14_53 
ROOT
HETATM    1  C6  UNL     1     -11.974  19.800   8.660  1.00  0.00     0.155 C 
ENDROOT
BRANCH   1   2
HETATM    2  C3  UNL     1     -12.755  19.208   7.596  1.00  0.00     0.063 C 
BRANCH   2   3
HETATM    3  N3  UNL     1     -12.767  19.763   6.282  1.00  0.00    -0.073 N 
HETATM    4  C2  UNL     1     -13.503  20.886   5.917  1.00  0.00     0.756 A 
HETATM    5  N2  UNL     1     -14.297  21.642   6.662  1.00  0.00    -0.018 N 
HETATM    6  N13 UNL     1     -13.313  21.146   4.617  1.00  0.00     0.108 N 
HETATM    7  C1  UNL     1     -14.937  22.697   6.133  1.00  0.00     0.705 A 
ATOM      8  H2  UNL     1     -14.424  21.419   7.649  1.00  0.00     0.203 HD
HETATM    9  N15 UNL     1     -14.763  22.982   4.828  1.00  0.00    -0.020 N 
HETATM   10  C17 UNL     1     -13.952  22.198   4.095  1.00  0.00     0.728 A 
ATOM     11  H15 UNL     1     -15.239  23.778   4.403  1.00  0.00     0.203 HD
HETATM   12  N12 UNL     1     -12.497  20.240   4.170  1.00  0.00    -0.191 N 
HETATM   13  N11 UNL     1     -12.191  19.442   5.160  1.00  0.00    -0.206 N 
ATOM     14  H12 UNL     1     -12.154  20.164   3.212  1.00  0.00     0.211 HD
ATOM     15  H11 UNL     1     -11.562  18.645   5.063  1.00  0.00     0.211 HD
BRANCH   7  16
HETATM   16  N1  UNL     1     -15.719  23.447   6.860  1.00  0.00    -0.234 N 
ATOM     17  H12 UNL     1     -15.324  24.219   7.396  1.00  0.00     0.174 HD
ATOM     18  H11 UNL     1     -16.725  23.275   6.903  1.00  0.00     0.174 HD
ENDBRANCH   7  16
BRANCH  10  19
HETATM   19  N14 UNL     1     -13.759  22.442   2.821  1.00  0.00    -0.232 N 
ATOM     20 2H14 UNL     1     -14.157  21.830   2.109  1.00  0.00     0.174 HD
ATOM     21 1H14 UNL     1     -13.198  23.261   2.584  1.00  0.00     0.174 HD
ENDBRANCH  10  19
ENDBRANCH   2   3
BRANCH   2  22
HETATM   22  C4  UNL     1     -14.161  18.775   8.001  1.00  0.00     0.118 C 
BRANCH  22  23
HETATM   23  C5  UNL     1     -14.397  17.321   7.924  1.00  0.00     0.259 C 
BRANCH  23  24
HETATM   24  O1  UNL     1     -14.360  16.783   6.650  1.00  0.00    -0.371 OA
ATOM     25  H1  UNL     1     -14.436  15.837   6.606  1.00  0.00     0.212 HD
ENDBRANCH  23  24
BRANCH  23  26
HETATM   26  O2  UNL     1     -13.396  16.632   8.652  1.00  0.00    -0.371 OA
ATOM     27  H2  UNL     1     -13.296  15.753   8.308  1.00  0.00     0.212 HD
ENDBRANCH  23  26
ENDBRANCH  22  23
ENDBRANCH   2  22
ENDBRANCH   1   2
BRANCH   1  28
HETATM   28  C7  UNL     1     -12.371  20.389   9.899  1.00  0.00     0.018 C 
BRANCH  28  29
HETATM   29  C8  UNL     1     -12.617  21.785  10.195  1.00  0.00     0.000 A 
HETATM   30  C9  UNL     1     -11.611  22.563  10.717  1.00  0.00     0.043 A 
HETATM   31  C10 UNL     1     -11.727  23.904  10.976  1.00  0.00     0.083 A 
HETATM   32  N4  UNL     1     -10.665  24.682  11.517  1.00  0.00    -0.099 NA
HETATM   33  C11 UNL     1     -12.938  24.502  10.690  1.00  0.00     0.126 A 
HETATM   34  C12 UNL     1     -13.981  23.759  10.163  1.00  0.00     0.135 A 
HETATM   35  C13 UNL     1     -13.810  22.414   9.922  1.00  0.00     0.111 A 
BRANCH  33  36
HETATM   36  O3  UNL     1     -13.144  25.870  10.923  1.00  0.00    -0.356 OA
ATOM     37  H3  UNL     1     -13.790  26.360  10.428  1.00  0.00     0.218 HD
ENDBRANCH  33  36
BRANCH  34  38
HETATM   38  O4  UNL     1     -15.213  24.381   9.875  1.00  0.00    -0.356 OA
ATOM     39  H4  UNL     1     -15.291  25.326   9.933  1.00  0.00     0.218 HD
ENDBRANCH  34  38
BRANCH  35  40
HETATM   40  O5  UNL     1     -14.902  21.736   9.393  1.00  0.00    -0.357 OA
ATOM     41  H5  UNL     1     -15.775  22.110   9.385  1.00  0.00     0.217 HD
ENDBRANCH  35  40
ENDBRANCH  28  29
ENDBRANCH   1  28
BRANCH   1  42
HETATM   42  N5  UNL     1     -10.900  18.805   9.042  1.00  0.00    -0.372 N 
HETATM   43  C14 UNL     1     -10.935  18.228  10.174  1.00  0.00     0.194 C 
ATOM     44  H5  UNL     1     -10.144  18.596   8.389  1.00  0.00     0.161 HD
BRANCH  43  45
HETATM   45  N6  UNL     1      -9.894  17.307  10.461  1.00  0.00    -0.186 N 
ATOM     46  H6  UNL     1      -8.931  17.643  10.420  1.00  0.00     0.185 HD
BRANCH  45  47
HETATM   47  C15 UNL     1     -10.090  16.084  10.767  1.00  0.00     0.702 A 
HETATM   48  N7  UNL     1      -9.769  15.103   9.878  1.00  0.00    -0.117 N 
HETATM   49  N8  UNL     1      -9.958  13.824  10.159  1.00  0.00    -0.224 N 
ATOM     50  H7  UNL     1      -9.372  15.360   8.974  1.00  0.00     0.207 HD
HETATM   51  N9  UNL     1     -10.464  13.494  11.310  1.00  0.00    -0.236 N 
ATOM     52  H8  UNL     1      -9.710  13.104   9.480  1.00  0.00     0.209 HD
HETATM   53  C16 UNL     1     -10.789  14.431  12.200  1.00  0.00     0.354 A 
ATOM     54  H9  UNL     1     -10.614  12.510  11.534  1.00  0.00     0.193 HD
HETATM   55  O6  UNL     1     -11.272  14.053  13.296  1.00  0.00    -0.245 OA
HETATM   56  N10 UNL     1     -10.611  15.753  11.956  1.00  0.00    -0.139 N 
ATOM     57  H10 UNL     1     -10.862  16.461  12.645  1.00  0.00     0.189 HD
ENDBRANCH  45  47
ENDBRANCH  43  45
ENDBRANCH   1  42
TORSDOF 16
ENDMDL
MODEL 5
REMARK VINA RESULT: -7.762310497      3.103      6.594
REMARK  16 active torsions:
REMARK  status: ('A' for Active; 'I' for Inactive)
REMARK    1  A    between atoms: N1_1  and  C1_4 
REMARK    2  A    between atoms: N3_8  and  C3_9 
REMARK    3  A    between atoms: C3_9  and  C4_10 
REMARK    4  A    between atoms: C3_9  and  C6_16 
REMARK    5  A    between atoms: C4_10  and  C5_11 
REMARK    6  A    between atoms: C5_11  and  O1_12 
REMARK    7  A    between atoms: C5_11  and  O2_14 
REMARK    8  A    between atoms: C6_16  and  C7_17 
REMARK    9  A    between atoms: C6_16  and  N5_31 
REMARK   10  A    between atoms: C7_17  and  C8_18 
REMARK   11  A    between atoms: C11_22  and  O3_23 
REMARK   12  A    between atoms: C12_25  and  O4_26 
REMARK   13  A    between atoms: C13_28  and  O5_29 
REMARK   14  A    between atoms: C14_33  and  N6_34 
REMARK   15  A    between atoms: N6_34  and  C15_36 
REMARK   16  A    between atoms: C17_52  and  N14_53 
ROOT
HETATM    1  C6  UNL     1     -11.648  19.062   8.632  1.00  0.00     0.155 C 
ENDROOT
BRANCH   1   2
HETATM    2  C3  UNL     1     -12.478  18.099   9.321  1.00  0.00     0.063 C 
BRANCH   2   3
HETATM    3  N3  UNL     1     -13.897  18.236   9.368  1.00  0.00    -0.073 N 
HETATM    4  C2  UNL     1     -14.781  17.441   8.646  1.00  0.00     0.756 A 
HETATM    5  N2  UNL     1     -14.518  16.442   7.815  1.00  0.00    -0.018 N 
HETATM    6  N13 UNL     1     -16.039  17.825   8.895  1.00  0.00     0.108 N 
HETATM    7  C1  UNL     1     -15.510  15.781   7.197  1.00  0.00     0.705 A 
ATOM      8  H2  UNL     1     -13.549  16.171   7.644  1.00  0.00     0.203 HD
HETATM    9  N15 UNL     1     -16.785  16.146   7.429  1.00  0.00    -0.020 N 
HETATM   10  C17 UNL     1     -17.024  17.164   8.277  1.00  0.00     0.728 A 
ATOM     11  H15 UNL     1     -17.556  15.660   6.972  1.00  0.00     0.203 HD
HETATM   12  N12 UNL     1     -15.969  18.814   9.734  1.00  0.00    -0.191 N 
HETATM   13  N11 UNL     1     -14.707  19.037   9.997  1.00  0.00    -0.206 N 
ATOM     14  H12 UNL     1     -16.761  19.327  10.121  1.00  0.00     0.211 HD
ATOM     15  H11 UNL     1     -14.389  19.768  10.632  1.00  0.00     0.211 HD
BRANCH   7  16
HETATM   16  N1  UNL     1     -15.258  14.796   6.379  1.00  0.00    -0.234 N 
ATOM     17  H12 UNL     1     -14.341  14.349   6.392  1.00  0.00     0.174 HD
ATOM     18  H11 UNL     1     -15.964  14.462   5.721  1.00  0.00     0.174 HD
ENDBRANCH   7  16
BRANCH  10  19
HETATM   19  N14 UNL     1     -18.252  17.550   8.528  1.00  0.00    -0.232 N 
ATOM     20 2H14 UNL     1     -18.542  18.510   8.345  1.00  0.00     0.174 HD
ATOM     21 1H14 UNL     1     -18.889  16.852   8.911  1.00  0.00     0.174 HD
ENDBRANCH  10  19
ENDBRANCH   2   3
BRANCH   2  22
HETATM   22  C4  UNL     1     -11.943  17.652  10.679  1.00  0.00     0.118 C 
BRANCH  22  23
HETATM   23  C5  UNL     1     -11.031  16.494  10.625  1.00  0.00     0.259 C 
BRANCH  23  24
HETATM   24  O1  UNL     1     -11.194  15.666   9.528  1.00  0.00    -0.371 OA
ATOM     25  H1  UNL     1     -10.487  15.049   9.377  1.00  0.00     0.212 HD
ENDBRANCH  23  24
BRANCH  23  26
HETATM   26  O2  UNL     1      -9.689  16.942  10.561  1.00  0.00    -0.371 OA
ATOM     27  H2  UNL     1      -9.413  17.253  11.415  1.00  0.00     0.212 HD
ENDBRANCH  23  26
ENDBRANCH  22  23
ENDBRANCH   2  22
ENDBRANCH   1   2
BRANCH   1  28
HETATM   28  C7  UNL     1     -11.871  19.804   7.431  1.00  0.00     0.018 C 
BRANCH  28  29
HETATM   29  C8  UNL     1     -13.129  20.114   6.785  1.00  0.00     0.000 A 
HETATM   30  C9  UNL     1     -13.757  21.309   7.044  1.00  0.00     0.043 A 
HETATM   31  C10 UNL     1     -14.917  21.719   6.441  1.00  0.00     0.083 A 
HETATM   32  N4  UNL     1     -15.542  22.965   6.731  1.00  0.00    -0.099 NA
HETATM   33  C11 UNL     1     -15.485  20.867   5.514  1.00  0.00     0.126 A 
HETATM   34  C12 UNL     1     -14.889  19.652   5.221  1.00  0.00     0.135 A 
HETATM   35  C13 UNL     1     -13.723  19.290   5.857  1.00  0.00     0.111 A 
BRANCH  33  36
HETATM   36  O3  UNL     1     -16.672  21.207   4.849  1.00  0.00    -0.356 OA
ATOM     37  H3  UNL     1     -17.506  20.837   5.115  1.00  0.00     0.218 HD
ENDBRANCH  33  36
BRANCH  34  38
HETATM   38  O4  UNL     1     -15.479  18.790   4.273  1.00  0.00    -0.356 OA
ATOM     39  H4  UNL     1     -14.931  18.318   3.657  1.00  0.00     0.218 HD
ENDBRANCH  34  38
BRANCH  35  40
HETATM   40  O5  UNL     1     -13.186  18.055   5.510  1.00  0.00    -0.357 OA
ATOM     41  H5  UNL     1     -12.993  17.822   4.610  1.00  0.00     0.217 HD
ENDBRANCH  35  40
ENDBRANCH  28  29
ENDBRANCH   1  28
BRANCH   1  42
HETATM   42  N5  UNL     1     -11.226  20.105   9.645  1.00  0.00    -0.372 N 
HETATM   43  C14 UNL     1     -11.922  21.155   9.812  1.00  0.00     0.194 C 
ATOM     44  H5  UNL     1     -10.380  19.964  10.197  1.00  0.00     0.161 HD
BRANCH  43  45
HETATM   45  N6  UNL     1     -11.464  22.086  10.780  1.00  0.00    -0.186 N 
ATOM     46  H6  UNL     1     -10.750  21.779  11.441  1.00  0.00     0.185 HD
BRANCH  45  47
HETATM   47  C15 UNL     1     -11.891  23.285  10.872  1.00  0.00     0.702 A 
HETATM   48  N7  UNL     1     -11.109  24.241  11.449  1.00  0.00    -0.117 N 
HETATM   49  N8  UNL     1     -11.517  25.494  11.563  1.00  0.00    -0.224 N 
ATOM     50  H7  UNL     1     -10.187  23.984  11.802  1.00  0.00     0.207 HD
HETATM   51  N9  UNL     1     -12.692  25.823  11.115  1.00  0.00    -0.236 N 
ATOM     52  H8  UNL     1     -10.916  26.194  11.997  1.00  0.00     0.209 HD
HETATM   53  C16 UNL     1     -13.479  24.911  10.545  1.00  0.00     0.354 A 
ATOM     54  H9  UNL     1     -13.014  26.788  11.199  1.00  0.00     0.193 HD
HETATM   55  O6  UNL     1     -14.603  25.287  10.129  1.00  0.00    -0.245 OA
HETATM   56  N10 UNL     1     -13.102  23.616  10.406  1.00  0.00    -0.139 N 
ATOM     57  H10 UNL     1     -13.713  22.927   9.968  1.00  0.00     0.189 HD
ENDBRANCH  45  47
ENDBRANCH  43  45
ENDBRANCH   1  42
TORSDOF 16
ENDMDL
