MODEL 1
REMARK VINA RESULT: -6.699257759      0.000      0.000
REMARK  17 active torsions:
REMARK  status: ('A' for Active; 'I' for Inactive)
REMARK    1  A    between atoms: C3_4  and  N1_5 
REMARK    2  A    between atoms: N1_5  and  O2_7 
REMARK    3  A    between atoms: N2_10  and  O3_12 
REMARK    4  A    between atoms: C5_14  and  O4_15 
REMARK    5  A    between atoms: O4_15  and  C6_16 
REMARK    6  A    between atoms: C7_17  and  N3_18 
REMARK    7  A    between atoms: C9_23  and  N4_24 
REMARK    8  A    between atoms: C10_28  and  O5_29 
REMARK    9  A    between atoms: O5_29  and  C11_30 
REMARK   10  A    between atoms: N5_33  and  C13_35 
REMARK   11  A    between atoms: C13_35  and  C14_36 
REMARK   12  A    between atoms: C14_36  and  C15_37 
REMARK   13  A    between atoms: C15_37  and  O7_38 
REMARK   14  A    between atoms: C16_40  and  N6_41 
REMARK   15  A    between atoms: C17_45  and  O8_46 
REMARK   16  A    between atoms: C18_48  and  O9_49 
REMARK   17  A    between atoms: C19_51  and  N7_53 
ROOT
HETATM    1  C6  UNL     1     -13.720  18.150   4.418  1.00  0.00     0.184 C 
HETATM    2  C7  UNL     1     -13.303  19.530   4.067  1.00  0.00     0.217 C 
HETATM    3  C8  UNL     1     -14.171  20.629   4.602  1.00  0.00     0.071 C 
HETATM    4  C9  UNL     1     -14.441  20.563   6.059  1.00  0.00     0.217 C 
HETATM    5  C10 UNL     1     -14.036  19.213   6.600  1.00  0.00     0.186 C 
HETATM    6  C18 UNL     1     -14.562  18.138   5.672  1.00  0.00     0.180 C 
ENDROOT
BRANCH   1   7
HETATM    7  O4  UNL     1     -14.276  17.428   3.385  1.00  0.00    -0.367 OA
BRANCH   7   8
HETATM    8  C5  UNL     1     -14.218  16.084   3.412  1.00  0.00     0.212 C 
HETATM    9  C4  UNL     1     -13.131  15.630   2.449  1.00  0.00     0.091 C 
HETATM   10  C3  UNL     1     -13.099  14.166   2.242  1.00  0.00     0.293 C 
HETATM   11  N2  UNL     1     -12.358  16.406   1.869  1.00  0.00    -0.270 N 
HETATM   12  O1  UNL     1     -14.225  13.870   1.468  1.00  0.00    -0.352 OA
HETATM   13  C2  UNL     1     -15.101  14.920   1.374  1.00  0.00     0.159 C 
HETATM   14  C1  UNL     1     -16.392  14.424   0.768  1.00  0.00     0.042 C 
HETATM   15  C19 UNL     1     -15.452  15.383   2.799  1.00  0.00     0.176 C 
HETATM   16  C20 UNL     1     -15.807  14.138   3.559  1.00  0.00     0.052 C 
ATOM     17  H2  UNL     1     -12.513  17.381   2.124  1.00  0.00     0.193 HD
BRANCH  10  18
HETATM   18  N1  UNL     1     -11.944  13.669   1.584  1.00  0.00    -0.270 N 
ATOM     19  H1  UNL     1     -11.983  13.302   0.634  1.00  0.00     0.190 HD
BRANCH  18  20
HETATM   20  O2  UNL     1     -10.806  13.708   2.276  1.00  0.00    -0.292 OA
ATOM     21  H2  UNL     1     -10.518  12.889   2.661  1.00  0.00     0.244 HD
ENDBRANCH  18  20
ENDBRANCH  10  18
BRANCH  15  22
HETATM   22  N7  UNL     1     -16.521  16.325   2.667  1.00  0.00    -0.065 N 
ATOM     23  H73 UNL     1     -17.095  16.171   1.837  1.00  0.00     0.275 HD
ATOM     24  H72 UNL     1     -17.261  16.196   3.357  1.00  0.00     0.275 HD
ATOM     25  H71 UNL     1     -16.095  17.251   2.698  1.00  0.00     0.275 HD
ENDBRANCH  15  22
BRANCH  11  26
HETATM   26  O3  UNL     1     -11.371  16.256   0.989  1.00  0.00    -0.290 OA
ATOM     27  H3  UNL     1     -10.503  15.871   1.020  1.00  0.00     0.244 HD
ENDBRANCH  11  26
ENDBRANCH   7   8
ENDBRANCH   1   7
BRANCH   2  28
HETATM   28  N3  UNL     1     -11.923  19.842   4.479  1.00  0.00    -0.072 N 
ATOM     29  H33 UNL     1     -11.648  19.278   5.283  1.00  0.00     0.274 HD
ATOM     30  H32 UNL     1     -11.252  19.495   3.794  1.00  0.00     0.274 HD
ATOM     31  H31 UNL     1     -11.773  20.834   4.664  1.00  0.00     0.274 HD
ENDBRANCH   2  28
BRANCH   6  32
HETATM   32  O9  UNL     1     -14.342  16.944   6.409  1.00  0.00    -0.390 OA
ATOM     33  H9  UNL     1     -14.588  17.064   7.319  1.00  0.00     0.210 HD
ENDBRANCH   6  32
BRANCH   5  34
HETATM   34  O5  UNL     1     -14.576  19.024   7.895  1.00  0.00    -0.348 OA
BRANCH  34  35
HETATM   35  C11 UNL     1     -13.723  19.553   8.828  1.00  0.00     0.299 C 
HETATM   36  O6  UNL     1     -13.702  18.629   9.931  1.00  0.00    -0.304 OA
HETATM   37  C12 UNL     1     -12.489  17.950   9.900  1.00  0.00     0.150 C 
HETATM   38  N5  UNL     1     -12.210  16.732  10.198  1.00  0.00    -0.372 N 
HETATM   39  C16 UNL     1     -11.519  18.967   9.428  1.00  0.00     0.290 C 
ATOM     40  H5  UNL     1     -12.962  16.120  10.514  1.00  0.00     0.161 HD
HETATM   41  C17 UNL     1     -12.312  19.689   8.368  1.00  0.00     0.212 C 
BRANCH  38  42
HETATM   42  C13 UNL     1     -10.885  16.203  10.104  1.00  0.00     0.123 C 
BRANCH  42  43
HETATM   43  C14 UNL     1     -10.219  16.364  11.465  1.00  0.00     0.045 C 
BRANCH  43  44
HETATM   44  C15 UNL     1     -10.681  15.239  12.391  1.00  0.00     0.165 C 
BRANCH  44  45
HETATM   45  O7  UNL     1     -10.704  15.706  13.698  1.00  0.00    -0.401 OA
ATOM     46  H7  UNL     1     -10.686  14.966  14.294  1.00  0.00     0.209 HD
ENDBRANCH  44  45
ENDBRANCH  43  44
ENDBRANCH  42  43
ENDBRANCH  38  42
BRANCH  39  47
HETATM   47  N6  UNL     1     -11.258  19.854  10.547  1.00  0.00    -0.065 N 
ATOM     48  H63 UNL     1     -11.963  20.583  10.654  1.00  0.00     0.275 HD
ATOM     49  H62 UNL     1     -11.397  19.407  11.454  1.00  0.00     0.275 HD
ATOM     50  H61 UNL     1     -10.316  20.222  10.421  1.00  0.00     0.275 HD
ENDBRANCH  39  47
BRANCH  41  51
HETATM   51  O8  UNL     1     -11.855  21.006   8.365  1.00  0.00    -0.388 OA
ATOM     52  H8  UNL     1     -12.056  21.473   7.562  1.00  0.00     0.210 HD
ENDBRANCH  41  51
ENDBRANCH  34  35
ENDBRANCH   5  34
BRANCH   4  53
HETATM   53  N4  UNL     1     -15.882  20.706   6.327  1.00  0.00    -0.072 N 
ATOM     54  H43 UNL     1     -16.381  21.084   5.521  1.00  0.00     0.274 HD
ATOM     55  H42 UNL     1     -16.349  19.801   6.384  1.00  0.00     0.274 HD
ATOM     56  H41 UNL     1     -16.039  21.266   7.165  1.00  0.00     0.274 HD
ENDBRANCH   4  53
TORSDOF 17
ENDMDL
MODEL 2
REMARK VINA RESULT: -6.667933200      2.196      3.392
REMARK  17 active torsions:
REMARK  status: ('A' for Active; 'I' for Inactive)
REMARK    1  A    between atoms: C3_4  and  N1_5 
REMARK    2  A    between atoms: N1_5  and  O2_7 
REMARK    3  A    between atoms: N2_10  and  O3_12 
REMARK    4  A    between atoms: C5_14  and  O4_15 
REMARK    5  A    between atoms: O4_15  and  C6_16 
REMARK    6  A    between atoms: C7_17  and  N3_18 
REMARK    7  A    between atoms: C9_23  and  N4_24 
REMARK    8  A    between atoms: C10_28  and  O5_29 
REMARK    9  A    between atoms: O5_29  and  C11_30 
REMARK   10  A    between atoms: N5_33  and  C13_35 
REMARK   11  A    between atoms: C13_35  and  C14_36 
REMARK   12  A    between atoms: C14_36  and  C15_37 
REMARK   13  A    between atoms: C15_37  and  O7_38 
REMARK   14  A    between atoms: C16_40  and  N6_41 
REMARK   15  A    between atoms: C17_45  and  O8_46 
REMARK   16  A    between atoms: C18_48  and  O9_49 
REMARK   17  A    between atoms: C19_51  and  N7_53 
ROOT
HETATM    1  C6  UNL     1     -14.085  17.354   5.823  1.00  0.00     0.184 C 
HETATM    2  C7  UNL     1     -13.940  18.476   4.863  1.00  0.00     0.217 C 
HETATM    3  C8  UNL     1     -14.972  19.558   4.966  1.00  0.00     0.071 C 
HETATM    4  C9  UNL     1     -15.170  20.111   6.328  1.00  0.00     0.217 C 
HETATM    5  C10 UNL     1     -14.505  19.220   7.350  1.00  0.00     0.186 C 
HETATM    6  C18 UNL     1     -14.862  17.780   7.046  1.00  0.00     0.180 C 
ENDROOT
BRANCH   1   7
HETATM    7  O4  UNL     1     -14.539  16.174   5.276  1.00  0.00    -0.367 OA
BRANCH   7   8
HETATM    8  C5  UNL     1     -15.863  15.952   5.186  1.00  0.00     0.212 C 
HETATM    9  C4  UNL     1     -16.234  14.855   6.172  1.00  0.00     0.091 C 
HETATM   10  C3  UNL     1     -17.629  14.383   6.033  1.00  0.00     0.293 C 
HETATM   11  N2  UNL     1     -15.444  14.375   6.999  1.00  0.00    -0.270 N 
HETATM   12  O1  UNL     1     -17.661  13.644   4.848  1.00  0.00    -0.352 OA
HETATM   13  C2  UNL     1     -16.530  13.800   4.090  1.00  0.00     0.159 C 
HETATM   14  C1  UNL     1     -16.773  13.198   2.725  1.00  0.00     0.042 C 
HETATM   15  C19 UNL     1     -16.310  15.305   3.856  1.00  0.00     0.176 C 
HETATM   16  C20 UNL     1     -17.633  15.847   3.402  1.00  0.00     0.052 C 
ATOM     17  H2  UNL     1     -14.523  14.813   6.963  1.00  0.00     0.193 HD
BRANCH  10  18
HETATM   18  N1  UNL     1     -18.106  13.573   7.096  1.00  0.00    -0.270 N 
ATOM     19  H1  UNL     1     -18.262  12.571   6.980  1.00  0.00     0.190 HD
BRANCH  18  20
HETATM   20  O2  UNL     1     -18.340  14.190   8.253  1.00  0.00    -0.292 OA
ATOM     21  H2  UNL     1     -19.219  14.110   8.604  1.00  0.00     0.244 HD
ENDBRANCH  18  20
ENDBRANCH  10  18
BRANCH  15  22
HETATM   22  N7  UNL     1     -15.258  15.415   2.893  1.00  0.00    -0.065 N 
ATOM     23  H73 UNL     1     -15.080  16.375   2.597  1.00  0.00     0.275 HD
ATOM     24  H72 UNL     1     -14.333  15.229   3.280  1.00  0.00     0.275 HD
ATOM     25  H71 UNL     1     -15.506  14.794   2.122  1.00  0.00     0.275 HD
ENDBRANCH  15  22
BRANCH  11  26
HETATM   26  O3  UNL     1     -15.524  13.420   7.922  1.00  0.00    -0.290 OA
ATOM     27  H3  UNL     1     -15.138  12.558   8.025  1.00  0.00     0.244 HD
ENDBRANCH  11  26
ENDBRANCH   7   8
ENDBRANCH   1   7
BRANCH   2  28
HETATM   28  N3  UNL     1     -12.625  19.138   4.938  1.00  0.00    -0.072 N 
ATOM     29  H33 UNL     1     -12.710  20.137   4.753  1.00  0.00     0.274 HD
ATOM     30  H32 UNL     1     -12.291  19.173   5.901  1.00  0.00     0.274 HD
ATOM     31  H31 UNL     1     -11.926  18.713   4.327  1.00  0.00     0.274 HD
ENDBRANCH   2  28
BRANCH   6  32
HETATM   32  O9  UNL     1     -14.400  17.087   8.197  1.00  0.00    -0.390 OA
ATOM     33  H9  UNL     1     -15.047  17.126   8.891  1.00  0.00     0.210 HD
ENDBRANCH   6  32
BRANCH   5  34
HETATM   34  O5  UNL     1     -14.952  19.553   8.652  1.00  0.00    -0.348 OA
BRANCH  34  35
HETATM   35  C11 UNL     1     -13.903  20.047   9.382  1.00  0.00     0.299 C 
HETATM   36  O6  UNL     1     -13.704  19.137  10.477  1.00  0.00    -0.304 OA
HETATM   37  C12 UNL     1     -12.557  18.394  10.218  1.00  0.00     0.150 C 
HETATM   38  N5  UNL     1     -12.284  17.167  10.480  1.00  0.00    -0.372 N 
HETATM   39  C16 UNL     1     -11.654  19.354   9.538  1.00  0.00     0.290 C 
ATOM     40  H5  UNL     1     -12.985  16.599  10.954  1.00  0.00     0.161 HD
HETATM   41  C17 UNL     1     -12.609  20.104   8.644  1.00  0.00     0.212 C 
BRANCH  38  42
HETATM   42  C13 UNL     1     -11.033  16.569  10.132  1.00  0.00     0.123 C 
BRANCH  42  43
HETATM   43  C14 UNL     1     -10.186  16.487  11.396  1.00  0.00     0.045 C 
BRANCH  43  44
HETATM   44  C15 UNL     1     -10.674  15.322  12.259  1.00  0.00     0.165 C 
BRANCH  44  45
HETATM   45  O7  UNL     1     -10.697  15.720  13.588  1.00  0.00    -0.401 OA
ATOM     46  H7  UNL     1     -10.659  14.950  14.144  1.00  0.00     0.209 HD
ENDBRANCH  44  45
ENDBRANCH  43  44
ENDBRANCH  42  43
ENDBRANCH  38  42
BRANCH  39  47
HETATM   47  N6  UNL     1     -11.129  20.239  10.563  1.00  0.00    -0.065 N 
ATOM     48  H63 UNL     1     -11.857  20.654  11.144  1.00  0.00     0.275 HD
ATOM     49  H62 UNL     1     -10.636  19.744  11.306  1.00  0.00     0.275 HD
ATOM     50  H61 UNL     1     -10.550  20.931  10.089  1.00  0.00     0.275 HD
ENDBRANCH  39  47
BRANCH  41  51
HETATM   51  O8  UNL     1     -12.098  21.395   8.521  1.00  0.00    -0.388 OA
ATOM     52  H8  UNL     1     -11.399  21.585   9.136  1.00  0.00     0.210 HD
ENDBRANCH  41  51
ENDBRANCH  34  35
ENDBRANCH   5  34
BRANCH   4  53
HETATM   53  N4  UNL     1     -16.602  20.146   6.671  1.00  0.00    -0.072 N 
ATOM     54  H43 UNL     1     -17.170  20.480   5.892  1.00  0.00     0.274 HD
ATOM     55  H42 UNL     1     -16.994  19.209   6.756  1.00  0.00     0.274 HD
ATOM     56  H41 UNL     1     -16.756  20.698   7.515  1.00  0.00     0.274 HD
ENDBRANCH   4  53
TORSDOF 17
ENDMDL
MODEL 3
REMARK VINA RESULT: -6.513131515      3.557      5.472
REMARK  17 active torsions:
REMARK  status: ('A' for Active; 'I' for Inactive)
REMARK    1  A    between atoms: C3_4  and  N1_5 
REMARK    2  A    between atoms: N1_5  and  O2_7 
REMARK    3  A    between atoms: N2_10  and  O3_12 
REMARK    4  A    between atoms: C5_14  and  O4_15 
REMARK    5  A    between atoms: O4_15  and  C6_16 
REMARK    6  A    between atoms: C7_17  and  N3_18 
REMARK    7  A    between atoms: C9_23  and  N4_24 
REMARK    8  A    between atoms: C10_28  and  O5_29 
REMARK    9  A    between atoms: O5_29  and  C11_30 
REMARK   10  A    between atoms: N5_33  and  C13_35 
REMARK   11  A    between atoms: C13_35  and  C14_36 
REMARK   12  A    between atoms: C14_36  and  C15_37 
REMARK   13  A    between atoms: C15_37  and  O7_38 
REMARK   14  A    between atoms: C16_40  and  N6_41 
REMARK   15  A    between atoms: C17_45  and  O8_46 
REMARK   16  A    between atoms: C18_48  and  O9_49 
REMARK   17  A    between atoms: C19_51  and  N7_53 
ROOT
HETATM    1  C6  UNL     1     -14.298  18.012   7.727  1.00  0.00     0.184 C 
HETATM    2  C7  UNL     1     -13.120  18.088   8.626  1.00  0.00     0.217 C 
HETATM    3  C8  UNL     1     -12.094  19.121   8.270  1.00  0.00     0.071 C 
HETATM    4  C9  UNL     1     -12.628  20.489   8.056  1.00  0.00     0.217 C 
HETATM    5  C10 UNL     1     -14.131  20.445   7.936  1.00  0.00     0.186 C 
HETATM    6  C18 UNL     1     -14.513  19.317   7.000  1.00  0.00     0.180 C 
ENDROOT
BRANCH   1   7
HETATM    7  O4  UNL     1     -14.327  16.915   6.894  1.00  0.00    -0.367 OA
BRANCH   7   8
HETATM    8  C5  UNL     1     -15.482  16.566   6.300  1.00  0.00     0.212 C 
HETATM    9  C4  UNL     1     -15.831  15.148   6.727  1.00  0.00     0.091 C 
HETATM   10  C3  UNL     1     -16.979  14.575   5.991  1.00  0.00     0.293 C 
HETATM   11  N2  UNL     1     -15.205  14.514   7.590  1.00  0.00    -0.270 N 
HETATM   12  O1  UNL     1     -16.508  14.314   4.702  1.00  0.00    -0.352 OA
HETATM   13  C2  UNL     1     -15.285  14.882   4.454  1.00  0.00     0.159 C 
HETATM   14  C1  UNL     1     -14.994  14.784   2.974  1.00  0.00     0.042 C 
HETATM   15  C19 UNL     1     -15.380  16.385   4.769  1.00  0.00     0.176 C 
HETATM   16  C20 UNL     1     -16.619  16.872   4.077  1.00  0.00     0.052 C 
ATOM     17  H2  UNL     1     -14.444  15.055   8.000  1.00  0.00     0.193 HD
BRANCH  10  18
HETATM   18  N1  UNL     1     -17.518  13.381   6.537  1.00  0.00    -0.270 N 
ATOM     19  H1  UNL     1     -17.525  12.506   6.012  1.00  0.00     0.190 HD
BRANCH  18  20
HETATM   20  O2  UNL     1     -18.014  13.464   7.770  1.00  0.00    -0.292 OA
ATOM     21  H2  UNL     1     -18.905  13.783   7.846  1.00  0.00     0.244 HD
ENDBRANCH  18  20
ENDBRANCH  10  18
BRANCH  15  22
HETATM   22  N7  UNL     1     -14.164  16.974   4.297  1.00  0.00    -0.065 N 
ATOM     23  H73 UNL     1     -14.315  17.775   3.683  1.00  0.00     0.275 HD
ATOM     24  H72 UNL     1     -13.646  17.468   5.024  1.00  0.00     0.275 HD
ATOM     25  H71 UNL     1     -13.630  16.223   3.859  1.00  0.00     0.275 HD
ENDBRANCH  15  22
BRANCH  11  26
HETATM   26  O3  UNL     1     -15.301  13.290   8.102  1.00  0.00    -0.290 OA
ATOM     27  H3  UNL     1     -15.064  12.421   7.801  1.00  0.00     0.244 HD
ENDBRANCH  11  26
ENDBRANCH   7   8
ENDBRANCH   1   7
BRANCH   2  28
HETATM   28  N3  UNL     1     -13.480  18.319  10.037  1.00  0.00    -0.072 N 
ATOM     29  H33 UNL     1     -13.020  19.155  10.397  1.00  0.00     0.274 HD
ATOM     30  H32 UNL     1     -14.453  18.613  10.120  1.00  0.00     0.274 HD
ATOM     31  H31 UNL     1     -13.292  17.515  10.636  1.00  0.00     0.274 HD
ENDBRANCH   2  28
BRANCH   6  32
HETATM   32  O9  UNL     1     -15.898  19.543   6.776  1.00  0.00    -0.390 OA
ATOM     33  H9  UNL     1     -16.027  20.306   6.226  1.00  0.00     0.210 HD
ENDBRANCH   6  32
BRANCH   5  34
HETATM   34  O5  UNL     1     -14.616  21.671   7.421  1.00  0.00    -0.348 OA
BRANCH  34  35
HETATM   35  C11 UNL     1     -15.441  22.261   8.343  1.00  0.00     0.299 C 
HETATM   36  O6  UNL     1     -14.773  22.156   9.612  1.00  0.00    -0.304 OA
HETATM   37  C12 UNL     1     -14.282  23.414   9.947  1.00  0.00     0.150 C 
HETATM   38  N5  UNL     1     -13.203  23.750  10.556  1.00  0.00    -0.372 N 
HETATM   39  C16 UNL     1     -15.311  24.349   9.432  1.00  0.00     0.290 C 
ATOM     40  H5  UNL     1     -12.566  23.017  10.867  1.00  0.00     0.161 HD
HETATM   41  C17 UNL     1     -15.681  23.714   8.115  1.00  0.00     0.212 C 
BRANCH  38  42
HETATM   42  C13 UNL     1     -12.861  25.114  10.815  1.00  0.00     0.123 C 
BRANCH  42  43
HETATM   43  C14 UNL     1     -11.523  25.131  11.543  1.00  0.00     0.045 C 
BRANCH  43  44
HETATM   44  C15 UNL     1     -10.715  23.894  11.147  1.00  0.00     0.165 C 
BRANCH  44  45
HETATM   45  O7  UNL     1     -10.981  22.871  12.047  1.00  0.00    -0.401 OA
ATOM     46  H7  UNL     1     -10.198  22.344  12.159  1.00  0.00     0.209 HD
ENDBRANCH  44  45
ENDBRANCH  43  44
ENDBRANCH  42  43
ENDBRANCH  38  42
BRANCH  39  47
HETATM   47  N6  UNL     1     -16.434  24.288  10.350  1.00  0.00    -0.065 N 
ATOM     48  H63 UNL     1     -16.410  23.470  10.958  1.00  0.00     0.275 HD
ATOM     49  H62 UNL     1     -16.392  24.996  11.083  1.00  0.00     0.275 HD
ATOM     50  H61 UNL     1     -17.282  24.344   9.786  1.00  0.00     0.275 HD
ENDBRANCH  39  47
BRANCH  41  51
HETATM   51  O8  UNL     1     -17.022  24.026   7.894  1.00  0.00    -0.388 OA
ATOM     52  H8  UNL     1     -17.618  23.333   8.154  1.00  0.00     0.210 HD
ENDBRANCH  41  51
ENDBRANCH  34  35
ENDBRANCH   5  34
BRANCH   4  53
HETATM   53  N4  UNL     1     -12.122  21.052   6.793  1.00  0.00    -0.072 N 
ATOM     54  H43 UNL     1     -11.738  20.330   6.184  1.00  0.00     0.274 HD
ATOM     55  H42 UNL     1     -12.881  21.373   6.191  1.00  0.00     0.274 HD
ATOM     56  H41 UNL     1     -11.445  21.793   6.975  1.00  0.00     0.274 HD
ENDBRANCH   4  53
TORSDOF 17
ENDMDL
MODEL 4
REMARK VINA RESULT: -6.505158512      1.492      1.983
REMARK  17 active torsions:
REMARK  status: ('A' for Active; 'I' for Inactive)
REMARK    1  A    between atoms: C3_4  and  N1_5 
REMARK    2  A    between atoms: N1_5  and  O2_7 
REMARK    3  A    between atoms: N2_10  and  O3_12 
REMARK    4  A    between atoms: C5_14  and  O4_15 
REMARK    5  A    between atoms: O4_15  and  C6_16 
REMARK    6  A    between atoms: C7_17  and  N3_18 
REMARK    7  A    between atoms: C9_23  and  N4_24 
REMARK    8  A    between atoms: C10_28  and  O5_29 
REMARK    9  A    between atoms: O5_29  and  C11_30 
REMARK   10  A    between atoms: N5_33  and  C13_35 
REMARK   11  A    between atoms: C13_35  and  C14_36 
REMARK   12  A    between atoms: C14_36  and  C15_37 
REMARK   13  A    between atoms: C15_37  and  O7_38 
REMARK   14  A    between atoms: C16_40  and  N6_41 
REMARK   15  A    between atoms: C17_45  and  O8_46 
REMARK   16  A    between atoms: C18_48  and  O9_49 
REMARK   17  A    between atoms: C19_51  and  N7_53 
ROOT
HETATM    1  C6  UNL     1     -15.375  17.770   4.165  1.00  0.00     0.184 C 
HETATM    2  C7  UNL     1     -16.620  17.822   4.971  1.00  0.00     0.217 C 
HETATM    3  C8  UNL     1     -16.619  17.004   6.226  1.00  0.00     0.071 C 
HETATM    4  C9  UNL     1     -15.457  17.226   7.120  1.00  0.00     0.217 C 
HETATM    5  C10 UNL     1     -14.383  17.997   6.392  1.00  0.00     0.186 C 
HETATM    6  C18 UNL     1     -14.190  17.386   5.020  1.00  0.00     0.180 C 
ENDROOT
BRANCH   1   7
HETATM    7  O4  UNL     1     -15.463  17.041   3.001  1.00  0.00    -0.367 OA
BRANCH   7   8
HETATM    8  C5  UNL     1     -15.188  15.724   3.023  1.00  0.00     0.212 C 
HETATM    9  C4  UNL     1     -13.906  15.488   2.239  1.00  0.00     0.091 C 
HETATM   10  C3  UNL     1     -13.599  14.057   2.025  1.00  0.00     0.293 C 
HETATM   11  N2  UNL     1     -13.192  16.400   1.796  1.00  0.00    -0.270 N 
HETATM   12  O1  UNL     1     -14.527  13.610   1.081  1.00  0.00    -0.352 OA
HETATM   13  C2  UNL     1     -15.541  14.506   0.860  1.00  0.00     0.159 C 
HETATM   14  C1  UNL     1     -16.623  13.828   0.053  1.00  0.00     0.042 C 
HETATM   15  C19 UNL     1     -16.179  14.854   2.216  1.00  0.00     0.176 C 
HETATM   16  C20 UNL     1     -16.435  13.542   2.898  1.00  0.00     0.052 C 
ATOM     17  H2  UNL     1     -13.545  17.327   2.033  1.00  0.00     0.193 HD
BRANCH  10  18
HETATM   18  N1  UNL     1     -12.290  13.779   1.553  1.00  0.00    -0.270 N 
ATOM     19  H1  UNL     1     -12.120  13.453   0.602  1.00  0.00     0.190 HD
BRANCH  18  20
HETATM   20  O2  UNL     1     -11.296  13.967   2.419  1.00  0.00    -0.292 OA
ATOM     21  H2  UNL     1     -11.057  13.221   2.956  1.00  0.00     0.244 HD
ENDBRANCH  18  20
ENDBRANCH  10  18
BRANCH  15  22
HETATM   22  N7  UNL     1     -17.356  15.613   1.926  1.00  0.00    -0.065 N 
ATOM     23  H73 UNL     1     -17.321  16.086   1.023  1.00  0.00     0.275 HD
ATOM     24  H72 UNL     1     -18.174  15.034   1.734  1.00  0.00     0.275 HD
ATOM     25  H71 UNL     1     -17.489  16.251   2.712  1.00  0.00     0.275 HD
ENDBRANCH  15  22
BRANCH  11  26
HETATM   26  O3  UNL     1     -12.071  16.444   1.081  1.00  0.00    -0.290 OA
ATOM     27  H3  UNL     1     -11.164  16.214   1.249  1.00  0.00     0.244 HD
ENDBRANCH  11  26
ENDBRANCH   7   8
ENDBRANCH   1   7
BRANCH   2  28
HETATM   28  N3  UNL     1     -17.004  19.192   5.359  1.00  0.00    -0.072 N 
ATOM     29  H33 UNL     1     -16.191  19.720   5.677  1.00  0.00     0.274 HD
ATOM     30  H32 UNL     1     -17.254  19.745   4.540  1.00  0.00     0.274 HD
ATOM     31  H31 UNL     1     -17.748  19.218   6.056  1.00  0.00     0.274 HD
ENDBRANCH   2  28
BRANCH   6  32
HETATM   32  O9  UNL     1     -13.010  18.022   4.550  1.00  0.00    -0.390 OA
ATOM     33  H9  UNL     1     -12.438  18.241   5.277  1.00  0.00     0.210 HD
ENDBRANCH   6  32
BRANCH   5  34
HETATM   34  O5  UNL     1     -13.165  17.937   7.111  1.00  0.00    -0.348 OA
BRANCH  34  35
HETATM   35  C11 UNL     1     -13.329  18.523   8.339  1.00  0.00     0.299 C 
HETATM   36  O6  UNL     1     -13.252  17.464   9.309  1.00  0.00    -0.304 OA
HETATM   37  C12 UNL     1     -12.023  17.559   9.954  1.00  0.00     0.150 C 
HETATM   38  N5  UNL     1     -11.241  16.640  10.392  1.00  0.00    -0.372 N 
HETATM   39  C16 UNL     1     -11.777  19.019  10.044  1.00  0.00     0.290 C 
ATOM     40  H5  UNL     1     -11.515  15.665  10.275  1.00  0.00     0.161 HD
HETATM   41  C17 UNL     1     -12.266  19.502   8.702  1.00  0.00     0.212 C 
BRANCH  38  42
HETATM   42  C13 UNL     1     -10.000  16.933  11.038  1.00  0.00     0.123 C 
BRANCH  42  43
HETATM   43  C14 UNL     1      -9.591  15.706  11.845  1.00  0.00     0.045 C 
BRANCH  43  44
HETATM   44  C15 UNL     1     -10.790  15.210  12.655  1.00  0.00     0.165 C 
BRANCH  44  45
HETATM   45  O7  UNL     1     -10.700  15.706  13.948  1.00  0.00    -0.401 OA
ATOM     46  H7  UNL     1     -10.923  15.016  14.563  1.00  0.00     0.209 HD
ENDBRANCH  44  45
ENDBRANCH  43  44
ENDBRANCH  42  43
ENDBRANCH  38  42
BRANCH  39  47
HETATM   47  N6  UNL     1     -12.632  19.527  11.101  1.00  0.00    -0.065 N 
ATOM     48  H63 UNL     1     -13.584  19.718  10.790  1.00  0.00     0.275 HD
ATOM     49  H62 UNL     1     -12.864  18.824  11.803  1.00  0.00     0.275 HD
ATOM     50  H61 UNL     1     -12.166  20.345  11.492  1.00  0.00     0.275 HD
ENDBRANCH  39  47
BRANCH  41  51
HETATM   51  O8  UNL     1     -12.748  20.795   8.904  1.00  0.00    -0.388 OA
ATOM     52  H8  UNL     1     -12.400  21.429   8.288  1.00  0.00     0.210 HD
ENDBRANCH  41  51
ENDBRANCH  34  35
ENDBRANCH   5  34
BRANCH   4  53
HETATM   53  N4  UNL     1     -14.854  15.943   7.518  1.00  0.00    -0.072 N 
ATOM     54  H43 UNL     1     -13.867  15.894   7.267  1.00  0.00     0.274 HD
ATOM     55  H42 UNL     1     -14.758  15.868   8.531  1.00  0.00     0.274 HD
ATOM     56  H41 UNL     1     -15.382  15.161   7.129  1.00  0.00     0.274 HD
ENDBRANCH   4  53
TORSDOF 17
ENDMDL
MODEL 5
REMARK VINA RESULT: -6.497540709      2.032      3.169
REMARK  17 active torsions:
REMARK  status: ('A' for Active; 'I' for Inactive)
REMARK    1  A    between atoms: C3_4  and  N1_5 
REMARK    2  A    between atoms: N1_5  and  O2_7 
REMARK    3  A    between atoms: N2_10  and  O3_12 
REMARK    4  A    between atoms: C5_14  and  O4_15 
REMARK    5  A    between atoms: O4_15  and  C6_16 
REMARK    6  A    between atoms: C7_17  and  N3_18 
REMARK    7  A    between atoms: C9_23  and  N4_24 
REMARK    8  A    between atoms: C10_28  and  O5_29 
REMARK    9  A    between atoms: O5_29  and  C11_30 
REMARK   10  A    between atoms: N5_33  and  C13_35 
REMARK   11  A    between atoms: C13_35  and  C14_36 
REMARK   12  A    between atoms: C14_36  and  C15_37 
REMARK   13  A    between atoms: C15_37  and  O7_38 
REMARK   14  A    between atoms: C16_40  and  N6_41 
REMARK   15  A    between atoms: C17_45  and  O8_46 
REMARK   16  A    between atoms: C18_48  and  O9_49 
REMARK   17  A    between atoms: C19_51  and  N7_53 
ROOT
HETATM    1  C6  UNL     1     -14.156  16.266   5.122  1.00  0.00     0.184 C 
HETATM    2  C7  UNL     1     -14.276  17.489   4.289  1.00  0.00     0.217 C 
HETATM    3  C8  UNL     1     -15.436  18.384   4.609  1.00  0.00     0.071 C 
HETATM    4  C9  UNL     1     -15.565  18.759   6.038  1.00  0.00     0.217 C 
HETATM    5  C10 UNL     1     -14.674  17.883   6.886  1.00  0.00     0.186 C 
HETATM    6  C18 UNL     1     -14.851  16.443   6.451  1.00  0.00     0.180 C 
ENDROOT
BRANCH   1   7
HETATM    7  O4  UNL     1     -14.492  15.092   4.486  1.00  0.00    -0.367 OA
BRANCH   7   8
HETATM    8  C5  UNL     1     -15.331  15.126   3.434  1.00  0.00     0.212 C 
HETATM    9  C4  UNL     1     -16.539  14.260   3.756  1.00  0.00     0.091 C 
HETATM   10  C3  UNL     1     -17.445  14.059   2.605  1.00  0.00     0.293 C 
HETATM   11  N2  UNL     1     -16.742  13.746   4.866  1.00  0.00    -0.270 N 
HETATM   12  O1  UNL     1     -16.770  13.193   1.741  1.00  0.00    -0.352 OA
HETATM   13  C2  UNL     1     -15.452  13.023   2.075  1.00  0.00     0.159 C 
HETATM   14  C1  UNL     1     -14.750  12.310   0.943  1.00  0.00     0.042 C 
HETATM   15  C19 UNL     1     -14.797  14.412   2.172  1.00  0.00     0.176 C 
HETATM   16  C20 UNL     1     -15.195  15.141   0.922  1.00  0.00     0.052 C 
ATOM     17  H2  UNL     1     -16.022  13.985   5.549  1.00  0.00     0.193 HD
BRANCH  10  18
HETATM   18  N1  UNL     1     -18.713  13.502   2.918  1.00  0.00    -0.270 N 
ATOM     19  H1  UNL     1     -18.963  12.550   2.650  1.00  0.00     0.190 HD
BRANCH  18  20
HETATM   20  O2  UNL     1     -19.559  14.290   3.579  1.00  0.00    -0.292 OA
ATOM     21  H2  UNL     1     -19.370  14.436   4.498  1.00  0.00     0.244 HD
ENDBRANCH  18  20
ENDBRANCH  10  18
BRANCH  15  22
HETATM   22  N7  UNL     1     -13.390  14.188   2.308  1.00  0.00    -0.065 N 
ATOM     23  H73 UNL     1     -12.906  14.940   2.798  1.00  0.00     0.275 HD
ATOM     24  H72 UNL     1     -13.161  13.442   2.964  1.00  0.00     0.275 HD
ATOM     25  H71 UNL     1     -13.032  14.022   1.367  1.00  0.00     0.275 HD
ENDBRANCH  15  22
BRANCH  11  26
HETATM   26  O3  UNL     1     -17.685  12.953   5.370  1.00  0.00    -0.290 OA
ATOM     27  H3  UNL     1     -17.701  12.061   5.695  1.00  0.00     0.244 HD
ENDBRANCH  11  26
ENDBRANCH   7   8
ENDBRANCH   1   7
BRANCH   2  28
HETATM   28  N3  UNL     1     -13.069  18.334   4.321  1.00  0.00    -0.072 N 
ATOM     29  H33 UNL     1     -12.843  18.609   5.277  1.00  0.00     0.274 HD
ATOM     30  H32 UNL     1     -12.236  17.786   4.103  1.00  0.00     0.274 HD
ATOM     31  H31 UNL     1     -13.134  19.152   3.714  1.00  0.00     0.274 HD
ENDBRANCH   2  28
BRANCH   6  32
HETATM   32  O9  UNL     1     -14.175  15.717   7.468  1.00  0.00    -0.390 OA
ATOM     33  H9  UNL     1     -14.284  16.142   8.310  1.00  0.00     0.210 HD
ENDBRANCH   6  32
BRANCH   5  34
HETATM   34  O5  UNL     1     -15.022  18.009   8.253  1.00  0.00    -0.348 OA
BRANCH  34  35
HETATM   35  C11 UNL     1     -14.127  18.836   8.878  1.00  0.00     0.299 C 
HETATM   36  O6  UNL     1     -13.767  18.189  10.112  1.00  0.00    -0.304 OA
HETATM   37  C12 UNL     1     -12.480  17.681   9.973  1.00  0.00     0.150 C 
HETATM   38  N5  UNL     1     -11.957  16.605  10.439  1.00  0.00    -0.372 N 
HETATM   39  C16 UNL     1     -11.786  18.685   9.131  1.00  0.00     0.290 C 
ATOM     40  H5  UNL     1     -12.532  15.987  11.010  1.00  0.00     0.161 HD
HETATM   41  C17 UNL     1     -12.855  19.047   8.130  1.00  0.00     0.212 C 
BRANCH  38  42
HETATM   42  C13 UNL     1     -10.597  16.243  10.188  1.00  0.00     0.123 C 
BRANCH  42  43
HETATM   43  C14 UNL     1      -9.893  16.107  11.533  1.00  0.00     0.045 C 
BRANCH  43  44
HETATM   44  C15 UNL     1     -10.729  15.219  12.455  1.00  0.00     0.165 C 
BRANCH  44  45
HETATM   45  O7  UNL     1     -10.710  15.750  13.738  1.00  0.00    -0.401 OA
ATOM     46  H7  UNL     1     -11.429  15.381  14.238  1.00  0.00     0.209 HD
ENDBRANCH  44  45
ENDBRANCH  43  44
ENDBRANCH  42  43
ENDBRANCH  38  42
BRANCH  39  47
HETATM   47  N6  UNL     1     -11.494  19.822   9.984  1.00  0.00    -0.065 N 
ATOM     48  H63 UNL     1     -11.262  20.666   9.461  1.00  0.00     0.275 HD
ATOM     49  H62 UNL     1     -12.319  20.189  10.461  1.00  0.00     0.275 HD
ATOM     50  H61 UNL     1     -10.757  19.531  10.625  1.00  0.00     0.275 HD
ENDBRANCH  39  47
BRANCH  41  51
HETATM   51  O8  UNL     1     -12.630  20.378   7.782  1.00  0.00    -0.388 OA
ATOM     52  H8  UNL     1     -11.840  20.507   7.270  1.00  0.00     0.210 HD
ENDBRANCH  41  51
ENDBRANCH  34  35
ENDBRANCH   5  34
BRANCH   4  53
HETATM   53  N4  UNL     1     -16.942  18.539   6.511  1.00  0.00    -0.072 N 
ATOM     54  H43 UNL     1     -17.573  18.306   5.744  1.00  0.00     0.274 HD
ATOM     55  H42 UNL     1     -17.025  17.674   7.045  1.00  0.00     0.274 HD
ATOM     56  H41 UNL     1     -17.273  19.345   7.042  1.00  0.00     0.274 HD
ENDBRANCH   4  53
TORSDOF 17
ENDMDL
