MODEL 1
REMARK VINA RESULT: -10.610538015      0.000      0.000
REMARK  16 active torsions:
REMARK  status: ('A' for Active; 'I' for Inactive)
REMARK    1  A    between atoms: O1_2  and  C2_3 
REMARK    2  A    between atoms: C2_3  and  C3_4 
REMARK    3  A    between atoms: C3_4  and  C4_5 
REMARK    4  A    between atoms: C4_5  and  N1_6 
REMARK    5  A    between atoms: N1_6  and  C5_8 
REMARK    6  A    between atoms: C6_11  and  N3_12 
REMARK    7  A    between atoms: N3_12  and  C7_14 
REMARK    8  A    between atoms: C7_14  and  C8_15 
REMARK    9  A    between atoms: C8_15  and  C9_16 
REMARK   10  A    between atoms: C10_17  and  C11_18 
REMARK   11  A    between atoms: C11_18  and  N4_19 
REMARK       I    between atoms: N4_19  and  C12_21 
REMARK       I    between atoms: C12_21  and  N6_25 
REMARK   12  A    between atoms: N6_25  and  C13_27 
REMARK   13  A    between atoms: C13_27  and  C14_28 
REMARK   14  A    between atoms: C14_28  and  C15_29 
REMARK   15  A    between atoms: C21_37  and  N8_38 
REMARK   16  A    between atoms: N8_38  and  C22_40 
ROOT
HETATM    1  C5  UNL     1      25.674  17.144  40.278  1.00  0.00     0.707 A 
HETATM    2  N2  UNL     1      25.641  17.615  39.036  1.00  0.00    -0.022 N 
ATOM      3  H2  UNL     1      25.739  18.622  38.903  1.00  0.00     0.203 HD
HETATM    4  C6  UNL     1      25.484  16.831  37.923  1.00  0.00     0.707 A 
HETATM    5  N7  UNL     1      25.361  15.505  38.167  1.00  0.00    -0.021 N 
ATOM      6  H7  UNL     1      25.240  14.860  37.387  1.00  0.00     0.203 HD
HETATM    7  C21 UNL     1      25.395  15.026  39.424  1.00  0.00     0.711 A 
HETATM    8  N10 UNL     1      25.551  15.833  40.488  1.00  0.00    -0.021 N 
ATOM      9  H10 UNL     1      25.574  15.451  41.434  1.00  0.00     0.203 HD
ENDROOT
BRANCH   4  10
HETATM   10  N3  UNL     1      25.509  17.345  36.787  1.00  0.00    -0.225 N 
ATOM     11  H3  UNL     1      26.369  17.139  36.279  1.00  0.00     0.177 HD
BRANCH  10  12
HETATM   12  C7  UNL     1      24.617  18.147  36.045  1.00  0.00     0.142 C 
BRANCH  12  13
HETATM   13  C8  UNL     1      23.183  17.841  36.092  1.00  0.00     0.047 C 
BRANCH  13  14
HETATM   14  C9  UNL     1      22.265  18.598  36.984  1.00  0.00    -0.024 C 
HETATM   15  C10 UNL     1      21.081  19.254  36.498  1.00  0.00     0.013 C 
BRANCH  15  16
HETATM   16  C11 UNL     1      19.902  18.586  35.986  1.00  0.00     0.106 C 
BRANCH  16  17
HETATM   17  N4  UNL     1      18.936  19.366  35.326  1.00  0.00    -0.203 N 
HETATM   18  C12 UNL     1      18.711  20.749  35.421  1.00  0.00     0.671 C 
HETATM   19  N5  UNL     1      18.952  21.586  34.431  1.00  0.00    -0.235 N 
HETATM   20  N6  UNL     1      18.170  21.235  36.636  1.00  0.00    -0.226 N 
ATOM     21  H52 UNL     1      19.342  21.236  33.556  1.00  0.00     0.174 HD
ATOM     22  H51 UNL     1      18.789  22.591  34.500  1.00  0.00     0.174 HD
ATOM     23  H6  UNL     1      18.672  21.965  37.143  1.00  0.00     0.177 HD
ATOM     24  H4  UNL     1      18.315  18.859  34.695  1.00  0.00     0.183 HD
BRANCH  20  25
HETATM   25  C13 UNL     1      16.947  20.737  37.173  1.00  0.00     0.142 C 
BRANCH  25  26
HETATM   26  C14 UNL     1      17.180  19.942  38.419  1.00  0.00     0.058 C 
BRANCH  26  27
HETATM   27  C15 UNL     1      15.945  19.169  38.682  1.00  0.00    -0.057 A 
HETATM   28  C16 UNL     1      15.902  17.912  39.235  1.00  0.00     0.007 A 
HETATM   29  C17 UNL     1      14.716  17.246  39.464  1.00  0.00     0.001 A 
HETATM   30  C18 UNL     1      13.507  17.870  39.122  1.00  0.00     0.000 A 
HETATM   31  C19 UNL     1      13.540  19.125  38.568  1.00  0.00     0.001 A 
HETATM   32  C20 UNL     1      14.738  19.763  38.352  1.00  0.00     0.007 A 
ENDBRANCH  26  27
ENDBRANCH  25  26
ENDBRANCH  20  25
ENDBRANCH  16  17
ENDBRANCH  15  16
ENDBRANCH  13  14
ENDBRANCH  12  13
ENDBRANCH  10  12
ENDBRANCH   4  10
BRANCH   1  33
HETATM   33  N1  UNL     1      25.829  17.997  41.251  1.00  0.00    -0.225 N 
ATOM     34  H1  UNL     1      26.763  18.356  41.448  1.00  0.00     0.177 HD
BRANCH  33  35
HETATM   35  C4  UNL     1      24.697  18.460  42.077  1.00  0.00     0.140 C 
BRANCH  35  36
HETATM   36  C3  UNL     1      24.295  19.831  41.687  1.00  0.00     0.046 C 
BRANCH  36  37
HETATM   37  C2  UNL     1      22.880  20.190  41.556  1.00  0.00     0.168 C 
BRANCH  37  38
HETATM   38  O1  UNL     1      21.925  19.815  42.388  1.00  0.00    -0.396 OA
HETATM   39  C1  UNL     1      21.982  19.778  43.715  1.00  0.00     0.201 C 
ENDBRANCH  37  38
ENDBRANCH  36  37
ENDBRANCH  35  36
ENDBRANCH  33  35
ENDBRANCH   1  33
BRANCH   7  40
HETATM   40  N8  UNL     1      25.279  13.740  39.557  1.00  0.00    -0.189 N 
ATOM     41  H8  UNL     1      24.746  13.400  40.358  1.00  0.00     0.184 HD
BRANCH  40  42
HETATM   42  C22 UNL     1      25.822  12.782  38.697  1.00  0.00     0.067 A 
HETATM   43  C23 UNL     1      27.145  12.410  38.840  1.00  0.00     0.075 A 
HETATM   44  C24 UNL     1      27.620  11.465  37.972  1.00  0.00     0.134 A 
HETATM   45  F1  UNL     1      28.914  11.085  38.100  1.00  0.00    -0.205 F 
HETATM   46  C25 UNL     1      26.770  10.948  37.022  1.00  0.00     0.132 A 
HETATM   47  N9  UNL     1      25.473  11.324  36.894  1.00  0.00    -0.366 N 
HETATM   48  C26 UNL     1      24.644  10.717  35.850  1.00  0.00     0.155 C 
HETATM   49  C27 UNL     1      25.004  12.244  37.737  1.00  0.00     0.120 A 
ENDBRANCH  40  42
ENDBRANCH   7  40
TORSDOF 16
ENDMDL
MODEL 2
REMARK VINA RESULT: -10.312829022      3.219      4.348
REMARK  16 active torsions:
REMARK  status: ('A' for Active; 'I' for Inactive)
REMARK    1  A    between atoms: O1_2  and  C2_3 
REMARK    2  A    between atoms: C2_3  and  C3_4 
REMARK    3  A    between atoms: C3_4  and  C4_5 
REMARK    4  A    between atoms: C4_5  and  N1_6 
REMARK    5  A    between atoms: N1_6  and  C5_8 
REMARK    6  A    between atoms: C6_11  and  N3_12 
REMARK    7  A    between atoms: N3_12  and  C7_14 
REMARK    8  A    between atoms: C7_14  and  C8_15 
REMARK    9  A    between atoms: C8_15  and  C9_16 
REMARK   10  A    between atoms: C10_17  and  C11_18 
REMARK   11  A    between atoms: C11_18  and  N4_19 
REMARK       I    between atoms: N4_19  and  C12_21 
REMARK       I    between atoms: C12_21  and  N6_25 
REMARK   12  A    between atoms: N6_25  and  C13_27 
REMARK   13  A    between atoms: C13_27  and  C14_28 
REMARK   14  A    between atoms: C14_28  and  C15_29 
REMARK   15  A    between atoms: C21_37  and  N8_38 
REMARK   16  A    between atoms: N8_38  and  C22_40 
ROOT
HETATM    1  C5  UNL     1      25.778  17.755  39.820  1.00  0.00     0.707 A 
HETATM    2  N2  UNL     1      25.191  18.724  39.127  1.00  0.00    -0.022 N 
ATOM      3  H2  UNL     1      24.864  19.546  39.635  1.00  0.00     0.203 HD
HETATM    4  C6  UNL     1      24.997  18.686  37.771  1.00  0.00     0.707 A 
HETATM    5  N7  UNL     1      25.452  17.570  37.156  1.00  0.00    -0.021 N 
ATOM      6  H7  UNL     1      25.343  17.471  36.147  1.00  0.00     0.203 HD
HETATM    7  C21 UNL     1      26.048  16.588  37.856  1.00  0.00     0.711 A 
HETATM    8  N10 UNL     1      26.218  16.666  39.188  1.00  0.00    -0.021 N 
ATOM      9  H10 UNL     1      26.672  15.912  39.702  1.00  0.00     0.203 HD
ENDROOT
BRANCH   4  10
HETATM   10  N3  UNL     1      24.476  19.658  37.186  1.00  0.00    -0.225 N 
ATOM     11  H3  UNL     1      23.996  20.292  37.824  1.00  0.00     0.177 HD
BRANCH  10  12
HETATM   12  C7  UNL     1      24.402  20.079  35.842  1.00  0.00     0.142 C 
BRANCH  12  13
HETATM   13  C8  UNL     1      23.397  21.080  35.468  1.00  0.00     0.047 C 
BRANCH  13  14
HETATM   14  C9  UNL     1      23.013  21.291  34.047  1.00  0.00    -0.024 C 
HETATM   15  C10 UNL     1      21.684  21.038  33.559  1.00  0.00     0.013 C 
BRANCH  15  16
HETATM   16  C11 UNL     1      20.504  21.801  33.906  1.00  0.00     0.106 C 
BRANCH  16  17
HETATM   17  N4  UNL     1      19.293  21.105  34.072  1.00  0.00    -0.203 N 
HETATM   18  C12 UNL     1      18.350  21.220  35.107  1.00  0.00     0.671 C 
HETATM   19  N5  UNL     1      17.147  21.728  34.929  1.00  0.00    -0.235 N 
HETATM   20  N6  UNL     1      18.724  20.730  36.381  1.00  0.00    -0.226 N 
ATOM     21  H52 UNL     1      16.878  22.082  34.010  1.00  0.00     0.174 HD
ATOM     22  H51 UNL     1      16.461  21.813  35.680  1.00  0.00     0.174 HD
ATOM     23  H6  UNL     1      18.679  21.358  37.184  1.00  0.00     0.177 HD
ATOM     24  H4  UNL     1      19.071  20.425  33.345  1.00  0.00     0.183 HD
BRANCH  20  25
HETATM   25  C13 UNL     1      19.160  19.387  36.578  1.00  0.00     0.142 C 
BRANCH  25  26
HETATM   26  C14 UNL     1      20.654  19.293  36.592  1.00  0.00     0.058 C 
BRANCH  26  27
HETATM   27  C15 UNL     1      21.013  17.959  36.061  1.00  0.00    -0.057 A 
HETATM   28  C16 UNL     1      22.173  17.281  36.348  1.00  0.00     0.007 A 
HETATM   29  C17 UNL     1      22.446  16.032  35.828  1.00  0.00     0.001 A 
HETATM   30  C18 UNL     1      21.509  15.429  34.976  1.00  0.00     0.000 A 
HETATM   31  C19 UNL     1      20.348  16.099  34.684  1.00  0.00     0.001 A 
HETATM   32  C20 UNL     1      20.105  17.342  35.217  1.00  0.00     0.007 A 
ENDBRANCH  26  27
ENDBRANCH  25  26
ENDBRANCH  20  25
ENDBRANCH  16  17
ENDBRANCH  15  16
ENDBRANCH  13  14
ENDBRANCH  12  13
ENDBRANCH  10  12
ENDBRANCH   4  10
BRANCH   1  33
HETATM   33  N1  UNL     1      25.901  17.914  41.108  1.00  0.00    -0.225 N 
ATOM     34  H1  UNL     1      26.837  17.978  41.509  1.00  0.00     0.177 HD
BRANCH  33  35
HETATM   35  C4  UNL     1      24.732  18.004  42.004  1.00  0.00     0.140 C 
BRANCH  35  36
HETATM   36  C3  UNL     1      24.426  19.418  42.320  1.00  0.00     0.046 C 
BRANCH  36  37
HETATM   37  C2  UNL     1      23.278  20.093  41.710  1.00  0.00     0.168 C 
BRANCH  37  38
HETATM   38  O1  UNL     1      22.045  20.063  42.183  1.00  0.00    -0.396 OA
HETATM   39  C1  UNL     1      21.636  19.541  43.334  1.00  0.00     0.201 C 
ENDBRANCH  37  38
ENDBRANCH  36  37
ENDBRANCH  35  36
ENDBRANCH  33  35
ENDBRANCH   1  33
BRANCH   7  40
HETATM   40  N8  UNL     1      26.462  15.561  37.179  1.00  0.00    -0.189 N 
ATOM     41  H8  UNL     1      26.376  14.645  37.620  1.00  0.00     0.184 HD
BRANCH  40  42
HETATM   42  C22 UNL     1      27.015  15.604  35.895  1.00  0.00     0.067 A 
HETATM   43  C23 UNL     1      27.677  16.742  35.477  1.00  0.00     0.075 A 
HETATM   44  C24 UNL     1      28.201  16.724  34.213  1.00  0.00     0.134 A 
HETATM   45  F1  UNL     1      28.858  17.831  33.787  1.00  0.00    -0.205 F 
HETATM   46  C25 UNL     1      28.041  15.596  33.443  1.00  0.00     0.132 A 
HETATM   47  N9  UNL     1      27.386  14.486  33.868  1.00  0.00    -0.366 N 
HETATM   48  C26 UNL     1      27.265  13.332  32.975  1.00  0.00     0.155 C 
HETATM   49  C27 UNL     1      26.875  14.497  35.099  1.00  0.00     0.120 A 
ENDBRANCH  40  42
ENDBRANCH   7  40
TORSDOF 16
ENDMDL
MODEL 3
REMARK VINA RESULT: -10.271543186      2.811      3.859
REMARK  16 active torsions:
REMARK  status: ('A' for Active; 'I' for Inactive)
REMARK    1  A    between atoms: O1_2  and  C2_3 
REMARK    2  A    between atoms: C2_3  and  C3_4 
REMARK    3  A    between atoms: C3_4  and  C4_5 
REMARK    4  A    between atoms: C4_5  and  N1_6 
REMARK    5  A    between atoms: N1_6  and  C5_8 
REMARK    6  A    between atoms: C6_11  and  N3_12 
REMARK    7  A    between atoms: N3_12  and  C7_14 
REMARK    8  A    between atoms: C7_14  and  C8_15 
REMARK    9  A    between atoms: C8_15  and  C9_16 
REMARK   10  A    between atoms: C10_17  and  C11_18 
REMARK   11  A    between atoms: C11_18  and  N4_19 
REMARK       I    between atoms: N4_19  and  C12_21 
REMARK       I    between atoms: C12_21  and  N6_25 
REMARK   12  A    between atoms: N6_25  and  C13_27 
REMARK   13  A    between atoms: C13_27  and  C14_28 
REMARK   14  A    between atoms: C14_28  and  C15_29 
REMARK   15  A    between atoms: C21_37  and  N8_38 
REMARK   16  A    between atoms: N8_38  and  C22_40 
ROOT
HETATM    1  C5  UNL     1      24.319  19.796  38.821  1.00  0.00     0.707 A 
HETATM    2  N2  UNL     1      24.155  20.584  37.764  1.00  0.00    -0.022 N 
ATOM      3  H2  UNL     1      24.023  21.582  37.927  1.00  0.00     0.203 HD
HETATM    4  C6  UNL     1      24.152  20.138  36.469  1.00  0.00     0.707 A 
HETATM    5  N7  UNL     1      24.332  18.804  36.320  1.00  0.00    -0.021 N 
ATOM      6  H7  UNL     1      24.342  18.400  35.384  1.00  0.00     0.203 HD
HETATM    7  C21 UNL     1      24.499  18.004  37.388  1.00  0.00     0.711 A 
HETATM    8  N10 UNL     1      24.495  18.486  38.644  1.00  0.00    -0.021 N 
ATOM      9  H10 UNL     1      24.623  17.863  39.442  1.00  0.00     0.203 HD
ENDROOT
BRANCH   4  10
HETATM   10  N3  UNL     1      24.037  20.949  35.528  1.00  0.00    -0.225 N 
ATOM     11  H3  UNL     1      24.604  21.787  35.657  1.00  0.00     0.177 HD
BRANCH  10  12
HETATM   12  C7  UNL     1      23.300  20.970  34.325  1.00  0.00     0.142 C 
BRANCH  12  13
HETATM   13  C8  UNL     1      22.403  22.102  34.065  1.00  0.00     0.047 C 
BRANCH  13  14
HETATM   14  C9  UNL     1      21.295  21.993  33.079  1.00  0.00    -0.024 C 
HETATM   15  C10 UNL     1      20.180  21.103  33.263  1.00  0.00     0.013 C 
BRANCH  15  16
HETATM   16  C11 UNL     1      19.156  21.241  34.277  1.00  0.00     0.106 C 
BRANCH  16  17
HETATM   17  N4  UNL     1      19.541  21.128  35.625  1.00  0.00    -0.203 N 
HETATM   18  C12 UNL     1      19.538  19.987  36.445  1.00  0.00     0.671 C 
HETATM   19  N5  UNL     1      20.641  19.409  36.877  1.00  0.00    -0.235 N 
HETATM   20  N6  UNL     1      18.277  19.475  36.836  1.00  0.00    -0.226 N 
ATOM     21  H52 UNL     1      21.549  19.778  36.594  1.00  0.00     0.174 HD
ATOM     22  H51 UNL     1      20.639  18.581  37.472  1.00  0.00     0.174 HD
ATOM     23  H6  UNL     1      18.055  18.501  36.632  1.00  0.00     0.177 HD
ATOM     24  H4  UNL     1      19.866  21.989  36.066  1.00  0.00     0.183 HD
BRANCH  20  25
HETATM   25  C13 UNL     1      17.309  20.279  37.507  1.00  0.00     0.142 C 
BRANCH  25  26
HETATM   26  C14 UNL     1      17.134  19.852  38.931  1.00  0.00     0.058 C 
BRANCH  26  27
HETATM   27  C15 UNL     1      15.885  19.060  39.000  1.00  0.00    -0.057 A 
HETATM   28  C16 UNL     1      15.797  17.761  39.437  1.00  0.00     0.007 A 
HETATM   29  C17 UNL     1      14.599  17.079  39.487  1.00  0.00     0.001 A 
HETATM   30  C18 UNL     1      13.425  17.730  39.078  1.00  0.00     0.000 A 
HETATM   31  C19 UNL     1      13.505  19.028  38.639  1.00  0.00     0.001 A 
HETATM   32  C20 UNL     1      14.713  19.681  38.601  1.00  0.00     0.007 A 
ENDBRANCH  26  27
ENDBRANCH  25  26
ENDBRANCH  20  25
ENDBRANCH  16  17
ENDBRANCH  15  16
ENDBRANCH  13  14
ENDBRANCH  12  13
ENDBRANCH  10  12
ENDBRANCH   4  10
BRANCH   1  33
HETATM   33  N1  UNL     1      24.301  20.346  40.002  1.00  0.00    -0.225 N 
ATOM     34  H1  UNL     1      25.000  21.053  40.227  1.00  0.00     0.177 HD
BRANCH  33  35
HETATM   35  C4  UNL     1      23.301  19.980  41.025  1.00  0.00     0.140 C 
BRANCH  35  36
HETATM   36  C3  UNL     1      23.966  19.618  42.297  1.00  0.00     0.046 C 
BRANCH  36  37
HETATM   37  C2  UNL     1      24.630  18.322  42.456  1.00  0.00     0.168 C 
BRANCH  37  38
HETATM   38  O1  UNL     1      25.437  17.772  41.566  1.00  0.00    -0.396 OA
HETATM   39  C1  UNL     1      25.337  16.561  41.029  1.00  0.00     0.201 C 
ENDBRANCH  37  38
ENDBRANCH  36  37
ENDBRANCH  35  36
ENDBRANCH  33  35
ENDBRANCH   1  33
BRANCH   7  40
HETATM   40  N8  UNL     1      24.676  16.742  37.146  1.00  0.00    -0.189 N 
ATOM     41  H8  UNL     1      25.519  16.307  37.522  1.00  0.00     0.184 HD
BRANCH  40  42
HETATM   42  C22 UNL     1      23.808  15.927  36.413  1.00  0.00     0.067 A 
HETATM   43  C23 UNL     1      22.524  16.362  36.150  1.00  0.00     0.075 A 
HETATM   44  C24 UNL     1      21.722  15.523  35.425  1.00  0.00     0.134 A 
HETATM   45  F1  UNL     1      20.460  15.936  35.154  1.00  0.00    -0.205 F 
HETATM   46  C25 UNL     1      22.230  14.316  35.006  1.00  0.00     0.132 A 
HETATM   47  N9  UNL     1      23.494  13.902  35.273  1.00  0.00    -0.366 N 
HETATM   48  C26 UNL     1      23.945  12.597  34.785  1.00  0.00     0.155 C 
HETATM   49  C27 UNL     1      24.281  14.715  35.978  1.00  0.00     0.120 A 
ENDBRANCH  40  42
ENDBRANCH   7  40
TORSDOF 16
ENDMDL
MODEL 4
REMARK VINA RESULT: -10.246381698      2.791      3.535
REMARK  16 active torsions:
REMARK  status: ('A' for Active; 'I' for Inactive)
REMARK    1  A    between atoms: O1_2  and  C2_3 
REMARK    2  A    between atoms: C2_3  and  C3_4 
REMARK    3  A    between atoms: C3_4  and  C4_5 
REMARK    4  A    between atoms: C4_5  and  N1_6 
REMARK    5  A    between atoms: N1_6  and  C5_8 
REMARK    6  A    between atoms: C6_11  and  N3_12 
REMARK    7  A    between atoms: N3_12  and  C7_14 
REMARK    8  A    between atoms: C7_14  and  C8_15 
REMARK    9  A    between atoms: C8_15  and  C9_16 
REMARK   10  A    between atoms: C10_17  and  C11_18 
REMARK   11  A    between atoms: C11_18  and  N4_19 
REMARK       I    between atoms: N4_19  and  C12_21 
REMARK       I    between atoms: C12_21  and  N6_25 
REMARK   12  A    between atoms: N6_25  and  C13_27 
REMARK   13  A    between atoms: C13_27  and  C14_28 
REMARK   14  A    between atoms: C14_28  and  C15_29 
REMARK   15  A    between atoms: C21_37  and  N8_38 
REMARK   16  A    between atoms: N8_38  and  C22_40 
ROOT
HETATM    1  C5  UNL     1      25.073  18.149  38.014  1.00  0.00     0.707 A 
HETATM    2  N2  UNL     1      24.293  18.790  37.150  1.00  0.00    -0.022 N 
ATOM      3  H2  UNL     1      23.445  19.231  37.505  1.00  0.00     0.203 HD
HETATM    4  C6  UNL     1      24.559  18.894  35.809  1.00  0.00     0.707 A 
HETATM    5  N7  UNL     1      25.699  18.288  35.401  1.00  0.00    -0.021 N 
ATOM      6  H7  UNL     1      25.962  18.324  34.416  1.00  0.00     0.203 HD
HETATM    7  C21 UNL     1      26.490  17.640  36.274  1.00  0.00     0.711 A 
HETATM    8  N10 UNL     1      26.190  17.562  37.583  1.00  0.00    -0.021 N 
ATOM      9  H10 UNL     1      26.802  17.066  38.230  1.00  0.00     0.203 HD
ENDROOT
BRANCH   4  10
HETATM   10  N3  UNL     1      23.800  19.552  35.070  1.00  0.00    -0.225 N 
ATOM     11  H3  UNL     1      23.396  18.991  34.319  1.00  0.00     0.177 HD
BRANCH  10  12
HETATM   12  C7  UNL     1      23.372  20.896  35.036  1.00  0.00     0.142 C 
BRANCH  12  13
HETATM   13  C8  UNL     1      22.955  21.473  33.753  1.00  0.00     0.047 C 
BRANCH  13  14
HETATM   14  C9  UNL     1      21.738  22.321  33.651  1.00  0.00    -0.024 C 
HETATM   15  C10 UNL     1      20.453  21.787  33.286  1.00  0.00     0.013 C 
BRANCH  15  16
HETATM   16  C11 UNL     1      19.659  20.886  34.094  1.00  0.00     0.106 C 
BRANCH  16  17
HETATM   17  N4  UNL     1      19.817  20.937  35.490  1.00  0.00    -0.203 N 
HETATM   18  C12 UNL     1      19.676  19.901  36.428  1.00  0.00     0.671 C 
HETATM   19  N5  UNL     1      20.692  19.396  37.100  1.00  0.00    -0.235 N 
HETATM   20  N6  UNL     1      18.367  19.418  36.666  1.00  0.00    -0.226 N 
ATOM     21  H52 UNL     1      21.635  19.744  36.928  1.00  0.00     0.174 HD
ATOM     22  H51 UNL     1      20.590  18.643  37.781  1.00  0.00     0.174 HD
ATOM     23  H6  UNL     1      18.178  18.423  36.546  1.00  0.00     0.177 HD
ATOM     24  H4  UNL     1      20.068  21.849  35.873  1.00  0.00     0.183 HD
BRANCH  20  25
HETATM   25  C13 UNL     1      17.304  20.279  37.070  1.00  0.00     0.142 C 
BRANCH  25  26
HETATM   26  C14 UNL     1      17.067  20.201  38.545  1.00  0.00     0.058 C 
BRANCH  26  27
HETATM   27  C15 UNL     1      15.897  19.319  38.755  1.00  0.00    -0.057 A 
HETATM   28  C16 UNL     1      15.952  18.036  39.243  1.00  0.00     0.007 A 
HETATM   29  C17 UNL     1      14.822  17.267  39.425  1.00  0.00     0.001 A 
HETATM   30  C18 UNL     1      13.568  17.808  39.102  1.00  0.00     0.000 A 
HETATM   31  C19 UNL     1      13.504  19.089  38.614  1.00  0.00     0.001 A 
HETATM   32  C20 UNL     1      14.648  19.831  38.443  1.00  0.00     0.007 A 
ENDBRANCH  26  27
ENDBRANCH  25  26
ENDBRANCH  20  25
ENDBRANCH  16  17
ENDBRANCH  15  16
ENDBRANCH  13  14
ENDBRANCH  12  13
ENDBRANCH  10  12
ENDBRANCH   4  10
BRANCH   1  33
HETATM   33  N1  UNL     1      24.706  18.124  39.264  1.00  0.00    -0.225 N 
ATOM     34  H1  UNL     1      23.907  18.686  39.555  1.00  0.00     0.177 HD
BRANCH  33  35
HETATM   35  C4  UNL     1      25.409  17.307  40.273  1.00  0.00     0.140 C 
BRANCH  35  36
HETATM   36  C3  UNL     1      25.033  17.731  41.640  1.00  0.00     0.046 C 
BRANCH  36  37
HETATM   37  C2  UNL     1      24.616  19.109  41.911  1.00  0.00     0.168 C 
BRANCH  37  38
HETATM   38  O1  UNL     1      24.550  19.657  43.112  1.00  0.00    -0.396 OA
HETATM   39  C1  UNL     1      23.467  19.817  43.865  1.00  0.00     0.201 C 
ENDBRANCH  37  38
ENDBRANCH  36  37
ENDBRANCH  35  36
ENDBRANCH  33  35
ENDBRANCH   1  33
BRANCH   7  40
HETATM   40  N8  UNL     1      27.567  17.100  35.792  1.00  0.00    -0.189 N 
ATOM     41  H8  UNL     1      28.460  17.440  36.147  1.00  0.00     0.184 HD
BRANCH  40  42
HETATM   42  C22 UNL     1      27.606  16.089  34.826  1.00  0.00     0.067 A 
HETATM   43  C23 UNL     1      28.351  16.274  33.677  1.00  0.00     0.075 A 
HETATM   44  C24 UNL     1      28.354  15.249  32.771  1.00  0.00     0.134 A 
HETATM   45  F1  UNL     1      29.084  15.411  31.640  1.00  0.00    -0.205 F 
HETATM   46  C25 UNL     1      27.629  14.114  33.047  1.00  0.00     0.132 A 
HETATM   47  N9  UNL     1      26.901  13.948  34.181  1.00  0.00    -0.366 N 
HETATM   48  C26 UNL     1      26.159  12.703  34.387  1.00  0.00     0.155 C 
HETATM   49  C27 UNL     1      26.894  14.943  35.068  1.00  0.00     0.120 A 
ENDBRANCH  40  42
ENDBRANCH   7  40
TORSDOF 16
ENDMDL
MODEL 5
REMARK VINA RESULT: -10.191213993      2.518      4.270
REMARK  16 active torsions:
REMARK  status: ('A' for Active; 'I' for Inactive)
REMARK    1  A    between atoms: O1_2  and  C2_3 
REMARK    2  A    between atoms: C2_3  and  C3_4 
REMARK    3  A    between atoms: C3_4  and  C4_5 
REMARK    4  A    between atoms: C4_5  and  N1_6 
REMARK    5  A    between atoms: N1_6  and  C5_8 
REMARK    6  A    between atoms: C6_11  and  N3_12 
REMARK    7  A    between atoms: N3_12  and  C7_14 
REMARK    8  A    between atoms: C7_14  and  C8_15 
REMARK    9  A    between atoms: C8_15  and  C9_16 
REMARK   10  A    between atoms: C10_17  and  C11_18 
REMARK   11  A    between atoms: C11_18  and  N4_19 
REMARK       I    between atoms: N4_19  and  C12_21 
REMARK       I    between atoms: C12_21  and  N6_25 
REMARK   12  A    between atoms: N6_25  and  C13_27 
REMARK   13  A    between atoms: C13_27  and  C14_28 
REMARK   14  A    between atoms: C14_28  and  C15_29 
REMARK   15  A    between atoms: C21_37  and  N8_38 
REMARK   16  A    between atoms: N8_38  and  C22_40 
ROOT
HETATM    1  C5  UNL     1      25.545  17.002  39.863  1.00  0.00     0.707 A 
HETATM    2  N2  UNL     1      25.297  17.353  38.606  1.00  0.00    -0.022 N 
ATOM      3  H2  UNL     1      25.262  18.348  38.384  1.00  0.00     0.203 HD
HETATM    4  C6  UNL     1      25.085  16.460  37.588  1.00  0.00     0.707 A 
HETATM    5  N7  UNL     1      25.145  15.156  37.947  1.00  0.00    -0.021 N 
ATOM      6  H7  UNL     1      24.997  14.434  37.242  1.00  0.00     0.203 HD
HETATM    7  C21 UNL     1      25.396  14.798  39.219  1.00  0.00     0.711 A 
HETATM    8  N10 UNL     1      25.598  15.710  40.187  1.00  0.00    -0.021 N 
ATOM      9  H10 UNL     1      25.788  15.419  41.146  1.00  0.00     0.203 HD
ENDROOT
BRANCH   4  10
HETATM   10  N3  UNL     1      24.903  16.869  36.424  1.00  0.00    -0.225 N 
ATOM     11  H3  UNL     1      25.725  17.329  36.034  1.00  0.00     0.177 HD
BRANCH  10  12
HETATM   12  C7  UNL     1      23.817  16.840  35.524  1.00  0.00     0.142 C 
BRANCH  12  13
HETATM   13  C8  UNL     1      22.454  16.749  36.061  1.00  0.00     0.047 C 
BRANCH  13  14
HETATM   14  C9  UNL     1      21.345  16.181  35.250  1.00  0.00    -0.024 C 
HETATM   15  C10 UNL     1      20.043  16.787  35.188  1.00  0.00     0.013 C 
BRANCH  15  16
HETATM   16  C11 UNL     1      19.738  18.059  34.566  1.00  0.00     0.106 C 
BRANCH  16  17
HETATM   17  N4  UNL     1      19.383  19.134  35.400  1.00  0.00    -0.203 N 
HETATM   18  C12 UNL     1      18.579  20.246  35.103  1.00  0.00     0.671 C 
HETATM   19  N5  UNL     1      17.390  20.437  35.638  1.00  0.00    -0.235 N 
HETATM   20  N6  UNL     1      19.109  21.208  34.210  1.00  0.00    -0.226 N 
ATOM     21  H52 UNL     1      17.007  19.744  36.281  1.00  0.00     0.174 HD
ATOM     22  H51 UNL     1      16.805  21.245  35.422  1.00  0.00     0.174 HD
ATOM     23  H6  UNL     1      18.579  21.450  33.372  1.00  0.00     0.177 HD
ATOM     24  H4  UNL     1      19.761  19.102  36.348  1.00  0.00     0.183 HD
BRANCH  20  25
HETATM   25  C13 UNL     1      20.362  21.849  34.443  1.00  0.00     0.142 C 
BRANCH  25  26
HETATM   26  C14 UNL     1      21.448  21.249  33.606  1.00  0.00     0.058 C 
BRANCH  26  27
HETATM   27  C15 UNL     1      22.594  20.981  34.505  1.00  0.00    -0.057 A 
HETATM   28  C16 UNL     1      23.915  21.169  34.178  1.00  0.00     0.007 A 
HETATM   29  C17 UNL     1      24.939  20.909  35.064  1.00  0.00     0.001 A 
HETATM   30  C18 UNL     1      24.626  20.435  36.348  1.00  0.00     0.000 A 
HETATM   31  C19 UNL     1      23.309  20.244  36.682  1.00  0.00     0.001 A 
HETATM   32  C20 UNL     1      22.311  20.513  35.777  1.00  0.00     0.007 A 
ENDBRANCH  26  27
ENDBRANCH  25  26
ENDBRANCH  20  25
ENDBRANCH  16  17
ENDBRANCH  15  16
ENDBRANCH  13  14
ENDBRANCH  12  13
ENDBRANCH  10  12
ENDBRANCH   4  10
BRANCH   1  33
HETATM   33  N1  UNL     1      25.728  17.951  40.736  1.00  0.00    -0.225 N 
ATOM     34  H1  UNL     1      26.475  18.628  40.580  1.00  0.00     0.177 HD
BRANCH  33  35
HETATM   35  C4  UNL     1      24.892  18.078  41.946  1.00  0.00     0.140 C 
BRANCH  35  36
HETATM   36  C3  UNL     1      24.467  19.483  42.140  1.00  0.00     0.046 C 
BRANCH  36  37
HETATM   37  C2  UNL     1      23.241  19.989  41.517  1.00  0.00     0.168 C 
BRANCH  37  38
HETATM   38  O1  UNL     1      22.071  20.089  42.123  1.00  0.00    -0.396 OA
HETATM   39  C1  UNL     1      21.730  19.585  43.304  1.00  0.00     0.201 C 
ENDBRANCH  37  38
ENDBRANCH  36  37
ENDBRANCH  35  36
ENDBRANCH  33  35
ENDBRANCH   1  33
BRANCH   7  40
HETATM   40  N8  UNL     1      25.445  13.525  39.465  1.00  0.00    -0.189 N 
ATOM     41  H8  UNL     1      25.077  13.208  40.362  1.00  0.00     0.184 HD
BRANCH  40  42
HETATM   42  C22 UNL     1      25.957  12.550  38.603  1.00  0.00     0.067 A 
HETATM   43  C23 UNL     1      27.296  12.213  38.676  1.00  0.00     0.075 A 
HETATM   44  C24 UNL     1      27.739  11.250  37.811  1.00  0.00     0.134 A 
HETATM   45  F1  UNL     1      29.048  10.904  37.871  1.00  0.00    -0.205 F 
HETATM   46  C25 UNL     1      26.845  10.682  36.933  1.00  0.00     0.132 A 
HETATM   47  N9  UNL     1      25.533  11.026  36.873  1.00  0.00    -0.366 N 
HETATM   48  C26 UNL     1      24.658  10.365  35.903  1.00  0.00     0.155 C 
HETATM   49  C27 UNL     1      25.095  11.962  37.714  1.00  0.00     0.120 A 
ENDBRANCH  40  42
ENDBRANCH   7  40
TORSDOF 16
ENDMDL
