MODEL 1
REMARK VINA RESULT: -8.997731074      0.000      0.000
REMARK  16 active torsions:
REMARK  status: ('A' for Active; 'I' for Inactive)
REMARK    1  A    between atoms: C2_2  and  C3_3 
REMARK    2  A    between atoms: C4_4  and  N1_5 
REMARK    3  A    between atoms: C4_4  and  C13_23 
REMARK       I    between atoms: N1_5  and  C5_7 
REMARK    4  A    between atoms: C5_7  and  C6_9 
REMARK    5  A    between atoms: C6_9  and  C7_10 
REMARK    6  A    between atoms: C6_9  and  N2_15 
REMARK    7  A    between atoms: C7_10  and  C8_11 
REMARK    8  A    between atoms: N2_15  and  C12_17 
REMARK    9  A    between atoms: N3_18  and  N4_20 
REMARK       I    between atoms: C13_23  and  N5_25 
REMARK   10  A    between atoms: N5_25  and  C14_27 
REMARK   11  A    between atoms: C16_29  and  C17_30 
REMARK   12  A    between atoms: C17_30  and  C18_31 
REMARK   13  A    between atoms: C18_31  and  C19_32 
REMARK   14  A    between atoms: C19_32  and  C20_33 
REMARK   15  A    between atoms: C23_37  and  C24_38 
REMARK       I    between atoms: C24_38  and  N6_40 
REMARK   16  A    between atoms: N6_40  and  C25_42 
ROOT
HETATM    1  C25 UNL     1      23.257  19.789  41.231  1.00  0.00     0.247 C 
HETATM    2  C26 UNL     1      23.930  20.182  42.460  1.00  0.00     0.078 C 
HETATM    3  N7  UNL     1      24.455  20.493  43.444  1.00  0.00    -0.196 NA
ENDROOT
BRANCH   1   4
HETATM    4  N6  UNL     1      24.142  19.958  40.080  1.00  0.00    -0.348 N 
HETATM    5  C24 UNL     1      23.683  19.792  38.765  1.00  0.00     0.228 C 
HETATM    6  O3  UNL     1      22.435  19.480  38.670  1.00  0.00    -0.273 OA
ATOM      7  H6  UNL     1      25.120  20.202  40.237  1.00  0.00     0.163 HD
BRANCH   5   8
HETATM    8  C23 UNL     1      24.519  19.948  37.573  1.00  0.00     0.124 A 
HETATM    9  C14 UNL     1      24.910  18.785  36.807  1.00  0.00     0.106 A 
HETATM   10  C15 UNL     1      24.559  19.062  35.356  1.00  0.00     0.073 A 
HETATM   11  C16 UNL     1      23.841  20.351  35.386  1.00  0.00    -0.018 A 
HETATM   12  C22 UNL     1      23.824  20.852  36.643  1.00  0.00     0.005 A 
BRANCH   9  13
HETATM   13  N5  UNL     1      24.456  17.461  37.152  1.00  0.00    -0.350 N 
HETATM   14  C13 UNL     1      25.367  16.476  37.554  1.00  0.00     0.268 C 
HETATM   15  O2  UNL     1      26.596  16.837  37.646  1.00  0.00    -0.266 OA
ATOM     16  H5  UNL     1      23.462  17.240  37.102  1.00  0.00     0.163 HD
BRANCH  14  17
HETATM   17  C4  UNL     1      25.067  15.081  37.861  1.00  0.00     0.099 C 
HETATM   18  C3  UNL     1      25.326  14.511  39.164  1.00  0.00     0.008 C 
BRANCH  18  19
HETATM   19  C2  UNL     1      26.605  13.859  39.514  1.00  0.00     0.025 C 
HETATM   20  C1  UNL     1      26.668  12.389  39.198  1.00  0.00     0.009 C 
ENDBRANCH  18  19
BRANCH  17  21
HETATM   21  N1  UNL     1      25.192  14.212  36.742  1.00  0.00    -0.321 N 
HETATM   22  C5  UNL     1      24.224  14.005  35.745  1.00  0.00     0.245 C 
HETATM   23  O1  UNL     1      23.140  14.606  35.789  1.00  0.00    -0.271 OA
ATOM     24  H1  UNL     1      26.065  13.690  36.656  1.00  0.00     0.169 HD
BRANCH  22  25
HETATM   25  C6  UNL     1      24.504  13.057  34.615  1.00  0.00     0.175 C 
BRANCH  25  26
HETATM   26  C7  UNL     1      25.852  12.454  34.729  1.00  0.00     0.043 C 
BRANCH  26  27
HETATM   27  C8  UNL     1      26.765  12.488  33.578  1.00  0.00    -0.049 C 
HETATM   28  C9  UNL     1      26.299  11.958  32.273  1.00  0.00     0.014 C 
HETATM   29  C10 UNL     1      27.382  13.860  33.353  1.00  0.00     0.014 C 
HETATM   30  C11 UNL     1      27.977  11.599  33.976  1.00  0.00     0.014 C 
ENDBRANCH  26  27
ENDBRANCH  25  26
BRANCH  25  31
HETATM   31  N2  UNL     1      23.511  11.960  34.684  1.00  0.00    -0.372 N 
ATOM     32  H2  UNL     1      23.321  11.531  35.590  1.00  0.00     0.161 HD
BRANCH  31  33
HETATM   33  C12 UNL     1      22.815  11.483  33.556  1.00  0.00     0.193 C 
HETATM   34  N3  UNL     1      23.028  10.354  33.003  1.00  0.00    -0.303 N 
ATOM     35  H3  UNL     1      22.475  10.092  32.187  1.00  0.00     0.187 HD
BRANCH  34  36
HETATM   36  N4  UNL     1      23.990   9.467  33.477  1.00  0.00    -0.344 N 
ATOM     37  H42 UNL     1      23.790   8.962  34.341  1.00  0.00     0.176 HD
ATOM     38  H41 UNL     1      24.874   9.315  32.991  1.00  0.00     0.176 HD
ENDBRANCH  34  36
ENDBRANCH  31  33
ENDBRANCH  25  31
ENDBRANCH  22  25
ENDBRANCH  17  21
ENDBRANCH  14  17
ENDBRANCH   9  13
BRANCH  11  39
HETATM   39  C17 UNL     1      23.250  21.074  34.326  1.00  0.00    -0.149 C 
BRANCH  39  40
HETATM   40  C18 UNL     1      22.732  21.708  33.399  1.00  0.00     0.087 C 
BRANCH  40  41
HETATM   41  C19 UNL     1      21.196  21.749  33.289  1.00  0.00     0.031 C 
BRANCH  41  42
HETATM   42  C20 UNL     1      20.672  20.776  34.296  1.00  0.00     0.079 C 
HETATM   43  C21 UNL     1      20.314  19.480  33.628  1.00  0.00     0.026 C 
HETATM   44 CL1  UNL     1      19.167  21.389  35.063  1.00  0.00    -0.125 Cl
ENDBRANCH  41  42
ENDBRANCH  40  41
ENDBRANCH  39  40
ENDBRANCH  11  39
ENDBRANCH   5   8
ENDBRANCH   1   4
TORSDOF 16
ENDMDL
MODEL 2
REMARK VINA RESULT: -8.836273544      3.423      7.935
REMARK  16 active torsions:
REMARK  status: ('A' for Active; 'I' for Inactive)
REMARK    1  A    between atoms: C2_2  and  C3_3 
REMARK    2  A    between atoms: C4_4  and  N1_5 
REMARK    3  A    between atoms: C4_4  and  C13_23 
REMARK       I    between atoms: N1_5  and  C5_7 
REMARK    4  A    between atoms: C5_7  and  C6_9 
REMARK    5  A    between atoms: C6_9  and  C7_10 
REMARK    6  A    between atoms: C6_9  and  N2_15 
REMARK    7  A    between atoms: C7_10  and  C8_11 
REMARK    8  A    between atoms: N2_15  and  C12_17 
REMARK    9  A    between atoms: N3_18  and  N4_20 
REMARK       I    between atoms: C13_23  and  N5_25 
REMARK   10  A    between atoms: N5_25  and  C14_27 
REMARK   11  A    between atoms: C16_29  and  C17_30 
REMARK   12  A    between atoms: C17_30  and  C18_31 
REMARK   13  A    between atoms: C18_31  and  C19_32 
REMARK   14  A    between atoms: C19_32  and  C20_33 
REMARK   15  A    between atoms: C23_37  and  C24_38 
REMARK       I    between atoms: C24_38  and  N6_40 
REMARK   16  A    between atoms: N6_40  and  C25_42 
ROOT
HETATM    1  C25 UNL     1      28.300  17.652  34.065  1.00  0.00     0.247 C 
HETATM    2  C26 UNL     1      28.683  19.028  34.345  1.00  0.00     0.078 C 
HETATM    3  N7  UNL     1      28.989  20.124  34.556  1.00  0.00    -0.196 NA
ENDROOT
BRANCH   1   4
HETATM    4  N6  UNL     1      28.293  16.857  35.291  1.00  0.00    -0.348 N 
HETATM    5  C24 UNL     1      27.110  16.602  36.000  1.00  0.00     0.228 C 
HETATM    6  O3  UNL     1      26.053  17.127  35.481  1.00  0.00    -0.273 OA
ATOM      7  H6  UNL     1      29.173  16.477  35.642  1.00  0.00     0.163 HD
BRANCH   5   8
HETATM    8  C23 UNL     1      27.039  15.813  37.231  1.00  0.00     0.124 A 
HETATM    9  C14 UNL     1      26.179  16.238  38.313  1.00  0.00     0.106 A 
HETATM   10  C15 UNL     1      25.322  15.048  38.703  1.00  0.00     0.073 A 
HETATM   11  C16 UNL     1      25.648  14.011  37.705  1.00  0.00    -0.018 A 
HETATM   12  C22 UNL     1      26.625  14.446  36.875  1.00  0.00     0.005 A 
BRANCH   9  13
HETATM   13  N5  UNL     1      25.337  17.403  38.202  1.00  0.00    -0.350 N 
HETATM   14  C13 UNL     1      25.118  18.235  39.308  1.00  0.00     0.268 C 
HETATM   15  O2  UNL     1      25.746  17.930  40.385  1.00  0.00    -0.266 OA
ATOM     16  H5  UNL     1      24.896  17.623  37.309  1.00  0.00     0.163 HD
BRANCH  14  17
HETATM   17  C4  UNL     1      24.239  19.398  39.365  1.00  0.00     0.099 C 
HETATM   18  C3  UNL     1      24.102  20.196  40.563  1.00  0.00     0.008 C 
BRANCH  18  19
HETATM   19  C2  UNL     1      23.083  19.919  41.597  1.00  0.00     0.025 C 
HETATM   20  C1  UNL     1      23.622  19.816  42.998  1.00  0.00     0.009 C 
ENDBRANCH  18  19
BRANCH  17  21
HETATM   21  N1  UNL     1      23.092  19.288  38.531  1.00  0.00    -0.321 N 
HETATM   22  C5  UNL     1      22.939  19.865  37.259  1.00  0.00     0.245 C 
HETATM   23  O1  UNL     1      23.851  20.544  36.764  1.00  0.00    -0.271 OA
ATOM     24  H1  UNL     1      22.310  18.740  38.889  1.00  0.00     0.169 HD
BRANCH  22  25
HETATM   25  C6  UNL     1      21.666  19.653  36.490  1.00  0.00     0.175 C 
BRANCH  25  26
HETATM   26  C7  UNL     1      21.788  20.128  35.093  1.00  0.00     0.043 C 
BRANCH  26  27
HETATM   27  C8  UNL     1      20.661  20.831  34.461  1.00  0.00    -0.049 C 
HETATM   28  C9  UNL     1      19.453  21.128  35.270  1.00  0.00     0.014 C 
HETATM   29  C10 UNL     1      21.087  22.100  33.739  1.00  0.00     0.014 C 
HETATM   30  C11 UNL     1      20.173  19.900  33.315  1.00  0.00     0.014 C 
ENDBRANCH  26  27
ENDBRANCH  25  26
BRANCH  25  31
HETATM   31  N2  UNL     1      21.394  18.198  36.451  1.00  0.00    -0.372 N 
ATOM     32  H2  UNL     1      20.882  17.777  37.227  1.00  0.00     0.161 HD
BRANCH  31  33
HETATM   33  C12 UNL     1      21.809  17.368  35.391  1.00  0.00     0.193 C 
HETATM   34  N3  UNL     1      21.038  16.581  34.749  1.00  0.00    -0.303 N 
ATOM     35  H3  UNL     1      21.429  16.015  33.995  1.00  0.00     0.187 HD
BRANCH  34  36
HETATM   36  N4  UNL     1      19.683  16.469  35.043  1.00  0.00    -0.344 N 
ATOM     37  H42 UNL     1      19.145  17.329  35.153  1.00  0.00     0.176 HD
ATOM     38  H41 UNL     1      19.224  15.564  35.150  1.00  0.00     0.176 HD
ENDBRANCH  34  36
ENDBRANCH  31  33
ENDBRANCH  25  31
ENDBRANCH  22  25
ENDBRANCH  17  21
ENDBRANCH  14  17
ENDBRANCH   9  13
BRANCH  11  39
HETATM   39  C17 UNL     1      25.120  12.709  37.556  1.00  0.00    -0.149 C 
BRANCH  39  40
HETATM   40  C18 UNL     1      24.657  11.570  37.426  1.00  0.00     0.087 C 
BRANCH  40  41
HETATM   41  C19 UNL     1      24.921  10.801  36.118  1.00  0.00     0.031 C 
BRANCH  41  42
HETATM   42  C20 UNL     1      24.425  11.670  35.007  1.00  0.00     0.079 C 
HETATM   43  C21 UNL     1      23.562  10.874  34.072  1.00  0.00     0.026 C 
HETATM   44 CL1  UNL     1      25.789  12.308  34.027  1.00  0.00    -0.125 Cl
ENDBRANCH  41  42
ENDBRANCH  40  41
ENDBRANCH  39  40
ENDBRANCH  11  39
ENDBRANCH   5   8
ENDBRANCH   1   4
TORSDOF 16
ENDMDL
MODEL 3
REMARK VINA RESULT: -8.809418838      3.429      8.127
REMARK  16 active torsions:
REMARK  status: ('A' for Active; 'I' for Inactive)
REMARK    1  A    between atoms: C2_2  and  C3_3 
REMARK    2  A    between atoms: C4_4  and  N1_5 
REMARK    3  A    between atoms: C4_4  and  C13_23 
REMARK       I    between atoms: N1_5  and  C5_7 
REMARK    4  A    between atoms: C5_7  and  C6_9 
REMARK    5  A    between atoms: C6_9  and  C7_10 
REMARK    6  A    between atoms: C6_9  and  N2_15 
REMARK    7  A    between atoms: C7_10  and  C8_11 
REMARK    8  A    between atoms: N2_15  and  C12_17 
REMARK    9  A    between atoms: N3_18  and  N4_20 
REMARK       I    between atoms: C13_23  and  N5_25 
REMARK   10  A    between atoms: N5_25  and  C14_27 
REMARK   11  A    between atoms: C16_29  and  C17_30 
REMARK   12  A    between atoms: C17_30  and  C18_31 
REMARK   13  A    between atoms: C18_31  and  C19_32 
REMARK   14  A    between atoms: C19_32  and  C20_33 
REMARK   15  A    between atoms: C23_37  and  C24_38 
REMARK       I    between atoms: C24_38  and  N6_40 
REMARK   16  A    between atoms: N6_40  and  C25_42 
ROOT
HETATM    1  C25 UNL     1      27.598  16.908  34.140  1.00  0.00     0.247 C 
HETATM    2  C26 UNL     1      28.426  16.242  33.146  1.00  0.00     0.078 C 
HETATM    3  N7  UNL     1      29.083  15.721  32.347  1.00  0.00    -0.196 NA
ENDROOT
BRANCH   1   4
HETATM    4  N6  UNL     1      27.255  15.992  35.225  1.00  0.00    -0.348 N 
HETATM    5  C24 UNL     1      27.327  16.381  36.571  1.00  0.00     0.228 C 
HETATM    6  O3  UNL     1      27.721  17.595  36.755  1.00  0.00    -0.273 OA
ATOM      7  H6  UNL     1      26.954  15.044  34.999  1.00  0.00     0.163 HD
BRANCH   5   8
HETATM    8  C23 UNL     1      26.996  15.511  37.701  1.00  0.00     0.124 A 
HETATM    9  C14 UNL     1      25.929  15.875  38.606  1.00  0.00     0.106 A 
HETATM   10  C15 UNL     1      25.006  14.676  38.722  1.00  0.00     0.073 A 
HETATM   11  C16 UNL     1      25.532  13.705  37.743  1.00  0.00    -0.018 A 
HETATM   12  C22 UNL     1      26.663  14.179  37.169  1.00  0.00     0.005 A 
BRANCH   9  13
HETATM   13  N5  UNL     1      25.132  17.059  38.403  1.00  0.00    -0.350 N 
HETATM   14  C13 UNL     1      25.078  18.060  39.383  1.00  0.00     0.268 C 
HETATM   15  O2  UNL     1      25.809  17.882  40.423  1.00  0.00    -0.266 OA
ATOM     16  H5  UNL     1      24.604  17.170  37.539  1.00  0.00     0.163 HD
BRANCH  14  17
HETATM   17  C4  UNL     1      24.264  19.270  39.350  1.00  0.00     0.099 C 
HETATM   18  C3  UNL     1      24.154  20.150  40.493  1.00  0.00     0.008 C 
BRANCH  18  19
HETATM   19  C2  UNL     1      23.107  19.997  41.524  1.00  0.00     0.025 C 
HETATM   20  C1  UNL     1      23.623  19.663  42.898  1.00  0.00     0.009 C 
ENDBRANCH  18  19
BRANCH  17  21
HETATM   21  N1  UNL     1      23.125  19.169  38.505  1.00  0.00    -0.321 N 
HETATM   22  C5  UNL     1      22.939  19.843  37.286  1.00  0.00     0.245 C 
HETATM   23  O1  UNL     1      23.811  20.611  36.854  1.00  0.00    -0.271 OA
ATOM     24  H1  UNL     1      22.373  18.550  38.812  1.00  0.00     0.169 HD
BRANCH  22  25
HETATM   25  C6  UNL     1      21.679  19.628  36.496  1.00  0.00     0.175 C 
BRANCH  25  26
HETATM   26  C7  UNL     1      21.826  20.094  35.099  1.00  0.00     0.043 C 
BRANCH  26  27
HETATM   27  C8  UNL     1      20.728  20.835  34.459  1.00  0.00    -0.049 C 
HETATM   28  C9  UNL     1      19.518  21.158  35.254  1.00  0.00     0.014 C 
HETATM   29  C10 UNL     1      21.199  22.099  33.756  1.00  0.00     0.014 C 
HETATM   30  C11 UNL     1      20.231  19.930  33.297  1.00  0.00     0.014 C 
ENDBRANCH  26  27
ENDBRANCH  25  26
BRANCH  25  31
HETATM   31  N2  UNL     1      21.406  18.173  36.461  1.00  0.00    -0.372 N 
ATOM     32  H2  UNL     1      20.924  17.748  37.254  1.00  0.00     0.161 HD
BRANCH  31  33
HETATM   33  C12 UNL     1      21.783  17.347  35.384  1.00  0.00     0.193 C 
HETATM   34  N3  UNL     1      20.982  16.589  34.743  1.00  0.00    -0.303 N 
ATOM     35  H3  UNL     1      21.345  16.024  33.975  1.00  0.00     0.187 HD
BRANCH  34  36
HETATM   36  N4  UNL     1      19.629  16.509  35.057  1.00  0.00    -0.344 N 
ATOM     37  H42 UNL     1      19.173  17.344  35.423  1.00  0.00     0.176 HD
ATOM     38  H41 UNL     1      19.094  15.649  34.932  1.00  0.00     0.176 HD
ENDBRANCH  34  36
ENDBRANCH  31  33
ENDBRANCH  25  31
ENDBRANCH  22  25
ENDBRANCH  17  21
ENDBRANCH  14  17
ENDBRANCH   9  13
BRANCH  11  39
HETATM   39  C17 UNL     1      25.043  12.426  37.394  1.00  0.00    -0.149 C 
BRANCH  39  40
HETATM   40  C18 UNL     1      24.617  11.306  37.089  1.00  0.00     0.087 C 
BRANCH  40  41
HETATM   41  C19 UNL     1      24.969  10.723  35.708  1.00  0.00     0.031 C 
BRANCH  41  42
HETATM   42  C20 UNL     1      24.588  11.759  34.700  1.00  0.00     0.079 C 
HETATM   43  C21 UNL     1      23.430  11.279  33.875  1.00  0.00     0.026 C 
HETATM   44 CL1  UNL     1      25.936  12.074  33.555  1.00  0.00    -0.125 Cl
ENDBRANCH  41  42
ENDBRANCH  40  41
ENDBRANCH  39  40
ENDBRANCH  11  39
ENDBRANCH   5   8
ENDBRANCH   1   4
TORSDOF 16
ENDMDL
MODEL 4
REMARK VINA RESULT: -8.725287598      1.913      2.600
REMARK  16 active torsions:
REMARK  status: ('A' for Active; 'I' for Inactive)
REMARK    1  A    between atoms: C2_2  and  C3_3 
REMARK    2  A    between atoms: C4_4  and  N1_5 
REMARK    3  A    between atoms: C4_4  and  C13_23 
REMARK       I    between atoms: N1_5  and  C5_7 
REMARK    4  A    between atoms: C5_7  and  C6_9 
REMARK    5  A    between atoms: C6_9  and  C7_10 
REMARK    6  A    between atoms: C6_9  and  N2_15 
REMARK    7  A    between atoms: C7_10  and  C8_11 
REMARK    8  A    between atoms: N2_15  and  C12_17 
REMARK    9  A    between atoms: N3_18  and  N4_20 
REMARK       I    between atoms: C13_23  and  N5_25 
REMARK   10  A    between atoms: N5_25  and  C14_27 
REMARK   11  A    between atoms: C16_29  and  C17_30 
REMARK   12  A    between atoms: C17_30  and  C18_31 
REMARK   13  A    between atoms: C18_31  and  C19_32 
REMARK   14  A    between atoms: C19_32  and  C20_33 
REMARK   15  A    between atoms: C23_37  and  C24_38 
REMARK       I    between atoms: C24_38  and  N6_40 
REMARK   16  A    between atoms: N6_40  and  C25_42 
ROOT
HETATM    1  C25 UNL     1      24.666  18.352  42.140  1.00  0.00     0.247 C 
HETATM    2  C26 UNL     1      24.421  19.573  42.892  1.00  0.00     0.078 C 
HETATM    3  N7  UNL     1      24.227  20.540  43.500  1.00  0.00    -0.196 NA
ENDROOT
BRANCH   1   4
HETATM    4  N6  UNL     1      24.507  18.586  40.707  1.00  0.00    -0.348 N 
HETATM    5  C24 UNL     1      25.042  17.709  39.751  1.00  0.00     0.228 C 
HETATM    6  O3  UNL     1      25.677  16.702  40.247  1.00  0.00    -0.273 OA
ATOM      7  H6  UNL     1      23.993  19.409  40.392  1.00  0.00     0.163 HD
BRANCH   5   8
HETATM    8  C23 UNL     1      24.916  17.888  38.304  1.00  0.00     0.124 A 
HETATM    9  C14 UNL     1      24.758  16.737  37.444  1.00  0.00     0.106 A 
HETATM   10  C15 UNL     1      23.552  16.997  36.558  1.00  0.00     0.073 A 
HETATM   11  C16 UNL     1      22.984  18.261  37.065  1.00  0.00    -0.018 A 
HETATM   12  C22 UNL     1      23.762  18.766  38.051  1.00  0.00     0.005 A 
BRANCH   9  13
HETATM   13  N5  UNL     1      24.667  15.399  37.974  1.00  0.00    -0.350 N 
HETATM   14  C13 UNL     1      25.703  14.478  37.768  1.00  0.00     0.268 C 
HETATM   15  O2  UNL     1      26.735  14.910  37.139  1.00  0.00    -0.266 OA
ATOM     16  H5  UNL     1      23.841  15.122  38.504  1.00  0.00     0.163 HD
BRANCH  14  17
HETATM   17  C4  UNL     1      25.720  13.078  38.178  1.00  0.00     0.099 C 
HETATM   18  C3  UNL     1      26.417  12.636  39.365  1.00  0.00     0.008 C 
BRANCH  18  19
HETATM   19  C2  UNL     1      27.828  12.196  39.347  1.00  0.00     0.025 C 
HETATM   20  C1  UNL     1      28.021  10.705  39.295  1.00  0.00     0.009 C 
ENDBRANCH  18  19
BRANCH  17  21
HETATM   21  N1  UNL     1      25.660  12.164  37.090  1.00  0.00    -0.321 N 
HETATM   22  C5  UNL     1      24.756  12.219  36.015  1.00  0.00     0.245 C 
HETATM   23  O1  UNL     1      23.908  13.123  35.953  1.00  0.00    -0.271 OA
ATOM     24  H1  UNL     1      26.334  11.399  37.090  1.00  0.00     0.169 HD
BRANCH  22  25
HETATM   25  C6  UNL     1      24.819  11.182  34.930  1.00  0.00     0.175 C 
BRANCH  25  26
HETATM   26  C7  UNL     1      25.692  10.048  35.310  1.00  0.00     0.043 C 
BRANCH  26  27
HETATM   27  C8  UNL     1      26.985   9.866  34.633  1.00  0.00    -0.049 C 
HETATM   28  C9  UNL     1      28.232  10.219  35.356  1.00  0.00     0.014 C 
HETATM   29  C10 UNL     1      27.148   8.478  34.034  1.00  0.00     0.014 C 
HETATM   30  C11 UNL     1      26.947  10.801  33.392  1.00  0.00     0.014 C 
ENDBRANCH  26  27
ENDBRANCH  25  26
BRANCH  25  31
HETATM   31  N2  UNL     1      23.452  10.652  34.726  1.00  0.00    -0.372 N 
ATOM     32  H2  UNL     1      22.996  10.168  35.501  1.00  0.00     0.161 HD
BRANCH  31  33
HETATM   33  C12 UNL     1      22.750  10.785  33.512  1.00  0.00     0.193 C 
HETATM   34  N3  UNL     1      21.938  11.733  33.250  1.00  0.00    -0.303 N 
ATOM     35  H3  UNL     1      21.473  11.747  32.342  1.00  0.00     0.187 HD
BRANCH  34  36
HETATM   36  N4  UNL     1      21.666  12.748  34.162  1.00  0.00    -0.344 N 
ATOM     37  H42 UNL     1      20.720  13.128  34.185  1.00  0.00     0.176 HD
ATOM     38  H41 UNL     1      22.378  13.113  34.794  1.00  0.00     0.176 HD
ENDBRANCH  34  36
ENDBRANCH  31  33
ENDBRANCH  25  31
ENDBRANCH  22  25
ENDBRANCH  17  21
ENDBRANCH  14  17
ENDBRANCH   9  13
BRANCH  11  39
HETATM   39  C17 UNL     1      21.831  18.961  36.644  1.00  0.00    -0.149 C 
BRANCH  39  40
HETATM   40  C18 UNL     1      20.823  19.574  36.275  1.00  0.00     0.087 C 
BRANCH  40  41
HETATM   41  C19 UNL     1      20.597  19.804  34.768  1.00  0.00     0.031 C 
BRANCH  41  42
HETATM   42  C20 UNL     1      20.995  21.218  34.490  1.00  0.00     0.079 C 
HETATM   43  C21 UNL     1      20.408  21.675  33.187  1.00  0.00     0.026 C 
HETATM   44 CL1  UNL     1      22.778  21.369  34.330  1.00  0.00    -0.125 Cl
ENDBRANCH  41  42
ENDBRANCH  40  41
ENDBRANCH  39  40
ENDBRANCH  11  39
ENDBRANCH   5   8
ENDBRANCH   1   4
TORSDOF 16
ENDMDL
MODEL 5
REMARK VINA RESULT: -8.720380999      3.744      7.997
REMARK  16 active torsions:
REMARK  status: ('A' for Active; 'I' for Inactive)
REMARK    1  A    between atoms: C2_2  and  C3_3 
REMARK    2  A    between atoms: C4_4  and  N1_5 
REMARK    3  A    between atoms: C4_4  and  C13_23 
REMARK       I    between atoms: N1_5  and  C5_7 
REMARK    4  A    between atoms: C5_7  and  C6_9 
REMARK    5  A    between atoms: C6_9  and  C7_10 
REMARK    6  A    between atoms: C6_9  and  N2_15 
REMARK    7  A    between atoms: C7_10  and  C8_11 
REMARK    8  A    between atoms: N2_15  and  C12_17 
REMARK    9  A    between atoms: N3_18  and  N4_20 
REMARK       I    between atoms: C13_23  and  N5_25 
REMARK   10  A    between atoms: N5_25  and  C14_27 
REMARK   11  A    between atoms: C16_29  and  C17_30 
REMARK   12  A    between atoms: C17_30  and  C18_31 
REMARK   13  A    between atoms: C18_31  and  C19_32 
REMARK   14  A    between atoms: C19_32  and  C20_33 
REMARK   15  A    between atoms: C23_37  and  C24_38 
REMARK       I    between atoms: C24_38  and  N6_40 
REMARK   16  A    between atoms: N6_40  and  C25_42 
ROOT
HETATM    1  C25 UNL     1      28.405  17.347  33.951  1.00  0.00     0.247 C 
HETATM    2  C26 UNL     1      28.702  18.725  34.308  1.00  0.00     0.078 C 
HETATM    3  N7  UNL     1      28.942  19.825  34.581  1.00  0.00    -0.196 NA
ENDROOT
BRANCH   1   4
HETATM    4  N6  UNL     1      28.267  16.520  35.149  1.00  0.00    -0.348 N 
HETATM    5  C24 UNL     1      27.018  16.061  35.590  1.00  0.00     0.228 C 
HETATM    6  O3  UNL     1      26.023  16.433  34.858  1.00  0.00    -0.273 OA
ATOM      7  H6  UNL     1      29.103  16.270  35.678  1.00  0.00     0.163 HD
BRANCH   5   8
HETATM    8  C23 UNL     1      26.816  15.231  36.779  1.00  0.00     0.124 A 
HETATM    9  C14 UNL     1      25.796  15.582  37.742  1.00  0.00     0.106 A 
HETATM   10  C15 UNL     1      24.952  14.342  37.978  1.00  0.00     0.073 A 
HETATM   11  C16 UNL     1      25.462  13.354  37.008  1.00  0.00    -0.018 A 
HETATM   12  C22 UNL     1      26.522  13.859  36.333  1.00  0.00     0.005 A 
BRANCH   9  13
HETATM   13  N5  UNL     1      24.922  16.711  37.544  1.00  0.00    -0.350 N 
HETATM   14  C13 UNL     1      25.092  17.885  38.290  1.00  0.00     0.268 C 
HETATM   15  O2  UNL     1      26.087  17.908  39.101  1.00  0.00    -0.266 OA
ATOM     16  H5  UNL     1      24.172  16.654  36.856  1.00  0.00     0.163 HD
BRANCH  14  17
HETATM   17  C4  UNL     1      24.247  19.074  38.252  1.00  0.00     0.099 C 
HETATM   18  C3  UNL     1      24.244  20.046  39.323  1.00  0.00     0.008 C 
BRANCH  18  19
HETATM   19  C2  UNL     1      23.327  19.962  40.478  1.00  0.00     0.025 C 
HETATM   20  C1  UNL     1      23.997  20.062  41.821  1.00  0.00     0.009 C 
ENDBRANCH  18  19
BRANCH  17  21
HETATM   21  N1  UNL     1      23.021  18.880  37.557  1.00  0.00    -0.321 N 
HETATM   22  C5  UNL     1      22.581  19.612  36.440  1.00  0.00     0.245 C 
HETATM   23  O1  UNL     1      23.280  20.523  35.973  1.00  0.00    -0.271 OA
ATOM     24  H1  UNL     1      22.405  18.143  37.900  1.00  0.00     0.169 HD
BRANCH  22  25
HETATM   25  C6  UNL     1      21.260  19.285  35.805  1.00  0.00     0.175 C 
BRANCH  25  26
HETATM   26  C7  UNL     1      20.877  17.874  36.037  1.00  0.00     0.043 C 
BRANCH  26  27
HETATM   27  C8  UNL     1      21.228  16.850  35.041  1.00  0.00    -0.049 C 
HETATM   28  C9  UNL     1      21.830  17.275  33.753  1.00  0.00     0.014 C 
HETATM   29  C10 UNL     1      22.070  15.725  35.623  1.00  0.00     0.014 C 
HETATM   30  C11 UNL     1      19.891  16.153  34.664  1.00  0.00     0.014 C 
ENDBRANCH  26  27
ENDBRANCH  25  26
BRANCH  25  31
HETATM   31  N2  UNL     1      20.229  20.143  36.432  1.00  0.00    -0.372 N 
ATOM     32  H2  UNL     1      20.532  20.959  36.964  1.00  0.00     0.161 HD
BRANCH  31  33
HETATM   33  C12 UNL     1      18.848  19.883  36.328  1.00  0.00     0.193 C 
HETATM   34  N3  UNL     1      18.065  20.465  35.506  1.00  0.00    -0.303 N 
ATOM     35  H3  UNL     1      17.077  20.213  35.503  1.00  0.00     0.187 HD
BRANCH  34  36
HETATM   36  N4  UNL     1      18.517  21.433  34.614  1.00  0.00    -0.344 N 
ATOM     37  H42 UNL     1      19.485  21.378  34.299  1.00  0.00     0.176 HD
ATOM     38  H41 UNL     1      17.912  22.181  34.275  1.00  0.00     0.176 HD
ENDBRANCH  34  36
ENDBRANCH  31  33
ENDBRANCH  25  31
ENDBRANCH  22  25
ENDBRANCH  17  21
ENDBRANCH  14  17
ENDBRANCH   9  13
BRANCH  11  39
HETATM   39  C17 UNL     1      25.023  12.036  36.754  1.00  0.00    -0.149 C 
BRANCH  39  40
HETATM   40  C18 UNL     1      24.639  10.881  36.533  1.00  0.00     0.087 C 
BRANCH  40  41
HETATM   41  C19 UNL     1      24.833  10.286  35.125  1.00  0.00     0.031 C 
BRANCH  41  42
HETATM   42  C20 UNL     1      24.424  11.347  34.155  1.00  0.00     0.079 C 
HETATM   43  C21 UNL     1      23.038  11.079  33.646  1.00  0.00     0.026 C 
HETATM   44 CL1  UNL     1      25.503  11.360  32.719  1.00  0.00    -0.125 Cl
ENDBRANCH  41  42
ENDBRANCH  40  41
ENDBRANCH  39  40
ENDBRANCH  11  39
ENDBRANCH   5   8
ENDBRANCH   1   4
TORSDOF 16
ENDMDL
