MODEL 1
REMARK VINA RESULT: -9.660023370      0.000      0.000
REMARK  15 active torsions:
REMARK  status: ('A' for Active; 'I' for Inactive)
REMARK    1  A    between atoms: C2_2  and  C4_4 
REMARK    2  A    between atoms: C2_2  and  N1_8 
REMARK    3  A    between atoms: C4_4  and  C5_5 
REMARK    4  A    between atoms: C5_5  and  O1_6 
REMARK    5  A    between atoms: N1_8  and  C6_11 
REMARK    6  A    between atoms: C6_11  and  C7_12 
REMARK    7  A    between atoms: C7_12  and  C8_13 
REMARK    8  A    between atoms: C8_13  and  C9_14 
REMARK    9  A    between atoms: C9_14  and  N2_15 
REMARK   10  A    between atoms: N2_15  and  C10_17 
REMARK   11  A    between atoms: C10_17  and  C11_18 
REMARK   12  A    between atoms: C11_18  and  C12_19 
REMARK   13  A    between atoms: C21_34  and  C22_35 
REMARK   14  A    between atoms: C22_35  and  C23_36 
REMARK   15  A    between atoms: C23_36  and  N5_37 
ROOT
HETATM    1  C9  UNL     1      22.614  17.168  36.375  1.00  0.00     0.025 C 
HETATM    2  C18 UNL     1      21.471  17.631  35.906  1.00  0.00     0.108 A 
HETATM    3  C19 UNL     1      20.805  17.027  34.868  1.00  0.00     0.276 A 
HETATM    4  O2  UNL     1      21.220  15.989  34.266  1.00  0.00    -0.266 OA
HETATM    5  N3  UNL     1      19.632  17.520  34.409  1.00  0.00    -0.265 N 
ATOM      6  H3  UNL     1      19.161  17.050  33.636  1.00  0.00     0.190 HD
HETATM    7  N4  UNL     1      19.086  18.593  34.938  1.00  0.00    -0.294 N 
ATOM      8  H4  UNL     1      18.200  18.931  34.561  1.00  0.00     0.187 HD
HETATM    9  C20 UNL     1      19.649  19.256  35.947  1.00  0.00     0.095 A 
HETATM   10  C21 UNL     1      19.131  20.337  36.514  1.00  0.00     0.010 C 
HETATM   11  C28 UNL     1      20.869  18.758  36.437  1.00  0.00     0.217 A 
HETATM   12  O3  UNL     1      21.374  19.389  37.368  1.00  0.00    -0.285 OA
ENDROOT
BRANCH   1  13
HETATM   13  C8  UNL     1      23.342  16.004  35.907  1.00  0.00     0.059 C 
BRANCH  13  14
HETATM   14  C7  UNL     1      24.160  15.250  36.942  1.00  0.00     0.033 C 
BRANCH  14  15
HETATM   15  C6  UNL     1      25.511  14.804  36.500  1.00  0.00     0.233 C 
BRANCH  15  16
HETATM   16  N1  UNL     1      26.542  15.797  36.602  1.00  0.00    -0.067 N 
ATOM     17  H12 UNL     1      27.278  15.497  37.242  1.00  0.00     0.278 HD
ATOM     18  H11 UNL     1      26.210  16.620  37.106  1.00  0.00     0.278 HD
BRANCH  16  19
HETATM   19  C2  UNL     1      27.092  16.164  35.312  1.00  0.00     0.120 C 
HETATM   20  C1  UNL     1      26.347  17.331  34.711  1.00  0.00     0.046 C 
HETATM   21  C3  UNL     1      27.059  15.028  34.312  1.00  0.00     0.046 C 
BRANCH  19  22
HETATM   22  C4  UNL     1      28.528  16.564  35.512  1.00  0.00     0.064 C 
BRANCH  22  23
HETATM   23  C5  UNL     1      28.744  18.054  35.467  1.00  0.00     0.166 C 
BRANCH  23  24
HETATM   24  O1  UNL     1      29.617  18.412  36.504  1.00  0.00    -0.401 OA
ATOM     25  H1  UNL     1      29.101  18.656  37.264  1.00  0.00     0.209 HD
ENDBRANCH  23  24
ENDBRANCH  22  23
ENDBRANCH  19  22
ENDBRANCH  16  19
ENDBRANCH  15  16
ENDBRANCH  14  15
ENDBRANCH  13  14
ENDBRANCH   1  13
BRANCH   1  26
HETATM   26  N2  UNL     1      23.237  17.922  37.437  1.00  0.00    -0.392 N 
ATOM     27  H2  UNL     1      22.808  17.819  38.357  1.00  0.00     0.159 HD
BRANCH  26  28
HETATM   28  C10 UNL     1      24.350  18.778  37.382  1.00  0.00     0.124 C 
BRANCH  28  29
HETATM   29  C11 UNL     1      25.376  18.293  38.423  1.00  0.00     0.060 C 
BRANCH  29  30
HETATM   30  C12 UNL     1      24.905  18.571  39.801  1.00  0.00    -0.035 A 
HETATM   31  C13 UNL     1      24.302  19.799  40.091  1.00  0.00     0.009 A 
HETATM   32  C14 UNL     1      23.853  20.095  41.362  1.00  0.00     0.001 A 
HETATM   33  C15 UNL     1      23.980  19.192  42.394  1.00  0.00     0.002 A 
HETATM   34  C16 UNL     1      24.573  17.975  42.121  1.00  0.00     0.024 A 
HETATM   35  C17 UNL     1      25.027  17.678  40.837  1.00  0.00     0.040 A 
HETATM   36 CL1  UNL     1      25.778  16.110  40.524  1.00  0.00    -0.084 Cl
ENDBRANCH  29  30
ENDBRANCH  28  29
ENDBRANCH  26  28
ENDBRANCH   1  26
BRANCH  10  37
HETATM   37  C22 UNL     1      17.859  20.918  36.072  1.00  0.00     0.060 C 
BRANCH  37  38
HETATM   38  C23 UNL     1      16.753  20.704  37.080  1.00  0.00     0.276 C 
BRANCH  38  39
HETATM   39  N5  UNL     1      17.151  20.083  38.297  1.00  0.00     0.088 N 
HETATM   40  C24 UNL     1      16.511  18.836  38.594  1.00  0.00     0.272 C 
HETATM   41  C25 UNL     1      15.192  19.195  39.242  1.00  0.00     0.032 C 
HETATM   42  C26 UNL     1      15.503  20.455  39.993  1.00  0.00     0.032 C 
HETATM   43  C27 UNL     1      16.774  20.970  39.390  1.00  0.00     0.272 C 
ENDBRANCH  38  39
ENDBRANCH  37  38
ENDBRANCH  10  37
TORSDOF 15
ENDMDL
MODEL 2
REMARK VINA RESULT: -9.647139794      2.458      3.632
REMARK  15 active torsions:
REMARK  status: ('A' for Active; 'I' for Inactive)
REMARK    1  A    between atoms: C2_2  and  C4_4 
REMARK    2  A    between atoms: C2_2  and  N1_8 
REMARK    3  A    between atoms: C4_4  and  C5_5 
REMARK    4  A    between atoms: C5_5  and  O1_6 
REMARK    5  A    between atoms: N1_8  and  C6_11 
REMARK    6  A    between atoms: C6_11  and  C7_12 
REMARK    7  A    between atoms: C7_12  and  C8_13 
REMARK    8  A    between atoms: C8_13  and  C9_14 
REMARK    9  A    between atoms: C9_14  and  N2_15 
REMARK   10  A    between atoms: N2_15  and  C10_17 
REMARK   11  A    between atoms: C10_17  and  C11_18 
REMARK   12  A    between atoms: C11_18  and  C12_19 
REMARK   13  A    between atoms: C21_34  and  C22_35 
REMARK   14  A    between atoms: C22_35  and  C23_36 
REMARK   15  A    between atoms: C23_36  and  N5_37 
ROOT
HETATM    1  C9  UNL     1      22.898  16.064  36.117  1.00  0.00     0.025 C 
HETATM    2  C18 UNL     1      21.751  16.601  35.748  1.00  0.00     0.108 A 
HETATM    3  C19 UNL     1      20.844  15.929  34.966  1.00  0.00     0.276 A 
HETATM    4  O2  UNL     1      21.020  14.752  34.525  1.00  0.00    -0.266 OA
HETATM    5  N3  UNL     1      19.673  16.503  34.604  1.00  0.00    -0.265 N 
ATOM      6  H3  UNL     1      19.019  15.979  34.022  1.00  0.00     0.190 HD
HETATM    7  N4  UNL     1      19.360  17.721  34.986  1.00  0.00    -0.294 N 
ATOM      8  H4  UNL     1      18.466  18.115  34.692  1.00  0.00     0.187 HD
HETATM    9  C20 UNL     1      20.168  18.460  35.745  1.00  0.00     0.095 A 
HETATM   10  C21 UNL     1      19.891  19.689  36.158  1.00  0.00     0.010 C 
HETATM   11  C28 UNL     1      21.390  17.880  36.130  1.00  0.00     0.217 A 
HETATM   12  O3  UNL     1      22.124  18.584  36.827  1.00  0.00    -0.285 OA
ENDROOT
BRANCH   1  13
HETATM   13  C8  UNL     1      23.389  14.741  35.783  1.00  0.00     0.059 C 
BRANCH  13  14
HETATM   14  C7  UNL     1      24.689  14.673  35.000  1.00  0.00     0.033 C 
BRANCH  14  15
HETATM   15  C6  UNL     1      25.360  13.343  34.970  1.00  0.00     0.233 C 
BRANCH  15  16
HETATM   16  N1  UNL     1      24.611  12.299  34.331  1.00  0.00    -0.067 N 
ATOM     17  H12 UNL     1      23.935  12.684  33.671  1.00  0.00     0.278 HD
ATOM     18  H11 UNL     1      23.967  11.856  34.987  1.00  0.00     0.278 HD
BRANCH  16  19
HETATM   19  C2  UNL     1      25.461  11.315  33.692  1.00  0.00     0.120 C 
HETATM   20  C1  UNL     1      26.558  10.854  34.620  1.00  0.00     0.046 C 
HETATM   21  C3  UNL     1      26.110  11.830  32.425  1.00  0.00     0.046 C 
BRANCH  19  22
HETATM   22  C4  UNL     1      24.611  10.128  33.328  1.00  0.00     0.064 C 
BRANCH  22  23
HETATM   23  C5  UNL     1      23.217  10.196  33.894  1.00  0.00     0.166 C 
BRANCH  23  24
HETATM   24  O1  UNL     1      22.347  10.644  32.890  1.00  0.00    -0.401 OA
ATOM     25  H1  UNL     1      21.812   9.913  32.603  1.00  0.00     0.209 HD
ENDBRANCH  23  24
ENDBRANCH  22  23
ENDBRANCH  19  22
ENDBRANCH  16  19
ENDBRANCH  15  16
ENDBRANCH  14  15
ENDBRANCH  13  14
ENDBRANCH   1  13
BRANCH   1  26
HETATM   26  N2  UNL     1      23.785  16.892  36.899  1.00  0.00    -0.392 N 
ATOM     27  H2  UNL     1      23.770  17.886  36.672  1.00  0.00     0.159 HD
BRANCH  26  28
HETATM   28  C10 UNL     1      24.666  16.521  37.929  1.00  0.00     0.124 C 
BRANCH  28  29
HETATM   29  C11 UNL     1      25.471  17.767  38.341  1.00  0.00     0.060 C 
BRANCH  29  30
HETATM   30  C12 UNL     1      25.007  18.289  39.650  1.00  0.00    -0.035 A 
HETATM   31  C13 UNL     1      25.220  17.537  40.808  1.00  0.00     0.009 A 
HETATM   32  C14 UNL     1      24.800  17.988  42.043  1.00  0.00     0.001 A 
HETATM   33  C15 UNL     1      24.156  19.197  42.182  1.00  0.00     0.002 A 
HETATM   34  C16 UNL     1      23.940  19.951  41.044  1.00  0.00     0.024 A 
HETATM   35  C17 UNL     1      24.363  19.493  39.798  1.00  0.00     0.040 A 
HETATM   36 CL1  UNL     1      24.072  20.484  38.365  1.00  0.00    -0.084 Cl
ENDBRANCH  29  30
ENDBRANCH  28  29
ENDBRANCH  26  28
ENDBRANCH   1  26
BRANCH  10  37
HETATM   37  C22 UNL     1      18.636  20.365  35.812  1.00  0.00     0.060 C 
BRANCH  37  38
HETATM   38  C23 UNL     1      17.907  20.879  37.033  1.00  0.00     0.276 C 
BRANCH  38  39
HETATM   39  N5  UNL     1      16.712  20.181  37.365  1.00  0.00     0.088 N 
HETATM   40  C24 UNL     1      15.680  20.973  37.967  1.00  0.00     0.272 C 
HETATM   41  C25 UNL     1      16.019  21.038  39.440  1.00  0.00     0.032 C 
HETATM   42  C26 UNL     1      16.657  19.709  39.712  1.00  0.00     0.032 C 
HETATM   43  C27 UNL     1      17.051  19.179  38.366  1.00  0.00     0.272 C 
ENDBRANCH  38  39
ENDBRANCH  37  38
ENDBRANCH  10  37
TORSDOF 15
ENDMDL
MODEL 3
REMARK VINA RESULT: -9.597337633      2.123      2.803
REMARK  15 active torsions:
REMARK  status: ('A' for Active; 'I' for Inactive)
REMARK    1  A    between atoms: C2_2  and  C4_4 
REMARK    2  A    between atoms: C2_2  and  N1_8 
REMARK    3  A    between atoms: C4_4  and  C5_5 
REMARK    4  A    between atoms: C5_5  and  O1_6 
REMARK    5  A    between atoms: N1_8  and  C6_11 
REMARK    6  A    between atoms: C6_11  and  C7_12 
REMARK    7  A    between atoms: C7_12  and  C8_13 
REMARK    8  A    between atoms: C8_13  and  C9_14 
REMARK    9  A    between atoms: C9_14  and  N2_15 
REMARK   10  A    between atoms: N2_15  and  C10_17 
REMARK   11  A    between atoms: C10_17  and  C11_18 
REMARK   12  A    between atoms: C11_18  and  C12_19 
REMARK   13  A    between atoms: C21_34  and  C22_35 
REMARK   14  A    between atoms: C22_35  and  C23_36 
REMARK   15  A    between atoms: C23_36  and  N5_37 
ROOT
HETATM    1  C9  UNL     1      22.891  16.180  36.184  1.00  0.00     0.025 C 
HETATM    2  C18 UNL     1      21.734  16.688  35.805  1.00  0.00     0.108 A 
HETATM    3  C19 UNL     1      20.887  16.027  34.949  1.00  0.00     0.276 A 
HETATM    4  O2  UNL     1      21.135  14.889  34.444  1.00  0.00    -0.266 OA
HETATM    5  N3  UNL     1      19.704  16.569  34.579  1.00  0.00    -0.265 N 
ATOM      6  H3  UNL     1      19.097  16.054  33.941  1.00  0.00     0.190 HD
HETATM    7  N4  UNL     1      19.321  17.746  35.023  1.00  0.00    -0.294 N 
ATOM      8  H4  UNL     1      18.420  18.117  34.719  1.00  0.00     0.187 HD
HETATM    9  C20 UNL     1      20.067  18.471  35.856  1.00  0.00     0.095 A 
HETATM   10  C21 UNL     1      19.717  19.658  36.332  1.00  0.00     0.010 C 
HETATM   11  C28 UNL     1      21.300  17.923  36.250  1.00  0.00     0.217 A 
HETATM   12  O3  UNL     1      21.975  18.614  37.017  1.00  0.00    -0.285 OA
ENDROOT
BRANCH   1  13
HETATM   13  C8  UNL     1      23.456  14.904  35.789  1.00  0.00     0.059 C 
BRANCH  13  14
HETATM   14  C7  UNL     1      24.711  14.949  34.934  1.00  0.00     0.033 C 
BRANCH  14  15
HETATM   15  C6  UNL     1      25.718  13.886  35.206  1.00  0.00     0.233 C 
BRANCH  15  16
HETATM   16  N1  UNL     1      26.021  13.676  36.593  1.00  0.00    -0.067 N 
ATOM     17  H12 UNL     1      25.336  14.139  37.192  1.00  0.00     0.278 HD
ATOM     18  H11 UNL     1      26.856  14.192  36.868  1.00  0.00     0.278 HD
BRANCH  16  19
HETATM   19  C2  UNL     1      26.142  12.272  36.931  1.00  0.00     0.120 C 
HETATM   20  C1  UNL     1      27.174  11.588  36.068  1.00  0.00     0.046 C 
HETATM   21  C3  UNL     1      24.839  11.515  36.782  1.00  0.00     0.046 C 
BRANCH  19  22
HETATM   22  C4  UNL     1      26.575  12.171  38.368  1.00  0.00     0.064 C 
BRANCH  22  23
HETATM   23  C5  UNL     1      26.416  13.460  39.130  1.00  0.00     0.166 C 
BRANCH  23  24
HETATM   24  O1  UNL     1      25.158  13.465  39.747  1.00  0.00    -0.401 OA
ATOM     25  H1  UNL     1      25.213  13.976  40.546  1.00  0.00     0.209 HD
ENDBRANCH  23  24
ENDBRANCH  22  23
ENDBRANCH  19  22
ENDBRANCH  16  19
ENDBRANCH  15  16
ENDBRANCH  14  15
ENDBRANCH  13  14
ENDBRANCH   1  13
BRANCH   1  26
HETATM   26  N2  UNL     1      23.710  16.997  37.049  1.00  0.00    -0.392 N 
ATOM     27  H2  UNL     1      23.622  18.004  36.914  1.00  0.00     0.159 HD
BRANCH  26  28
HETATM   28  C10 UNL     1      24.613  16.598  38.049  1.00  0.00     0.124 C 
BRANCH  28  29
HETATM   29  C11 UNL     1      25.456  17.824  38.446  1.00  0.00     0.060 C 
BRANCH  29  30
HETATM   30  C12 UNL     1      24.961  18.421  39.711  1.00  0.00    -0.035 A 
HETATM   31  C13 UNL     1      25.121  17.726  40.912  1.00  0.00     0.009 A 
HETATM   32  C14 UNL     1      24.671  18.248  42.108  1.00  0.00     0.001 A 
HETATM   33  C15 UNL     1      24.049  19.475  42.164  1.00  0.00     0.002 A 
HETATM   34  C16 UNL     1      23.885  20.173  40.983  1.00  0.00     0.024 A 
HETATM   35  C17 UNL     1      24.339  19.644  39.776  1.00  0.00     0.040 A 
HETATM   36 CL1  UNL     1      24.115  20.565  38.286  1.00  0.00    -0.084 Cl
ENDBRANCH  29  30
ENDBRANCH  28  29
ENDBRANCH  26  28
ENDBRANCH   1  26
BRANCH  10  37
HETATM   37  C22 UNL     1      18.445  20.298  35.980  1.00  0.00     0.060 C 
BRANCH  37  38
HETATM   38  C23 UNL     1      17.764  20.914  37.180  1.00  0.00     0.276 C 
BRANCH  38  39
HETATM   39  N5  UNL     1      17.182  19.988  38.091  1.00  0.00     0.088 N 
HETATM   40  C24 UNL     1      15.833  19.600  37.802  1.00  0.00     0.272 C 
HETATM   41  C25 UNL     1      14.958  20.685  38.390  1.00  0.00     0.032 C 
HETATM   42  C26 UNL     1      15.717  21.127  39.604  1.00  0.00     0.032 C 
HETATM   43  C27 UNL     1      17.117  20.634  39.396  1.00  0.00     0.272 C 
ENDBRANCH  38  39
ENDBRANCH  37  38
ENDBRANCH  10  37
TORSDOF 15
ENDMDL
MODEL 4
REMARK VINA RESULT: -9.574304947      1.920      2.483
REMARK  15 active torsions:
REMARK  status: ('A' for Active; 'I' for Inactive)
REMARK    1  A    between atoms: C2_2  and  C4_4 
REMARK    2  A    between atoms: C2_2  and  N1_8 
REMARK    3  A    between atoms: C4_4  and  C5_5 
REMARK    4  A    between atoms: C5_5  and  O1_6 
REMARK    5  A    between atoms: N1_8  and  C6_11 
REMARK    6  A    between atoms: C6_11  and  C7_12 
REMARK    7  A    between atoms: C7_12  and  C8_13 
REMARK    8  A    between atoms: C8_13  and  C9_14 
REMARK    9  A    between atoms: C9_14  and  N2_15 
REMARK   10  A    between atoms: N2_15  and  C10_17 
REMARK   11  A    between atoms: C10_17  and  C11_18 
REMARK   12  A    between atoms: C11_18  and  C12_19 
REMARK   13  A    between atoms: C21_34  and  C22_35 
REMARK   14  A    between atoms: C22_35  and  C23_36 
REMARK   15  A    between atoms: C23_36  and  N5_37 
ROOT
HETATM    1  C9  UNL     1      22.614  17.191  36.121  1.00  0.00     0.025 C 
HETATM    2  C18 UNL     1      21.449  17.665  35.722  1.00  0.00     0.108 A 
HETATM    3  C19 UNL     1      20.716  17.066  34.727  1.00  0.00     0.276 A 
HETATM    4  O2  UNL     1      21.083  16.024  34.102  1.00  0.00    -0.266 OA
HETATM    5  N3  UNL     1      19.522  17.572  34.338  1.00  0.00    -0.265 N 
ATOM      6  H3  UNL     1      19.001  17.105  33.596  1.00  0.00     0.190 HD
HETATM    7  N4  UNL     1      19.020  18.651  34.897  1.00  0.00    -0.294 N 
ATOM      8  H4  UNL     1      18.116  18.997  34.575  1.00  0.00     0.187 HD
HETATM    9  C20 UNL     1      19.650  19.308  35.870  1.00  0.00     0.095 A 
HETATM   10  C21 UNL     1      19.179  20.396  36.465  1.00  0.00     0.010 C 
HETATM   11  C28 UNL     1      20.892  18.798  36.286  1.00  0.00     0.217 A 
HETATM   12  O3  UNL     1      21.459  19.426  37.183  1.00  0.00    -0.285 OA
ENDROOT
BRANCH   1  13
HETATM   13  C8  UNL     1      23.300  16.019  35.612  1.00  0.00     0.059 C 
BRANCH  13  14
HETATM   14  C7  UNL     1      23.922  15.092  36.643  1.00  0.00     0.033 C 
BRANCH  14  15
HETATM   15  C6  UNL     1      25.239  14.501  36.273  1.00  0.00     0.233 C 
BRANCH  15  16
HETATM   16  N1  UNL     1      25.405  14.213  34.876  1.00  0.00    -0.067 N 
ATOM     17  H12 UNL     1      26.087  14.841  34.451  1.00  0.00     0.278 HD
ATOM     18  H11 UNL     1      24.577  14.485  34.346  1.00  0.00     0.278 HD
BRANCH  16  19
HETATM   19  C2  UNL     1      25.748  12.827  34.631  1.00  0.00     0.120 C 
HETATM   20  C1  UNL     1      24.511  11.978  34.465  1.00  0.00     0.046 C 
HETATM   21  C3  UNL     1      26.582  12.220  35.739  1.00  0.00     0.046 C 
BRANCH  19  22
HETATM   22  C4  UNL     1      26.549  12.761  33.359  1.00  0.00     0.064 C 
BRANCH  22  23
HETATM   23  C5  UNL     1      26.097  11.669  32.425  1.00  0.00     0.166 C 
BRANCH  23  24
HETATM   24  O1  UNL     1      26.484  12.005  31.121  1.00  0.00    -0.401 OA
ATOM     25  H1  UNL     1      25.711  12.019  30.569  1.00  0.00     0.209 HD
ENDBRANCH  23  24
ENDBRANCH  22  23
ENDBRANCH  19  22
ENDBRANCH  16  19
ENDBRANCH  15  16
ENDBRANCH  14  15
ENDBRANCH  13  14
ENDBRANCH   1  13
BRANCH   1  26
HETATM   26  N2  UNL     1      23.308  17.940  37.143  1.00  0.00    -0.392 N 
ATOM     27  H2  UNL     1      22.846  17.972  38.052  1.00  0.00     0.159 HD
BRANCH  26  28
HETATM   28  C10 UNL     1      24.529  18.630  37.060  1.00  0.00     0.124 C 
BRANCH  28  29
HETATM   29  C11 UNL     1      25.537  17.930  37.990  1.00  0.00     0.060 C 
BRANCH  29  30
HETATM   30  C12 UNL     1      25.148  18.091  39.412  1.00  0.00    -0.035 A 
HETATM   31  C13 UNL     1      24.592  19.299  39.843  1.00  0.00     0.009 A 
HETATM   32  C14 UNL     1      24.220  19.487  41.159  1.00  0.00     0.001 A 
HETATM   33  C15 UNL     1      24.381  18.493  42.097  1.00  0.00     0.002 A 
HETATM   34  C16 UNL     1      24.929  17.294  41.684  1.00  0.00     0.024 A 
HETATM   35  C17 UNL     1      25.305  17.105  40.355  1.00  0.00     0.040 A 
HETATM   36 CL1  UNL     1      26.000  15.558  39.862  1.00  0.00    -0.084 Cl
ENDBRANCH  29  30
ENDBRANCH  28  29
ENDBRANCH  26  28
ENDBRANCH   1  26
BRANCH  10  37
HETATM   37  C22 UNL     1      17.888  20.989  36.100  1.00  0.00     0.060 C 
BRANCH  37  38
HETATM   38  C23 UNL     1      16.801  20.650  37.095  1.00  0.00     0.276 C 
BRANCH  38  39
HETATM   39  N5  UNL     1      17.251  20.044  38.302  1.00  0.00     0.088 N 
HETATM   40  C24 UNL     1      16.675  18.768  38.606  1.00  0.00     0.272 C 
HETATM   41  C25 UNL     1      15.353  19.063  39.279  1.00  0.00     0.032 C 
HETATM   42  C26 UNL     1      15.617  20.334  40.029  1.00  0.00     0.032 C 
HETATM   43  C27 UNL     1      16.852  20.910  39.404  1.00  0.00     0.272 C 
ENDBRANCH  38  39
ENDBRANCH  37  38
ENDBRANCH  10  37
TORSDOF 15
ENDMDL
MODEL 5
REMARK VINA RESULT: -9.524232084      2.409      3.699
REMARK  15 active torsions:
REMARK  status: ('A' for Active; 'I' for Inactive)
REMARK    1  A    between atoms: C2_2  and  C4_4 
REMARK    2  A    between atoms: C2_2  and  N1_8 
REMARK    3  A    between atoms: C4_4  and  C5_5 
REMARK    4  A    between atoms: C5_5  and  O1_6 
REMARK    5  A    between atoms: N1_8  and  C6_11 
REMARK    6  A    between atoms: C6_11  and  C7_12 
REMARK    7  A    between atoms: C7_12  and  C8_13 
REMARK    8  A    between atoms: C8_13  and  C9_14 
REMARK    9  A    between atoms: C9_14  and  N2_15 
REMARK   10  A    between atoms: N2_15  and  C10_17 
REMARK   11  A    between atoms: C10_17  and  C11_18 
REMARK   12  A    between atoms: C11_18  and  C12_19 
REMARK   13  A    between atoms: C21_34  and  C22_35 
REMARK   14  A    between atoms: C22_35  and  C23_36 
REMARK   15  A    between atoms: C23_36  and  N5_37 
ROOT
HETATM    1  C9  UNL     1      22.871  17.386  36.141  1.00  0.00     0.025 C 
HETATM    2  C18 UNL     1      21.723  17.862  35.695  1.00  0.00     0.108 A 
HETATM    3  C19 UNL     1      21.137  17.401  34.541  1.00  0.00     0.276 A 
HETATM    4  O2  UNL     1      21.636  16.496  33.803  1.00  0.00    -0.266 OA
HETATM    5  N3  UNL     1      19.958  17.904  34.108  1.00  0.00    -0.265 N 
ATOM      6  H3  UNL     1      19.548  17.542  33.247  1.00  0.00     0.190 HD
HETATM    7  N4  UNL     1      19.330  18.848  34.772  1.00  0.00    -0.294 N 
ATOM      8  H4  UNL     1      18.443  19.198  34.411  1.00  0.00     0.187 HD
HETATM    9  C20 UNL     1      19.812  19.366  35.902  1.00  0.00     0.095 A 
HETATM   10  C21 UNL     1      19.210  20.314  36.607  1.00  0.00     0.010 C 
HETATM   11  C28 UNL     1      21.037  18.856  36.367  1.00  0.00     0.217 A 
HETATM   12  O3  UNL     1      21.465  19.353  37.411  1.00  0.00    -0.285 OA
ENDROOT
BRANCH   1  13
HETATM   13  C8  UNL     1      23.683  16.351  35.531  1.00  0.00     0.059 C 
BRANCH  13  14
HETATM   14  C7  UNL     1      23.456  14.930  36.020  1.00  0.00     0.033 C 
BRANCH  14  15
HETATM   15  C6  UNL     1      24.155  13.862  35.252  1.00  0.00     0.233 C 
BRANCH  15  16
HETATM   16  N1  UNL     1      23.405  12.650  35.075  1.00  0.00    -0.067 N 
ATOM     17  H12 UNL     1      22.679  12.769  34.369  1.00  0.00     0.278 HD
ATOM     18  H11 UNL     1      22.817  12.463  35.887  1.00  0.00     0.278 HD
BRANCH  16  19
HETATM   19  C2  UNL     1      24.249  11.513  34.770  1.00  0.00     0.120 C 
HETATM   20  C1  UNL     1      23.505  10.483  33.955  1.00  0.00     0.046 C 
HETATM   21  C3  UNL     1      24.784  10.825  36.009  1.00  0.00     0.046 C 
BRANCH  19  22
HETATM   22  C4  UNL     1      25.424  12.002  33.968  1.00  0.00     0.064 C 
BRANCH  22  23
HETATM   23  C5  UNL     1      25.699  11.169  32.744  1.00  0.00     0.166 C 
BRANCH  23  24
HETATM   24  O1  UNL     1      25.834  12.023  31.641  1.00  0.00    -0.401 OA
ATOM     25  H1  UNL     1      26.631  11.796  31.177  1.00  0.00     0.209 HD
ENDBRANCH  23  24
ENDBRANCH  22  23
ENDBRANCH  19  22
ENDBRANCH  16  19
ENDBRANCH  15  16
ENDBRANCH  14  15
ENDBRANCH  13  14
ENDBRANCH   1  13
BRANCH   1  26
HETATM   26  N2  UNL     1      23.404  17.988  37.340  1.00  0.00    -0.392 N 
ATOM     27  H2  UNL     1      22.762  18.033  38.131  1.00  0.00     0.159 HD
BRANCH  26  28
HETATM   28  C10 UNL     1      24.684  18.521  37.570  1.00  0.00     0.124 C 
BRANCH  28  29
HETATM   29  C11 UNL     1      25.237  17.894  38.863  1.00  0.00     0.060 C 
BRANCH  29  30
HETATM   30  C12 UNL     1      25.602  16.473  38.649  1.00  0.00    -0.035 A 
HETATM   31  C13 UNL     1      24.952  15.475  39.379  1.00  0.00     0.009 A 
HETATM   32  C14 UNL     1      25.267  14.141  39.210  1.00  0.00     0.001 A 
HETATM   33  C15 UNL     1      26.233  13.743  38.313  1.00  0.00     0.002 A 
HETATM   34  C16 UNL     1      26.883  14.720  37.584  1.00  0.00     0.024 A 
HETATM   35  C17 UNL     1      26.565  16.066  37.758  1.00  0.00     0.040 A 
HETATM   36 CL1  UNL     1      27.415  17.288  36.807  1.00  0.00    -0.084 Cl
ENDBRANCH  29  30
ENDBRANCH  28  29
ENDBRANCH  26  28
ENDBRANCH   1  26
BRANCH  10  37
HETATM   37  C22 UNL     1      17.926  20.895  36.199  1.00  0.00     0.060 C 
BRANCH  37  38
HETATM   38  C23 UNL     1      16.814  20.561  37.168  1.00  0.00     0.276 C 
BRANCH  38  39
HETATM   39  N5  UNL     1      17.230  19.939  38.379  1.00  0.00     0.088 N 
HETATM   40  C24 UNL     1      16.586  18.698  38.690  1.00  0.00     0.272 C 
HETATM   41  C25 UNL     1      15.282  19.068  39.361  1.00  0.00     0.032 C 
HETATM   42  C26 UNL     1      15.615  20.327  40.103  1.00  0.00     0.032 C 
HETATM   43  C27 UNL     1      16.880  20.832  39.475  1.00  0.00     0.272 C 
ENDBRANCH  38  39
ENDBRANCH  37  38
ENDBRANCH  10  37
TORSDOF 15
ENDMDL
