MODEL 1
REMARK VINA RESULT: -9.680010261      0.000      0.000
REMARK  15 active torsions:
REMARK  status: ('A' for Active; 'I' for Inactive)
REMARK    1  A    between atoms: C2_2  and  C3_3 
REMARK    2  A    between atoms: C3_3  and  N1_4 
REMARK    3  A    between atoms: C3_3  and  O5_41 
REMARK       I    between atoms: N1_4  and  C4_6 
REMARK    4  A    between atoms: C4_6  and  C5_8 
REMARK    5  A    between atoms: C5_8  and  N2_11 
REMARK    6  A    between atoms: N2_11  and  C7_13 
REMARK    7  A    between atoms: C7_13  and  C8_14 
REMARK    8  A    between atoms: C7_13  and  C10_16 
REMARK       I    between atoms: C10_16  and  N3_18 
REMARK    9  A    between atoms: N3_18  and  C11_20 
REMARK   10  A    between atoms: C11_20  and  C13_22 
REMARK       I    between atoms: C13_22  and  N4_24 
REMARK   11  A    between atoms: N4_24  and  C14_26 
REMARK   12  A    between atoms: C14_26  and  C15_27 
REMARK   13  A    between atoms: C14_26  and  C23_38 
REMARK       I    between atoms: C15_27  and  N5_29 
REMARK   14  A    between atoms: N5_29  and  C16_31 
REMARK   15  A    between atoms: C16_31  and  C17_32 
ROOT
HETATM    1  C10 UNL     1      22.538  18.715  35.066  1.00  0.00     0.240 C 
HETATM    2  O2  UNL     1      23.104  18.811  33.963  1.00  0.00    -0.271 OA
HETATM    3  N3  UNL     1      22.249  17.440  35.590  1.00  0.00    -0.346 N 
ATOM      4  H3  UNL     1      21.785  17.368  36.496  1.00  0.00     0.163 HD
ENDROOT
BRANCH   3   5
HETATM    5  C11 UNL     1      22.598  16.217  34.866  1.00  0.00     0.172 C 
HETATM    6  C12 UNL     1      21.591  15.123  35.144  1.00  0.00     0.042 C 
BRANCH   5   7
HETATM    7  C13 UNL     1      23.921  15.705  35.261  1.00  0.00     0.240 C 
HETATM    8  O3  UNL     1      24.251  14.541  34.860  1.00  0.00    -0.271 OA
HETATM    9  N4  UNL     1      24.832  16.434  36.055  1.00  0.00    -0.346 N 
ATOM     10  H4  UNL     1      24.558  17.364  36.372  1.00  0.00     0.163 HD
BRANCH   9  11
HETATM   11  C14 UNL     1      26.154  15.928  36.449  1.00  0.00     0.180 C 
BRANCH  11  12
HETATM   12  C15 UNL     1      26.190  15.763  37.944  1.00  0.00     0.244 C 
HETATM   13  O4  UNL     1      26.776  14.724  38.343  1.00  0.00    -0.271 OA
HETATM   14  N5  UNL     1      25.613  16.708  38.817  1.00  0.00    -0.339 N 
ATOM     15  H5  UNL     1      25.163  17.492  38.345  1.00  0.00     0.167 HD
BRANCH  14  16
HETATM   16  C16 UNL     1      25.545  16.766  40.221  1.00  0.00     0.068 C 
BRANCH  16  17
HETATM   17  C17 UNL     1      25.247  18.045  40.920  1.00  0.00     0.024 C 
HETATM   18  C18 UNL     1      24.610  17.955  42.245  1.00  0.00     0.010 C 
HETATM   19  C19 UNL     1      24.199  19.356  42.717  1.00  0.00     0.001 C 
HETATM   20  C20 UNL     1      23.243  19.991  41.744  1.00  0.00     0.000 C 
HETATM   21  C21 UNL     1      24.054  20.216  40.460  1.00  0.00     0.001 C 
HETATM   22  C22 UNL     1      24.388  18.864  39.931  1.00  0.00     0.010 C 
ENDBRANCH  16  17
ENDBRANCH  14  16
ENDBRANCH  11  12
BRANCH  11  23
HETATM   23  C23 UNL     1      27.095  17.054  36.086  1.00  0.00     0.009 C 
HETATM   24  C24 UNL     1      28.303  16.681  35.314  1.00  0.00     0.012 C 
HETATM   25  C25 UNL     1      26.346  18.159  35.339  1.00  0.00     0.012 C 
ENDBRANCH  11  23
ENDBRANCH   9  11
ENDBRANCH   5   7
ENDBRANCH   3   5
BRANCH   1  26
HETATM   26  C7  UNL     1      22.177  19.955  35.811  1.00  0.00     0.172 C 
BRANCH  26  27
HETATM   27  N2  UNL     1      20.905  19.792  36.356  1.00  0.00    -0.368 N 
ATOM     28  H2  UNL     1      20.842  19.353  37.274  1.00  0.00     0.157 HD
BRANCH  27  29
HETATM   29  C5  UNL     1      19.718  20.180  35.749  1.00  0.00     0.250 C 
HETATM   30  C6  UNL     1      19.325  19.367  34.553  1.00  0.00     0.087 C 
HETATM   31  F1  UNL     1      20.053  21.454  35.140  1.00  0.00    -0.209 F 
BRANCH  29  32
HETATM   32  C4  UNL     1      18.573  20.485  36.648  1.00  0.00     0.280 C 
HETATM   33  N1  UNL     1      18.014  19.535  37.529  1.00  0.00    -0.327 N 
ATOM     34  H1  UNL     1      18.404  18.593  37.561  1.00  0.00     0.165 HD
HETATM   35  O1  UNL     1      18.091  21.641  36.614  1.00  0.00    -0.268 OA
BRANCH  33  36
HETATM   36  C3  UNL     1      16.907  19.867  38.383  1.00  0.00     0.246 C 
BRANCH  36  37
HETATM   37  C2  UNL     1      16.249  18.642  38.971  1.00  0.00     0.016 C 
HETATM   38  C1  UNL     1      14.987  18.392  38.659  1.00  0.00     0.011 C 
ENDBRANCH  36  37
BRANCH  36  39
HETATM   39  O5  UNL     1      17.464  20.545  39.495  1.00  0.00    -0.368 OA
HETATM   40  C26 UNL     1      16.553  21.456  40.016  1.00  0.00     0.204 C 
ENDBRANCH  36  39
ENDBRANCH  33  36
ENDBRANCH  29  32
ENDBRANCH  27  29
ENDBRANCH  26  27
BRANCH  26  41
HETATM   41  C8  UNL     1      23.327  20.176  36.785  1.00  0.00     0.030 C 
HETATM   42  C9  UNL     1      24.286  21.231  36.343  1.00  0.00     0.007 C 
ENDBRANCH  26  41
ENDBRANCH   1  26
TORSDOF 15
ENDMDL
MODEL 2
REMARK VINA RESULT: -9.324992726      1.266      1.830
REMARK  15 active torsions:
REMARK  status: ('A' for Active; 'I' for Inactive)
REMARK    1  A    between atoms: C2_2  and  C3_3 
REMARK    2  A    between atoms: C3_3  and  N1_4 
REMARK    3  A    between atoms: C3_3  and  O5_41 
REMARK       I    between atoms: N1_4  and  C4_6 
REMARK    4  A    between atoms: C4_6  and  C5_8 
REMARK    5  A    between atoms: C5_8  and  N2_11 
REMARK    6  A    between atoms: N2_11  and  C7_13 
REMARK    7  A    between atoms: C7_13  and  C8_14 
REMARK    8  A    between atoms: C7_13  and  C10_16 
REMARK       I    between atoms: C10_16  and  N3_18 
REMARK    9  A    between atoms: N3_18  and  C11_20 
REMARK   10  A    between atoms: C11_20  and  C13_22 
REMARK       I    between atoms: C13_22  and  N4_24 
REMARK   11  A    between atoms: N4_24  and  C14_26 
REMARK   12  A    between atoms: C14_26  and  C15_27 
REMARK   13  A    between atoms: C14_26  and  C23_38 
REMARK       I    between atoms: C15_27  and  N5_29 
REMARK   14  A    between atoms: N5_29  and  C16_31 
REMARK   15  A    between atoms: C16_31  and  C17_32 
ROOT
HETATM    1  C10 UNL     1      21.313  18.161  34.704  1.00  0.00     0.240 C 
HETATM    2  O2  UNL     1      21.276  18.162  33.461  1.00  0.00    -0.271 OA
HETATM    3  N3  UNL     1      21.858  17.053  35.382  1.00  0.00    -0.346 N 
ATOM      4  H3  UNL     1      21.885  17.057  36.402  1.00  0.00     0.163 HD
ENDROOT
BRANCH   3   5
HETATM    5  C11 UNL     1      22.384  15.895  34.657  1.00  0.00     0.172 C 
HETATM    6  C12 UNL     1      21.584  14.652  34.977  1.00  0.00     0.042 C 
BRANCH   5   7
HETATM    7  C13 UNL     1      23.786  15.616  35.014  1.00  0.00     0.240 C 
HETATM    8  O3  UNL     1      24.220  14.431  34.835  1.00  0.00    -0.271 OA
HETATM    9  N4  UNL     1      24.662  16.588  35.542  1.00  0.00    -0.346 N 
ATOM     10  H4  UNL     1      24.305  17.533  35.684  1.00  0.00     0.163 HD
BRANCH   9  11
HETATM   11  C14 UNL     1      26.062  16.315  35.897  1.00  0.00     0.180 C 
BRANCH  11  12
HETATM   12  C15 UNL     1      26.179  16.224  37.395  1.00  0.00     0.244 C 
HETATM   13  O4  UNL     1      26.683  15.152  37.817  1.00  0.00    -0.271 OA
HETATM   14  N5  UNL     1      25.756  17.266  38.245  1.00  0.00    -0.339 N 
ATOM     15  H5  UNL     1      25.356  18.067  37.756  1.00  0.00     0.167 HD
BRANCH  14  16
HETATM   16  C16 UNL     1      25.785  17.403  39.645  1.00  0.00     0.068 C 
BRANCH  16  17
HETATM   17  C17 UNL     1      24.709  18.134  40.365  1.00  0.00     0.024 C 
HETATM   18  C18 UNL     1      24.308  19.444  39.824  1.00  0.00     0.010 C 
HETATM   19  C19 UNL     1      23.342  20.131  40.799  1.00  0.00     0.001 C 
HETATM   20  C20 UNL     1      23.985  20.321  42.146  1.00  0.00     0.000 C 
HETATM   21  C21 UNL     1      24.189  18.907  42.706  1.00  0.00     0.001 C 
HETATM   22  C22 UNL     1      25.195  18.247  41.827  1.00  0.00     0.010 C 
ENDBRANCH  16  17
ENDBRANCH  14  16
ENDBRANCH  11  12
BRANCH  11  23
HETATM   23  C23 UNL     1      26.797  17.559  35.452  1.00  0.00     0.009 C 
HETATM   24  C24 UNL     1      27.842  17.372  34.418  1.00  0.00     0.012 C 
HETATM   25  C25 UNL     1      25.808  18.625  34.977  1.00  0.00     0.012 C 
ENDBRANCH  11  23
ENDBRANCH   9  11
ENDBRANCH   5   7
ENDBRANCH   3   5
BRANCH   1  26
HETATM   26  C7  UNL     1      20.777  19.334  35.451  1.00  0.00     0.172 C 
BRANCH  26  27
HETATM   27  N2  UNL     1      19.388  19.241  35.490  1.00  0.00    -0.368 N 
ATOM     28  H2  UNL     1      18.969  18.360  35.192  1.00  0.00     0.157 HD
BRANCH  27  29
HETATM   29  C5  UNL     1      18.528  20.251  35.902  1.00  0.00     0.250 C 
HETATM   30  C6  UNL     1      17.726  20.885  34.807  1.00  0.00     0.087 C 
HETATM   31  F1  UNL     1      19.428  21.329  36.267  1.00  0.00    -0.209 F 
BRANCH  29  32
HETATM   32  C4  UNL     1      17.733  19.994  37.133  1.00  0.00     0.280 C 
HETATM   33  N1  UNL     1      16.335  19.807  37.120  1.00  0.00    -0.327 N 
ATOM     34  H1  UNL     1      15.834  19.847  36.232  1.00  0.00     0.165 HD
HETATM   35  O1  UNL     1      18.344  19.944  38.226  1.00  0.00    -0.268 OA
BRANCH  33  36
HETATM   36  C3  UNL     1      15.601  19.562  38.331  1.00  0.00     0.246 C 
BRANCH  36  37
HETATM   37  C2  UNL     1      14.934  20.809  38.858  1.00  0.00     0.016 C 
HETATM   38  C1  UNL     1      15.610  21.584  39.692  1.00  0.00     0.011 C 
ENDBRANCH  36  37
BRANCH  36  39
HETATM   39  O5  UNL     1      14.532  18.707  37.970  1.00  0.00    -0.368 OA
HETATM   40  C26 UNL     1      14.184  17.886  39.037  1.00  0.00     0.204 C 
ENDBRANCH  36  39
ENDBRANCH  33  36
ENDBRANCH  29  32
ENDBRANCH  27  29
ENDBRANCH  26  27
BRANCH  26  41
HETATM   41  C8  UNL     1      21.512  19.318  36.785  1.00  0.00     0.030 C 
HETATM   42  C9  UNL     1      22.843  19.992  36.739  1.00  0.00     0.007 C 
ENDBRANCH  26  41
ENDBRANCH   1  26
TORSDOF 15
ENDMDL
MODEL 3
REMARK VINA RESULT: -9.066094558      2.482      7.875
REMARK  15 active torsions:
REMARK  status: ('A' for Active; 'I' for Inactive)
REMARK    1  A    between atoms: C2_2  and  C3_3 
REMARK    2  A    between atoms: C3_3  and  N1_4 
REMARK    3  A    between atoms: C3_3  and  O5_41 
REMARK       I    between atoms: N1_4  and  C4_6 
REMARK    4  A    between atoms: C4_6  and  C5_8 
REMARK    5  A    between atoms: C5_8  and  N2_11 
REMARK    6  A    between atoms: N2_11  and  C7_13 
REMARK    7  A    between atoms: C7_13  and  C8_14 
REMARK    8  A    between atoms: C7_13  and  C10_16 
REMARK       I    between atoms: C10_16  and  N3_18 
REMARK    9  A    between atoms: N3_18  and  C11_20 
REMARK   10  A    between atoms: C11_20  and  C13_22 
REMARK       I    between atoms: C13_22  and  N4_24 
REMARK   11  A    between atoms: N4_24  and  C14_26 
REMARK   12  A    between atoms: C14_26  and  C15_27 
REMARK   13  A    between atoms: C14_26  and  C23_38 
REMARK       I    between atoms: C15_27  and  N5_29 
REMARK   14  A    between atoms: N5_29  and  C16_31 
REMARK   15  A    between atoms: C16_31  and  C17_32 
ROOT
HETATM    1  C10 UNL     1      22.569  15.290  35.554  1.00  0.00     0.240 C 
HETATM    2  O2  UNL     1      21.677  14.426  35.500  1.00  0.00    -0.271 OA
HETATM    3  N3  UNL     1      22.216  16.647  35.682  1.00  0.00    -0.346 N 
ATOM      4  H3  UNL     1      22.952  17.352  35.726  1.00  0.00     0.163 HD
ENDROOT
BRANCH   3   5
HETATM    5  C11 UNL     1      20.816  17.070  35.753  1.00  0.00     0.172 C 
HETATM    6  C12 UNL     1      20.101  16.780  34.452  1.00  0.00     0.042 C 
BRANCH   5   7
HETATM    7  C13 UNL     1      20.693  18.515  36.007  1.00  0.00     0.240 C 
HETATM    8  O3  UNL     1      21.356  19.006  36.979  1.00  0.00    -0.271 OA
HETATM    9  N4  UNL     1      19.883  19.375  35.234  1.00  0.00    -0.346 N 
ATOM     10  H4  UNL     1      19.355  18.972  34.460  1.00  0.00     0.163 HD
BRANCH   9  11
HETATM   11  C14 UNL     1      19.759  20.818  35.482  1.00  0.00     0.180 C 
BRANCH  11  12
HETATM   12  C15 UNL     1      18.332  21.133  35.843  1.00  0.00     0.244 C 
HETATM   13  O4  UNL     1      17.662  21.657  34.917  1.00  0.00    -0.271 OA
HETATM   14  N5  UNL     1      17.802  20.854  37.119  1.00  0.00    -0.339 N 
ATOM     15  H5  UNL     1      18.472  20.439  37.768  1.00  0.00     0.167 HD
BRANCH  14  16
HETATM   16  C16 UNL     1      16.518  21.043  37.661  1.00  0.00     0.068 C 
BRANCH  16  17
HETATM   17  C17 UNL     1      15.909  20.025  38.559  1.00  0.00     0.024 C 
HETATM   18  C18 UNL     1      16.574  18.713  38.635  1.00  0.00     0.010 C 
HETATM   19  C19 UNL     1      15.702  17.739  39.441  1.00  0.00     0.001 C 
HETATM   20  C20 UNL     1      14.349  17.579  38.804  1.00  0.00     0.000 C 
HETATM   21  C21 UNL     1      13.665  18.945  38.944  1.00  0.00     0.001 C 
HETATM   22  C22 UNL     1      14.441  19.893  38.095  1.00  0.00     0.010 C 
ENDBRANCH  16  17
ENDBRANCH  14  16
ENDBRANCH  11  12
BRANCH  11  23
HETATM   23  C23 UNL     1      20.043  21.442  34.135  1.00  0.00     0.009 C 
HETATM   24  C24 UNL     1      21.250  22.296  34.045  1.00  0.00     0.012 C 
HETATM   25  C25 UNL     1      20.109  20.367  33.050  1.00  0.00     0.012 C 
ENDBRANCH  11  23
ENDBRANCH   9  11
ENDBRANCH   5   7
ENDBRANCH   3   5
BRANCH   1  26
HETATM   26  C7  UNL     1      23.997  14.869  35.480  1.00  0.00     0.172 C 
BRANCH  26  27
HETATM   27  N2  UNL     1      24.676  15.407  36.572  1.00  0.00    -0.368 N 
ATOM     28  H2  UNL     1      24.370  15.120  37.502  1.00  0.00     0.157 HD
BRANCH  27  29
HETATM   29  C5  UNL     1      25.735  16.302  36.495  1.00  0.00     0.250 C 
HETATM   30  C6  UNL     1      26.195  16.620  35.105  1.00  0.00     0.087 C 
HETATM   31  F1  UNL     1      26.858  15.538  37.007  1.00  0.00    -0.209 F 
BRANCH  29  32
HETATM   32  C4  UNL     1      25.666  17.500  37.375  1.00  0.00     0.280 C 
HETATM   33  N1  UNL     1      24.673  18.494  37.243  1.00  0.00    -0.327 N 
ATOM     34  H1  UNL     1      23.964  18.398  36.516  1.00  0.00     0.165 HD
HETATM   35  O1  UNL     1      26.535  17.621  38.270  1.00  0.00    -0.268 OA
BRANCH  33  36
HETATM   36  C3  UNL     1      24.640  19.638  38.111  1.00  0.00     0.246 C 
BRANCH  36  37
HETATM   37  C2  UNL     1      24.217  20.893  37.388  1.00  0.00     0.016 C 
HETATM   38  C1  UNL     1      24.151  20.870  36.066  1.00  0.00     0.011 C 
ENDBRANCH  36  37
BRANCH  36  39
HETATM   39  O5  UNL     1      23.600  19.389  39.040  1.00  0.00    -0.368 OA
HETATM   40  C26 UNL     1      23.991  19.765  40.320  1.00  0.00     0.204 C 
ENDBRANCH  36  39
ENDBRANCH  33  36
ENDBRANCH  29  32
ENDBRANCH  27  29
ENDBRANCH  26  27
BRANCH  26  41
HETATM   41  C8  UNL     1      23.954  13.351  35.369  1.00  0.00     0.030 C 
HETATM   42  C9  UNL     1      24.597  12.652  36.522  1.00  0.00     0.007 C 
ENDBRANCH  26  41
ENDBRANCH   1  26
TORSDOF 15
ENDMDL
MODEL 4
REMARK VINA RESULT: -9.056476340      1.604      2.230
REMARK  15 active torsions:
REMARK  status: ('A' for Active; 'I' for Inactive)
REMARK    1  A    between atoms: C2_2  and  C3_3 
REMARK    2  A    between atoms: C3_3  and  N1_4 
REMARK    3  A    between atoms: C3_3  and  O5_41 
REMARK       I    between atoms: N1_4  and  C4_6 
REMARK    4  A    between atoms: C4_6  and  C5_8 
REMARK    5  A    between atoms: C5_8  and  N2_11 
REMARK    6  A    between atoms: N2_11  and  C7_13 
REMARK    7  A    between atoms: C7_13  and  C8_14 
REMARK    8  A    between atoms: C7_13  and  C10_16 
REMARK       I    between atoms: C10_16  and  N3_18 
REMARK    9  A    between atoms: N3_18  and  C11_20 
REMARK   10  A    between atoms: C11_20  and  C13_22 
REMARK       I    between atoms: C13_22  and  N4_24 
REMARK   11  A    between atoms: N4_24  and  C14_26 
REMARK   12  A    between atoms: C14_26  and  C15_27 
REMARK   13  A    between atoms: C14_26  and  C23_38 
REMARK       I    between atoms: C15_27  and  N5_29 
REMARK   14  A    between atoms: N5_29  and  C16_31 
REMARK   15  A    between atoms: C16_31  and  C17_32 
ROOT
HETATM    1  C10 UNL     1      23.284  19.823  35.337  1.00  0.00     0.240 C 
HETATM    2  O2  UNL     1      23.702  20.448  36.327  1.00  0.00    -0.271 OA
HETATM    3  N3  UNL     1      23.944  18.648  34.928  1.00  0.00    -0.346 N 
ATOM      4  H3  UNL     1      23.596  18.138  34.115  1.00  0.00     0.163 HD
ENDROOT
BRANCH   3   5
HETATM    5  C11 UNL     1      25.117  18.140  35.642  1.00  0.00     0.172 C 
HETATM    6  C12 UNL     1      26.142  17.596  34.672  1.00  0.00     0.042 C 
BRANCH   5   7
HETATM    7  C13 UNL     1      24.765  17.047  36.565  1.00  0.00     0.240 C 
HETATM    8  O3  UNL     1      23.648  17.121  37.175  1.00  0.00    -0.271 OA
HETATM    9  N4  UNL     1      25.598  15.933  36.804  1.00  0.00    -0.346 N 
ATOM     10  H4  UNL     1      26.490  15.884  36.312  1.00  0.00     0.163 HD
BRANCH   9  11
HETATM   11  C14 UNL     1      25.250  14.839  37.721  1.00  0.00     0.180 C 
BRANCH  11  12
HETATM   12  C15 UNL     1      25.720  15.192  39.106  1.00  0.00     0.244 C 
HETATM   13  O4  UNL     1      26.594  14.419  39.576  1.00  0.00    -0.271 OA
HETATM   14  N5  UNL     1      25.216  16.306  39.808  1.00  0.00    -0.339 N 
ATOM     15  H5  UNL     1      24.503  16.830  39.301  1.00  0.00     0.167 HD
BRANCH  14  16
HETATM   16  C16 UNL     1      25.517  16.825  41.081  1.00  0.00     0.068 C 
BRANCH  16  17
HETATM   17  C17 UNL     1      25.134  18.214  41.450  1.00  0.00     0.024 C 
HETATM   18  C18 UNL     1      24.338  18.389  42.678  1.00  0.00     0.010 C 
HETATM   19  C19 UNL     1      23.871  19.847  42.786  1.00  0.00     0.001 C 
HETATM   20  C20 UNL     1      23.042  20.234  41.593  1.00  0.00     0.000 C 
HETATM   21  C21 UNL     1      24.003  20.205  40.397  1.00  0.00     0.001 C 
HETATM   22  C22 UNL     1      24.403  18.782  40.213  1.00  0.00     0.010 C 
ENDBRANCH  16  17
ENDBRANCH  14  16
ENDBRANCH  11  12
BRANCH  11  23
HETATM   23  C23 UNL     1      26.086  13.678  37.232  1.00  0.00     0.009 C 
HETATM   24  C24 UNL     1      25.442  12.344  37.260  1.00  0.00     0.012 C 
HETATM   25  C25 UNL     1      26.609  13.951  35.822  1.00  0.00     0.012 C 
ENDBRANCH  11  23
ENDBRANCH   9  11
ENDBRANCH   5   7
ENDBRANCH   3   5
BRANCH   1  26
HETATM   26  C7  UNL     1      22.092  20.333  34.602  1.00  0.00     0.172 C 
BRANCH  26  27
HETATM   27  N2  UNL     1      21.049  20.501  35.509  1.00  0.00    -0.368 N 
ATOM     28  H2  UNL     1      21.186  21.177  36.261  1.00  0.00     0.157 HD
BRANCH  27  29
HETATM   29  C5  UNL     1      19.837  19.823  35.472  1.00  0.00     0.250 C 
HETATM   30  C6  UNL     1      19.945  18.331  35.552  1.00  0.00     0.087 C 
HETATM   31  F1  UNL     1      19.389  20.011  34.104  1.00  0.00    -0.209 F 
BRANCH  29  32
HETATM   32  C4  UNL     1      18.734  20.374  36.305  1.00  0.00     0.280 C 
HETATM   33  N1  UNL     1      17.888  19.564  37.092  1.00  0.00    -0.327 N 
ATOM     34  H1  UNL     1      18.028  18.554  37.099  1.00  0.00     0.165 HD
HETATM   35  O1  UNL     1      18.559  21.615  36.301  1.00  0.00    -0.268 OA
BRANCH  33  36
HETATM   36  C3  UNL     1      16.832  20.133  37.884  1.00  0.00     0.246 C 
BRANCH  36  37
HETATM   37  C2  UNL     1      15.748  19.131  38.197  1.00  0.00     0.016 C 
HETATM   38  C1  UNL     1      16.012  18.163  39.061  1.00  0.00     0.011 C 
ENDBRANCH  36  37
BRANCH  36  39
HETATM   39  O5  UNL     1      17.411  20.441  39.138  1.00  0.00    -0.368 OA
HETATM   40  C26 UNL     1      16.707  21.465  39.760  1.00  0.00     0.204 C 
ENDBRANCH  36  39
ENDBRANCH  33  36
ENDBRANCH  29  32
ENDBRANCH  27  29
ENDBRANCH  26  27
BRANCH  26  41
HETATM   41  C8  UNL     1      22.583  21.575  33.871  1.00  0.00     0.030 C 
HETATM   42  C9  UNL     1      21.544  22.640  33.743  1.00  0.00     0.007 C 
ENDBRANCH  26  41
ENDBRANCH   1  26
TORSDOF 15
ENDMDL
MODEL 5
REMARK VINA RESULT: -8.970858969      2.361      4.060
REMARK  15 active torsions:
REMARK  status: ('A' for Active; 'I' for Inactive)
REMARK    1  A    between atoms: C2_2  and  C3_3 
REMARK    2  A    between atoms: C3_3  and  N1_4 
REMARK    3  A    between atoms: C3_3  and  O5_41 
REMARK       I    between atoms: N1_4  and  C4_6 
REMARK    4  A    between atoms: C4_6  and  C5_8 
REMARK    5  A    between atoms: C5_8  and  N2_11 
REMARK    6  A    between atoms: N2_11  and  C7_13 
REMARK    7  A    between atoms: C7_13  and  C8_14 
REMARK    8  A    between atoms: C7_13  and  C10_16 
REMARK       I    between atoms: C10_16  and  N3_18 
REMARK    9  A    between atoms: N3_18  and  C11_20 
REMARK   10  A    between atoms: C11_20  and  C13_22 
REMARK       I    between atoms: C13_22  and  N4_24 
REMARK   11  A    between atoms: N4_24  and  C14_26 
REMARK   12  A    between atoms: C14_26  and  C15_27 
REMARK   13  A    between atoms: C14_26  and  C23_38 
REMARK       I    between atoms: C15_27  and  N5_29 
REMARK   14  A    between atoms: N5_29  and  C16_31 
REMARK   15  A    between atoms: C16_31  and  C17_32 
ROOT
HETATM    1  C10 UNL     1      22.388  18.425  35.582  1.00  0.00     0.240 C 
HETATM    2  O2  UNL     1      22.878  18.720  34.478  1.00  0.00    -0.271 OA
HETATM    3  N3  UNL     1      22.184  17.071  35.913  1.00  0.00    -0.346 N 
ATOM      4  H3  UNL     1      21.782  16.836  36.821  1.00  0.00     0.163 HD
ENDROOT
BRANCH   3   5
HETATM    5  C11 UNL     1      22.534  15.995  34.985  1.00  0.00     0.172 C 
HETATM    6  C12 UNL     1      21.610  14.811  35.163  1.00  0.00     0.042 C 
BRANCH   5   7
HETATM    7  C13 UNL     1      23.909  15.513  35.199  1.00  0.00     0.240 C 
HETATM    8  O3  UNL     1      24.180  14.317  34.851  1.00  0.00    -0.271 OA
HETATM    9  N4  UNL     1      24.931  16.303  35.767  1.00  0.00    -0.346 N 
ATOM     10  H4  UNL     1      24.704  17.258  36.045  1.00  0.00     0.163 HD
BRANCH   9  11
HETATM   11  C14 UNL     1      26.305  15.827  35.981  1.00  0.00     0.180 C 
BRANCH  11  12
HETATM   12  C15 UNL     1      26.381  15.129  37.312  1.00  0.00     0.244 C 
HETATM   13  O4  UNL     1      26.699  15.871  38.276  1.00  0.00    -0.271 OA
HETATM   14  N5  UNL     1      26.111  13.752  37.453  1.00  0.00    -0.339 N 
ATOM     15  H5  UNL     1      25.878  13.281  36.579  1.00  0.00     0.167 HD
BRANCH  14  16
HETATM   16  C16 UNL     1      26.103  12.911  38.581  1.00  0.00     0.068 C 
BRANCH  16  17
HETATM   17  C17 UNL     1      26.933  11.677  38.620  1.00  0.00     0.024 C 
HETATM   18  C18 UNL     1      28.040  11.641  39.592  1.00  0.00     0.010 C 
HETATM   19  C19 UNL     1      28.898  10.392  39.350  1.00  0.00     0.001 C 
HETATM   20  C20 UNL     1      29.458  10.387  37.954  1.00  0.00     0.000 C 
HETATM   21  C21 UNL     1      28.246  10.232  37.026  1.00  0.00     0.001 C 
HETATM   22  C22 UNL     1      27.440  11.476  37.174  1.00  0.00     0.010 C 
ENDBRANCH  16  17
ENDBRANCH  14  16
ENDBRANCH  11  12
BRANCH  11  23
HETATM   23  C23 UNL     1      27.117  17.098  36.080  1.00  0.00     0.009 C 
HETATM   24  C24 UNL     1      28.466  17.068  35.468  1.00  0.00     0.012 C 
HETATM   25  C25 UNL     1      26.334  18.279  35.506  1.00  0.00     0.012 C 
ENDBRANCH  11  23
ENDBRANCH   9  11
ENDBRANCH   5   7
ENDBRANCH   3   5
BRANCH   1  26
HETATM   26  C7  UNL     1      22.027  19.514  36.533  1.00  0.00     0.172 C 
BRANCH  26  27
HETATM   27  N2  UNL     1      20.659  19.445  36.790  1.00  0.00    -0.368 N 
ATOM     28  H2  UNL     1      20.367  18.990  37.655  1.00  0.00     0.157 HD
BRANCH  27  29
HETATM   29  C5  UNL     1      19.662  19.946  35.963  1.00  0.00     0.250 C 
HETATM   30  C6  UNL     1      19.355  19.105  34.762  1.00  0.00     0.087 C 
HETATM   31  F1  UNL     1      20.284  21.108  35.355  1.00  0.00    -0.209 F 
BRANCH  29  32
HETATM   32  C4  UNL     1      18.443  20.479  36.628  1.00  0.00     0.280 C 
HETATM   33  N1  UNL     1      17.526  19.660  37.321  1.00  0.00    -0.327 N 
ATOM     34  H1  UNL     1      17.695  18.656  37.375  1.00  0.00     0.165 HD
HETATM   35  O1  UNL     1      18.232  21.713  36.565  1.00  0.00    -0.268 OA
BRANCH  33  36
HETATM   36  C3  UNL     1      16.358  20.212  37.951  1.00  0.00     0.246 C 
BRANCH  36  37
HETATM   37  C2  UNL     1      15.268  19.185  38.136  1.00  0.00     0.016 C 
HETATM   38  C1  UNL     1      15.493  18.163  38.947  1.00  0.00     0.011 C 
ENDBRANCH  36  37
BRANCH  36  39
HETATM   39  O5  UNL     1      16.754  20.558  39.266  1.00  0.00    -0.368 OA
HETATM   40  C26 UNL     1      15.915  21.537  39.784  1.00  0.00     0.204 C 
ENDBRANCH  36  39
ENDBRANCH  33  36
ENDBRANCH  29  32
ENDBRANCH  27  29
ENDBRANCH  26  27
BRANCH  26  41
HETATM   41  C8  UNL     1      22.965  19.327  37.718  1.00  0.00     0.030 C 
HETATM   42  C9  UNL     1      24.068  20.334  37.767  1.00  0.00     0.007 C 
ENDBRANCH  26  41
ENDBRANCH   1  26
TORSDOF 15
ENDMDL
