MODEL 1
REMARK VINA RESULT: -7.332806443      0.000      0.000
REMARK  15 active torsions:
REMARK  status: ('A' for Active; 'I' for Inactive)
REMARK    1  A    between atoms: N1_5  and  C5_7 
REMARK    2  A    between atoms: C5_7  and  C6_8 
REMARK    3  A    between atoms: C6_8  and  C7_9 
REMARK    4  A    between atoms: C7_9  and  N2_10 
REMARK    5  A    between atoms: N2_10  and  C8_13 
REMARK    6  A    between atoms: C8_13  and  C9_14 
REMARK    7  A    between atoms: C9_14  and  C10_15 
REMARK    8  A    between atoms: C10_15  and  N3_16 
REMARK    9  A    between atoms: N3_16  and  C11_19 
REMARK   10  A    between atoms: C11_19  and  C12_20 
REMARK   11  A    between atoms: C13_24  and  N5_25 
REMARK   12  A    between atoms: N5_25  and  C14_27 
REMARK   13  A    between atoms: C14_27  and  C15_28 
REMARK   14  A    between atoms: C15_28  and  C16_29 
REMARK   15  A    between atoms: C16_29  and  O1_30 
ROOT
HETATM    1  C1  UNL     1     -21.107 -22.155 -45.827  1.00  0.00     0.069 C 
HETATM    2  C2  UNL     1     -20.361 -21.114 -45.075  1.00  0.00     0.026 A 
HETATM    3  C3  UNL     1     -20.948 -19.879 -44.835  1.00  0.00     0.073 A 
HETATM    4  C4  UNL     1     -20.335 -18.869 -44.150  1.00  0.00     0.118 A 
HETATM    5  N1  UNL     1     -20.805 -17.727 -43.883  1.00  0.00    -0.376 N 
ATOM      6  H1  UNL     1     -20.181 -17.113 -43.360  1.00  0.00     0.161 HD
HETATM    7  N4  UNL     1     -19.070 -19.134 -43.695  1.00  0.00    -0.177 N 
ATOM      8  H4  UNL     1     -18.565 -18.415 -43.177  1.00  0.00     0.185 HD
HETATM    9  C13 UNL     1     -18.478 -20.318 -43.913  1.00  0.00     0.679 A 
HETATM   10  N6  UNL     1     -19.123 -21.304 -44.601  1.00  0.00    -0.196 N 
ATOM     11  H6  UNL     1     -18.656 -22.198 -44.757  1.00  0.00     0.184 HD
ENDROOT
BRANCH   5  12
HETATM   12  C5  UNL     1     -22.072 -17.170 -44.202  1.00  0.00     0.123 C 
BRANCH  12  13
HETATM   13  C6  UNL     1     -22.880 -16.816 -42.991  1.00  0.00     0.047 C 
BRANCH  13  14
HETATM   14  C7  UNL     1     -23.224 -17.977 -42.127  1.00  0.00     0.234 C 
BRANCH  14  15
HETATM   15  N2  UNL     1     -23.918 -19.045 -42.834  1.00  0.00    -0.075 N 
ATOM     16  H22 UNL     1     -24.879 -18.804 -43.077  1.00  0.00     0.277 HD
ATOM     17  H21 UNL     1     -23.573 -19.185 -43.784  1.00  0.00     0.277 HD
BRANCH  15  18
HETATM   18  C8  UNL     1     -23.823 -20.228 -42.019  1.00  0.00     0.233 C 
BRANCH  18  19
HETATM   19  C9  UNL     1     -23.904 -19.955 -40.542  1.00  0.00     0.055 C 
BRANCH  19  20
HETATM   20  C10 UNL     1     -25.203 -20.613 -40.058  1.00  0.00     0.234 C 
BRANCH  20  21
HETATM   21  N3  UNL     1     -25.216 -20.787 -38.649  1.00  0.00    -0.074 N 
ATOM     22  H32 UNL     1     -26.078 -20.433 -38.236  1.00  0.00     0.277 HD
ATOM     23  H31 UNL     1     -25.313 -21.770 -38.394  1.00  0.00     0.277 HD
BRANCH  21  24
HETATM   24  C11 UNL     1     -24.059 -20.196 -38.042  1.00  0.00     0.243 C 
BRANCH  24  25
HETATM   25  C12 UNL     1     -24.450 -19.219 -36.990  1.00  0.00     0.113 C 
HETATM   26  S1  UNL     1     -25.002 -17.637 -37.694  1.00  0.00    -0.096 SA
ENDBRANCH  24  25
ENDBRANCH  21  24
ENDBRANCH  20  21
ENDBRANCH  19  20
ENDBRANCH  18  19
ENDBRANCH  15  18
ENDBRANCH  14  15
ENDBRANCH  13  14
ENDBRANCH  12  13
ENDBRANCH   5  12
BRANCH   9  27
HETATM   27  N5  UNL     1     -17.293 -20.554 -43.476  1.00  0.00    -0.226 N 
ATOM     28  H5  UNL     1     -16.483 -20.472 -44.090  1.00  0.00     0.177 HD
BRANCH  27  29
HETATM   29  C14 UNL     1     -17.135 -20.940 -42.092  1.00  0.00     0.140 C 
BRANCH  29  30
HETATM   30  C15 UNL     1     -16.590 -19.751 -41.319  1.00  0.00     0.046 C 
BRANCH  30  31
HETATM   31  C16 UNL     1     -15.128 -20.007 -40.961  1.00  0.00     0.165 C 
BRANCH  31  32
HETATM   32  O1  UNL     1     -14.638 -21.091 -41.680  1.00  0.00    -0.401 OA
ATOM     33  H1  UNL     1     -14.242 -21.724 -41.093  1.00  0.00     0.209 HD
ENDBRANCH  31  32
ENDBRANCH  30  31
ENDBRANCH  29  30
ENDBRANCH  27  29
ENDBRANCH   9  27
TORSDOF 15
ENDMDL
MODEL 2
REMARK VINA RESULT: -7.283747119      1.890      2.566
REMARK  15 active torsions:
REMARK  status: ('A' for Active; 'I' for Inactive)
REMARK    1  A    between atoms: N1_5  and  C5_7 
REMARK    2  A    between atoms: C5_7  and  C6_8 
REMARK    3  A    between atoms: C6_8  and  C7_9 
REMARK    4  A    between atoms: C7_9  and  N2_10 
REMARK    5  A    between atoms: N2_10  and  C8_13 
REMARK    6  A    between atoms: C8_13  and  C9_14 
REMARK    7  A    between atoms: C9_14  and  C10_15 
REMARK    8  A    between atoms: C10_15  and  N3_16 
REMARK    9  A    between atoms: N3_16  and  C11_19 
REMARK   10  A    between atoms: C11_19  and  C12_20 
REMARK   11  A    between atoms: C13_24  and  N5_25 
REMARK   12  A    between atoms: N5_25  and  C14_27 
REMARK   13  A    between atoms: C14_27  and  C15_28 
REMARK   14  A    between atoms: C15_28  and  C16_29 
REMARK   15  A    between atoms: C16_29  and  O1_30 
ROOT
HETATM    1  C1  UNL     1     -20.526 -21.815 -46.451  1.00  0.00     0.069 C 
HETATM    2  C2  UNL     1     -20.070 -21.172 -45.192  1.00  0.00     0.026 A 
HETATM    3  C3  UNL     1     -20.994 -20.569 -44.349  1.00  0.00     0.073 A 
HETATM    4  C4  UNL     1     -20.661 -19.958 -43.173  1.00  0.00     0.118 A 
HETATM    5  N1  UNL     1     -21.442 -19.399 -42.352  1.00  0.00    -0.376 N 
ATOM      6  H1  UNL     1     -20.990 -18.998 -41.530  1.00  0.00     0.161 HD
HETATM    7  N4  UNL     1     -19.330 -19.964 -42.850  1.00  0.00    -0.177 N 
ATOM      8  H4  UNL     1     -19.026 -19.522 -41.982  1.00  0.00     0.185 HD
HETATM    9  C13 UNL     1     -18.416 -20.539 -43.646  1.00  0.00     0.679 A 
HETATM   10  N6  UNL     1     -18.787 -21.141 -44.813  1.00  0.00    -0.196 N 
ATOM     11  H6  UNL     1     -18.076 -21.572 -45.405  1.00  0.00     0.184 HD
ENDROOT
BRANCH   5  12
HETATM   12  C5  UNL     1     -22.853 -19.246 -42.400  1.00  0.00     0.123 C 
BRANCH  12  13
HETATM   13  C6  UNL     1     -23.490 -19.232 -41.044  1.00  0.00     0.047 C 
BRANCH  13  14
HETATM   14  C7  UNL     1     -24.613 -20.195 -40.888  1.00  0.00     0.234 C 
BRANCH  14  15
HETATM   15  N2  UNL     1     -24.916 -20.516 -39.500  1.00  0.00    -0.075 N 
ATOM     16  H22 UNL     1     -25.800 -20.118 -39.182  1.00  0.00     0.277 HD
ATOM     17  H21 UNL     1     -25.156 -21.498 -39.360  1.00  0.00     0.277 HD
BRANCH  15  18
HETATM   18  C8  UNL     1     -23.790 -20.093 -38.709  1.00  0.00     0.233 C 
BRANCH  18  19
HETATM   19  C9  UNL     1     -24.160 -19.625 -37.329  1.00  0.00     0.055 C 
BRANCH  19  20
HETATM   20  C10 UNL     1     -25.319 -18.637 -37.510  1.00  0.00     0.234 C 
BRANCH  20  21
HETATM   21  N3  UNL     1     -24.876 -17.288 -37.480  1.00  0.00    -0.074 N 
ATOM     22  H32 UNL     1     -25.120 -16.834 -36.600  1.00  0.00     0.277 HD
ATOM     23  H31 UNL     1     -23.860 -17.229 -37.411  1.00  0.00     0.277 HD
BRANCH  21  24
HETATM   24  C11 UNL     1     -25.371 -16.554 -38.608  1.00  0.00     0.243 C 
BRANCH  24  25
HETATM   25  C12 UNL     1     -26.540 -17.242 -39.220  1.00  0.00     0.113 C 
HETATM   26  S1  UNL     1     -27.951 -16.120 -39.456  1.00  0.00    -0.096 SA
ENDBRANCH  24  25
ENDBRANCH  21  24
ENDBRANCH  20  21
ENDBRANCH  19  20
ENDBRANCH  18  19
ENDBRANCH  15  18
ENDBRANCH  14  15
ENDBRANCH  13  14
ENDBRANCH  12  13
ENDBRANCH   5  12
BRANCH   9  27
HETATM   27  N5  UNL     1     -17.171 -20.542 -43.326  1.00  0.00    -0.226 N 
ATOM     28  H5  UNL     1     -16.460 -20.244 -43.994  1.00  0.00     0.177 HD
BRANCH  27  29
HETATM   29  C14 UNL     1     -16.803 -20.977 -41.999  1.00  0.00     0.140 C 
BRANCH  29  30
HETATM   30  C15 UNL     1     -16.152 -19.813 -41.272  1.00  0.00     0.046 C 
BRANCH  30  31
HETATM   31  C16 UNL     1     -16.636 -19.786 -39.824  1.00  0.00     0.165 C 
BRANCH  31  32
HETATM   32  O1  UNL     1     -17.703 -20.660 -39.655  1.00  0.00    -0.401 OA
ATOM     33  H1  UNL     1     -17.623 -21.123 -38.829  1.00  0.00     0.209 HD
ENDBRANCH  31  32
ENDBRANCH  30  31
ENDBRANCH  29  30
ENDBRANCH  27  29
ENDBRANCH   9  27
TORSDOF 15
ENDMDL
MODEL 3
REMARK VINA RESULT: -7.233379622      1.649      1.828
REMARK  15 active torsions:
REMARK  status: ('A' for Active; 'I' for Inactive)
REMARK    1  A    between atoms: N1_5  and  C5_7 
REMARK    2  A    between atoms: C5_7  and  C6_8 
REMARK    3  A    between atoms: C6_8  and  C7_9 
REMARK    4  A    between atoms: C7_9  and  N2_10 
REMARK    5  A    between atoms: N2_10  and  C8_13 
REMARK    6  A    between atoms: C8_13  and  C9_14 
REMARK    7  A    between atoms: C9_14  and  C10_15 
REMARK    8  A    between atoms: C10_15  and  N3_16 
REMARK    9  A    between atoms: N3_16  and  C11_19 
REMARK   10  A    between atoms: C11_19  and  C12_20 
REMARK   11  A    between atoms: C13_24  and  N5_25 
REMARK   12  A    between atoms: N5_25  and  C14_27 
REMARK   13  A    between atoms: C14_27  and  C15_28 
REMARK   14  A    between atoms: C15_28  and  C16_29 
REMARK   15  A    between atoms: C16_29  and  O1_30 
ROOT
HETATM    1  C1  UNL     1     -20.590 -21.847 -46.337  1.00  0.00     0.069 C 
HETATM    2  C2  UNL     1     -20.081 -21.185 -45.108  1.00  0.00     0.026 A 
HETATM    3  C3  UNL     1     -20.960 -20.506 -44.273  1.00  0.00     0.073 A 
HETATM    4  C4  UNL     1     -20.576 -19.874 -43.125  1.00  0.00     0.118 A 
HETATM    5  N1  UNL     1     -21.314 -19.248 -42.312  1.00  0.00    -0.376 N 
ATOM      6  H1  UNL     1     -20.829 -18.842 -41.511  1.00  0.00     0.161 HD
HETATM    7  N4  UNL     1     -19.242 -19.938 -42.821  1.00  0.00    -0.177 N 
ATOM      8  H4  UNL     1     -18.901 -19.482 -41.974  1.00  0.00     0.185 HD
HETATM    9  C13 UNL     1     -18.372 -20.586 -43.610  1.00  0.00     0.679 A 
HETATM   10  N6  UNL     1     -18.792 -21.207 -44.749  1.00  0.00    -0.196 N 
ATOM     11  H6  UNL     1     -18.114 -21.694 -45.336  1.00  0.00     0.184 HD
ENDROOT
BRANCH   5  12
HETATM   12  C5  UNL     1     -22.716 -19.024 -42.345  1.00  0.00     0.123 C 
BRANCH  12  13
HETATM   13  C6  UNL     1     -23.079 -17.571 -42.395  1.00  0.00     0.047 C 
BRANCH  13  14
HETATM   14  C7  UNL     1     -24.519 -17.293 -42.149  1.00  0.00     0.234 C 
BRANCH  14  15
HETATM   15  N2  UNL     1     -25.235 -18.413 -41.553  1.00  0.00    -0.075 N 
ATOM     16  H22 UNL     1     -25.792 -18.936 -42.229  1.00  0.00     0.277 HD
ATOM     17  H21 UNL     1     -24.620 -19.177 -41.271  1.00  0.00     0.277 HD
BRANCH  15  18
HETATM   18  C8  UNL     1     -26.017 -17.888 -40.464  1.00  0.00     0.233 C 
BRANCH  18  19
HETATM   19  C9  UNL     1     -25.745 -18.556 -39.145  1.00  0.00     0.055 C 
BRANCH  19  20
HETATM   20  C10 UNL     1     -25.722 -20.064 -39.427  1.00  0.00     0.234 C 
BRANCH  20  21
HETATM   21  N3  UNL     1     -25.033 -20.782 -38.415  1.00  0.00    -0.074 N 
ATOM     22  H32 UNL     1     -25.645 -21.002 -37.629  1.00  0.00     0.277 HD
ATOM     23  H31 UNL     1     -24.815 -21.733 -38.713  1.00  0.00     0.277 HD
BRANCH  21  24
HETATM   24  C11 UNL     1     -23.858 -20.081 -37.988  1.00  0.00     0.243 C 
BRANCH  24  25
HETATM   25  C12 UNL     1     -23.756 -20.066 -36.504  1.00  0.00     0.113 C 
HETATM   26  S1  UNL     1     -22.078 -19.657 -35.936  1.00  0.00    -0.096 SA
ENDBRANCH  24  25
ENDBRANCH  21  24
ENDBRANCH  20  21
ENDBRANCH  19  20
ENDBRANCH  18  19
ENDBRANCH  15  18
ENDBRANCH  14  15
ENDBRANCH  13  14
ENDBRANCH  12  13
ENDBRANCH   5  12
BRANCH   9  27
HETATM   27  N5  UNL     1     -17.123 -20.642 -43.309  1.00  0.00    -0.226 N 
ATOM     28  H5  UNL     1     -16.410 -20.383 -43.990  1.00  0.00     0.177 HD
BRANCH  27  29
HETATM   29  C14 UNL     1     -16.755 -21.079 -41.982  1.00  0.00     0.140 C 
BRANCH  29  30
HETATM   30  C15 UNL     1     -15.998 -19.956 -41.295  1.00  0.00     0.046 C 
BRANCH  30  31
HETATM   31  C16 UNL     1     -16.747 -19.538 -40.032  1.00  0.00     0.165 C 
BRANCH  31  32
HETATM   32  O1  UNL     1     -17.524 -20.590 -39.561  1.00  0.00    -0.401 OA
ATOM     33  H1  UNL     1     -18.446 -20.410 -39.706  1.00  0.00     0.209 HD
ENDBRANCH  31  32
ENDBRANCH  30  31
ENDBRANCH  29  30
ENDBRANCH  27  29
ENDBRANCH   9  27
TORSDOF 15
ENDMDL
MODEL 4
REMARK VINA RESULT: -7.175136763      3.315      7.638
REMARK  15 active torsions:
REMARK  status: ('A' for Active; 'I' for Inactive)
REMARK    1  A    between atoms: N1_5  and  C5_7 
REMARK    2  A    between atoms: C5_7  and  C6_8 
REMARK    3  A    between atoms: C6_8  and  C7_9 
REMARK    4  A    between atoms: C7_9  and  N2_10 
REMARK    5  A    between atoms: N2_10  and  C8_13 
REMARK    6  A    between atoms: C8_13  and  C9_14 
REMARK    7  A    between atoms: C9_14  and  C10_15 
REMARK    8  A    between atoms: C10_15  and  N3_16 
REMARK    9  A    between atoms: N3_16  and  C11_19 
REMARK   10  A    between atoms: C11_19  and  C12_20 
REMARK   11  A    between atoms: C13_24  and  N5_25 
REMARK   12  A    between atoms: N5_25  and  C14_27 
REMARK   13  A    between atoms: C14_27  and  C15_28 
REMARK   14  A    between atoms: C15_28  and  C16_29 
REMARK   15  A    between atoms: C16_29  and  O1_30 
ROOT
HETATM    1  C1  UNL     1     -25.788 -16.224 -40.825  1.00  0.00     0.069 C 
HETATM    2  C2  UNL     1     -25.117 -17.501 -40.468  1.00  0.00     0.026 A 
HETATM    3  C3  UNL     1     -24.331 -18.155 -41.408  1.00  0.00     0.073 A 
HETATM    4  C4  UNL     1     -23.677 -19.329 -41.162  1.00  0.00     0.118 A 
HETATM    5  N1  UNL     1     -22.939 -19.976 -41.959  1.00  0.00    -0.376 N 
ATOM      6  H1  UNL     1     -22.543 -20.837 -41.579  1.00  0.00     0.161 HD
HETATM    7  N4  UNL     1     -23.835 -19.853 -39.906  1.00  0.00    -0.177 N 
ATOM      8  H4  UNL     1     -23.369 -20.729 -39.669  1.00  0.00     0.185 HD
HETATM    9  C13 UNL     1     -24.589 -19.242 -38.980  1.00  0.00     0.679 A 
HETATM   10  N6  UNL     1     -25.227 -18.070 -39.262  1.00  0.00    -0.196 N 
ATOM     11  H6  UNL     1     -25.795 -17.621 -38.543  1.00  0.00     0.184 HD
ENDROOT
BRANCH   5  12
HETATM   12  C5  UNL     1     -22.577 -19.686 -43.301  1.00  0.00     0.123 C 
BRANCH  12  13
HETATM   13  C6  UNL     1     -21.120 -19.897 -43.576  1.00  0.00     0.047 C 
BRANCH  13  14
HETATM   14  C7  UNL     1     -20.840 -20.799 -44.725  1.00  0.00     0.234 C 
BRANCH  14  15
HETATM   15  N2  UNL     1     -19.508 -21.388 -44.692  1.00  0.00    -0.075 N 
ATOM     16  H22 UNL     1     -19.521 -22.395 -44.527  1.00  0.00     0.277 HD
ATOM     17  H21 UNL     1     -19.059 -21.412 -45.608  1.00  0.00     0.277 HD
BRANCH  15  18
HETATM   18  C8  UNL     1     -18.746 -20.664 -43.709  1.00  0.00     0.233 C 
BRANCH  18  19
HETATM   19  C9  UNL     1     -17.374 -21.230 -43.468  1.00  0.00     0.055 C 
BRANCH  19  20
HETATM   20  C10 UNL     1     -16.972 -20.785 -42.056  1.00  0.00     0.234 C 
BRANCH  20  21
HETATM   21  N3  UNL     1     -15.576 -20.922 -41.834  1.00  0.00    -0.074 N 
ATOM     22  H32 UNL     1     -15.279 -21.895 -41.907  1.00  0.00     0.277 HD
ATOM     23  H31 UNL     1     -15.034 -20.535 -42.607  1.00  0.00     0.277 HD
BRANCH  21  24
HETATM   24  C11 UNL     1     -15.191 -20.345 -40.580  1.00  0.00     0.243 C 
BRANCH  24  25
HETATM   25  C12 UNL     1     -15.469 -18.884 -40.557  1.00  0.00     0.113 C 
HETATM   26  S1  UNL     1     -13.962 -17.901 -40.293  1.00  0.00    -0.096 SA
ENDBRANCH  24  25
ENDBRANCH  21  24
ENDBRANCH  20  21
ENDBRANCH  19  20
ENDBRANCH  18  19
ENDBRANCH  15  18
ENDBRANCH  14  15
ENDBRANCH  13  14
ENDBRANCH  12  13
ENDBRANCH   5  12
BRANCH   9  27
HETATM   27  N5  UNL     1     -24.724 -19.744 -37.804  1.00  0.00    -0.226 N 
ATOM     28  H5  UNL     1     -25.100 -20.683 -37.677  1.00  0.00     0.177 HD
BRANCH  27  29
HETATM   29  C14 UNL     1     -24.329 -18.945 -36.666  1.00  0.00     0.140 C 
BRANCH  29  30
HETATM   30  C15 UNL     1     -23.463 -19.797 -35.755  1.00  0.00     0.046 C 
BRANCH  30  31
HETATM   31  C16 UNL     1     -22.003 -19.677 -36.187  1.00  0.00     0.165 C 
BRANCH  31  32
HETATM   32  O1  UNL     1     -21.801 -20.335 -37.395  1.00  0.00    -0.401 OA
ATOM     33  H1  UNL     1     -21.234 -21.087 -37.271  1.00  0.00     0.209 HD
ENDBRANCH  31  32
ENDBRANCH  30  31
ENDBRANCH  29  30
ENDBRANCH  27  29
ENDBRANCH   9  27
TORSDOF 15
ENDMDL
MODEL 5
REMARK VINA RESULT: -7.169389913      3.271      7.342
REMARK  15 active torsions:
REMARK  status: ('A' for Active; 'I' for Inactive)
REMARK    1  A    between atoms: N1_5  and  C5_7 
REMARK    2  A    between atoms: C5_7  and  C6_8 
REMARK    3  A    between atoms: C6_8  and  C7_9 
REMARK    4  A    between atoms: C7_9  and  N2_10 
REMARK    5  A    between atoms: N2_10  and  C8_13 
REMARK    6  A    between atoms: C8_13  and  C9_14 
REMARK    7  A    between atoms: C9_14  and  C10_15 
REMARK    8  A    between atoms: C10_15  and  N3_16 
REMARK    9  A    between atoms: N3_16  and  C11_19 
REMARK   10  A    between atoms: C11_19  and  C12_20 
REMARK   11  A    between atoms: C13_24  and  N5_25 
REMARK   12  A    between atoms: N5_25  and  C14_27 
REMARK   13  A    between atoms: C14_27  and  C15_28 
REMARK   14  A    between atoms: C15_28  and  C16_29 
REMARK   15  A    between atoms: C16_29  and  O1_30 
ROOT
HETATM    1  C1  UNL     1     -25.240 -16.441 -40.967  1.00  0.00     0.069 C 
HETATM    2  C2  UNL     1     -25.041 -17.859 -40.572  1.00  0.00     0.026 A 
HETATM    3  C3  UNL     1     -24.855 -18.830 -41.548  1.00  0.00     0.073 A 
HETATM    4  C4  UNL     1     -24.663 -20.154 -41.273  1.00  0.00     0.118 A 
HETATM    5  N1  UNL     1     -24.478 -21.090 -42.101  1.00  0.00    -0.376 N 
ATOM      6  H1  UNL     1     -24.356 -22.015 -41.689  1.00  0.00     0.161 HD
HETATM    7  N4  UNL     1     -24.663 -20.497 -39.946  1.00  0.00    -0.177 N 
ATOM      8  H4  UNL     1     -24.523 -21.473 -39.684  1.00  0.00     0.185 HD
HETATM    9  C13 UNL     1     -24.841 -19.580 -38.983  1.00  0.00     0.679 A 
HETATM   10  N6  UNL     1     -25.029 -18.266 -39.297  1.00  0.00    -0.196 N 
ATOM     11  H6  UNL     1     -25.163 -17.584 -38.550  1.00  0.00     0.184 HD
ENDROOT
BRANCH   5  12
HETATM   12  C5  UNL     1     -24.412 -21.049 -43.519  1.00  0.00     0.123 C 
BRANCH  12  13
HETATM   13  C6  UNL     1     -23.015 -20.896 -44.039  1.00  0.00     0.047 C 
BRANCH  13  14
HETATM   14  C7  UNL     1     -22.716 -19.551 -44.599  1.00  0.00     0.234 C 
BRANCH  14  15
HETATM   15  N2  UNL     1     -22.021 -18.673 -43.667  1.00  0.00    -0.075 N 
ATOM     16  H22 UNL     1     -21.683 -17.815 -44.103  1.00  0.00     0.277 HD
ATOM     17  H21 UNL     1     -22.645 -18.238 -42.987  1.00  0.00     0.277 HD
BRANCH  15  18
HETATM   18  C8  UNL     1     -20.973 -19.447 -43.054  1.00  0.00     0.233 C 
BRANCH  18  19
HETATM   19  C9  UNL     1     -19.593 -19.076 -43.524  1.00  0.00     0.055 C 
BRANCH  19  20
HETATM   20  C10 UNL     1     -18.894 -20.395 -43.876  1.00  0.00     0.234 C 
BRANCH  20  21
HETATM   21  N3  UNL     1     -17.498 -20.339 -43.625  1.00  0.00    -0.074 N 
ATOM     22  H32 UNL     1     -16.963 -20.753 -44.388  1.00  0.00     0.277 HD
ATOM     23  H31 UNL     1     -17.144 -19.384 -43.688  1.00  0.00     0.277 HD
BRANCH  21  24
HETATM   24  C11 UNL     1     -17.171 -20.940 -42.365  1.00  0.00     0.243 C 
BRANCH  24  25
HETATM   25  C12 UNL     1     -16.486 -19.967 -41.472  1.00  0.00     0.113 C 
HETATM   26  S1  UNL     1     -14.821 -20.524 -40.999  1.00  0.00    -0.096 SA
ENDBRANCH  24  25
ENDBRANCH  21  24
ENDBRANCH  20  21
ENDBRANCH  19  20
ENDBRANCH  18  19
ENDBRANCH  15  18
ENDBRANCH  14  15
ENDBRANCH  13  14
ENDBRANCH  12  13
ENDBRANCH   5  12
BRANCH   9  27
HETATM   27  N5  UNL     1     -24.833 -19.917 -37.743  1.00  0.00    -0.226 N 
ATOM     28  H5  UNL     1     -25.166 -20.834 -37.448  1.00  0.00     0.177 HD
BRANCH  27  29
HETATM   29  C14 UNL     1     -24.340 -18.963 -36.775  1.00  0.00     0.140 C 
BRANCH  29  30
HETATM   30  C15 UNL     1     -23.523 -19.710 -35.735  1.00  0.00     0.046 C 
BRANCH  30  31
HETATM   31  C16 UNL     1     -22.043 -19.633 -36.104  1.00  0.00     0.165 C 
BRANCH  31  32
HETATM   32  O1  UNL     1     -21.808 -20.308 -37.296  1.00  0.00    -0.401 OA
ATOM     33  H1  UNL     1     -21.079 -19.912 -37.761  1.00  0.00     0.209 HD
ENDBRANCH  31  32
ENDBRANCH  30  31
ENDBRANCH  29  30
ENDBRANCH  27  29
ENDBRANCH   9  27
TORSDOF 15
ENDMDL
