MODEL 1
REMARK VINA RESULT: -7.350232588      0.000      0.000
REMARK  15 active torsions:
REMARK  status: ('A' for Active; 'I' for Inactive)
REMARK    1  A    between atoms: N1_2  and  C4_5 
REMARK    2  A    between atoms: C4_5  and  N2_6 
REMARK    3  A    between atoms: N2_6  and  C5_9 
REMARK    4  A    between atoms: C5_9  and  C6_10 
REMARK    5  A    between atoms: C6_10  and  N3_11 
REMARK    6  A    between atoms: N3_11  and  C7_14 
REMARK    7  A    between atoms: C7_14  and  C8_15 
REMARK    8  A    between atoms: C8_15  and  C9_16 
REMARK    9  A    between atoms: C9_16  and  N4_17 
REMARK   10  A    between atoms: N4_17  and  C10_20 
REMARK   11  A    between atoms: C10_20  and  C11_21 
REMARK   12  A    between atoms: C11_21  and  C12_22 
REMARK   13  A    between atoms: C12_22  and  N5_23 
REMARK   14  A    between atoms: N5_23  and  C13_25 
REMARK   15  A    between atoms: C16_30  and  N7_31 
ROOT
HETATM    1  N4  UNL     1     -22.518 -20.184 -44.125  1.00  0.00    -0.075 N 
ATOM      2  H41 UNL     1     -22.019 -19.395 -44.534  1.00  0.00     0.277 HD
ATOM      3  H42 UNL     1     -21.838 -20.435 -43.408  1.00  0.00     0.277 HD
ENDROOT
BRANCH   1   4
HETATM    4  C9  UNL     1     -22.720 -21.265 -45.091  1.00  0.00     0.233 C 
BRANCH   4   5
HETATM    5  C8  UNL     1     -21.392 -21.754 -45.556  1.00  0.00     0.055 C 
BRANCH   5   6
HETATM    6  C7  UNL     1     -20.223 -20.996 -45.033  1.00  0.00     0.234 C 
BRANCH   6   7
HETATM    7  N3  UNL     1     -18.941 -21.600 -45.166  1.00  0.00    -0.073 N 
ATOM      8  H32 UNL     1     -18.580 -21.588 -46.120  1.00  0.00     0.277 HD
ATOM      9  H31 UNL     1     -18.953 -22.614 -45.056  1.00  0.00     0.277 HD
BRANCH   7  10
HETATM   10  C6  UNL     1     -18.079 -20.912 -44.200  1.00  0.00     0.259 C 
BRANCH  10  11
HETATM   11  C5  UNL     1     -18.921 -20.113 -43.263  1.00  0.00     0.261 C 
BRANCH  11  12
HETATM   12  N2  UNL     1     -18.091 -19.739 -42.108  1.00  0.00    -0.049 N 
ATOM     13  H22 UNL     1     -18.582 -19.855 -41.221  1.00  0.00     0.279 HD
ATOM     14  H21 UNL     1     -17.933 -18.733 -42.049  1.00  0.00     0.279 HD
BRANCH  12  15
HETATM   15  C4  UNL     1     -16.839 -20.504 -42.162  1.00  0.00     0.466 C 
BRANCH  15  16
HETATM   16  N1  UNL     1     -16.083 -20.176 -40.977  1.00  0.00    -0.055 N 
HETATM   17  C1  UNL     1     -16.208 -18.771 -40.659  1.00  0.00     0.273 C 
HETATM   18  C2  UNL     1     -16.691 -20.932 -39.886  1.00  0.00     0.273 C 
HETATM   19  C3  UNL     1     -14.669 -20.508 -41.086  1.00  0.00     0.273 C 
ENDBRANCH  15  16
ENDBRANCH  12  15
ENDBRANCH  11  12
ENDBRANCH  10  11
ENDBRANCH   7  10
ENDBRANCH   6   7
ENDBRANCH   5   6
ENDBRANCH   4   5
ENDBRANCH   1   4
BRANCH   1  20
HETATM   20  C10 UNL     1     -23.811 -19.776 -43.540  1.00  0.00     0.234 C 
BRANCH  20  21
HETATM   21  C11 UNL     1     -23.898 -20.479 -42.223  1.00  0.00     0.047 C 
BRANCH  21  22
HETATM   22  C12 UNL     1     -24.662 -19.698 -41.203  1.00  0.00     0.123 C 
BRANCH  22  23
HETATM   23  N5  UNL     1     -24.668 -20.442 -39.928  1.00  0.00    -0.376 N 
ATOM     24  H5  UNL     1     -24.865 -21.442 -39.898  1.00  0.00     0.161 HD
BRANCH  23  25
HETATM   25  C13 UNL     1     -24.417 -19.781 -38.856  1.00  0.00     0.118 A 
HETATM   26  C14 UNL     1     -25.121 -18.667 -38.485  1.00  0.00     0.066 A 
HETATM   27  C15 UNL     1     -24.856 -18.024 -37.264  1.00  0.00     0.110 A 
HETATM   28  N6  UNL     1     -23.899 -18.551 -36.503  1.00  0.00    -0.202 N 
HETATM   29  C16 UNL     1     -23.190 -19.651 -36.850  1.00  0.00     0.677 A 
ATOM     30  H6  UNL     1     -23.688 -18.102 -35.612  1.00  0.00     0.183 HD
HETATM   31  N8  UNL     1     -23.464 -20.247 -38.026  1.00  0.00    -0.177 N 
ATOM     32  H8  UNL     1     -22.935 -21.075 -38.295  1.00  0.00     0.185 HD
BRANCH  29  33
HETATM   33  N7  UNL     1     -22.279 -20.120 -36.077  1.00  0.00    -0.234 N 
ATOM     34  H72 UNL     1     -22.382 -21.045 -35.657  1.00  0.00     0.174 HD
ATOM     35  H71 UNL     1     -21.440 -19.580 -35.867  1.00  0.00     0.174 HD
ENDBRANCH  29  33
ENDBRANCH  23  25
ENDBRANCH  22  23
ENDBRANCH  21  22
ENDBRANCH  20  21
ENDBRANCH   1  20
TORSDOF 15
ENDMDL
MODEL 2
REMARK VINA RESULT: -7.292305270      1.186      1.826
REMARK  15 active torsions:
REMARK  status: ('A' for Active; 'I' for Inactive)
REMARK    1  A    between atoms: N1_2  and  C4_5 
REMARK    2  A    between atoms: C4_5  and  N2_6 
REMARK    3  A    between atoms: N2_6  and  C5_9 
REMARK    4  A    between atoms: C5_9  and  C6_10 
REMARK    5  A    between atoms: C6_10  and  N3_11 
REMARK    6  A    between atoms: N3_11  and  C7_14 
REMARK    7  A    between atoms: C7_14  and  C8_15 
REMARK    8  A    between atoms: C8_15  and  C9_16 
REMARK    9  A    between atoms: C9_16  and  N4_17 
REMARK   10  A    between atoms: N4_17  and  C10_20 
REMARK   11  A    between atoms: C10_20  and  C11_21 
REMARK   12  A    between atoms: C11_21  and  C12_22 
REMARK   13  A    between atoms: C12_22  and  N5_23 
REMARK   14  A    between atoms: N5_23  and  C13_25 
REMARK   15  A    between atoms: C16_30  and  N7_31 
ROOT
HETATM    1  N4  UNL     1     -22.771 -20.718 -44.173  1.00  0.00    -0.075 N 
ATOM      2  H41 UNL     1     -21.982 -20.893 -43.552  1.00  0.00     0.277 HD
ATOM      3  H42 UNL     1     -23.502 -21.155 -43.614  1.00  0.00     0.277 HD
ENDROOT
BRANCH   1   4
HETATM    4  C9  UNL     1     -22.604 -21.377 -45.470  1.00  0.00     0.233 C 
BRANCH   4   5
HETATM    5  C8  UNL     1     -21.256 -22.006 -45.523  1.00  0.00     0.055 C 
BRANCH   5   6
HETATM    6  C7  UNL     1     -20.180 -21.253 -44.822  1.00  0.00     0.234 C 
BRANCH   6   7
HETATM    7  N3  UNL     1     -18.835 -21.631 -45.095  1.00  0.00    -0.073 N 
ATOM      8  H32 UNL     1     -18.560 -21.492 -46.067  1.00  0.00     0.277 HD
ATOM      9  H31 UNL     1     -18.679 -22.638 -45.069  1.00  0.00     0.277 HD
BRANCH   7  10
HETATM   10  C6  UNL     1     -18.015 -20.882 -44.136  1.00  0.00     0.259 C 
BRANCH  10  11
HETATM   11  C5  UNL     1     -18.902 -20.109 -43.220  1.00  0.00     0.261 C 
BRANCH  11  12
HETATM   12  N2  UNL     1     -18.128 -19.764 -42.017  1.00  0.00    -0.049 N 
ATOM     13  H22 UNL     1     -18.650 -19.928 -41.157  1.00  0.00     0.279 HD
ATOM     14  H21 UNL     1     -17.997 -18.758 -41.912  1.00  0.00     0.279 HD
BRANCH  12  15
HETATM   15  C4  UNL     1     -16.855 -20.496 -42.052  1.00  0.00     0.466 C 
BRANCH  15  16
HETATM   16  N1  UNL     1     -16.155 -20.198 -40.826  1.00  0.00    -0.055 N 
HETATM   17  C1  UNL     1     -14.737 -20.445 -40.969  1.00  0.00     0.273 C 
HETATM   18  C2  UNL     1     -16.333 -18.768 -40.595  1.00  0.00     0.273 C 
HETATM   19  C3  UNL     1     -16.648 -20.954 -39.683  1.00  0.00     0.273 C 
ENDBRANCH  15  16
ENDBRANCH  12  15
ENDBRANCH  11  12
ENDBRANCH  10  11
ENDBRANCH   7  10
ENDBRANCH   6   7
ENDBRANCH   5   6
ENDBRANCH   4   5
ENDBRANCH   1   4
BRANCH   1  20
HETATM   20  C10 UNL     1     -23.013 -19.273 -44.365  1.00  0.00     0.234 C 
BRANCH  20  21
HETATM   21  C11 UNL     1     -22.337 -18.595 -43.217  1.00  0.00     0.047 C 
BRANCH  21  22
HETATM   22  C12 UNL     1     -22.436 -19.376 -41.946  1.00  0.00     0.123 C 
BRANCH  22  23
HETATM   23  N5  UNL     1     -23.505 -18.802 -41.106  1.00  0.00    -0.376 N 
ATOM     24  H5  UNL     1     -23.805 -17.834 -41.217  1.00  0.00     0.161 HD
BRANCH  23  25
HETATM   25  C13 UNL     1     -24.044 -19.570 -40.228  1.00  0.00     0.118 A 
HETATM   26  C14 UNL     1     -25.114 -20.379 -40.502  1.00  0.00     0.066 A 
HETATM   27  C15 UNL     1     -25.617 -21.256 -39.527  1.00  0.00     0.110 A 
HETATM   28  N6  UNL     1     -25.006 -21.256 -38.344  1.00  0.00    -0.202 N 
HETATM   29  C16 UNL     1     -23.947 -20.465 -38.052  1.00  0.00     0.677 A 
ATOM     30  H6  UNL     1     -25.353 -21.885 -37.621  1.00  0.00     0.183 HD
HETATM   31  N8  UNL     1     -23.485 -19.633 -39.004  1.00  0.00    -0.177 N 
ATOM     32  H8  UNL     1     -22.688 -19.033 -38.793  1.00  0.00     0.185 HD
BRANCH  29  33
HETATM   33  N7  UNL     1     -23.392 -20.506 -36.896  1.00  0.00    -0.234 N 
ATOM     34  H72 UNL     1     -22.980 -21.373 -36.549  1.00  0.00     0.174 HD
ATOM     35  H71 UNL     1     -23.353 -19.677 -36.303  1.00  0.00     0.174 HD
ENDBRANCH  29  33
ENDBRANCH  23  25
ENDBRANCH  22  23
ENDBRANCH  21  22
ENDBRANCH  20  21
ENDBRANCH   1  20
TORSDOF 15
ENDMDL
MODEL 3
REMARK VINA RESULT: -7.220228327      2.991      4.415
REMARK  15 active torsions:
REMARK  status: ('A' for Active; 'I' for Inactive)
REMARK    1  A    between atoms: N1_2  and  C4_5 
REMARK    2  A    between atoms: C4_5  and  N2_6 
REMARK    3  A    between atoms: N2_6  and  C5_9 
REMARK    4  A    between atoms: C5_9  and  C6_10 
REMARK    5  A    between atoms: C6_10  and  N3_11 
REMARK    6  A    between atoms: N3_11  and  C7_14 
REMARK    7  A    between atoms: C7_14  and  C8_15 
REMARK    8  A    between atoms: C8_15  and  C9_16 
REMARK    9  A    between atoms: C9_16  and  N4_17 
REMARK   10  A    between atoms: N4_17  and  C10_20 
REMARK   11  A    between atoms: C10_20  and  C11_21 
REMARK   12  A    between atoms: C11_21  and  C12_22 
REMARK   13  A    between atoms: C12_22  and  N5_23 
REMARK   14  A    between atoms: N5_23  and  C13_25 
REMARK   15  A    between atoms: C16_30  and  N7_31 
ROOT
HETATM    1  N4  UNL     1     -22.664 -20.678 -44.116  1.00  0.00    -0.075 N 
ATOM      2  H41 UNL     1     -22.517 -19.697 -44.354  1.00  0.00     0.277 HD
ATOM      3  H42 UNL     1     -21.813 -20.829 -43.574  1.00  0.00     0.277 HD
ENDROOT
BRANCH   1   4
HETATM    4  C9  UNL     1     -22.715 -21.529 -45.305  1.00  0.00     0.233 C 
BRANCH   4   5
HETATM    5  C8  UNL     1     -21.332 -21.953 -45.658  1.00  0.00     0.055 C 
BRANCH   5   6
HETATM    6  C7  UNL     1     -20.247 -21.140 -45.043  1.00  0.00     0.234 C 
BRANCH   6   7
HETATM    7  N3  UNL     1     -18.910 -21.593 -45.222  1.00  0.00    -0.073 N 
ATOM      8  H32 UNL     1     -18.570 -21.498 -46.179  1.00  0.00     0.277 HD
ATOM      9  H31 UNL     1     -18.810 -22.606 -45.160  1.00  0.00     0.277 HD
BRANCH   7  10
HETATM   10  C6  UNL     1     -18.110 -20.859 -44.236  1.00  0.00     0.259 C 
BRANCH  10  11
HETATM   11  C5  UNL     1     -19.017 -20.126 -43.306  1.00  0.00     0.261 C 
BRANCH  11  12
HETATM   12  N2  UNL     1     -18.246 -19.759 -42.109  1.00  0.00    -0.049 N 
ATOM     13  H22 UNL     1     -18.766 -19.916 -41.246  1.00  0.00     0.279 HD
ATOM     14  H21 UNL     1     -18.123 -18.751 -42.016  1.00  0.00     0.279 HD
BRANCH  12  15
HETATM   15  C4  UNL     1     -16.967 -20.482 -42.134  1.00  0.00     0.466 C 
BRANCH  15  16
HETATM   16  N1  UNL     1     -16.249 -20.128 -40.934  1.00  0.00    -0.055 N 
HETATM   17  C1  UNL     1     -16.721 -20.899 -39.805  1.00  0.00     0.273 C 
HETATM   18  C2  UNL     1     -14.857 -20.497 -41.171  1.00  0.00     0.273 C 
HETATM   19  C3  UNL     1     -16.341 -18.712 -40.605  1.00  0.00     0.273 C 
ENDBRANCH  15  16
ENDBRANCH  12  15
ENDBRANCH  11  12
ENDBRANCH  10  11
ENDBRANCH   7  10
ENDBRANCH   6   7
ENDBRANCH   5   6
ENDBRANCH   4   5
ENDBRANCH   1   4
BRANCH   1  20
HETATM   20  C10 UNL     1     -23.879 -20.871 -43.299  1.00  0.00     0.234 C 
BRANCH  20  21
HETATM   21  C11 UNL     1     -23.609 -20.179 -42.002  1.00  0.00     0.047 C 
BRANCH  21  22
HETATM   22  C12 UNL     1     -22.585 -19.097 -42.129  1.00  0.00     0.123 C 
BRANCH  22  23
HETATM   23  N5  UNL     1     -23.250 -17.847 -42.549  1.00  0.00    -0.376 N 
ATOM     24  H5  UNL     1     -24.226 -17.663 -42.320  1.00  0.00     0.161 HD
BRANCH  23  25
HETATM   25  C13 UNL     1     -22.550 -16.999 -43.213  1.00  0.00     0.118 A 
HETATM   26  C14 UNL     1     -22.927 -15.695 -43.386  1.00  0.00     0.066 A 
HETATM   27  C15 UNL     1     -22.089 -14.788 -44.056  1.00  0.00     0.110 A 
HETATM   28  N6  UNL     1     -20.928 -15.262 -44.505  1.00  0.00    -0.202 N 
HETATM   29  C16 UNL     1     -20.536 -16.547 -44.345  1.00  0.00     0.677 A 
ATOM     30  H6  UNL     1     -20.302 -14.623 -44.995  1.00  0.00     0.183 HD
HETATM   31  N8  UNL     1     -21.359 -17.395 -43.700  1.00  0.00    -0.177 N 
ATOM     32  H8  UNL     1     -21.071 -18.365 -43.576  1.00  0.00     0.185 HD
BRANCH  29  33
HETATM   33  N7  UNL     1     -19.404 -16.953 -44.795  1.00  0.00    -0.234 N 
ATOM     34  H72 UNL     1     -19.082 -16.668 -45.721  1.00  0.00     0.174 HD
ATOM     35  H71 UNL     1     -18.808 -17.566 -44.239  1.00  0.00     0.174 HD
ENDBRANCH  29  33
ENDBRANCH  23  25
ENDBRANCH  22  23
ENDBRANCH  21  22
ENDBRANCH  20  21
ENDBRANCH   1  20
TORSDOF 15
ENDMDL
MODEL 4
REMARK VINA RESULT: -7.148793442      1.128      1.192
REMARK  15 active torsions:
REMARK  status: ('A' for Active; 'I' for Inactive)
REMARK    1  A    between atoms: N1_2  and  C4_5 
REMARK    2  A    between atoms: C4_5  and  N2_6 
REMARK    3  A    between atoms: N2_6  and  C5_9 
REMARK    4  A    between atoms: C5_9  and  C6_10 
REMARK    5  A    between atoms: C6_10  and  N3_11 
REMARK    6  A    between atoms: N3_11  and  C7_14 
REMARK    7  A    between atoms: C7_14  and  C8_15 
REMARK    8  A    between atoms: C8_15  and  C9_16 
REMARK    9  A    between atoms: C9_16  and  N4_17 
REMARK   10  A    between atoms: N4_17  and  C10_20 
REMARK   11  A    between atoms: C10_20  and  C11_21 
REMARK   12  A    between atoms: C11_21  and  C12_22 
REMARK   13  A    between atoms: C12_22  and  N5_23 
REMARK   14  A    between atoms: N5_23  and  C13_25 
REMARK   15  A    between atoms: C16_30  and  N7_31 
ROOT
HETATM    1  N4  UNL     1     -21.890 -18.826 -43.832  1.00  0.00    -0.075 N 
ATOM      2  H41 UNL     1     -22.289 -17.888 -43.853  1.00  0.00     0.277 HD
ATOM      3  H42 UNL     1     -20.961 -18.602 -44.189  1.00  0.00     0.277 HD
ENDROOT
BRANCH   1   4
HETATM    4  C9  UNL     1     -22.609 -19.747 -44.714  1.00  0.00     0.233 C 
BRANCH   4   5
HETATM    5  C8  UNL     1     -21.765 -20.949 -44.952  1.00  0.00     0.055 C 
BRANCH   5   6
HETATM    6  C7  UNL     1     -20.460 -20.682 -45.618  1.00  0.00     0.234 C 
BRANCH   6   7
HETATM    7  N3  UNL     1     -19.393 -21.584 -45.346  1.00  0.00    -0.073 N 
ATOM      8  H32 UNL     1     -18.691 -21.621 -46.085  1.00  0.00     0.277 HD
ATOM      9  H31 UNL     1     -19.665 -22.566 -45.390  1.00  0.00     0.277 HD
BRANCH   7  10
HETATM   10  C6  UNL     1     -18.857 -21.178 -44.043  1.00  0.00     0.259 C 
BRANCH  10  11
HETATM   11  C5  UNL     1     -17.381 -20.992 -44.148  1.00  0.00     0.261 C 
BRANCH  11  12
HETATM   12  N2  UNL     1     -16.796 -21.210 -42.817  1.00  0.00    -0.049 N 
ATOM     13  H22 UNL     1     -15.779 -21.282 -42.844  1.00  0.00     0.279 HD
ATOM     14  H21 UNL     1     -16.991 -22.142 -42.452  1.00  0.00     0.279 HD
BRANCH  12  15
HETATM   15  C4  UNL     1     -17.261 -20.145 -41.919  1.00  0.00     0.466 C 
BRANCH  15  16
HETATM   16  N1  UNL     1     -16.275 -20.002 -40.875  1.00  0.00    -0.055 N 
HETATM   17  C1  UNL     1     -16.173 -18.624 -40.448  1.00  0.00     0.273 C 
HETATM   18  C2  UNL     1     -16.767 -20.780 -39.743  1.00  0.00     0.273 C 
HETATM   19  C3  UNL     1     -14.952 -20.470 -41.265  1.00  0.00     0.273 C 
ENDBRANCH  15  16
ENDBRANCH  12  15
ENDBRANCH  11  12
ENDBRANCH  10  11
ENDBRANCH   7  10
ENDBRANCH   6   7
ENDBRANCH   5   6
ENDBRANCH   4   5
ENDBRANCH   1   4
BRANCH   1  20
HETATM   20  C10 UNL     1     -21.836 -19.372 -42.461  1.00  0.00     0.234 C 
BRANCH  20  21
HETATM   21  C11 UNL     1     -23.114 -18.952 -41.809  1.00  0.00     0.047 C 
BRANCH  21  22
HETATM   22  C12 UNL     1     -23.892 -20.108 -41.268  1.00  0.00     0.123 C 
BRANCH  22  23
HETATM   23  N5  UNL     1     -25.061 -19.600 -40.522  1.00  0.00    -0.376 N 
ATOM     24  H5  UNL     1     -25.994 -19.607 -40.932  1.00  0.00     0.161 HD
BRANCH  23  25
HETATM   25  C13 UNL     1     -24.856 -19.151 -39.337  1.00  0.00     0.118 A 
HETATM   26  C14 UNL     1     -25.140 -17.864 -38.968  1.00  0.00     0.066 A 
HETATM   27  C15 UNL     1     -24.969 -17.443 -37.639  1.00  0.00     0.110 A 
HETATM   28  N6  UNL     1     -24.524 -18.352 -36.774  1.00  0.00    -0.202 N 
HETATM   29  C16 UNL     1     -24.237 -19.630 -37.116  1.00  0.00     0.677 A 
ATOM     30  H6  UNL     1     -24.393 -18.071 -35.802  1.00  0.00     0.183 HD
HETATM   31  N8  UNL     1     -24.409 -20.006 -38.397  1.00  0.00    -0.177 N 
ATOM     32  H8  UNL     1     -24.195 -20.966 -38.664  1.00  0.00     0.185 HD
BRANCH  29  33
HETATM   33  N7  UNL     1     -23.813 -20.468 -36.241  1.00  0.00    -0.234 N 
ATOM     34  H72 UNL     1     -22.875 -20.863 -36.313  1.00  0.00     0.174 HD
ATOM     35  H71 UNL     1     -24.405 -20.757 -35.462  1.00  0.00     0.174 HD
ENDBRANCH  29  33
ENDBRANCH  23  25
ENDBRANCH  22  23
ENDBRANCH  21  22
ENDBRANCH  20  21
ENDBRANCH   1  20
TORSDOF 15
ENDMDL
MODEL 5
REMARK VINA RESULT: -7.142727111      1.018      1.545
REMARK  15 active torsions:
REMARK  status: ('A' for Active; 'I' for Inactive)
REMARK    1  A    between atoms: N1_2  and  C4_5 
REMARK    2  A    between atoms: C4_5  and  N2_6 
REMARK    3  A    between atoms: N2_6  and  C5_9 
REMARK    4  A    between atoms: C5_9  and  C6_10 
REMARK    5  A    between atoms: C6_10  and  N3_11 
REMARK    6  A    between atoms: N3_11  and  C7_14 
REMARK    7  A    between atoms: C7_14  and  C8_15 
REMARK    8  A    between atoms: C8_15  and  C9_16 
REMARK    9  A    between atoms: C9_16  and  N4_17 
REMARK   10  A    between atoms: N4_17  and  C10_20 
REMARK   11  A    between atoms: C10_20  and  C11_21 
REMARK   12  A    between atoms: C11_21  and  C12_22 
REMARK   13  A    between atoms: C12_22  and  N5_23 
REMARK   14  A    between atoms: N5_23  and  C13_25 
REMARK   15  A    between atoms: C16_30  and  N7_31 
ROOT
HETATM    1  N4  UNL     1     -22.632 -20.435 -44.323  1.00  0.00    -0.075 N 
ATOM      2  H41 UNL     1     -22.209 -19.624 -44.775  1.00  0.00     0.277 HD
ATOM      3  H42 UNL     1     -21.945 -20.568 -43.582  1.00  0.00     0.277 HD
ENDROOT
BRANCH   1   4
HETATM    4  C9  UNL     1     -22.700 -21.589 -45.221  1.00  0.00     0.233 C 
BRANCH   4   5
HETATM    5  C8  UNL     1     -21.316 -22.029 -45.550  1.00  0.00     0.055 C 
BRANCH   5   6
HETATM    6  C7  UNL     1     -20.233 -21.169 -44.999  1.00  0.00     0.234 C 
BRANCH   6   7
HETATM    7  N3  UNL     1     -18.893 -21.609 -45.187  1.00  0.00    -0.073 N 
ATOM      8  H32 UNL     1     -18.577 -21.558 -46.156  1.00  0.00     0.277 HD
ATOM      9  H31 UNL     1     -18.772 -22.615 -45.074  1.00  0.00     0.277 HD
BRANCH   7  10
HETATM   10  C6  UNL     1     -18.083 -20.810 -44.260  1.00  0.00     0.259 C 
BRANCH  10  11
HETATM   11  C5  UNL     1     -18.975 -20.154 -43.260  1.00  0.00     0.261 C 
BRANCH  11  12
HETATM   12  N2  UNL     1     -18.156 -19.763 -42.103  1.00  0.00    -0.049 N 
ATOM     13  H22 UNL     1     -18.633 -19.918 -41.216  1.00  0.00     0.279 HD
ATOM     14  H21 UNL     1     -18.045 -18.752 -42.027  1.00  0.00     0.279 HD
BRANCH  12  15
HETATM   15  C4  UNL     1     -16.868 -20.466 -42.181  1.00  0.00     0.466 C 
BRANCH  15  16
HETATM   16  N1  UNL     1     -16.120 -20.125 -40.995  1.00  0.00    -0.055 N 
HETATM   17  C1  UNL     1     -16.315 -18.735 -40.644  1.00  0.00     0.273 C 
HETATM   18  C2  UNL     1     -16.679 -20.935 -39.917  1.00  0.00     0.273 C 
HETATM   19  C3  UNL     1     -14.692 -20.380 -41.121  1.00  0.00     0.273 C 
ENDBRANCH  15  16
ENDBRANCH  12  15
ENDBRANCH  11  12
ENDBRANCH  10  11
ENDBRANCH   7  10
ENDBRANCH   6   7
ENDBRANCH   5   6
ENDBRANCH   4   5
ENDBRANCH   1   4
BRANCH   1  20
HETATM   20  C10 UNL     1     -23.973 -20.129 -43.785  1.00  0.00     0.234 C 
BRANCH  20  21
HETATM   21  C11 UNL     1     -24.048 -20.831 -42.467  1.00  0.00     0.047 C 
BRANCH  21  22
HETATM   22  C12 UNL     1     -23.818 -19.912 -41.311  1.00  0.00     0.123 C 
BRANCH  22  23
HETATM   23  N5  UNL     1     -24.636 -20.359 -40.166  1.00  0.00    -0.376 N 
ATOM     24  H5  UNL     1     -25.156 -21.236 -40.196  1.00  0.00     0.161 HD
BRANCH  23  25
HETATM   25  C13 UNL     1     -24.668 -19.601 -39.129  1.00  0.00     0.118 A 
HETATM   26  C14 UNL     1     -24.202 -19.995 -37.904  1.00  0.00     0.066 A 
HETATM   27  C15 UNL     1     -24.189 -19.102 -36.820  1.00  0.00     0.110 A 
HETATM   28  N6  UNL     1     -24.647 -17.872 -37.049  1.00  0.00    -0.202 N 
HETATM   29  C16 UNL     1     -25.112 -17.462 -38.252  1.00  0.00     0.677 A 
ATOM     30  H6  UNL     1     -24.647 -17.205 -36.278  1.00  0.00     0.183 HD
HETATM   31  N8  UNL     1     -25.114 -18.339 -39.273  1.00  0.00    -0.177 N 
ATOM     32  H8  UNL     1     -25.463 -18.038 -40.183  1.00  0.00     0.185 HD
BRANCH  29  33
HETATM   33  N7  UNL     1     -25.539 -16.263 -38.421  1.00  0.00    -0.234 N 
ATOM     34  H72 UNL     1     -25.822 -15.939 -39.346  1.00  0.00     0.174 HD
ATOM     35  H71 UNL     1     -25.602 -15.614 -37.637  1.00  0.00     0.174 HD
ENDBRANCH  29  33
ENDBRANCH  23  25
ENDBRANCH  22  23
ENDBRANCH  21  22
ENDBRANCH  20  21
ENDBRANCH   1  20
TORSDOF 15
ENDMDL
