MODEL 1
REMARK VINA RESULT: -7.887228819      0.000      0.000
REMARK  15 active torsions:
REMARK  status: ('A' for Active; 'I' for Inactive)
REMARK    1  A    between atoms: N1_2  and  C2_3 
REMARK    2  A    between atoms: N1_2  and  C8_18 
REMARK    3  A    between atoms: C2_3  and  C3_4 
REMARK    4  A    between atoms: C3_4  and  N2_5 
REMARK    5  A    between atoms: N2_5  and  C4_6 
REMARK    6  A    between atoms: N2_5  and  C5_9 
REMARK    7  A    between atoms: C4_6  and  O1_7 
REMARK    8  A    between atoms: C5_9  and  C6_10 
REMARK    9  A    between atoms: C6_10  and  N3_11 
REMARK       I    between atoms: N3_11  and  C7_13 
REMARK   10  A    between atoms: C8_18  and  C9_19 
REMARK   11  A    between atoms: C9_19  and  O2_20 
REMARK   12  A    between atoms: C9_19  and  C10_22 
REMARK   13  A    between atoms: C10_22  and  O3_23 
REMARK   14  A    between atoms: O3_23  and  C11_24 
REMARK   15  A    between atoms: C11_24  and  C12_25 
ROOT
HETATM    1  C1  UNL     1     -23.328 -19.141 -44.352  1.00  0.00     0.148 C 
HETATM    2  N1  UNL     1     -22.464 -19.730 -43.394  1.00  0.00    -0.393 N 
ENDROOT
BRANCH   2   3
HETATM    3  C2  UNL     1     -21.091 -19.488 -43.480  1.00  0.00     0.088 C 
BRANCH   3   4
HETATM    4  C3  UNL     1     -20.394 -19.422 -44.763  1.00  0.00     0.319 C 
BRANCH   4   5
HETATM    5  N2  UNL     1     -19.679 -20.617 -45.102  1.00  0.00     0.117 N 
BRANCH   5   6
HETATM    6  C4  UNL     1     -20.542 -21.585 -45.764  1.00  0.00     0.438 C 
BRANCH   6   7
HETATM    7  O1  UNL     1     -20.136 -21.675 -47.087  1.00  0.00    -0.373 OA
ATOM      8  H1  UNL     1     -20.890 -21.933 -47.603  1.00  0.00     0.211 HD
ENDBRANCH   6   7
ENDBRANCH   5   6
BRANCH   5   9
HETATM    9  C5  UNL     1     -18.918 -21.218 -44.070  1.00  0.00     0.295 C 
BRANCH   9  10
HETATM   10  C6  UNL     1     -17.477 -20.956 -43.933  1.00  0.00     0.152 C 
BRANCH  10  11
HETATM   11  N3  UNL     1     -16.781 -21.250 -42.738  1.00  0.00    -0.363 N 
HETATM   12  C7  UNL     1     -16.575 -20.226 -41.719  1.00  0.00     0.181 C 
HETATM   13  N4  UNL     1     -15.608 -19.373 -41.824  1.00  0.00    -0.374 N 
HETATM   14  N5  UNL     1     -17.461 -20.192 -40.624  1.00  0.00    -0.064 NA
ATOM     15  H42 UNL     1     -14.967 -19.398 -42.617  1.00  0.00     0.158 HD
ATOM     16  H41 UNL     1     -15.464 -18.658 -41.111  1.00  0.00     0.158 HD
ATOM     17  H3  UNL     1     -16.417 -22.191 -42.585  1.00  0.00     0.162 HD
ENDBRANCH  10  11
ENDBRANCH   9  10
ENDBRANCH   5   9
ENDBRANCH   4   5
ENDBRANCH   3   4
ENDBRANCH   2   3
BRANCH   2  18
HETATM   18  C8  UNL     1     -22.978 -19.661 -42.035  1.00  0.00     0.155 C 
BRANCH  18  19
HETATM   19  C9  UNL     1     -24.459 -19.905 -41.955  1.00  0.00     0.159 C 
BRANCH  19  20
HETATM   20  O2  UNL     1     -24.628 -21.314 -41.956  1.00  0.00    -0.392 OA
ATOM     21  H2  UNL     1     -24.988 -21.538 -41.106  1.00  0.00     0.210 HD
ENDBRANCH  19  20
BRANCH  19  22
HETATM   22  C10 UNL     1     -24.991 -19.509 -40.561  1.00  0.00     0.201 C 
BRANCH  22  23
HETATM   23  O3  UNL     1     -24.012 -19.804 -39.640  1.00  0.00    -0.383 OA
BRANCH  23  24
HETATM   24  C11 UNL     1     -24.423 -20.460 -38.502  1.00  0.00     0.224 C 
BRANCH  24  25
HETATM   25  C12 UNL     1     -23.541 -20.126 -37.357  1.00  0.00     0.033 A 
HETATM   26  C13 UNL     1     -23.992 -19.710 -36.109  1.00  0.00     0.028 A 
HETATM   27  C14 UNL     1     -22.874 -19.485 -35.342  1.00  0.00     0.019 A 
HETATM   28  C15 UNL     1     -21.755 -19.752 -36.095  1.00  0.00     0.088 A 
HETATM   29  N6  UNL     1     -22.215 -20.132 -37.292  1.00  0.00    -0.367 N 
ATOM     30  H6  UNL     1     -21.612 -20.398 -38.070  1.00  0.00     0.165 HD
ENDBRANCH  24  25
ENDBRANCH  23  24
ENDBRANCH  22  23
ENDBRANCH  19  22
ENDBRANCH  18  19
ENDBRANCH   2  18
TORSDOF 15
ENDMDL
MODEL 2
REMARK VINA RESULT: -7.713348559      2.831      6.826
REMARK  15 active torsions:
REMARK  status: ('A' for Active; 'I' for Inactive)
REMARK    1  A    between atoms: N1_2  and  C2_3 
REMARK    2  A    between atoms: N1_2  and  C8_18 
REMARK    3  A    between atoms: C2_3  and  C3_4 
REMARK    4  A    between atoms: C3_4  and  N2_5 
REMARK    5  A    between atoms: N2_5  and  C4_6 
REMARK    6  A    between atoms: N2_5  and  C5_9 
REMARK    7  A    between atoms: C4_6  and  O1_7 
REMARK    8  A    between atoms: C5_9  and  C6_10 
REMARK    9  A    between atoms: C6_10  and  N3_11 
REMARK       I    between atoms: N3_11  and  C7_13 
REMARK   10  A    between atoms: C8_18  and  C9_19 
REMARK   11  A    between atoms: C9_19  and  O2_20 
REMARK   12  A    between atoms: C9_19  and  C10_22 
REMARK   13  A    between atoms: C10_22  and  O3_23 
REMARK   14  A    between atoms: O3_23  and  C11_24 
REMARK   15  A    between atoms: C11_24  and  C12_25 
ROOT
HETATM    1  C1  UNL     1     -20.188 -21.623 -45.895  1.00  0.00     0.148 C 
HETATM    2  N1  UNL     1     -21.299 -20.768 -45.678  1.00  0.00    -0.393 N 
ENDROOT
BRANCH   2   3
HETATM    3  C2  UNL     1     -22.328 -21.194 -44.835  1.00  0.00     0.088 C 
BRANCH   3   4
HETATM    4  C3  UNL     1     -23.735 -20.945 -45.140  1.00  0.00     0.319 C 
BRANCH   4   5
HETATM    5  N2  UNL     1     -24.471 -20.354 -44.061  1.00  0.00     0.117 N 
BRANCH   5   6
HETATM    6  C4  UNL     1     -24.351 -18.902 -44.066  1.00  0.00     0.438 C 
BRANCH   6   7
HETATM    7  O1  UNL     1     -24.405 -18.481 -45.386  1.00  0.00    -0.373 OA
ATOM      8  H1  UNL     1     -23.727 -17.827 -45.508  1.00  0.00     0.211 HD
ENDBRANCH   6   7
ENDBRANCH   5   6
BRANCH   5   9
HETATM    9  C5  UNL     1     -24.249 -20.891 -42.770  1.00  0.00     0.295 C 
BRANCH   9  10
HETATM   10  C6  UNL     1     -24.145 -20.019 -41.590  1.00  0.00     0.152 C 
BRANCH  10  11
HETATM   11  N3  UNL     1     -25.195 -19.919 -40.648  1.00  0.00    -0.363 N 
HETATM   12  C7  UNL     1     -25.445 -20.988 -39.688  1.00  0.00     0.181 C 
HETATM   13  N4  UNL     1     -26.129 -22.033 -40.024  1.00  0.00    -0.374 N 
HETATM   14  N5  UNL     1     -24.916 -20.849 -38.388  1.00  0.00    -0.064 NA
ATOM     15  H42 UNL     1     -26.511 -22.133 -40.964  1.00  0.00     0.158 HD
ATOM     16  H41 UNL     1     -26.304 -22.780 -39.352  1.00  0.00     0.158 HD
ATOM     17  H3  UNL     1     -25.786 -19.088 -40.640  1.00  0.00     0.162 HD
ENDBRANCH  10  11
ENDBRANCH   9  10
ENDBRANCH   5   9
ENDBRANCH   4   5
ENDBRANCH   3   4
ENDBRANCH   2   3
BRANCH   2  18
HETATM   18  C8  UNL     1     -20.923 -19.377 -45.474  1.00  0.00     0.155 C 
BRANCH  18  19
HETATM   19  C9  UNL     1     -19.584 -19.224 -44.808  1.00  0.00     0.159 C 
BRANCH  19  20
HETATM   20  O2  UNL     1     -19.052 -17.992 -45.269  1.00  0.00    -0.392 OA
ATOM     21  H2  UNL     1     -18.169 -17.939 -44.923  1.00  0.00     0.210 HD
ENDBRANCH  19  20
BRANCH  19  22
HETATM   22  C10 UNL     1     -19.768 -18.960 -43.298  1.00  0.00     0.201 C 
BRANCH  22  23
HETATM   23  O3  UNL     1     -19.273 -20.050 -42.619  1.00  0.00    -0.383 OA
BRANCH  23  24
HETATM   24  C11 UNL     1     -18.092 -20.577 -43.088  1.00  0.00     0.224 C 
BRANCH  24  25
HETATM   25  C12 UNL     1     -17.026 -20.465 -42.062  1.00  0.00     0.033 A 
HETATM   26  C13 UNL     1     -17.141 -19.741 -40.879  1.00  0.00     0.028 A 
HETATM   27  C14 UNL     1     -15.943 -19.872 -40.220  1.00  0.00     0.019 A 
HETATM   28  C15 UNL     1     -15.102 -20.656 -40.974  1.00  0.00     0.088 A 
HETATM   29  N6  UNL     1     -15.804 -20.982 -42.064  1.00  0.00    -0.367 N 
ATOM     30  H6  UNL     1     -15.438 -21.565 -42.817  1.00  0.00     0.165 HD
ENDBRANCH  24  25
ENDBRANCH  23  24
ENDBRANCH  22  23
ENDBRANCH  19  22
ENDBRANCH  18  19
ENDBRANCH   2  18
TORSDOF 15
ENDMDL
MODEL 3
REMARK VINA RESULT: -7.637167453      2.995      5.327
REMARK  15 active torsions:
REMARK  status: ('A' for Active; 'I' for Inactive)
REMARK    1  A    between atoms: N1_2  and  C2_3 
REMARK    2  A    between atoms: N1_2  and  C8_18 
REMARK    3  A    between atoms: C2_3  and  C3_4 
REMARK    4  A    between atoms: C3_4  and  N2_5 
REMARK    5  A    between atoms: N2_5  and  C4_6 
REMARK    6  A    between atoms: N2_5  and  C5_9 
REMARK    7  A    between atoms: C4_6  and  O1_7 
REMARK    8  A    between atoms: C5_9  and  C6_10 
REMARK    9  A    between atoms: C6_10  and  N3_11 
REMARK       I    between atoms: N3_11  and  C7_13 
REMARK   10  A    between atoms: C8_18  and  C9_19 
REMARK   11  A    between atoms: C9_19  and  O2_20 
REMARK   12  A    between atoms: C9_19  and  C10_22 
REMARK   13  A    between atoms: C10_22  and  O3_23 
REMARK   14  A    between atoms: O3_23  and  C11_24 
REMARK   15  A    between atoms: C11_24  and  C12_25 
ROOT
HETATM    1  C1  UNL     1     -19.703 -18.971 -44.141  1.00  0.00     0.148 C 
HETATM    2  N1  UNL     1     -18.981 -20.176 -44.334  1.00  0.00    -0.393 N 
ENDROOT
BRANCH   2   3
HETATM    3  C2  UNL     1     -17.976 -20.516 -43.425  1.00  0.00     0.088 C 
BRANCH   3   4
HETATM    4  C3  UNL     1     -17.803 -19.806 -42.159  1.00  0.00     0.319 C 
BRANCH   4   5
HETATM    5  N2  UNL     1     -16.829 -20.395 -41.288  1.00  0.00     0.117 N 
BRANCH   5   6
HETATM    6  C4  UNL     1     -16.934 -19.865 -39.935  1.00  0.00     0.438 C 
BRANCH   6   7
HETATM    7  O1  UNL     1     -17.937 -20.568 -39.285  1.00  0.00    -0.373 OA
ATOM      8  H1  UNL     1     -17.860 -20.387 -38.356  1.00  0.00     0.211 HD
ENDBRANCH   6   7
ENDBRANCH   5   6
BRANCH   5   9
HETATM    9  C5  UNL     1     -15.488 -20.400 -41.742  1.00  0.00     0.295 C 
BRANCH   9  10
HETATM   10  C6  UNL     1     -14.364 -20.240 -40.806  1.00  0.00     0.152 C 
BRANCH  10  11
HETATM   11  N3  UNL     1     -13.488 -19.134 -40.882  1.00  0.00    -0.363 N 
HETATM   12  C7  UNL     1     -13.718 -17.939 -40.077  1.00  0.00     0.181 C 
HETATM   13  N4  UNL     1     -14.556 -17.033 -40.463  1.00  0.00    -0.374 N 
HETATM   14  N5  UNL     1     -13.004 -17.805 -38.869  1.00  0.00    -0.064 NA
ATOM     15  H42 UNL     1     -15.073 -17.130 -41.337  1.00  0.00     0.158 HD
ATOM     16  H41 UNL     1     -14.717 -16.197 -39.900  1.00  0.00     0.158 HD
ATOM     17  H3  UNL     1     -12.683 -19.171 -41.508  1.00  0.00     0.162 HD
ENDBRANCH  10  11
ENDBRANCH   9  10
ENDBRANCH   5   9
ENDBRANCH   4   5
ENDBRANCH   3   4
ENDBRANCH   2   3
BRANCH   2  18
HETATM   18  C8  UNL     1     -19.825 -21.300 -44.708  1.00  0.00     0.155 C 
BRANCH  18  19
HETATM   19  C9  UNL     1     -20.697 -21.008 -45.897  1.00  0.00     0.159 C 
BRANCH  19  20
HETATM   20  O2  UNL     1     -20.137 -21.726 -46.985  1.00  0.00    -0.392 OA
ATOM     21  H2  UNL     1     -19.894 -21.076 -47.634  1.00  0.00     0.210 HD
ENDBRANCH  19  20
BRANCH  19  22
HETATM   22  C10 UNL     1     -22.074 -21.685 -45.727  1.00  0.00     0.201 C 
BRANCH  22  23
HETATM   23  O3  UNL     1     -23.000 -20.696 -45.484  1.00  0.00    -0.383 OA
BRANCH  23  24
HETATM   24  C11 UNL     1     -24.029 -21.021 -44.630  1.00  0.00     0.224 C 
BRANCH  24  25
HETATM   25  C12 UNL     1     -23.759 -20.501 -43.266  1.00  0.00     0.033 A 
HETATM   26  C13 UNL     1     -24.421 -20.922 -42.116  1.00  0.00     0.028 A 
HETATM   27  C14 UNL     1     -23.899 -20.193 -41.075  1.00  0.00     0.019 A 
HETATM   28  C15 UNL     1     -22.939 -19.340 -41.563  1.00  0.00     0.088 A 
HETATM   29  N6  UNL     1     -22.898 -19.569 -42.880  1.00  0.00    -0.367 N 
ATOM     30  H6  UNL     1     -22.272 -19.079 -43.518  1.00  0.00     0.165 HD
ENDBRANCH  24  25
ENDBRANCH  23  24
ENDBRANCH  22  23
ENDBRANCH  19  22
ENDBRANCH  18  19
ENDBRANCH   2  18
TORSDOF 15
ENDMDL
MODEL 4
REMARK VINA RESULT: -7.605834028      1.065      1.184
REMARK  15 active torsions:
REMARK  status: ('A' for Active; 'I' for Inactive)
REMARK    1  A    between atoms: N1_2  and  C2_3 
REMARK    2  A    between atoms: N1_2  and  C8_18 
REMARK    3  A    between atoms: C2_3  and  C3_4 
REMARK    4  A    between atoms: C3_4  and  N2_5 
REMARK    5  A    between atoms: N2_5  and  C4_6 
REMARK    6  A    between atoms: N2_5  and  C5_9 
REMARK    7  A    between atoms: C4_6  and  O1_7 
REMARK    8  A    between atoms: C5_9  and  C6_10 
REMARK    9  A    between atoms: C6_10  and  N3_11 
REMARK       I    between atoms: N3_11  and  C7_13 
REMARK   10  A    between atoms: C8_18  and  C9_19 
REMARK   11  A    between atoms: C9_19  and  O2_20 
REMARK   12  A    between atoms: C9_19  and  C10_22 
REMARK   13  A    between atoms: C10_22  and  O3_23 
REMARK   14  A    between atoms: O3_23  and  C11_24 
REMARK   15  A    between atoms: C11_24  and  C12_25 
ROOT
HETATM    1  C1  UNL     1     -21.881 -16.880 -44.807  1.00  0.00     0.148 C 
HETATM    2  N1  UNL     1     -22.326 -18.131 -44.308  1.00  0.00    -0.393 N 
ENDROOT
BRANCH   2   3
HETATM    3  C2  UNL     1     -21.635 -19.290 -44.673  1.00  0.00     0.088 C 
BRANCH   3   4
HETATM    4  C3  UNL     1     -20.287 -19.245 -45.235  1.00  0.00     0.319 C 
BRANCH   4   5
HETATM    5  N2  UNL     1     -19.625 -20.515 -45.268  1.00  0.00     0.117 N 
BRANCH   5   6
HETATM    6  C4  UNL     1     -20.499 -21.559 -45.786  1.00  0.00     0.438 C 
BRANCH   6   7
HETATM    7  O1  UNL     1     -20.204 -21.725 -47.131  1.00  0.00    -0.373 OA
ATOM      8  H1  UNL     1     -19.456 -22.307 -47.192  1.00  0.00     0.211 HD
ENDBRANCH   6   7
ENDBRANCH   5   6
BRANCH   5   9
HETATM    9  C5  UNL     1     -18.974 -20.924 -44.079  1.00  0.00     0.295 C 
BRANCH   9  10
HETATM   10  C6  UNL     1     -17.507 -20.971 -43.990  1.00  0.00     0.152 C 
BRANCH  10  11
HETATM   11  N3  UNL     1     -16.847 -21.270 -42.776  1.00  0.00    -0.363 N 
HETATM   12  C7  UNL     1     -16.665 -20.248 -41.751  1.00  0.00     0.181 C 
HETATM   13  N4  UNL     1     -15.691 -19.400 -41.827  1.00  0.00    -0.374 N 
HETATM   14  N5  UNL     1     -17.583 -20.210 -40.681  1.00  0.00    -0.064 NA
ATOM     15  H42 UNL     1     -15.028 -19.427 -42.601  1.00  0.00     0.158 HD
ATOM     16  H41 UNL     1     -15.564 -18.686 -41.109  1.00  0.00     0.158 HD
ATOM     17  H3  UNL     1     -16.493 -22.213 -42.614  1.00  0.00     0.162 HD
ENDBRANCH  10  11
ENDBRANCH   9  10
ENDBRANCH   5   9
ENDBRANCH   4   5
ENDBRANCH   3   4
ENDBRANCH   2   3
BRANCH   2  18
HETATM   18  C8  UNL     1     -22.687 -18.094 -42.899  1.00  0.00     0.155 C 
BRANCH  18  19
HETATM   19  C9  UNL     1     -22.868 -19.463 -42.304  1.00  0.00     0.159 C 
BRANCH  19  20
HETATM   20  O2  UNL     1     -21.759 -19.669 -41.443  1.00  0.00    -0.392 OA
ATOM     21  H2  UNL     1     -21.112 -20.141 -41.954  1.00  0.00     0.210 HD
ENDBRANCH  19  20
BRANCH  19  22
HETATM   22  C10 UNL     1     -24.057 -19.463 -41.320  1.00  0.00     0.201 C 
BRANCH  22  23
HETATM   23  O3  UNL     1     -23.545 -19.401 -40.044  1.00  0.00    -0.383 OA
BRANCH  23  24
HETATM   24  C11 UNL     1     -24.220 -20.115 -39.081  1.00  0.00     0.224 C 
BRANCH  24  25
HETATM   25  C12 UNL     1     -23.547 -19.984 -37.765  1.00  0.00     0.033 A 
HETATM   26  C13 UNL     1     -24.185 -19.612 -36.586  1.00  0.00     0.028 A 
HETATM   27  C14 UNL     1     -23.220 -19.590 -35.607  1.00  0.00     0.019 A 
HETATM   28  C15 UNL     1     -22.012 -19.937 -36.164  1.00  0.00     0.088 A 
HETATM   29  N6  UNL     1     -22.268 -20.162 -37.456  1.00  0.00    -0.367 N 
ATOM     30  H6  UNL     1     -21.558 -20.441 -38.132  1.00  0.00     0.165 HD
ENDBRANCH  24  25
ENDBRANCH  23  24
ENDBRANCH  22  23
ENDBRANCH  19  22
ENDBRANCH  18  19
ENDBRANCH   2  18
TORSDOF 15
ENDMDL
MODEL 5
REMARK VINA RESULT: -7.566608853      2.110      7.365
REMARK  15 active torsions:
REMARK  status: ('A' for Active; 'I' for Inactive)
REMARK    1  A    between atoms: N1_2  and  C2_3 
REMARK    2  A    between atoms: N1_2  and  C8_18 
REMARK    3  A    between atoms: C2_3  and  C3_4 
REMARK    4  A    between atoms: C3_4  and  N2_5 
REMARK    5  A    between atoms: N2_5  and  C4_6 
REMARK    6  A    between atoms: N2_5  and  C5_9 
REMARK    7  A    between atoms: C4_6  and  O1_7 
REMARK    8  A    between atoms: C5_9  and  C6_10 
REMARK    9  A    between atoms: C6_10  and  N3_11 
REMARK       I    between atoms: N3_11  and  C7_13 
REMARK   10  A    between atoms: C8_18  and  C9_19 
REMARK   11  A    between atoms: C9_19  and  O2_20 
REMARK   12  A    between atoms: C9_19  and  C10_22 
REMARK   13  A    between atoms: C10_22  and  O3_23 
REMARK   14  A    between atoms: O3_23  and  C11_24 
REMARK   15  A    between atoms: C11_24  and  C12_25 
ROOT
HETATM    1  C1  UNL     1     -22.969 -19.369 -44.325  1.00  0.00     0.148 C 
HETATM    2  N1  UNL     1     -22.234 -18.707 -43.309  1.00  0.00    -0.393 N 
ENDROOT
BRANCH   2   3
HETATM    3  C2  UNL     1     -22.854 -18.444 -42.085  1.00  0.00     0.088 C 
BRANCH   3   4
HETATM    4  C3  UNL     1     -23.371 -19.513 -41.233  1.00  0.00     0.319 C 
BRANCH   4   5
HETATM    5  N2  UNL     1     -24.799 -19.533 -41.122  1.00  0.00     0.117 N 
BRANCH   5   6
HETATM    6  C4  UNL     1     -25.350 -18.185 -41.081  1.00  0.00     0.438 C 
BRANCH   6   7
HETATM    7  O1  UNL     1     -26.503 -18.225 -40.313  1.00  0.00    -0.373 OA
ATOM      8  H1  UNL     1     -27.124 -17.615 -40.693  1.00  0.00     0.211 HD
ENDBRANCH   6   7
ENDBRANCH   5   6
BRANCH   5   9
HETATM    9  C5  UNL     1     -25.348 -20.351 -40.105  1.00  0.00     0.295 C 
BRANCH   9  10
HETATM   10  C6  UNL     1     -24.758 -20.392 -38.758  1.00  0.00     0.152 C 
BRANCH  10  11
HETATM   11  N3  UNL     1     -25.329 -19.680 -37.678  1.00  0.00    -0.363 N 
HETATM   12  C7  UNL     1     -24.675 -18.496 -37.131  1.00  0.00     0.181 C 
HETATM   13  N4  UNL     1     -23.714 -18.607 -36.274  1.00  0.00    -0.374 N 
HETATM   14  N5  UNL     1     -25.120 -17.231 -37.568  1.00  0.00    -0.064 NA
ATOM     15  H42 UNL     1     -23.392 -19.522 -35.959  1.00  0.00     0.158 HD
ATOM     16  H41 UNL     1     -23.257 -17.779 -35.892  1.00  0.00     0.158 HD
ATOM     17  H3  UNL     1     -26.211 -19.998 -37.275  1.00  0.00     0.162 HD
ENDBRANCH  10  11
ENDBRANCH   9  10
ENDBRANCH   5   9
ENDBRANCH   4   5
ENDBRANCH   3   4
ENDBRANCH   2   3
BRANCH   2  18
HETATM   18  C8  UNL     1     -20.871 -19.198 -43.172  1.00  0.00     0.155 C 
BRANCH  18  19
HETATM   19  C9  UNL     1     -20.250 -19.578 -44.487  1.00  0.00     0.159 C 
BRANCH  19  20
HETATM   20  O2  UNL     1     -19.196 -18.654 -44.709  1.00  0.00    -0.392 OA
ATOM     21  H2  UNL     1     -19.483 -18.089 -45.416  1.00  0.00     0.210 HD
ENDBRANCH  19  20
BRANCH  19  22
HETATM   22  C10 UNL     1     -19.494 -20.917 -44.352  1.00  0.00     0.201 C 
BRANCH  22  23
HETATM   23  O3  UNL     1     -18.816 -20.897 -43.155  1.00  0.00    -0.383 OA
BRANCH  23  24
HETATM   24  C11 UNL     1     -17.490 -21.262 -43.198  1.00  0.00     0.224 C 
BRANCH  24  25
HETATM   25  C12 UNL     1     -16.737 -20.629 -42.088  1.00  0.00     0.033 A 
HETATM   26  C13 UNL     1     -17.249 -19.648 -41.245  1.00  0.00     0.028 A 
HETATM   27  C14 UNL     1     -16.241 -19.315 -40.372  1.00  0.00     0.019 A 
HETATM   28  C15 UNL     1     -15.130 -20.069 -40.665  1.00  0.00     0.088 A 
HETATM   29  N6  UNL     1     -15.485 -20.837 -41.700  1.00  0.00    -0.367 N 
ATOM     30  H6  UNL     1     -14.860 -21.510 -42.143  1.00  0.00     0.165 HD
ENDBRANCH  24  25
ENDBRANCH  23  24
ENDBRANCH  22  23
ENDBRANCH  19  22
ENDBRANCH  18  19
ENDBRANCH   2  18
TORSDOF 15
ENDMDL
