MODEL 1
REMARK VINA RESULT: -7.155710663      0.000      0.000
REMARK  18 active torsions:
REMARK  status: ('A' for Active; 'I' for Inactive)
REMARK    1  A    between atoms: N1_1  and  C1_5 
REMARK    2  A    between atoms: C1_5  and  C2_6 
REMARK    3  A    between atoms: C2_6  and  C3_7 
REMARK    4  A    between atoms: C3_7  and  C4_8 
REMARK    5  A    between atoms: C4_8  and  C5_9 
REMARK    6  A    between atoms: C5_9  and  N2_10 
REMARK    7  A    between atoms: C7_15  and  N4_16 
REMARK    8  A    between atoms: N4_16  and  C8_18 
REMARK    9  A    between atoms: C8_18  and  C9_19 
REMARK   10  A    between atoms: C9_19  and  C10_20 
REMARK   11  A    between atoms: C10_20  and  N5_21 
REMARK   12  A    between atoms: C11_27  and  N7_28 
REMARK   13  A    between atoms: N7_28  and  C12_30 
REMARK   14  A    between atoms: C12_30  and  C13_31 
REMARK   15  A    between atoms: C13_31  and  C14_32 
REMARK   16  A    between atoms: C14_32  and  C15_33 
REMARK   17  A    between atoms: C15_33  and  C16_34 
REMARK   18  A    between atoms: C16_34  and  N8_35 
ROOT
HETATM    1  N2  UNL     1     -17.230 -21.249 -41.941  1.00  0.00    -0.225 N 
ATOM      2  H2  UNL     1     -17.029 -22.237 -42.094  1.00  0.00     0.177 HD
HETATM    3  C6  UNL     1     -17.978 -20.700 -42.802  1.00  0.00     0.707 A 
HETATM    4  N3  UNL     1     -18.418 -21.501 -43.819  1.00  0.00    -0.022 N 
ATOM      5  H3  UNL     1     -18.134 -22.480 -43.845  1.00  0.00     0.203 HD
HETATM    6  C7  UNL     1     -19.214 -21.022 -44.783  1.00  0.00     0.707 A 
HETATM    7  N6  UNL     1     -19.594 -19.735 -44.762  1.00  0.00    -0.022 N 
ATOM      8  H6  UNL     1     -20.201 -19.376 -45.499  1.00  0.00     0.203 HD
HETATM    9  C11 UNL     1     -19.182 -18.911 -43.777  1.00  0.00     0.707 A 
HETATM   10  N9  UNL     1     -18.385 -19.427 -42.827  1.00  0.00    -0.022 N 
ATOM     11  H9  UNL     1     -18.071 -18.809 -42.079  1.00  0.00     0.203 HD
ENDROOT
BRANCH   1  12
HETATM   12  C5  UNL     1     -16.629 -20.666 -40.785  1.00  0.00     0.138 C 
BRANCH  12  13
HETATM   13  C4  UNL     1     -15.113 -20.761 -40.969  1.00  0.00     0.020 C 
BRANCH  13  14
HETATM   14  C3  UNL     1     -14.533 -19.436 -41.380  1.00  0.00     0.003 C 
BRANCH  14  15
HETATM   15  C2  UNL     1     -15.248 -18.327 -40.646  1.00  0.00     0.027 C 
BRANCH  15  16
HETATM   16  C1  UNL     1     -14.342 -17.516 -39.763  1.00  0.00     0.229 C 
BRANCH  16  17
HETATM   17  N1  UNL     1     -12.967 -17.845 -40.090  1.00  0.00    -0.079 N 
ATOM     18  H13 UNL     1     -12.896 -18.552 -40.822  1.00  0.00     0.274 HD
ATOM     19  H12 UNL     1     -12.490 -17.089 -40.580  1.00  0.00     0.274 HD
ATOM     20  H11 UNL     1     -12.488 -18.120 -39.232  1.00  0.00     0.274 HD
ENDBRANCH  16  17
ENDBRANCH  15  16
ENDBRANCH  14  15
ENDBRANCH  13  14
ENDBRANCH  12  13
ENDBRANCH   1  12
BRANCH   6  21
HETATM   21  N4  UNL     1     -19.631 -21.764 -45.742  1.00  0.00    -0.225 N 
ATOM     22  H4  UNL     1     -19.041 -22.508 -46.113  1.00  0.00     0.177 HD
BRANCH  21  23
HETATM   23  C8  UNL     1     -20.944 -21.535 -46.291  1.00  0.00     0.139 C 
BRANCH  23  24
HETATM   24  C9  UNL     1     -22.015 -22.313 -45.573  1.00  0.00     0.047 C 
BRANCH  24  25
HETATM   25  C10 UNL     1     -22.833 -21.296 -44.777  1.00  0.00     0.231 C 
BRANCH  25  26
HETATM   26  N5  UNL     1     -24.040 -21.058 -45.554  1.00  0.00    -0.079 N 
ATOM     27  H53 UNL     1     -24.542 -20.214 -45.278  1.00  0.00     0.274 HD
ATOM     28  H52 UNL     1     -23.856 -20.781 -46.518  1.00  0.00     0.274 HD
ATOM     29  H51 UNL     1     -24.598 -21.908 -45.474  1.00  0.00     0.274 HD
ENDBRANCH  25  26
ENDBRANCH  24  25
ENDBRANCH  23  24
ENDBRANCH  21  23
ENDBRANCH   6  21
BRANCH   9  30
HETATM   30  N7  UNL     1     -19.530 -17.680 -43.735  1.00  0.00    -0.225 N 
ATOM     31  H7  UNL     1     -19.132 -17.097 -42.999  1.00  0.00     0.177 HD
BRANCH  30  32
HETATM   32  C12 UNL     1     -20.439 -17.071 -44.651  1.00  0.00     0.138 C 
BRANCH  32  33
HETATM   33  C13 UNL     1     -21.664 -16.571 -43.980  1.00  0.00     0.020 C 
BRANCH  33  34
HETATM   34  C14 UNL     1     -22.612 -17.623 -43.548  1.00  0.00     0.003 C 
BRANCH  34  35
HETATM   35  C15 UNL     1     -23.228 -17.516 -42.202  1.00  0.00     0.027 C 
BRANCH  35  36
HETATM   36  C16 UNL     1     -23.285 -18.964 -41.639  1.00  0.00     0.229 C 
BRANCH  36  37
HETATM   37  N8  UNL     1     -21.947 -19.527 -41.746  1.00  0.00    -0.079 N 
ATOM     38  H83 UNL     1     -21.856 -20.194 -42.512  1.00  0.00     0.274 HD
ATOM     39  H82 UNL     1     -21.257 -18.852 -42.073  1.00  0.00     0.274 HD
ATOM     40  H81 UNL     1     -21.711 -19.930 -40.838  1.00  0.00     0.274 HD
ENDBRANCH  36  37
ENDBRANCH  35  36
ENDBRANCH  34  35
ENDBRANCH  33  34
ENDBRANCH  32  33
ENDBRANCH  30  32
ENDBRANCH   9  30
TORSDOF 18
ENDMDL
MODEL 2
REMARK VINA RESULT: -7.137610389      1.611      6.557
REMARK  18 active torsions:
REMARK  status: ('A' for Active; 'I' for Inactive)
REMARK    1  A    between atoms: N1_1  and  C1_5 
REMARK    2  A    between atoms: C1_5  and  C2_6 
REMARK    3  A    between atoms: C2_6  and  C3_7 
REMARK    4  A    between atoms: C3_7  and  C4_8 
REMARK    5  A    between atoms: C4_8  and  C5_9 
REMARK    6  A    between atoms: C5_9  and  N2_10 
REMARK    7  A    between atoms: C7_15  and  N4_16 
REMARK    8  A    between atoms: N4_16  and  C8_18 
REMARK    9  A    between atoms: C8_18  and  C9_19 
REMARK   10  A    between atoms: C9_19  and  C10_20 
REMARK   11  A    between atoms: C10_20  and  N5_21 
REMARK   12  A    between atoms: C11_27  and  N7_28 
REMARK   13  A    between atoms: N7_28  and  C12_30 
REMARK   14  A    between atoms: C12_30  and  C13_31 
REMARK   15  A    between atoms: C13_31  and  C14_32 
REMARK   16  A    between atoms: C14_32  and  C15_33 
REMARK   17  A    between atoms: C15_33  and  C16_34 
REMARK   18  A    between atoms: C16_34  and  N8_35 
ROOT
HETATM    1  N2  UNL     1     -19.426 -21.772 -45.894  1.00  0.00    -0.225 N 
ATOM      2  H2  UNL     1     -18.670 -22.345 -46.269  1.00  0.00     0.177 HD
HETATM    3  C6  UNL     1     -19.191 -21.207 -44.786  1.00  0.00     0.707 A 
HETATM    4  N3  UNL     1     -17.959 -21.439 -44.239  1.00  0.00    -0.022 N 
ATOM      5  H3  UNL     1     -17.297 -22.040 -44.731  1.00  0.00     0.203 HD
HETATM    6  C7  UNL     1     -17.606 -20.892 -43.069  1.00  0.00     0.707 A 
HETATM    7  N6  UNL     1     -18.468 -20.100 -42.412  1.00  0.00    -0.022 N 
ATOM      8  H6  UNL     1     -18.193 -19.685 -41.521  1.00  0.00     0.203 HD
HETATM    9  C11 UNL     1     -19.692 -19.846 -42.915  1.00  0.00     0.707 A 
HETATM   10  N9  UNL     1     -20.011 -20.412 -44.092  1.00  0.00    -0.022 N 
ATOM     11  H9  UNL     1     -20.936 -20.224 -44.478  1.00  0.00     0.203 HD
ENDROOT
BRANCH   1  12
HETATM   12  C5  UNL     1     -20.611 -21.711 -46.688  1.00  0.00     0.138 C 
BRANCH  12  13
HETATM   13  C4  UNL     1     -21.714 -22.428 -45.904  1.00  0.00     0.020 C 
BRANCH  13  14
HETATM   14  C3  UNL     1     -22.987 -21.631 -45.907  1.00  0.00     0.003 C 
BRANCH  14  15
HETATM   15  C2  UNL     1     -23.359 -21.275 -44.488  1.00  0.00     0.027 C 
BRANCH  15  16
HETATM   16  C1  UNL     1     -24.785 -20.823 -44.341  1.00  0.00     0.229 C 
BRANCH  16  17
HETATM   17  N1  UNL     1     -24.865 -19.424 -44.719  1.00  0.00    -0.079 N 
ATOM     18  H13 UNL     1     -23.946 -18.991 -44.815  1.00  0.00     0.274 HD
ATOM     19  H12 UNL     1     -25.181 -19.296 -45.680  1.00  0.00     0.274 HD
ATOM     20  H11 UNL     1     -25.457 -18.941 -44.043  1.00  0.00     0.274 HD
ENDBRANCH  16  17
ENDBRANCH  15  16
ENDBRANCH  14  15
ENDBRANCH  13  14
ENDBRANCH  12  13
ENDBRANCH   1  12
BRANCH   6  21
HETATM   21  N4  UNL     1     -16.454 -21.103 -42.547  1.00  0.00    -0.225 N 
ATOM     22  H4  UNL     1     -15.744 -21.625 -43.059  1.00  0.00     0.177 HD
BRANCH  21  23
HETATM   23  C8  UNL     1     -16.173 -20.593 -41.228  1.00  0.00     0.139 C 
BRANCH  23  24
HETATM   24  C9  UNL     1     -14.701 -20.371 -40.996  1.00  0.00     0.047 C 
BRANCH  24  25
HETATM   25  C10 UNL     1     -14.478 -18.859 -41.033  1.00  0.00     0.231 C 
BRANCH  25  26
HETATM   26  N5  UNL     1     -15.632 -18.268 -40.372  1.00  0.00    -0.079 N 
ATOM     27  H53 UNL     1     -16.398 -18.051 -41.009  1.00  0.00     0.274 HD
ATOM     28  H52 UNL     1     -16.145 -18.924 -39.783  1.00  0.00     0.274 HD
ATOM     29  H51 UNL     1     -15.279 -17.455 -39.866  1.00  0.00     0.274 HD
ENDBRANCH  25  26
ENDBRANCH  24  25
ENDBRANCH  23  24
ENDBRANCH  21  23
ENDBRANCH   6  21
BRANCH   9  30
HETATM   30  N7  UNL     1     -20.532 -19.096 -42.308  1.00  0.00    -0.225 N 
ATOM     31  H7  UNL     1     -20.387 -18.925 -41.313  1.00  0.00     0.177 HD
BRANCH  30  32
HETATM   32  C12 UNL     1     -21.659 -18.481 -42.933  1.00  0.00     0.138 C 
BRANCH  32  33
HETATM   33  C13 UNL     1     -22.838 -18.422 -42.034  1.00  0.00     0.020 C 
BRANCH  33  34
HETATM   34  C14 UNL     1     -23.078 -19.646 -41.237  1.00  0.00     0.003 C 
BRANCH  34  35
HETATM   35  C15 UNL     1     -24.035 -19.581 -40.105  1.00  0.00     0.027 C 
BRANCH  35  36
HETATM   36  C16 UNL     1     -25.128 -20.646 -40.403  1.00  0.00     0.229 C 
BRANCH  36  37
HETATM   37  N8  UNL     1     -25.781 -20.967 -39.143  1.00  0.00    -0.079 N 
ATOM     38  H83 UNL     1     -25.234 -21.602 -38.561  1.00  0.00     0.274 HD
ATOM     39  H82 UNL     1     -25.804 -20.180 -38.495  1.00  0.00     0.274 HD
ATOM     40  H81 UNL     1     -26.709 -21.330 -39.363  1.00  0.00     0.274 HD
ENDBRANCH  36  37
ENDBRANCH  35  36
ENDBRANCH  34  35
ENDBRANCH  33  34
ENDBRANCH  32  33
ENDBRANCH  30  32
ENDBRANCH   9  30
TORSDOF 18
ENDMDL
MODEL 3
REMARK VINA RESULT: -7.113857737      1.768      6.202
REMARK  18 active torsions:
REMARK  status: ('A' for Active; 'I' for Inactive)
REMARK    1  A    between atoms: N1_1  and  C1_5 
REMARK    2  A    between atoms: C1_5  and  C2_6 
REMARK    3  A    between atoms: C2_6  and  C3_7 
REMARK    4  A    between atoms: C3_7  and  C4_8 
REMARK    5  A    between atoms: C4_8  and  C5_9 
REMARK    6  A    between atoms: C5_9  and  N2_10 
REMARK    7  A    between atoms: C7_15  and  N4_16 
REMARK    8  A    between atoms: N4_16  and  C8_18 
REMARK    9  A    between atoms: C8_18  and  C9_19 
REMARK   10  A    between atoms: C9_19  and  C10_20 
REMARK   11  A    between atoms: C10_20  and  N5_21 
REMARK   12  A    between atoms: C11_27  and  N7_28 
REMARK   13  A    between atoms: N7_28  and  C12_30 
REMARK   14  A    between atoms: C12_30  and  C13_31 
REMARK   15  A    between atoms: C13_31  and  C14_32 
REMARK   16  A    between atoms: C14_32  and  C15_33 
REMARK   17  A    between atoms: C15_33  and  C16_34 
REMARK   18  A    between atoms: C16_34  and  N8_35 
ROOT
HETATM    1  N2  UNL     1     -19.776 -17.863 -43.995  1.00  0.00    -0.225 N 
ATOM      2  H2  UNL     1     -19.197 -17.388 -43.303  1.00  0.00     0.177 HD
HETATM    3  C6  UNL     1     -19.437 -19.051 -44.274  1.00  0.00     0.707 A 
HETATM    4  N3  UNL     1     -18.343 -19.538 -43.613  1.00  0.00    -0.022 N 
ATOM      5  H3  UNL     1     -17.857 -18.943 -42.941  1.00  0.00     0.203 HD
HETATM    6  C7  UNL     1     -17.898 -20.781 -43.832  1.00  0.00     0.707 A 
HETATM    7  N6  UNL     1     -18.527 -21.573 -44.714  1.00  0.00    -0.022 N 
ATOM      8  H6  UNL     1     -18.184 -22.520 -44.877  1.00  0.00     0.203 HD
HETATM    9  C11 UNL     1     -19.609 -21.132 -45.387  1.00  0.00     0.707 A 
HETATM   10  N9  UNL     1     -20.027 -19.879 -45.141  1.00  0.00    -0.022 N 
ATOM     11  H9  UNL     1     -20.845 -19.539 -45.646  1.00  0.00     0.203 HD
ENDROOT
BRANCH   1  12
HETATM   12  C5  UNL     1     -20.862 -17.103 -44.523  1.00  0.00     0.138 C 
BRANCH  12  13
HETATM   13  C4  UNL     1     -22.051 -17.303 -43.579  1.00  0.00     0.020 C 
BRANCH  13  14
HETATM   14  C3  UNL     1     -23.268 -16.577 -44.079  1.00  0.00     0.003 C 
BRANCH  14  15
HETATM   15  C2  UNL     1     -23.558 -15.403 -43.176  1.00  0.00     0.027 C 
BRANCH  15  16
HETATM   16  C1  UNL     1     -23.600 -14.088 -43.902  1.00  0.00     0.229 C 
BRANCH  16  17
HETATM   17  N1  UNL     1     -22.245 -13.729 -44.281  1.00  0.00    -0.079 N 
ATOM     18  H13 UNL     1     -21.775 -13.167 -43.571  1.00  0.00     0.274 HD
ATOM     19  H12 UNL     1     -21.611 -14.528 -44.270  1.00  0.00     0.274 HD
ATOM     20  H11 UNL     1     -22.277 -13.265 -45.190  1.00  0.00     0.274 HD
ENDBRANCH  16  17
ENDBRANCH  15  16
ENDBRANCH  14  15
ENDBRANCH  13  14
ENDBRANCH  12  13
ENDBRANCH   1  12
BRANCH   6  21
HETATM   21  N4  UNL     1     -16.873 -21.248 -43.219  1.00  0.00    -0.225 N 
ATOM     22  H4  UNL     1     -16.132 -21.719 -43.737  1.00  0.00     0.177 HD
BRANCH  21  23
HETATM   23  C8  UNL     1     -16.778 -21.099 -41.788  1.00  0.00     0.139 C 
BRANCH  23  24
HETATM   24  C9  UNL     1     -15.698 -20.133 -41.378  1.00  0.00     0.047 C 
BRANCH  24  25
HETATM   25  C10 UNL     1     -16.325 -19.189 -40.351  1.00  0.00     0.231 C 
BRANCH  25  26
HETATM   26  N5  UNL     1     -17.536 -19.850 -39.888  1.00  0.00    -0.079 N 
ATOM     27  H53 UNL     1     -18.341 -19.698 -40.495  1.00  0.00     0.274 HD
ATOM     28  H52 UNL     1     -17.506 -20.866 -39.977  1.00  0.00     0.274 HD
ATOM     29  H51 UNL     1     -17.682 -19.529 -38.930  1.00  0.00     0.274 HD
ENDBRANCH  25  26
ENDBRANCH  24  25
ENDBRANCH  23  24
ENDBRANCH  21  23
ENDBRANCH   6  21
BRANCH   9  30
HETATM   30  N7  UNL     1     -20.226 -21.868 -46.233  1.00  0.00    -0.225 N 
ATOM     31  H7  UNL     1     -19.669 -22.476 -46.833  1.00  0.00     0.177 HD
BRANCH  30  32
HETATM   32  C12 UNL     1     -21.644 -21.890 -46.393  1.00  0.00     0.138 C 
BRANCH  32  33
HETATM   33  C13 UNL     1     -22.352 -22.060 -45.100  1.00  0.00     0.020 C 
BRANCH  33  34
HETATM   34  C14 UNL     1     -23.306 -20.979 -44.764  1.00  0.00     0.003 C 
BRANCH  34  35
HETATM   35  C15 UNL     1     -24.301 -21.217 -43.688  1.00  0.00     0.027 C 
BRANCH  35  36
HETATM   36  C16 UNL     1     -23.772 -20.458 -42.438  1.00  0.00     0.229 C 
BRANCH  36  37
HETATM   37  N8  UNL     1     -24.607 -20.841 -41.309  1.00  0.00    -0.079 N 
ATOM     38  H83 UNL     1     -25.523 -21.192 -41.591  1.00  0.00     0.274 HD
ATOM     39  H82 UNL     1     -24.280 -21.686 -40.841  1.00  0.00     0.274 HD
ATOM     40  H81 UNL     1     -24.664 -20.037 -40.684  1.00  0.00     0.274 HD
ENDBRANCH  36  37
ENDBRANCH  35  36
ENDBRANCH  34  35
ENDBRANCH  33  34
ENDBRANCH  32  33
ENDBRANCH  30  32
ENDBRANCH   9  30
TORSDOF 18
ENDMDL
MODEL 4
REMARK VINA RESULT: -7.100406735      1.728      6.524
REMARK  18 active torsions:
REMARK  status: ('A' for Active; 'I' for Inactive)
REMARK    1  A    between atoms: N1_1  and  C1_5 
REMARK    2  A    between atoms: C1_5  and  C2_6 
REMARK    3  A    between atoms: C2_6  and  C3_7 
REMARK    4  A    between atoms: C3_7  and  C4_8 
REMARK    5  A    between atoms: C4_8  and  C5_9 
REMARK    6  A    between atoms: C5_9  and  N2_10 
REMARK    7  A    between atoms: C7_15  and  N4_16 
REMARK    8  A    between atoms: N4_16  and  C8_18 
REMARK    9  A    between atoms: C8_18  and  C9_19 
REMARK   10  A    between atoms: C9_19  and  C10_20 
REMARK   11  A    between atoms: C10_20  and  N5_21 
REMARK   12  A    between atoms: C11_27  and  N7_28 
REMARK   13  A    between atoms: N7_28  and  C12_30 
REMARK   14  A    between atoms: C12_30  and  C13_31 
REMARK   15  A    between atoms: C13_31  and  C14_32 
REMARK   16  A    between atoms: C14_32  and  C15_33 
REMARK   17  A    between atoms: C15_33  and  C16_34 
REMARK   18  A    between atoms: C16_34  and  N8_35 
ROOT
HETATM    1  N2  UNL     1     -19.813 -17.843 -44.015  1.00  0.00    -0.225 N 
ATOM      2  H2  UNL     1     -19.226 -17.363 -43.334  1.00  0.00     0.177 HD
HETATM    3  C6  UNL     1     -19.476 -19.032 -44.291  1.00  0.00     0.707 A 
HETATM    4  N3  UNL     1     -18.374 -19.515 -43.641  1.00  0.00    -0.022 N 
ATOM      5  H3  UNL     1     -17.880 -18.915 -42.978  1.00  0.00     0.203 HD
HETATM    6  C7  UNL     1     -17.930 -20.759 -43.858  1.00  0.00     0.707 A 
HETATM    7  N6  UNL     1     -18.570 -21.557 -44.727  1.00  0.00    -0.022 N 
ATOM      8  H6  UNL     1     -18.227 -22.504 -44.888  1.00  0.00     0.203 HD
HETATM    9  C11 UNL     1     -19.660 -21.121 -45.390  1.00  0.00     0.707 A 
HETATM   10  N9  UNL     1     -20.076 -19.867 -45.146  1.00  0.00    -0.022 N 
ATOM     11  H9  UNL     1     -20.901 -19.531 -45.644  1.00  0.00     0.203 HD
ENDROOT
BRANCH   1  12
HETATM   12  C5  UNL     1     -20.907 -17.087 -44.535  1.00  0.00     0.138 C 
BRANCH  12  13
HETATM   13  C4  UNL     1     -22.057 -17.214 -43.533  1.00  0.00     0.020 C 
BRANCH  13  14
HETATM   14  C3  UNL     1     -23.386 -17.235 -44.233  1.00  0.00     0.003 C 
BRANCH  14  15
HETATM   15  C2  UNL     1     -24.473 -16.856 -43.256  1.00  0.00     0.027 C 
BRANCH  15  16
HETATM   16  C1  UNL     1     -25.733 -17.658 -43.425  1.00  0.00     0.229 C 
BRANCH  16  17
HETATM   17  N1  UNL     1     -25.777 -18.162 -44.785  1.00  0.00    -0.079 N 
ATOM     18  H13 UNL     1     -24.902 -18.603 -45.069  1.00  0.00     0.274 HD
ATOM     19  H12 UNL     1     -26.382 -18.978 -44.881  1.00  0.00     0.274 HD
ATOM     20  H11 UNL     1     -26.049 -17.398 -45.404  1.00  0.00     0.274 HD
ENDBRANCH  16  17
ENDBRANCH  15  16
ENDBRANCH  14  15
ENDBRANCH  13  14
ENDBRANCH  12  13
ENDBRANCH   1  12
BRANCH   6  21
HETATM   21  N4  UNL     1     -16.898 -21.221 -43.254  1.00  0.00    -0.225 N 
ATOM     22  H4  UNL     1     -16.155 -21.681 -43.781  1.00  0.00     0.177 HD
BRANCH  21  23
HETATM   23  C8  UNL     1     -16.796 -21.082 -41.823  1.00  0.00     0.139 C 
BRANCH  23  24
HETATM   24  C9  UNL     1     -15.752 -20.077 -41.413  1.00  0.00     0.047 C 
BRANCH  24  25
HETATM   25  C10 UNL     1     -16.420 -19.141 -40.405  1.00  0.00     0.231 C 
BRANCH  25  26
HETATM   26  N5  UNL     1     -17.537 -19.888 -39.846  1.00  0.00    -0.079 N 
ATOM     27  H53 UNL     1     -18.368 -19.880 -40.436  1.00  0.00     0.274 HD
ATOM     28  H52 UNL     1     -17.395 -20.898 -39.849  1.00  0.00     0.274 HD
ATOM     29  H51 UNL     1     -17.694 -19.502 -38.915  1.00  0.00     0.274 HD
ENDBRANCH  25  26
ENDBRANCH  24  25
ENDBRANCH  23  24
ENDBRANCH  21  23
ENDBRANCH   6  21
BRANCH   9  30
HETATM   30  N7  UNL     1     -20.287 -21.862 -46.224  1.00  0.00    -0.225 N 
ATOM     31  H7  UNL     1     -19.738 -22.491 -46.809  1.00  0.00     0.177 HD
BRANCH  30  32
HETATM   32  C12 UNL     1     -21.705 -21.864 -46.388  1.00  0.00     0.138 C 
BRANCH  32  33
HETATM   33  C13 UNL     1     -22.419 -22.069 -45.103  1.00  0.00     0.020 C 
BRANCH  33  34
HETATM   34  C14 UNL     1     -23.430 -21.038 -44.779  1.00  0.00     0.003 C 
BRANCH  34  35
HETATM   35  C15 UNL     1     -24.305 -21.246 -43.598  1.00  0.00     0.027 C 
BRANCH  35  36
HETATM   36  C16 UNL     1     -23.616 -20.508 -42.416  1.00  0.00     0.229 C 
BRANCH  36  37
HETATM   37  N8  UNL     1     -24.514 -20.581 -41.273  1.00  0.00    -0.079 N 
ATOM     38  H83 UNL     1     -25.472 -20.314 -41.501  1.00  0.00     0.274 HD
ATOM     39  H82 UNL     1     -24.710 -21.539 -40.981  1.00  0.00     0.274 HD
ATOM     40  H81 UNL     1     -24.109 -20.013 -40.529  1.00  0.00     0.274 HD
ENDBRANCH  36  37
ENDBRANCH  35  36
ENDBRANCH  34  35
ENDBRANCH  33  34
ENDBRANCH  32  33
ENDBRANCH  30  32
ENDBRANCH   9  30
TORSDOF 18
ENDMDL
MODEL 5
REMARK VINA RESULT: -7.093072278      1.435      6.527
REMARK  18 active torsions:
REMARK  status: ('A' for Active; 'I' for Inactive)
REMARK    1  A    between atoms: N1_1  and  C1_5 
REMARK    2  A    between atoms: C1_5  and  C2_6 
REMARK    3  A    between atoms: C2_6  and  C3_7 
REMARK    4  A    between atoms: C3_7  and  C4_8 
REMARK    5  A    between atoms: C4_8  and  C5_9 
REMARK    6  A    between atoms: C5_9  and  N2_10 
REMARK    7  A    between atoms: C7_15  and  N4_16 
REMARK    8  A    between atoms: N4_16  and  C8_18 
REMARK    9  A    between atoms: C8_18  and  C9_19 
REMARK   10  A    between atoms: C9_19  and  C10_20 
REMARK   11  A    between atoms: C10_20  and  N5_21 
REMARK   12  A    between atoms: C11_27  and  N7_28 
REMARK   13  A    between atoms: N7_28  and  C12_30 
REMARK   14  A    between atoms: C12_30  and  C13_31 
REMARK   15  A    between atoms: C13_31  and  C14_32 
REMARK   16  A    between atoms: C14_32  and  C15_33 
REMARK   17  A    between atoms: C15_33  and  C16_34 
REMARK   18  A    between atoms: C16_34  and  N8_35 
ROOT
HETATM    1  N2  UNL     1     -19.765 -17.536 -43.880  1.00  0.00    -0.225 N 
ATOM      2  H2  UNL     1     -19.434 -16.983 -43.090  1.00  0.00     0.177 HD
HETATM    3  C6  UNL     1     -19.399 -18.748 -43.896  1.00  0.00     0.707 A 
HETATM    4  N3  UNL     1     -18.611 -19.156 -42.855  1.00  0.00    -0.022 N 
ATOM      5  H3  UNL     1     -18.356 -18.487 -42.128  1.00  0.00     0.203 HD
HETATM    6  C7  UNL     1     -18.168 -20.416 -42.774  1.00  0.00     0.707 A 
HETATM    7  N6  UNL     1     -18.496 -21.305 -43.725  1.00  0.00    -0.022 N 
ATOM      8  H6  UNL     1     -18.155 -22.265 -43.657  1.00  0.00     0.203 HD
HETATM    9  C11 UNL     1     -19.270 -20.945 -44.768  1.00  0.00     0.707 A 
HETATM   10  N9  UNL     1     -19.697 -19.672 -44.816  1.00  0.00    -0.022 N 
ATOM     11  H9  UNL     1     -20.283 -19.393 -45.602  1.00  0.00     0.203 HD
ENDROOT
BRANCH   1  12
HETATM   12  C5  UNL     1     -20.581 -16.842 -44.824  1.00  0.00     0.138 C 
BRANCH  12  13
HETATM   13  C4  UNL     1     -21.676 -16.125 -44.031  1.00  0.00     0.020 C 
BRANCH  13  14
HETATM   14  C3  UNL     1     -22.895 -16.991 -43.886  1.00  0.00     0.003 C 
BRANCH  14  15
HETATM   15  C2  UNL     1     -23.105 -17.321 -42.428  1.00  0.00     0.027 C 
BRANCH  15  16
HETATM   16  C1  UNL     1     -24.546 -17.264 -42.005  1.00  0.00     0.229 C 
BRANCH  16  17
HETATM   17  N1  UNL     1     -25.366 -17.741 -43.104  1.00  0.00    -0.079 N 
ATOM     18  H13 UNL     1     -25.374 -17.098 -43.895  1.00  0.00     0.274 HD
ATOM     19  H12 UNL     1     -24.953 -18.543 -43.580  1.00  0.00     0.274 HD
ATOM     20  H11 UNL     1     -26.302 -17.936 -42.748  1.00  0.00     0.274 HD
ENDBRANCH  16  17
ENDBRANCH  15  16
ENDBRANCH  14  15
ENDBRANCH  13  14
ENDBRANCH  12  13
ENDBRANCH   1  12
BRANCH   6  21
HETATM   21  N4  UNL     1     -17.427 -20.808 -41.803  1.00  0.00    -0.225 N 
ATOM     22  H4  UNL     1     -17.085 -21.768 -41.771  1.00  0.00     0.177 HD
BRANCH  21  23
HETATM   23  C8  UNL     1     -17.083 -19.878 -40.758  1.00  0.00     0.139 C 
BRANCH  23  24
HETATM   24  C9  UNL     1     -15.860 -20.300 -39.988  1.00  0.00     0.047 C 
BRANCH  24  25
HETATM   25  C10 UNL     1     -14.847 -20.799 -41.019  1.00  0.00     0.231 C 
BRANCH  25  26
HETATM   26  N5  UNL     1     -14.089 -19.627 -41.434  1.00  0.00    -0.079 N 
ATOM     27  H53 UNL     1     -14.449 -18.753 -41.053  1.00  0.00     0.274 HD
ATOM     28  H52 UNL     1     -13.161 -19.571 -41.014  1.00  0.00     0.274 HD
ATOM     29  H51 UNL     1     -14.073 -19.650 -42.454  1.00  0.00     0.274 HD
ENDBRANCH  25  26
ENDBRANCH  24  25
ENDBRANCH  23  24
ENDBRANCH  21  23
ENDBRANCH   6  21
BRANCH   9  30
HETATM   30  N7  UNL     1     -19.596 -21.774 -45.687  1.00  0.00    -0.225 N 
ATOM     31  H7  UNL     1     -18.918 -22.490 -45.946  1.00  0.00     0.177 HD
BRANCH  30  32
HETATM   32  C12 UNL     1     -20.847 -21.760 -46.373  1.00  0.00     0.138 C 
BRANCH  32  33
HETATM   33  C13 UNL     1     -21.954 -22.284 -45.535  1.00  0.00     0.020 C 
BRANCH  33  34
HETATM   34  C14 UNL     1     -23.011 -21.300 -45.209  1.00  0.00     0.003 C 
BRANCH  34  35
HETATM   35  C15 UNL     1     -23.061 -20.739 -43.835  1.00  0.00     0.027 C 
BRANCH  35  36
HETATM   36  C16 UNL     1     -24.378 -21.269 -43.202  1.00  0.00     0.229 C 
BRANCH  36  37
HETATM   37  N8  UNL     1     -24.357 -20.916 -41.790  1.00  0.00    -0.079 N 
ATOM     38  H83 UNL     1     -25.188 -21.229 -41.289  1.00  0.00     0.274 HD
ATOM     39  H82 UNL     1     -23.671 -21.451 -41.257  1.00  0.00     0.274 HD
ATOM     40  H81 UNL     1     -24.211 -19.908 -41.729  1.00  0.00     0.274 HD
ENDBRANCH  36  37
ENDBRANCH  35  36
ENDBRANCH  34  35
ENDBRANCH  33  34
ENDBRANCH  32  33
ENDBRANCH  30  32
ENDBRANCH   9  30
TORSDOF 18
ENDMDL
