MODEL 1
REMARK VINA RESULT: -9.743094019      0.000      0.000
REMARK  4 active torsions:
REMARK  status: ('A' for Active; 'I' for Inactive)
REMARK    1  A    between atoms: C2_2  and  N1_3 
REMARK    2  A    between atoms: N3_9  and  C6_11 
REMARK    3  A    between atoms: C9_16  and  C10_17 
REMARK    4  A    between atoms: C10_17  and  N5_19 
ROOT
HETATM    1  C6  UNL     1      18.149  10.680  13.302  1.00  0.00     0.049 A 
HETATM    2  C7  UNL     1      19.141  10.944  12.391  1.00  0.00     0.117 A 
HETATM    3  N4  UNL     1      20.198  11.680  12.765  1.00  0.00    -0.372 N 
ATOM      4  H4  UNL     1      20.922  11.864  12.071  1.00  0.00     0.164 HD
HETATM    5  C8  UNL     1      20.364  12.189  13.990  1.00  0.00     0.096 A 
HETATM    6  C9  UNL     1      19.375  11.930  14.911  1.00  0.00    -0.018 A 
HETATM    7  C17 UNL     1      18.276  11.184  14.578  1.00  0.00     0.041 A 
ENDROOT
BRANCH   1   8
HETATM    8  N3  UNL     1      17.042   9.905  12.900  1.00  0.00    -0.339 N 
HETATM    9  C5  UNL     1      16.809   8.710  13.226  1.00  0.00     0.139 A 
HETATM   10  C4  UNL     1      17.656   8.006  14.051  1.00  0.00     0.122 A 
HETATM   11  N7  UNL     1      15.714   8.088  12.769  1.00  0.00    -0.317 N 
HETATM   12  N2  UNL     1      18.798   8.297  14.669  1.00  0.00    -0.346 N 
HETATM   13  C19 UNL     1      17.385   6.680  14.405  1.00  0.00     0.141 A 
HETATM   14  C3  UNL     1      19.247   7.251  15.375  1.00  0.00     0.185 A 
ATOM     15  H2  UNL     1      19.270   9.200  14.613  1.00  0.00     0.167 HD
HETATM   16  N1  UNL     1      18.368   6.248  15.209  1.00  0.00    -0.328 N 
HETATM   17  N8  UNL     1      16.281   6.107  13.923  1.00  0.00    -0.317 N 
HETATM   18  C18 UNL     1      15.459   6.802  13.117  1.00  0.00     0.182 A 
ATOM     19  H8  UNL     1      16.060   5.141  14.166  1.00  0.00     0.170 HD
HETATM   20 CL3  UNL     1      14.009   6.004  12.503  1.00  0.00    -0.045 Cl
ATOM     21  H7  UNL     1      15.067   8.586  12.156  1.00  0.00     0.170 HD
ATOM     22  H3  UNL     1      16.365  10.355  12.285  1.00  0.00     0.167 HD
BRANCH  16  23
HETATM   23  C2  UNL     1      18.484   4.922  15.812  1.00  0.00     0.127 C 
HETATM   24  C1  UNL     1      19.166   4.984  17.150  1.00  0.00     0.027 C 
ENDBRANCH  16  23
ENDBRANCH   1   8
BRANCH   6  25
HETATM   25  C10 UNL     1      19.555  12.502  16.282  1.00  0.00     0.113 C 
HETATM   26  C11 UNL     1      20.835  13.349  16.189  1.00  0.00     0.037 C 
BRANCH  25  27
HETATM   27  N5  UNL     1      18.504  13.340  16.643  1.00  0.00    -0.367 N 
HETATM   28  C12 UNL     1      17.504  13.334  17.362  1.00  0.00     0.123 A 
HETATM   29  N6  UNL     1      16.736  14.474  17.376  1.00  0.00    -0.350 N 
HETATM   30  C16 UNL     1      17.049  12.320  18.164  1.00  0.00     0.079 A 
HETATM   31  C13 UNL     1      15.639  14.626  18.092  1.00  0.00     0.113 A 
ATOM     32  H6  UNL     1      17.036  15.255  16.794  1.00  0.00     0.166 HD
HETATM   33  C14 UNL     1      15.178  13.613  18.898  1.00  0.00     0.051 A 
HETATM   34 CL1  UNL     1      13.709  13.833  19.848  1.00  0.00    -0.083 Cl
HETATM   35  C15 UNL     1      15.898  12.441  18.932  1.00  0.00     0.053 A 
HETATM   36 CL2  UNL     1      17.899  10.807  18.266  1.00  0.00    -0.080 Cl
ATOM     37  H5  UNL     1      18.587  14.236  16.163  1.00  0.00     0.161 HD
ENDBRANCH  25  27
ENDBRANCH   6  25
TORSDOF 4
ENDMDL
MODEL 2
REMARK VINA RESULT: -9.345624803      3.554      8.187
REMARK  4 active torsions:
REMARK  status: ('A' for Active; 'I' for Inactive)
REMARK    1  A    between atoms: C2_2  and  N1_3 
REMARK    2  A    between atoms: N3_9  and  C6_11 
REMARK    3  A    between atoms: C9_16  and  C10_17 
REMARK    4  A    between atoms: C10_17  and  N5_19 
ROOT
HETATM    1  C6  UNL     1      16.727   8.647  20.833  1.00  0.00     0.049 A 
HETATM    2  C7  UNL     1      18.010   9.025  21.138  1.00  0.00     0.117 A 
HETATM    3  N4  UNL     1      19.030   8.522  20.427  1.00  0.00    -0.372 N 
ATOM      4  H4  UNL     1      19.975   8.817  20.672  1.00  0.00     0.164 HD
HETATM    5  C8  UNL     1      18.888   7.658  19.418  1.00  0.00     0.096 A 
HETATM    6  C9  UNL     1      17.605   7.272  19.104  1.00  0.00    -0.018 A 
HETATM    7  C17 UNL     1      16.531   7.757  19.801  1.00  0.00     0.041 A 
ENDROOT
BRANCH   1   8
HETATM    8  N3  UNL     1      15.661   9.182  21.586  1.00  0.00    -0.339 N 
HETATM    9  C5  UNL     1      15.046  10.257  21.351  1.00  0.00     0.139 A 
HETATM   10  C4  UNL     1      15.370  11.056  20.279  1.00  0.00     0.122 A 
HETATM   11  N7  UNL     1      14.047  10.650  22.152  1.00  0.00    -0.317 N 
HETATM   12  N2  UNL     1      16.277  10.978  19.308  1.00  0.00    -0.346 N 
HETATM   13  C19 UNL     1      14.679  12.247  20.029  1.00  0.00     0.141 A 
HETATM   14  C3  UNL     1      16.194  12.030  18.482  1.00  0.00     0.185 A 
ATOM     15  H2  UNL     1      16.948  10.217  19.205  1.00  0.00     0.167 HD
HETATM   16  N1  UNL     1      15.201  12.816  18.933  1.00  0.00    -0.328 N 
HETATM   17  N8  UNL     1      13.692  12.594  20.857  1.00  0.00    -0.317 N 
HETATM   18  C18 UNL     1      13.383  11.806  21.903  1.00  0.00     0.182 A 
ATOM     19  H8  UNL     1      13.173  13.457  20.698  1.00  0.00     0.170 HD
HETATM   20 CL3  UNL     1      12.069  12.304  22.972  1.00  0.00    -0.045 Cl
ATOM     21  H7  UNL     1      13.785  10.077  22.954  1.00  0.00     0.170 HD
ATOM     22  H3  UNL     1      15.360   8.647  22.400  1.00  0.00     0.167 HD
BRANCH  16  23
HETATM   23  C2  UNL     1      14.779  14.072  18.316  1.00  0.00     0.127 C 
HETATM   24  C1  UNL     1      15.463  15.252  18.950  1.00  0.00     0.027 C 
ENDBRANCH  16  23
ENDBRANCH   1   8
BRANCH   6  25
HETATM   25  C10 UNL     1      17.443   6.300  17.977  1.00  0.00     0.113 C 
HETATM   26  C11 UNL     1      16.725   5.092  18.600  1.00  0.00     0.037 C 
BRANCH  25  27
HETATM   27  N5  UNL     1      16.640   6.807  16.960  1.00  0.00    -0.367 N 
HETATM   28  C12 UNL     1      16.748   7.411  15.891  1.00  0.00     0.123 A 
HETATM   29  N6  UNL     1      15.587   7.701  15.216  1.00  0.00    -0.350 N 
HETATM   30  C16 UNL     1      17.897   7.839  15.278  1.00  0.00     0.079 A 
HETATM   31  C13 UNL     1      15.534   8.339  14.063  1.00  0.00     0.113 A 
ATOM     32  H6  UNL     1      14.706   7.402  15.635  1.00  0.00     0.166 HD
HETATM   33  C14 UNL     1      16.682   8.771  13.443  1.00  0.00     0.051 A 
HETATM   34 CL1  UNL     1      16.592   9.623  11.903  1.00  0.00    -0.083 Cl
HETATM   35  C15 UNL     1      17.882   8.514  14.065  1.00  0.00     0.053 A 
HETATM   36 CL2  UNL     1      19.455   7.555  15.995  1.00  0.00    -0.080 Cl
ATOM     37  H5  UNL     1      15.658   6.620  17.161  1.00  0.00     0.161 HD
ENDBRANCH  25  27
ENDBRANCH   6  25
TORSDOF 4
ENDMDL
MODEL 3
REMARK VINA RESULT: -9.338213542      3.982      8.356
REMARK  4 active torsions:
REMARK  status: ('A' for Active; 'I' for Inactive)
REMARK    1  A    between atoms: C2_2  and  N1_3 
REMARK    2  A    between atoms: N3_9  and  C6_11 
REMARK    3  A    between atoms: C9_16  and  C10_17 
REMARK    4  A    between atoms: C10_17  and  N5_19 
ROOT
HETATM    1  C6  UNL     1      16.541   9.368  21.563  1.00  0.00     0.049 A 
HETATM    2  C7  UNL     1      17.712   9.311  22.277  1.00  0.00     0.117 A 
HETATM    3  N4  UNL     1      18.843   8.946  21.655  1.00  0.00    -0.372 N 
ATOM      4  H4  UNL     1      19.700   8.911  22.205  1.00  0.00     0.164 HD
HETATM    5  C8  UNL     1      18.918   8.626  20.360  1.00  0.00     0.096 A 
HETATM    6  C9  UNL     1      17.749   8.679  19.635  1.00  0.00    -0.018 A 
HETATM    7  C17 UNL     1      16.569   9.046  20.225  1.00  0.00     0.041 A 
ENDROOT
BRANCH   1   8
HETATM    8  N3  UNL     1      15.357   9.753  22.226  1.00  0.00    -0.339 N 
HETATM    9  C5  UNL     1      14.701  10.811  22.028  1.00  0.00     0.139 A 
HETATM   10  C4  UNL     1      15.095  11.744  21.097  1.00  0.00     0.122 A 
HETATM   11  N7  UNL     1      13.587  11.054  22.732  1.00  0.00    -0.317 N 
HETATM   12  N2  UNL     1      16.116  11.828  20.247  1.00  0.00    -0.346 N 
HETATM   13  C19 UNL     1      14.358  12.915  20.887  1.00  0.00     0.141 A 
HETATM   14  C3  UNL     1      16.060  12.960  19.533  1.00  0.00     0.185 A 
ATOM     15  H2  UNL     1      16.846  11.122  20.152  1.00  0.00     0.167 HD
HETATM   16  N1  UNL     1      14.967  13.633  19.933  1.00  0.00    -0.328 N 
HETATM   17  N8  UNL     1      13.256  13.109  21.614  1.00  0.00    -0.317 N 
HETATM   18  C18 UNL     1      12.878  12.192  22.523  1.00  0.00     0.182 A 
ATOM     19  H8  UNL     1      12.700  13.954  21.481  1.00  0.00     0.170 HD
HETATM   20 CL3  UNL     1      11.413  12.490  23.461  1.00  0.00    -0.045 Cl
ATOM     21  H7  UNL     1      13.270  10.380  23.429  1.00  0.00     0.170 HD
ATOM     22  H3  UNL     1      14.997   9.113  22.934  1.00  0.00     0.167 HD
BRANCH  16  23
HETATM   23  C2  UNL     1      14.536  14.925  19.403  1.00  0.00     0.127 C 
HETATM   24  C1  UNL     1      15.319  15.305  18.177  1.00  0.00     0.027 C 
ENDBRANCH  16  23
ENDBRANCH   1   8
BRANCH   6  25
HETATM   25  C10 UNL     1      17.830   8.316  18.185  1.00  0.00     0.113 C 
HETATM   26  C11 UNL     1      16.479   7.653  17.871  1.00  0.00     0.037 C 
BRANCH  25  27
HETATM   27  N5  UNL     1      17.965   9.436  17.371  1.00  0.00    -0.367 N 
HETATM   28  C12 UNL     1      18.244   9.721  16.206  1.00  0.00     0.123 A 
HETATM   29  N6  UNL     1      18.244  11.053  15.870  1.00  0.00    -0.350 N 
HETATM   30  C16 UNL     1      18.559   8.866  15.181  1.00  0.00     0.079 A 
HETATM   31  C13 UNL     1      18.519  11.520  14.667  1.00  0.00     0.113 A 
ATOM     32  H6  UNL     1      18.016  11.728  16.600  1.00  0.00     0.166 HD
HETATM   33  C14 UNL     1      18.836  10.668  13.636  1.00  0.00     0.051 A 
HETATM   34 CL1  UNL     1      19.203  11.309  12.036  1.00  0.00    -0.083 Cl
HETATM   35  C15 UNL     1      18.855   9.319  13.902  1.00  0.00     0.053 A 
HETATM   36 CL2  UNL     1      18.605   7.146  15.431  1.00  0.00    -0.080 Cl
ATOM     37  H5  UNL     1      17.775  10.284  17.905  1.00  0.00     0.161 HD
ENDBRANCH  25  27
ENDBRANCH   6  25
TORSDOF 4
ENDMDL
MODEL 4
REMARK VINA RESULT: -9.198340640      4.102      9.210
REMARK  4 active torsions:
REMARK  status: ('A' for Active; 'I' for Inactive)
REMARK    1  A    between atoms: C2_2  and  N1_3 
REMARK    2  A    between atoms: N3_9  and  C6_11 
REMARK    3  A    between atoms: C9_16  and  C10_17 
REMARK    4  A    between atoms: C10_17  and  N5_19 
ROOT
HETATM    1  C6  UNL     1      16.016   9.068  21.749  1.00  0.00     0.049 A 
HETATM    2  C7  UNL     1      17.304   9.526  21.866  1.00  0.00     0.117 A 
HETATM    3  N4  UNL     1      18.273   8.956  21.135  1.00  0.00    -0.372 N 
ATOM      4  H4  UNL     1      19.223   9.313  21.240  1.00  0.00     0.164 HD
HETATM    5  C8  UNL     1      18.076   7.950  20.279  1.00  0.00     0.096 A 
HETATM    6  C9  UNL     1      16.787   7.483  20.153  1.00  0.00    -0.018 A 
HETATM    7  C17 UNL     1      15.763   8.031  20.878  1.00  0.00     0.041 A 
ENDROOT
BRANCH   1   8
HETATM    8  N3  UNL     1      15.003   9.674  22.521  1.00  0.00    -0.339 N 
HETATM    9  C5  UNL     1      14.410  10.755  22.258  1.00  0.00     0.139 A 
HETATM   10  C4  UNL     1      14.706  11.488  21.133  1.00  0.00     0.122 A 
HETATM   11  N7  UNL     1      13.462  11.220  23.083  1.00  0.00    -0.317 N 
HETATM   12  N2  UNL     1      15.562  11.333  20.126  1.00  0.00    -0.346 N 
HETATM   13  C19 UNL     1      14.039  12.686  20.853  1.00  0.00     0.141 A 
HETATM   14  C3  UNL     1      15.472  12.343  19.251  1.00  0.00     0.185 A 
ATOM     15  H2  UNL     1      16.205  10.546  20.033  1.00  0.00     0.167 HD
HETATM   16  N1  UNL     1      14.525  13.182  19.706  1.00  0.00    -0.328 N 
HETATM   17  N8  UNL     1      13.103  13.106  21.706  1.00  0.00    -0.317 N 
HETATM   18  C18 UNL     1      12.821  12.382  22.805  1.00  0.00     0.182 A 
ATOM     19  H8  UNL     1      12.602  13.976  21.526  1.00  0.00     0.170 HD
HETATM   20 CL3  UNL     1      11.575  12.975  23.906  1.00  0.00    -0.045 Cl
ATOM     21  H7  UNL     1      13.221  10.696  23.925  1.00  0.00     0.170 HD
ATOM     22  H3  UNL     1      14.725   9.191  23.375  1.00  0.00     0.167 HD
BRANCH  16  23
HETATM   23  C2  UNL     1      14.111  14.419  19.045  1.00  0.00     0.127 C 
HETATM   24  C1  UNL     1      15.287  15.316  18.774  1.00  0.00     0.027 C 
ENDBRANCH  16  23
ENDBRANCH   1   8
BRANCH   6  25
HETATM   25  C10 UNL     1      16.563   6.352  19.198  1.00  0.00     0.113 C 
HETATM   26  C11 UNL     1      15.254   5.696  19.666  1.00  0.00     0.037 C 
BRANCH  25  27
HETATM   27  N5  UNL     1      16.385   6.798  17.892  1.00  0.00    -0.367 N 
HETATM   28  C12 UNL     1      16.593   6.425  16.736  1.00  0.00     0.123 A 
HETATM   29  N6  UNL     1      16.215   7.275  15.726  1.00  0.00    -0.350 N 
HETATM   30  C16 UNL     1      17.165   5.250  16.321  1.00  0.00     0.079 A 
HETATM   31  C13 UNL     1      16.368   7.022  14.441  1.00  0.00     0.113 A 
ATOM     32  H6  UNL     1      15.786   8.162  15.988  1.00  0.00     0.166 HD
HETATM   33  C14 UNL     1      16.940   5.847  14.017  1.00  0.00     0.051 A 
HETATM   34 CL1  UNL     1      17.139   5.525  12.295  1.00  0.00    -0.083 Cl
HETATM   35  C15 UNL     1      17.344   4.947  14.977  1.00  0.00     0.053 A 
HETATM   36 CL2  UNL     1      17.702   4.059  17.467  1.00  0.00    -0.080 Cl
ATOM     37  H5  UNL     1      15.945   7.718  17.890  1.00  0.00     0.161 HD
ENDBRANCH  25  27
ENDBRANCH   6  25
TORSDOF 4
ENDMDL
MODEL 5
REMARK VINA RESULT: -9.067138760      5.273      9.866
REMARK  4 active torsions:
REMARK  status: ('A' for Active; 'I' for Inactive)
REMARK    1  A    between atoms: C2_2  and  N1_3 
REMARK    2  A    between atoms: N3_9  and  C6_11 
REMARK    3  A    between atoms: C9_16  and  C10_17 
REMARK    4  A    between atoms: C10_17  and  N5_19 
ROOT
HETATM    1  C6  UNL     1      15.771   9.300  21.931  1.00  0.00     0.049 A 
HETATM    2  C7  UNL     1      17.067   9.594  22.276  1.00  0.00     0.117 A 
HETATM    3  N4  UNL     1      18.073   9.002  21.615  1.00  0.00    -0.372 N 
ATOM      4  H4  UNL     1      19.027   9.236  21.890  1.00  0.00     0.164 HD
HETATM    5  C8  UNL     1      17.906   8.124  20.622  1.00  0.00     0.096 A 
HETATM    6  C9  UNL     1      16.611   7.822  20.269  1.00  0.00    -0.018 A 
HETATM    7  C17 UNL     1      15.549   8.400  20.913  1.00  0.00     0.041 A 
ENDROOT
BRANCH   1   8
HETATM    8  N3  UNL     1      14.720   9.928  22.631  1.00  0.00    -0.339 N 
HETATM    9  C5  UNL     1      14.162  11.015  22.321  1.00  0.00     0.139 A 
HETATM   10  C4  UNL     1      14.542  11.733  21.211  1.00  0.00     0.122 A 
HETATM   11  N7  UNL     1      13.170  11.502  23.078  1.00  0.00    -0.317 N 
HETATM   12  N2  UNL     1      15.460  11.556  20.264  1.00  0.00    -0.346 N 
HETATM   13  C19 UNL     1      13.913  12.939  20.878  1.00  0.00     0.141 A 
HETATM   14  C3  UNL     1      15.442  12.559  19.376  1.00  0.00     0.185 A 
ATOM     15  H2  UNL     1      16.095  10.758  20.219  1.00  0.00     0.167 HD
HETATM   16  N1  UNL     1      14.480  13.416  19.761  1.00  0.00    -0.328 N 
HETATM   17  N8  UNL     1      12.931  13.381  21.665  1.00  0.00    -0.317 N 
HETATM   18  C18 UNL     1      12.566  12.671  22.749  1.00  0.00     0.182 A 
ATOM     19  H8  UNL     1      12.456  14.256  21.445  1.00  0.00     0.170 HD
HETATM   20 CL3  UNL     1      11.261  13.293  23.761  1.00  0.00    -0.045 Cl
ATOM     21  H7  UNL     1      12.867  10.990  23.907  1.00  0.00     0.170 HD
ATOM     22  H3  UNL     1      14.379   9.457  23.468  1.00  0.00     0.167 HD
BRANCH  16  23
HETATM   23  C2  UNL     1      14.130  14.653  19.064  1.00  0.00     0.127 C 
HETATM   24  C1  UNL     1      15.357  15.412  18.641  1.00  0.00     0.027 C 
ENDBRANCH  16  23
ENDBRANCH   1   8
BRANCH   6  25
HETATM   25  C10 UNL     1      16.420   6.835  19.159  1.00  0.00     0.113 C 
HETATM   26  C11 UNL     1      16.673   7.637  17.872  1.00  0.00     0.037 C 
BRANCH  25  27
HETATM   27  N5  UNL     1      17.347   5.798  19.215  1.00  0.00    -0.367 N 
HETATM   28  C12 UNL     1      17.505   4.710  19.770  1.00  0.00     0.123 A 
HETATM   29  N6  UNL     1      18.658   4.021  19.481  1.00  0.00    -0.350 N 
HETATM   30  C16 UNL     1      16.663   4.085  20.654  1.00  0.00     0.079 A 
HETATM   31  C13 UNL     1      18.973   2.846  19.990  1.00  0.00     0.113 A 
ATOM     32  H6  UNL     1      19.315   4.448  18.829  1.00  0.00     0.166 HD
HETATM   33  C14 UNL     1      18.134   2.214  20.877  1.00  0.00     0.051 A 
HETATM   34 CL1  UNL     1      18.571   0.645  21.549  1.00  0.00    -0.083 Cl
HETATM   35  C15 UNL     1      16.960   2.848  21.212  1.00  0.00     0.053 A 
HETATM   36 CL2  UNL     1      15.159   4.816  21.130  1.00  0.00    -0.080 Cl
ATOM     37  H5  UNL     1      18.141   6.003  18.610  1.00  0.00     0.161 HD
ENDBRANCH  25  27
ENDBRANCH   6  25
TORSDOF 4
ENDMDL
