MODEL 1
REMARK VINA RESULT: -9.334944302      0.000      0.000
REMARK  5 active torsions:
REMARK  status: ('A' for Active; 'I' for Inactive)
REMARK    1  A    between atoms: C3_4  and  S1_5 
REMARK    2  A    between atoms: S1_5  and  C4_8 
REMARK    3  A    between atoms: C5_9  and  C6_10 
REMARK    4  A    between atoms: C12_18  and  N3_19 
REMARK    5  A    between atoms: C13_24  and  C14_25 
ROOT
HETATM    1  N1  UNL     1       4.076 -13.144 -24.951  1.00  0.00    -0.191 NA
HETATM    2  C1  UNL     1       4.853 -12.307 -24.716  1.00  0.00     0.105 C 
HETATM    3  C2  UNL     1       5.821 -11.278 -24.387  1.00  0.00     0.111 A 
HETATM    4  C3  UNL     1       5.335 -10.125 -23.807  1.00  0.00     0.171 A 
HETATM    5  N2  UNL     1       6.191  -9.174 -23.417  1.00  0.00    -0.179 N 
ATOM      6  H2  UNL     1       5.827  -8.322 -22.989  1.00  0.00     0.185 HD
HETATM    7  C12 UNL     1       7.522  -9.311 -23.575  1.00  0.00     0.677 A 
HETATM    8  N4  UNL     1       7.988 -10.425 -24.136  1.00  0.00    -0.190 N 
ATOM      9  H4  UNL     1       8.996 -10.525 -24.254  1.00  0.00     0.184 HD
HETATM   10  C13 UNL     1       7.171 -11.447 -24.566  1.00  0.00     0.083 A 
ENDROOT
BRANCH   4  11
HETATM   11  S1  UNL     1       3.589  -9.949 -23.569  1.00  0.00     0.214 S 
HETATM   12  O1  UNL     1       3.408  -8.679 -22.710  1.00  0.00    -0.217 OA
HETATM   13  O2  UNL     1       3.109 -11.087 -22.739  1.00  0.00    -0.217 OA
BRANCH  11  14
HETATM   14  C4  UNL     1       2.768  -9.750 -25.039  1.00  0.00     0.116 C 
HETATM   15  C5  UNL     1       1.608 -10.046 -25.487  1.00  0.00     0.023 C 
BRANCH  15  16
HETATM   16  C6  UNL     1       0.437 -10.681 -24.985  1.00  0.00    -0.036 A 
HETATM   17  C7  UNL     1      -0.828 -10.199 -25.082  1.00  0.00     0.011 A 
HETATM   18  C8  UNL     1      -1.954 -10.876 -24.565  1.00  0.00     0.001 A 
HETATM   19  C9  UNL     1      -1.757 -12.067 -23.938  1.00  0.00     0.000 A 
HETATM   20  C10 UNL     1      -0.500 -12.609 -23.807  1.00  0.00     0.001 A 
HETATM   21  C11 UNL     1       0.557 -11.917 -24.324  1.00  0.00     0.011 A 
ENDBRANCH  15  16
ENDBRANCH  11  14
ENDBRANCH   4  11
BRANCH  10  22
HETATM   22  C14 UNL     1       7.771 -12.649 -25.097  1.00  0.00    -0.007 A 
HETATM   23  C15 UNL     1       7.396 -13.918 -24.800  1.00  0.00     0.015 A 
HETATM   24  C16 UNL     1       8.053 -15.071 -25.257  1.00  0.00     0.024 A 
HETATM   25  C17 UNL     1       9.147 -14.868 -26.061  1.00  0.00     0.034 A 
HETATM   26 CL1  UNL     1      10.006 -16.280 -26.661  1.00  0.00    -0.084 Cl
HETATM   27  C18 UNL     1       9.557 -13.594 -26.386  1.00  0.00     0.024 A 
HETATM   28  C19 UNL     1       8.904 -12.486 -25.929  1.00  0.00     0.015 A 
ENDBRANCH  10  22
BRANCH   7  29
HETATM   29  N3  UNL     1       8.331  -8.360 -23.179  1.00  0.00    -0.234 N 
ATOM     30  H32 UNL     1       8.676  -7.655 -23.831  1.00  0.00     0.174 HD
ATOM     31  H31 UNL     1       8.628  -8.316 -22.205  1.00  0.00     0.174 HD
ENDBRANCH   7  29
TORSDOF 5
ENDMDL
MODEL 2
REMARK VINA RESULT: -9.329312877      4.037      7.714
REMARK  5 active torsions:
REMARK  status: ('A' for Active; 'I' for Inactive)
REMARK    1  A    between atoms: C3_4  and  S1_5 
REMARK    2  A    between atoms: S1_5  and  C4_8 
REMARK    3  A    between atoms: C5_9  and  C6_10 
REMARK    4  A    between atoms: C12_18  and  N3_19 
REMARK    5  A    between atoms: C13_24  and  C14_25 
ROOT
HETATM    1  N1  UNL     1       3.640 -10.083 -24.360  1.00  0.00    -0.191 NA
HETATM    2  C1  UNL     1       2.545 -10.247 -24.727  1.00  0.00     0.105 C 
HETATM    3  C2  UNL     1       1.170 -10.434 -25.149  1.00  0.00     0.111 A 
HETATM    4  C3  UNL     1       0.483 -11.492 -24.591  1.00  0.00     0.171 A 
HETATM    5  N2  UNL     1      -0.810 -11.667 -24.890  1.00  0.00    -0.179 N 
ATOM      6  H2  UNL     1      -1.314 -12.451 -24.476  1.00  0.00     0.185 HD
HETATM    7  C12 UNL     1      -1.462 -10.835 -25.725  1.00  0.00     0.677 A 
HETATM    8  N4  UNL     1      -0.795  -9.815 -26.263  1.00  0.00    -0.190 N 
ATOM      9  H4  UNL     1      -1.293  -9.188 -26.894  1.00  0.00     0.184 HD
HETATM   10  C13 UNL     1       0.536  -9.570 -26.006  1.00  0.00     0.083 A 
ENDROOT
BRANCH   4  11
HETATM   11  S1  UNL     1       1.325 -12.573 -23.470  1.00  0.00     0.214 S 
HETATM   12  O1  UNL     1       0.390 -12.726 -22.252  1.00  0.00    -0.217 OA
HETATM   13  O2  UNL     1       2.546 -11.881 -22.976  1.00  0.00    -0.217 OA
BRANCH  11  14
HETATM   14  C4  UNL     1       1.605 -14.099 -24.155  1.00  0.00     0.116 C 
HETATM   15  C5  UNL     1       2.618 -14.718 -24.629  1.00  0.00     0.023 C 
BRANCH  15  16
HETATM   16  C6  UNL     1       4.002 -14.442 -24.818  1.00  0.00    -0.036 A 
HETATM   17  C7  UNL     1       4.613 -13.255 -24.574  1.00  0.00     0.011 A 
HETATM   18  C8  UNL     1       5.994 -13.042 -24.779  1.00  0.00     0.001 A 
HETATM   19  C9  UNL     1       6.743 -14.076 -25.246  1.00  0.00     0.000 A 
HETATM   20  C10 UNL     1       6.184 -15.304 -25.513  1.00  0.00     0.001 A 
HETATM   21  C11 UNL     1       4.845 -15.462 -25.297  1.00  0.00     0.011 A 
ENDBRANCH  15  16
ENDBRANCH  11  14
ENDBRANCH   4  11
BRANCH  10  22
HETATM   22  C14 UNL     1       1.156  -8.399 -26.579  1.00  0.00    -0.007 A 
HETATM   23  C15 UNL     1       1.668  -8.307 -27.831  1.00  0.00     0.015 A 
HETATM   24  C16 UNL     1       2.348  -7.187 -28.334  1.00  0.00     0.024 A 
HETATM   25  C17 UNL     1       2.487  -6.125 -27.476  1.00  0.00     0.034 A 
HETATM   26 CL1  UNL     1       3.331  -4.696 -28.058  1.00  0.00    -0.084 Cl
HETATM   27  C18 UNL     1       1.979  -6.180 -26.197  1.00  0.00     0.024 A 
HETATM   28  C19 UNL     1       1.322  -7.280 -25.728  1.00  0.00     0.015 A 
ENDBRANCH  10  22
BRANCH   7  29
HETATM   29  N3  UNL     1      -2.728 -11.035 -25.994  1.00  0.00    -0.234 N 
ATOM     30  H32 UNL     1      -3.312 -11.612 -25.388  1.00  0.00     0.174 HD
ATOM     31  H31 UNL     1      -3.147 -10.612 -26.822  1.00  0.00     0.174 HD
ENDBRANCH   7  29
TORSDOF 5
ENDMDL
MODEL 3
REMARK VINA RESULT: -9.100193758      4.565      7.289
REMARK  5 active torsions:
REMARK  status: ('A' for Active; 'I' for Inactive)
REMARK    1  A    between atoms: C3_4  and  S1_5 
REMARK    2  A    between atoms: S1_5  and  C4_8 
REMARK    3  A    between atoms: C5_9  and  C6_10 
REMARK    4  A    between atoms: C12_18  and  N3_19 
REMARK    5  A    between atoms: C13_24  and  C14_25 
ROOT
HETATM    1  N1  UNL     1      -1.390 -10.319 -27.942  1.00  0.00    -0.191 NA
HETATM    2  C1  UNL     1      -0.653  -9.871 -27.157  1.00  0.00     0.105 C 
HETATM    3  C2  UNL     1       0.289  -9.344 -26.188  1.00  0.00     0.111 A 
HETATM    4  C3  UNL     1       0.286  -9.920 -24.935  1.00  0.00     0.171 A 
HETATM    5  N2  UNL     1       1.183  -9.521 -24.026  1.00  0.00    -0.179 N 
ATOM      6  H2  UNL     1       1.177  -9.949 -23.100  1.00  0.00     0.185 HD
HETATM    7  C12 UNL     1       2.094  -8.568 -24.302  1.00  0.00     0.677 A 
HETATM    8  N4  UNL     1       2.094  -8.012 -25.512  1.00  0.00    -0.190 N 
ATOM      9  H4  UNL     1       2.785  -7.291 -25.716  1.00  0.00     0.184 HD
HETATM   10  C13 UNL     1       1.201  -8.367 -26.500  1.00  0.00     0.083 A 
ENDROOT
BRANCH   4  11
HETATM   11  S1  UNL     1      -0.889 -11.194 -24.574  1.00  0.00     0.214 S 
HETATM   12  O1  UNL     1      -1.026 -12.020 -25.871  1.00  0.00    -0.217 OA
HETATM   13  O2  UNL     1      -2.215 -10.560 -24.341  1.00  0.00    -0.217 OA
BRANCH  11  14
HETATM   14  C4  UNL     1      -0.359 -12.206 -23.321  1.00  0.00     0.116 C 
HETATM   15  C5  UNL     1       0.701 -12.875 -23.071  1.00  0.00     0.023 C 
BRANCH  15  16
HETATM   16  C6  UNL     1       1.953 -13.106 -23.709  1.00  0.00    -0.036 A 
HETATM   17  C7  UNL     1       3.001 -12.244 -23.729  1.00  0.00     0.011 A 
HETATM   18  C8  UNL     1       4.222 -12.529 -24.378  1.00  0.00     0.001 A 
HETATM   19  C9  UNL     1       4.349 -13.724 -25.015  1.00  0.00     0.000 A 
HETATM   20  C10 UNL     1       3.323 -14.640 -25.032  1.00  0.00     0.001 A 
HETATM   21  C11 UNL     1       2.162 -14.319 -24.389  1.00  0.00     0.011 A 
ENDBRANCH  15  16
ENDBRANCH  11  14
ENDBRANCH   4  11
BRANCH  10  22
HETATM   22  C14 UNL     1       1.323  -7.761 -27.805  1.00  0.00    -0.007 A 
HETATM   23  C15 UNL     1       0.389  -6.983 -28.406  1.00  0.00     0.015 A 
HETATM   24  C16 UNL     1       0.491  -6.481 -29.712  1.00  0.00     0.024 A 
HETATM   25  C17 UNL     1       1.628  -6.814 -30.404  1.00  0.00     0.034 A 
HETATM   26 CL1  UNL     1       1.805  -6.209 -32.046  1.00  0.00    -0.084 Cl
HETATM   27  C18 UNL     1       2.600  -7.600 -29.827  1.00  0.00     0.024 A 
HETATM   28  C19 UNL     1       2.480  -8.080 -28.555  1.00  0.00     0.015 A 
ENDBRANCH  10  22
BRANCH   7  29
HETATM   29  N3  UNL     1       2.959  -8.203 -23.388  1.00  0.00    -0.234 N 
ATOM     30  H32 UNL     1       3.877  -8.644 -23.324  1.00  0.00     0.174 HD
ATOM     31  H31 UNL     1       2.721  -7.467 -22.724  1.00  0.00     0.174 HD
ENDBRANCH   7  29
TORSDOF 5
ENDMDL
MODEL 4
REMARK VINA RESULT: -9.077229603      3.312      7.882
REMARK  5 active torsions:
REMARK  status: ('A' for Active; 'I' for Inactive)
REMARK    1  A    between atoms: C3_4  and  S1_5 
REMARK    2  A    between atoms: S1_5  and  C4_8 
REMARK    3  A    between atoms: C5_9  and  C6_10 
REMARK    4  A    between atoms: C12_18  and  N3_19 
REMARK    5  A    between atoms: C13_24  and  C14_25 
ROOT
HETATM    1  N1  UNL     1       4.419 -14.058 -25.109  1.00  0.00    -0.191 NA
HETATM    2  C1  UNL     1       4.554 -12.992 -24.656  1.00  0.00     0.105 C 
HETATM    3  C2  UNL     1       4.724 -11.651 -24.130  1.00  0.00     0.111 A 
HETATM    4  C3  UNL     1       6.012 -11.161 -24.072  1.00  0.00     0.171 A 
HETATM    5  N2  UNL     1       6.219  -9.904 -23.662  1.00  0.00    -0.179 N 
ATOM      6  H2  UNL     1       7.173  -9.545 -23.620  1.00  0.00     0.185 HD
HETATM    7  C12 UNL     1       5.200  -9.099 -23.304  1.00  0.00     0.677 A 
HETATM    8  N4  UNL     1       3.957  -9.576 -23.360  1.00  0.00    -0.190 N 
ATOM      9  H4  UNL     1       3.189  -8.963 -23.089  1.00  0.00     0.184 HD
HETATM   10  C13 UNL     1       3.664 -10.858 -23.768  1.00  0.00     0.083 A 
ENDROOT
BRANCH   4  11
HETATM   11  S1  UNL     1       7.355 -12.203 -24.567  1.00  0.00     0.214 S 
HETATM   12  O1  UNL     1       7.277 -13.449 -23.661  1.00  0.00    -0.217 OA
HETATM   13  O2  UNL     1       8.632 -11.518 -24.229  1.00  0.00    -0.217 OA
BRANCH  11  14
HETATM   14  C4  UNL     1       7.218 -12.681 -26.189  1.00  0.00     0.116 C 
HETATM   15  C5  UNL     1       7.943 -13.332 -27.015  1.00  0.00     0.023 C 
BRANCH  15  16
HETATM   16  C6  UNL     1       9.214 -13.975 -26.993  1.00  0.00    -0.036 A 
HETATM   17  C7  UNL     1      10.325 -13.554 -27.649  1.00  0.00     0.011 A 
HETATM   18  C8  UNL     1      11.561 -14.233 -27.587  1.00  0.00     0.001 A 
HETATM   19  C9  UNL     1      11.637 -15.364 -26.836  1.00  0.00     0.000 A 
HETATM   20  C10 UNL     1      10.547 -15.843 -26.148  1.00  0.00     0.001 A 
HETATM   21  C11 UNL     1       9.374 -15.150 -26.237  1.00  0.00     0.011 A 
ENDBRANCH  15  16
ENDBRANCH  11  14
ENDBRANCH   4  11
BRANCH  10  22
HETATM   22  C14 UNL     1       2.281 -11.263 -23.866  1.00  0.00    -0.007 A 
HETATM   23  C15 UNL     1       1.335 -10.666 -24.633  1.00  0.00     0.015 A 
HETATM   24  C16 UNL     1      -0.023 -11.021 -24.643  1.00  0.00     0.024 A 
HETATM   25  C17 UNL     1      -0.388 -12.048 -23.810  1.00  0.00     0.034 A 
HETATM   26 CL1  UNL     1      -2.079 -12.532 -23.785  1.00  0.00    -0.084 Cl
HETATM   27  C18 UNL     1       0.544 -12.681 -23.018  1.00  0.00     0.024 A 
HETATM   28  C19 UNL     1       1.860 -12.319 -23.023  1.00  0.00     0.015 A 
ENDBRANCH  10  22
BRANCH   7  29
HETATM   29  N3  UNL     1       5.439  -7.873 -22.911  1.00  0.00    -0.234 N 
ATOM     30  H32 UNL     1       6.133  -7.676 -22.189  1.00  0.00     0.174 HD
ATOM     31  H31 UNL     1       4.927  -7.095 -23.325  1.00  0.00     0.174 HD
ENDBRANCH   7  29
TORSDOF 5
ENDMDL
MODEL 5
REMARK VINA RESULT: -9.033546836      4.125      8.380
REMARK  5 active torsions:
REMARK  status: ('A' for Active; 'I' for Inactive)
REMARK    1  A    between atoms: C3_4  and  S1_5 
REMARK    2  A    between atoms: S1_5  and  C4_8 
REMARK    3  A    between atoms: C5_9  and  C6_10 
REMARK    4  A    between atoms: C12_18  and  N3_19 
REMARK    5  A    between atoms: C13_24  and  C14_25 
ROOT
HETATM    1  N1  UNL     1       7.843 -11.206 -24.314  1.00  0.00    -0.191 NA
HETATM    2  C1  UNL     1       6.766 -11.651 -24.368  1.00  0.00     0.105 C 
HETATM    3  C2  UNL     1       5.433 -12.222 -24.402  1.00  0.00     0.111 A 
HETATM    4  C3  UNL     1       5.320 -13.519 -24.858  1.00  0.00     0.171 A 
HETATM    5  N2  UNL     1       4.124 -14.119 -24.842  1.00  0.00    -0.179 N 
ATOM      6  H2  UNL     1       4.045 -15.079 -25.180  1.00  0.00     0.185 HD
HETATM    7  C12 UNL     1       3.022 -13.490 -24.390  1.00  0.00     0.677 A 
HETATM    8  N4  UNL     1       3.134 -12.238 -23.951  1.00  0.00    -0.190 N 
ATOM      9  H4  UNL     1       2.298 -11.765 -23.609  1.00  0.00     0.184 HD
HETATM   10  C13 UNL     1       4.329 -11.552 -23.938  1.00  0.00     0.083 A 
ENDROOT
BRANCH   4  11
HETATM   11  S1  UNL     1       6.768 -14.363 -25.427  1.00  0.00     0.214 S 
HETATM   12  O1  UNL     1       6.286 -15.748 -25.908  1.00  0.00    -0.217 OA
HETATM   13  O2  UNL     1       7.658 -14.611 -24.260  1.00  0.00    -0.217 OA
BRANCH  11  14
HETATM   14  C4  UNL     1       7.507 -13.549 -26.718  1.00  0.00     0.116 C 
HETATM   15  C5  UNL     1       8.707 -13.367 -27.119  1.00  0.00     0.023 C 
BRANCH  15  16
HETATM   16  C6  UNL     1      10.010 -13.750 -26.689  1.00  0.00    -0.036 A 
HETATM   17  C7  UNL     1      10.802 -14.672 -27.292  1.00  0.00     0.011 A 
HETATM   18  C8  UNL     1      12.090 -15.010 -26.821  1.00  0.00     0.001 A 
HETATM   19  C9  UNL     1      12.553 -14.380 -25.708  1.00  0.00     0.000 A 
HETATM   20  C10 UNL     1      11.799 -13.437 -25.051  1.00  0.00     0.001 A 
HETATM   21  C11 UNL     1      10.561 -13.143 -25.546  1.00  0.00     0.011 A 
ENDBRANCH  15  16
ENDBRANCH  11  14
ENDBRANCH   4  11
BRANCH  10  22
HETATM   22  C14 UNL     1       4.367 -10.222 -23.377  1.00  0.00    -0.007 A 
HETATM   23  C15 UNL     1       4.814  -9.899 -22.137  1.00  0.00     0.015 A 
HETATM   24  C16 UNL     1       4.757  -8.613 -21.580  1.00  0.00     0.024 A 
HETATM   25  C17 UNL     1       4.208  -7.633 -22.368  1.00  0.00     0.034 A 
HETATM   26 CL1  UNL     1       4.114  -6.002 -21.716  1.00  0.00    -0.084 Cl
HETATM   27  C18 UNL     1       3.745  -7.921 -23.633  1.00  0.00     0.024 A 
HETATM   28  C19 UNL     1       3.809  -9.180 -24.155  1.00  0.00     0.015 A 
ENDBRANCH  10  22
BRANCH   7  29
HETATM   29  N3  UNL     1       1.868 -14.110 -24.386  1.00  0.00    -0.234 N 
ATOM     30  H32 UNL     1       1.762 -15.027 -23.952  1.00  0.00     0.174 HD
ATOM     31  H31 UNL     1       1.055 -13.677 -24.823  1.00  0.00     0.174 HD
ENDBRANCH   7  29
TORSDOF 5
ENDMDL
