MODEL 1
REMARK VINA RESULT: -8.549817520      0.000      0.000
REMARK  6 active torsions:
REMARK  status: ('A' for Active; 'I' for Inactive)
REMARK    1  A    between atoms: C4_5  and  C5_6 
REMARK    2  A    between atoms: C8_9  and  O1_10 
REMARK    3  A    between atoms: C9_12  and  N2_13 
REMARK    4  A    between atoms: N3_15  and  C10_17 
REMARK    5  A    between atoms: C10_17  and  C11_23 
REMARK    6  A    between atoms: N4_18  and  N5_20 
ROOT
HETATM    1  C5  UNL     1       5.967 -11.948 -24.385  1.00  0.00    -0.006 A 
HETATM    2  C6  UNL     1       6.409 -10.727 -23.928  1.00  0.00     0.016 A 
HETATM    3  C7  UNL     1       5.551  -9.802 -23.407  1.00  0.00     0.040 A 
HETATM    4  C8  UNL     1       4.217 -10.065 -23.325  1.00  0.00     0.095 A 
HETATM    5  C9  UNL     1       3.716 -11.285 -23.773  1.00  0.00     0.099 A 
HETATM    6  C12 UNL     1       4.622 -12.197 -24.294  1.00  0.00     0.052 A 
HETATM    7 BR1  UNL     1       3.961 -13.885 -24.901  1.00  0.00    -0.048 Br
ENDROOT
BRANCH   5   8
HETATM    8  N2  UNL     1       2.332 -11.575 -23.696  1.00  0.00    -0.295 N 
HETATM    9  N3  UNL     1       1.516 -10.821 -24.277  1.00  0.00    -0.278 N 
ATOM     10  H3  UNL     1       1.897 -10.022 -24.786  1.00  0.00     0.189 HD
ATOM     11  H2  UNL     1       2.004 -12.388 -23.174  1.00  0.00     0.187 HD
BRANCH   9  12
HETATM   12  C10 UNL     1       0.115 -10.988 -24.285  1.00  0.00     0.213 C 
HETATM   13  N4  UNL     1      -0.633  -9.995 -24.586  1.00  0.00    -0.272 N 
ATOM     14  H4  UNL     1      -1.644 -10.133 -24.588  1.00  0.00     0.189 HD
BRANCH  13  15
HETATM   15  N5  UNL     1      -0.134  -8.729 -24.914  1.00  0.00    -0.261 N 
HETATM   16  S1  UNL     1      -0.068  -8.277 -26.449  1.00  0.00     0.059 SA
ATOM     17  H5  UNL     1       0.185  -8.098 -24.179  1.00  0.00     0.196 HD
ENDBRANCH  13  15
BRANCH  12  18
HETATM   18  C11 UNL     1      -0.464 -12.263 -23.958  1.00  0.00     0.247 C 
HETATM   19  O2  UNL     1       0.188 -13.311 -24.183  1.00  0.00    -0.642 OA
HETATM   20  O3  UNL     1      -1.731 -12.321 -23.400  1.00  0.00    -0.642 OA
ENDBRANCH  12  18
ENDBRANCH   9  12
ENDBRANCH   5   8
BRANCH   4  21
HETATM   21  O1  UNL     1       3.336  -9.134 -22.799  1.00  0.00    -0.358 OA
ATOM     22  H1  UNL     1       2.884  -8.516 -23.362  1.00  0.00     0.217 HD
ENDBRANCH   4  21
BRANCH   1  23
HETATM   23  C4  UNL     1       6.957 -12.863 -24.934  1.00  0.00    -0.022 A 
HETATM   24  C3  UNL     1       6.911 -14.218 -24.720  1.00  0.00     0.029 A 
HETATM   25  C2  UNL     1       7.894 -15.057 -25.262  1.00  0.00     0.090 A 
HETATM   26  N1  UNL     1       8.908 -14.583 -26.006  1.00  0.00    -0.371 N 
HETATM   27  C1  UNL     1       9.903 -15.496 -26.547  1.00  0.00     0.154 C 
HETATM   28  C14 UNL     1       8.963 -13.259 -26.222  1.00  0.00     0.090 A 
HETATM   29  C13 UNL     1       8.021 -12.393 -25.710  1.00  0.00     0.029 A 
ENDBRANCH   1  23
TORSDOF 6
ENDMDL
MODEL 2
REMARK VINA RESULT: -8.510115625      0.169      1.168
REMARK  6 active torsions:
REMARK  status: ('A' for Active; 'I' for Inactive)
REMARK    1  A    between atoms: C4_5  and  C5_6 
REMARK    2  A    between atoms: C8_9  and  O1_10 
REMARK    3  A    between atoms: C9_12  and  N2_13 
REMARK    4  A    between atoms: N3_15  and  C10_17 
REMARK    5  A    between atoms: C10_17  and  C11_23 
REMARK    6  A    between atoms: N4_18  and  N5_20 
ROOT
HETATM    1  C5  UNL     1       6.050 -11.947 -24.354  1.00  0.00    -0.006 A 
HETATM    2  C6  UNL     1       6.493 -10.733 -23.880  1.00  0.00     0.016 A 
HETATM    3  C7  UNL     1       5.636  -9.813 -23.348  1.00  0.00     0.040 A 
HETATM    4  C8  UNL     1       4.302 -10.076 -23.269  1.00  0.00     0.095 A 
HETATM    5  C9  UNL     1       3.799 -11.290 -23.734  1.00  0.00     0.099 A 
HETATM    6  C12 UNL     1       4.704 -12.195 -24.267  1.00  0.00     0.052 A 
HETATM    7 BR1  UNL     1       4.042 -13.874 -24.897  1.00  0.00    -0.048 Br
ENDROOT
BRANCH   5   8
HETATM    8  N2  UNL     1       2.416 -11.579 -23.661  1.00  0.00    -0.295 N 
HETATM    9  N3  UNL     1       1.607 -10.866 -24.302  1.00  0.00    -0.278 N 
ATOM     10  H3  UNL     1       1.994 -10.100 -24.854  1.00  0.00     0.189 HD
ATOM     11  H2  UNL     1       2.080 -12.358 -23.094  1.00  0.00     0.187 HD
BRANCH   9  12
HETATM   12  C10 UNL     1       0.207 -11.038 -24.323  1.00  0.00     0.213 C 
HETATM   13  N4  UNL     1      -0.547 -10.023 -24.516  1.00  0.00    -0.272 N 
ATOM     14  H4  UNL     1      -1.557 -10.165 -24.528  1.00  0.00     0.189 HD
BRANCH  13  15
HETATM   15  N5  UNL     1      -0.055  -8.727 -24.711  1.00  0.00    -0.261 N 
HETATM   16  S1  UNL     1      -0.041  -8.099 -26.184  1.00  0.00     0.059 SA
ATOM     17  H5  UNL     1       0.292  -8.186 -23.919  1.00  0.00     0.196 HD
ENDBRANCH  13  15
BRANCH  12  18
HETATM   18  C11 UNL     1      -0.365 -12.343 -24.129  1.00  0.00     0.247 C 
HETATM   19  O2  UNL     1      -1.584 -12.445 -23.853  1.00  0.00    -0.642 OA
HETATM   20  O3  UNL     1       0.433 -13.470 -24.247  1.00  0.00    -0.642 OA
ENDBRANCH  12  18
ENDBRANCH   9  12
ENDBRANCH   5   8
BRANCH   4  21
HETATM   21  O1  UNL     1       3.422  -9.151 -22.732  1.00  0.00    -0.358 OA
ATOM     22  H1  UNL     1       2.508  -9.137 -22.990  1.00  0.00     0.217 HD
ENDBRANCH   4  21
BRANCH   1  23
HETATM   23  C4  UNL     1       7.040 -12.855 -24.915  1.00  0.00    -0.022 A 
HETATM   24  C3  UNL     1       8.090 -12.419 -25.686  1.00  0.00     0.029 A 
HETATM   25  C2  UNL     1       9.012 -13.334 -26.211  1.00  0.00     0.090 A 
HETATM   26  N1  UNL     1       8.915 -14.656 -25.989  1.00  0.00    -0.371 N 
HETATM   27  C1  UNL     1       9.899 -15.565 -26.557  1.00  0.00     0.154 C 
HETATM   28  C14 UNL     1       7.892 -15.092 -25.236  1.00  0.00     0.090 A 
HETATM   29  C13 UNL     1       6.960 -14.233 -24.697  1.00  0.00     0.029 A 
ENDBRANCH   1  23
TORSDOF 6
ENDMDL
MODEL 3
REMARK VINA RESULT: -8.225116987      2.254      3.696
REMARK  6 active torsions:
REMARK  status: ('A' for Active; 'I' for Inactive)
REMARK    1  A    between atoms: C4_5  and  C5_6 
REMARK    2  A    between atoms: C8_9  and  O1_10 
REMARK    3  A    between atoms: C9_12  and  N2_13 
REMARK    4  A    between atoms: N3_15  and  C10_17 
REMARK    5  A    between atoms: C10_17  and  C11_23 
REMARK    6  A    between atoms: N4_18  and  N5_20 
ROOT
HETATM    1  C5  UNL     1       6.568 -14.369 -25.732  1.00  0.00    -0.006 A 
HETATM    2  C6  UNL     1       5.781 -15.453 -26.050  1.00  0.00     0.016 A 
HETATM    3  C7  UNL     1       4.463 -15.510 -25.700  1.00  0.00     0.040 A 
HETATM    4  C8  UNL     1       3.883 -14.482 -25.020  1.00  0.00     0.095 A 
HETATM    5  C9  UNL     1       4.633 -13.360 -24.674  1.00  0.00     0.099 A 
HETATM    6  C12 UNL     1       5.968 -13.343 -25.048  1.00  0.00     0.052 A 
HETATM    7 BR1  UNL     1       7.015 -11.808 -24.599  1.00  0.00    -0.048 Br
ENDROOT
BRANCH   5   8
HETATM    8  N2  UNL     1       4.047 -12.283 -23.967  1.00  0.00    -0.295 N 
HETATM    9  N3  UNL     1       3.302 -11.483 -24.580  1.00  0.00    -0.278 N 
ATOM     10  H3  UNL     1       3.153 -11.650 -25.576  1.00  0.00     0.189 HD
ATOM     11  H2  UNL     1       4.228 -12.160 -22.971  1.00  0.00     0.187 HD
BRANCH   9  12
HETATM   12  C10 UNL     1       2.653 -10.370 -24.006  1.00  0.00     0.213 C 
HETATM   13  N4  UNL     1       1.378 -10.285 -24.069  1.00  0.00    -0.272 N 
ATOM     14  H4  UNL     1       0.924  -9.474 -23.649  1.00  0.00     0.189 HD
BRANCH  13  15
HETATM   15  N5  UNL     1       0.574 -11.250 -24.687  1.00  0.00    -0.261 N 
HETATM   16  S1  UNL     1      -1.020 -11.143 -24.574  1.00  0.00     0.059 SA
ATOM     17  H5  UNL     1       1.001 -12.017 -25.205  1.00  0.00     0.196 HD
ENDBRANCH  13  15
BRANCH  12  18
HETATM   18  C11 UNL     1       3.419  -9.340 -23.356  1.00  0.00     0.247 C 
HETATM   19  O2  UNL     1       3.363  -8.165 -23.790  1.00  0.00    -0.642 OA
HETATM   20  O3  UNL     1       4.208  -9.657 -22.262  1.00  0.00    -0.642 OA
ENDBRANCH  12  18
ENDBRANCH   9  12
ENDBRANCH   5   8
BRANCH   4  21
HETATM   21  O1  UNL     1       2.546 -14.528 -24.660  1.00  0.00    -0.358 OA
ATOM     22  H1  UNL     1       2.043 -13.731 -24.542  1.00  0.00     0.217 HD
ENDBRANCH   4  21
BRANCH   1  23
HETATM   23  C4  UNL     1       7.966 -14.407 -26.137  1.00  0.00    -0.022 A 
HETATM   24  C3  UNL     1       8.823 -15.405 -25.742  1.00  0.00     0.029 A 
HETATM   25  C2  UNL     1      10.163 -15.393 -26.151  1.00  0.00     0.090 A 
HETATM   26  N1  UNL     1      10.663 -14.424 -26.936  1.00  0.00    -0.371 N 
HETATM   27  C1  UNL     1      12.062 -14.458 -27.333  1.00  0.00     0.154 C 
HETATM   28  C14 UNL     1       9.834 -13.444 -27.328  1.00  0.00     0.090 A 
HETATM   29  C13 UNL     1       8.509 -13.411 -26.953  1.00  0.00     0.029 A 
ENDBRANCH   1  23
TORSDOF 6
ENDMDL
MODEL 4
REMARK VINA RESULT: -8.032376364      1.807      3.224
REMARK  6 active torsions:
REMARK  status: ('A' for Active; 'I' for Inactive)
REMARK    1  A    between atoms: C4_5  and  C5_6 
REMARK    2  A    between atoms: C8_9  and  O1_10 
REMARK    3  A    between atoms: C9_12  and  N2_13 
REMARK    4  A    between atoms: N3_15  and  C10_17 
REMARK    5  A    between atoms: C10_17  and  C11_23 
REMARK    6  A    between atoms: N4_18  and  N5_20 
ROOT
HETATM    1  C5  UNL     1       4.538 -13.604 -24.939  1.00  0.00    -0.006 A 
HETATM    2  C6  UNL     1       3.592 -14.604 -24.963  1.00  0.00     0.016 A 
HETATM    3  C7  UNL     1       2.299 -14.378 -24.587  1.00  0.00     0.040 A 
HETATM    4  C8  UNL     1       1.906 -13.141 -24.173  1.00  0.00     0.095 A 
HETATM    5  C9  UNL     1       2.823 -12.093 -24.130  1.00  0.00     0.099 A 
HETATM    6  C12 UNL     1       4.125 -12.366 -24.521  1.00  0.00     0.052 A 
HETATM    7 BR1  UNL     1       5.398 -10.940 -24.486  1.00  0.00    -0.048 Br
ENDROOT
BRANCH   5   8
HETATM    8  N2  UNL     1       2.431 -10.802 -23.702  1.00  0.00    -0.295 N 
HETATM    9  N3  UNL     1       1.840 -10.044 -24.508  1.00  0.00    -0.278 N 
ATOM     10  H3  UNL     1       1.668 -10.403 -25.448  1.00  0.00     0.189 HD
ATOM     11  H2  UNL     1       2.627 -10.491 -22.751  1.00  0.00     0.187 HD
BRANCH   9  12
HETATM   12  C10 UNL     1       1.393  -8.737 -24.221  1.00  0.00     0.213 C 
HETATM   13  N4  UNL     1       0.191  -8.407 -24.508  1.00  0.00    -0.272 N 
ATOM     14  H4  UNL     1      -0.116  -7.458 -24.293  1.00  0.00     0.189 HD
BRANCH  13  15
HETATM   15  N5  UNL     1      -0.725  -9.283 -25.102  1.00  0.00    -0.261 N 
HETATM   16  S1  UNL     1      -0.573  -9.656 -26.652  1.00  0.00     0.059 SA
ATOM     17  H5  UNL     1      -1.484  -9.681 -24.551  1.00  0.00     0.196 HD
ENDBRANCH  13  15
BRANCH  12  18
HETATM   18  C11 UNL     1       2.283  -7.786 -23.610  1.00  0.00     0.247 C 
HETATM   19  O2  UNL     1       3.449  -8.139 -23.312  1.00  0.00    -0.642 OA
HETATM   20  O3  UNL     1       1.845  -6.496 -23.359  1.00  0.00    -0.642 OA
ENDBRANCH  12  18
ENDBRANCH   9  12
ENDBRANCH   5   8
BRANCH   4  21
HETATM   21  O1  UNL     1       0.597 -12.899 -23.788  1.00  0.00    -0.358 OA
ATOM     22  H1  UNL     1      -0.099 -12.837 -24.432  1.00  0.00     0.217 HD
ENDBRANCH   4  21
BRANCH   1  23
HETATM   23  C4  UNL     1       5.893 -13.947 -25.347  1.00  0.00    -0.022 A 
HETATM   24  C3  UNL     1       6.682 -14.817 -24.634  1.00  0.00     0.029 A 
HETATM   25  C2  UNL     1       7.983 -15.108 -25.063  1.00  0.00     0.090 A 
HETATM   26  N1  UNL     1       8.511 -14.562 -26.171  1.00  0.00    -0.371 N 
HETATM   27  C1  UNL     1       9.868 -14.898 -26.574  1.00  0.00     0.154 C 
HETATM   28  C14 UNL     1       7.748 -13.711 -26.876  1.00  0.00     0.090 A 
HETATM   29  C13 UNL     1       6.462 -13.392 -26.496  1.00  0.00     0.029 A 
ENDBRANCH   1  23
TORSDOF 6
ENDMDL
MODEL 5
REMARK VINA RESULT: -8.030453220      4.099      7.848
REMARK  6 active torsions:
REMARK  status: ('A' for Active; 'I' for Inactive)
REMARK    1  A    between atoms: C4_5  and  C5_6 
REMARK    2  A    between atoms: C8_9  and  O1_10 
REMARK    3  A    between atoms: C9_12  and  N2_13 
REMARK    4  A    between atoms: N3_15  and  C10_17 
REMARK    5  A    between atoms: C10_17  and  C11_23 
REMARK    6  A    between atoms: N4_18  and  N5_20 
ROOT
HETATM    1  C5  UNL     1       2.652 -13.520 -24.308  1.00  0.00    -0.006 A 
HETATM    2  C6  UNL     1       2.858 -14.771 -24.846  1.00  0.00     0.016 A 
HETATM    3  C7  UNL     1       4.054 -15.126 -25.400  1.00  0.00     0.040 A 
HETATM    4  C8  UNL     1       5.089 -14.242 -25.435  1.00  0.00     0.095 A 
HETATM    5  C9  UNL     1       4.935 -12.962 -24.905  1.00  0.00     0.099 A 
HETATM    6  C12 UNL     1       3.705 -12.643 -24.352  1.00  0.00     0.052 A 
HETATM    7 BR1  UNL     1       3.474 -10.899 -23.603  1.00  0.00    -0.048 Br
ENDROOT
BRANCH   5   8
HETATM    8  N2  UNL     1       6.001 -12.031 -24.934  1.00  0.00    -0.295 N 
HETATM    9  N3  UNL     1       6.958 -12.173 -24.136  1.00  0.00    -0.278 N 
ATOM     10  H3  UNL     1       6.921 -12.966 -23.495  1.00  0.00     0.189 HD
ATOM     11  H2  UNL     1       5.990 -11.254 -25.595  1.00  0.00     0.187 HD
BRANCH   9  12
HETATM   12  C10 UNL     1       8.083 -11.324 -24.054  1.00  0.00     0.213 C 
HETATM   13  N4  UNL     1       9.196 -11.708 -24.554  1.00  0.00    -0.272 N 
ATOM     14  H4  UNL     1       9.999 -11.082 -24.485  1.00  0.00     0.189 HD
BRANCH  13  15
HETATM   15  N5  UNL     1       9.368 -12.942 -25.189  1.00  0.00    -0.261 N 
HETATM   16  S1  UNL     1       9.129 -13.061 -26.768  1.00  0.00     0.059 SA
ATOM     17  H5  UNL     1       9.644 -13.762 -24.650  1.00  0.00     0.196 HD
ENDBRANCH  13  15
BRANCH  12  18
HETATM   18  C11 UNL     1       7.976 -10.041 -23.413  1.00  0.00     0.247 C 
HETATM   19  O2  UNL     1       7.518  -9.068 -24.059  1.00  0.00    -0.642 OA
HETATM   20  O3  UNL     1       8.378  -9.894 -22.095  1.00  0.00    -0.642 OA
ENDBRANCH  12  18
ENDBRANCH   9  12
ENDBRANCH   5   8
BRANCH   4  21
HETATM   21  O1  UNL     1       6.308 -14.590 -25.995  1.00  0.00    -0.358 OA
ATOM     22  H1  UNL     1       6.807 -15.327 -25.662  1.00  0.00     0.217 HD
ENDBRANCH   4  21
BRANCH   1  23
HETATM   23  C4  UNL     1       1.338 -13.232 -23.752  1.00  0.00    -0.022 A 
HETATM   24  C3  UNL     1       0.282 -12.818 -24.527  1.00  0.00     0.029 A 
HETATM   25  C2  UNL     1      -0.962 -12.544 -23.943  1.00  0.00     0.090 A 
HETATM   26  N1  UNL     1      -1.177 -12.673 -22.623  1.00  0.00    -0.371 N 
HETATM   27  C1  UNL     1      -2.488 -12.377 -22.066  1.00  0.00     0.154 C 
HETATM   28  C14 UNL     1      -0.152 -13.078 -21.857  1.00  0.00     0.090 A 
HETATM   29  C13 UNL     1       1.090 -13.360 -22.383  1.00  0.00     0.029 A 
ENDBRANCH   1  23
TORSDOF 6
ENDMDL
