MODEL 1
REMARK VINA RESULT: -7.620886444      0.000      0.000
REMARK  5 active torsions:
REMARK  status: ('A' for Active; 'I' for Inactive)
REMARK    1  A    between atoms: C3_4  and  N2_5 
REMARK       I    between atoms: N2_5  and  C4_7 
REMARK    2  A    between atoms: C4_7  and  C5_9 
REMARK    3  A    between atoms: C5_9  and  O2_10 
REMARK    4  A    between atoms: O2_10  and  C6_11 
REMARK    5  A    between atoms: C6_11  and  C7_12 
ROOT
HETATM    1  N2  UNL     1       5.614  21.133  56.556  1.00  0.00    -0.325 N 
ATOM      2  H2  UNL     1       4.643  21.446  56.546  1.00  0.00     0.169 HD
HETATM    3  C4  UNL     1       6.290  21.103  55.326  1.00  0.00     0.245 C 
HETATM    4  O1  UNL     1       7.461  20.753  55.197  1.00  0.00    -0.271 OA
ENDROOT
BRANCH   3   5
HETATM    5  C5  UNL     1       5.507  21.534  54.109  1.00  0.00     0.270 C 
BRANCH   5   6
HETATM    6  O2  UNL     1       4.925  20.561  53.410  1.00  0.00    -0.379 OA
BRANCH   6   7
HETATM    7  C6  UNL     1       3.647  20.185  53.546  1.00  0.00     0.201 C 
BRANCH   7   8
HETATM    8  C7  UNL     1       3.240  19.457  54.786  1.00  0.00     0.157 C 
HETATM    9  C8  UNL     1       1.984  18.635  54.648  1.00  0.00     0.076 C 
HETATM   10  C9  UNL     1       1.405  18.658  56.049  1.00  0.00    -0.021 A 
HETATM   11  C10 UNL     1       0.562  17.824  56.750  1.00  0.00     0.035 A 
HETATM   12  C14 UNL     1       1.910  19.806  56.617  1.00  0.00     0.077 A 
HETATM   13  C11 UNL     1       0.183  18.098  58.047  1.00  0.00     0.059 A 
HETATM   14 CL1  UNL     1      -0.886  17.058  58.963  1.00  0.00    -0.082 Cl
HETATM   15  C12 UNL     1       0.680  19.250  58.640  1.00  0.00     0.070 A 
HETATM   16  N3  UNL     1       0.318  19.573  59.974  1.00  0.00    -0.101 NA
HETATM   17  C13 UNL     1       1.528  20.073  57.914  1.00  0.00     0.065 A 
HETATM   18  O3  UNL     1       2.734  20.468  55.703  1.00  0.00    -0.343 OA
ENDBRANCH   7   8
ENDBRANCH   6   7
ENDBRANCH   5   6
ENDBRANCH   3   5
BRANCH   1  19
HETATM   19  C3  UNL     1       6.158  20.767  57.806  1.00  0.00     0.043 A 
HETATM   20  C2  UNL     1       6.868  21.587  58.641  1.00  0.00     0.056 A 
HETATM   21  C1  UNL     1       7.431  21.168  59.857  1.00  0.00     0.049 A 
HETATM   22  N1  UNL     1       8.143  22.112  60.633  1.00  0.00    -0.102 NA
HETATM   23  C17 UNL     1       7.267  19.871  60.235  1.00  0.00     0.042 A 
HETATM   24  C16 UNL     1       6.560  19.016  59.422  1.00  0.00     0.020 A 
HETATM   25  C15 UNL     1       6.008  19.433  58.230  1.00  0.00    -0.017 A 
HETATM   26  C18 UNL     1       6.388  17.604  59.811  1.00  0.00     0.160 C 
HETATM   27  C21 UNL     1       5.255  18.414  57.473  1.00  0.00     0.042 C 
HETATM   28  C20 UNL     1       4.380  17.546  58.374  1.00  0.00     0.012 C 
HETATM   29  C19 UNL     1       5.201  16.820  59.401  1.00  0.00     0.084 C 
HETATM   30  O4  UNL     1       7.265  17.055  60.503  1.00  0.00    -0.292 OA
ENDBRANCH   1  19
TORSDOF 5
ENDMDL
MODEL 2
REMARK VINA RESULT: -7.619233144      5.870      8.326
REMARK  5 active torsions:
REMARK  status: ('A' for Active; 'I' for Inactive)
REMARK    1  A    between atoms: C3_4  and  N2_5 
REMARK       I    between atoms: N2_5  and  C4_7 
REMARK    2  A    between atoms: C4_7  and  C5_9 
REMARK    3  A    between atoms: C5_9  and  O2_10 
REMARK    4  A    between atoms: O2_10  and  C6_11 
REMARK    5  A    between atoms: C6_11  and  C7_12 
ROOT
HETATM    1  N2  UNL     1       3.293  16.294  56.959  1.00  0.00    -0.325 N 
ATOM      2  H2  UNL     1       3.892  15.527  56.655  1.00  0.00     0.169 HD
HETATM    3  C4  UNL     1       2.486  16.067  58.087  1.00  0.00     0.245 C 
HETATM    4  O1  UNL     1       1.724  16.906  58.562  1.00  0.00    -0.271 OA
ENDROOT
BRANCH   3   5
HETATM    5  C5  UNL     1       2.585  14.704  58.730  1.00  0.00     0.270 C 
BRANCH   5   6
HETATM    6  O2  UNL     1       2.195  13.673  57.982  1.00  0.00    -0.379 OA
BRANCH   6   7
HETATM    7  C6  UNL     1       1.824  12.480  58.464  1.00  0.00     0.201 C 
BRANCH   7   8
HETATM    8  C7  UNL     1       2.524  11.256  57.971  1.00  0.00     0.157 C 
HETATM    9  C8  UNL     1       3.611  10.744  58.883  1.00  0.00     0.076 C 
HETATM   10  C9  UNL     1       4.583  10.089  57.921  1.00  0.00    -0.021 A 
HETATM   11  C10 UNL     1       5.527   9.094  58.043  1.00  0.00     0.035 A 
HETATM   12  C14 UNL     1       4.366  10.725  56.719  1.00  0.00     0.077 A 
HETATM   13  C11 UNL     1       6.298   8.688  56.975  1.00  0.00     0.059 A 
HETATM   14 CL1  UNL     1       7.505   7.427  57.100  1.00  0.00    -0.082 Cl
HETATM   15  C12 UNL     1       6.096   9.315  55.752  1.00  0.00     0.070 A 
HETATM   16  N3  UNL     1       6.867   8.930  54.623  1.00  0.00    -0.101 NA
HETATM   17  C13 UNL     1       5.139  10.313  55.655  1.00  0.00     0.065 A 
HETATM   18  O3  UNL     1       3.361  11.686  56.861  1.00  0.00    -0.343 OA
ENDBRANCH   7   8
ENDBRANCH   6   7
ENDBRANCH   5   6
ENDBRANCH   3   5
BRANCH   1  19
HETATM   19  C3  UNL     1       3.348  17.489  56.211  1.00  0.00     0.043 A 
HETATM   20  C2  UNL     1       2.403  17.918  55.318  1.00  0.00     0.056 A 
HETATM   21  C1  UNL     1       2.521  19.094  54.559  1.00  0.00     0.049 A 
HETATM   22  N1  UNL     1       1.475  19.430  53.668  1.00  0.00    -0.102 NA
HETATM   23  C17 UNL     1       3.636  19.858  54.715  1.00  0.00     0.042 A 
HETATM   24  C16 UNL     1       4.607  19.459  55.603  1.00  0.00     0.020 A 
HETATM   25  C15 UNL     1       4.487  18.305  56.347  1.00  0.00    -0.017 A 
HETATM   26  C18 UNL     1       5.829  20.268  55.770  1.00  0.00     0.160 C 
HETATM   27  C21 UNL     1       5.595  18.014  57.277  1.00  0.00     0.042 C 
HETATM   28  C20 UNL     1       6.081  19.262  58.011  1.00  0.00     0.012 C 
HETATM   29  C19 UNL     1       6.571  20.307  57.051  1.00  0.00     0.084 C 
HETATM   30  O4  UNL     1       6.249  20.937  54.809  1.00  0.00    -0.292 OA
ENDBRANCH   1  19
TORSDOF 5
ENDMDL
MODEL 3
REMARK VINA RESULT: -7.589310012      3.130      5.805
REMARK  5 active torsions:
REMARK  status: ('A' for Active; 'I' for Inactive)
REMARK    1  A    between atoms: C3_4  and  N2_5 
REMARK       I    between atoms: N2_5  and  C4_7 
REMARK    2  A    between atoms: C4_7  and  C5_9 
REMARK    3  A    between atoms: C5_9  and  O2_10 
REMARK    4  A    between atoms: O2_10  and  C6_11 
REMARK    5  A    between atoms: C6_11  and  C7_12 
ROOT
HETATM    1  N2  UNL     1       2.710  17.192  55.997  1.00  0.00    -0.325 N 
ATOM      2  H2  UNL     1       3.330  16.993  55.212  1.00  0.00     0.169 HD
HETATM    3  C4  UNL     1       1.567  17.964  55.728  1.00  0.00     0.245 C 
HETATM    4  O1  UNL     1       0.735  18.273  56.578  1.00  0.00    -0.271 OA
ENDROOT
BRANCH   3   5
HETATM    5  C5  UNL     1       1.378  18.426  54.302  1.00  0.00     0.270 C 
BRANCH   5   6
HETATM    6  O2  UNL     1       1.863  19.631  54.006  1.00  0.00    -0.379 OA
BRANCH   6   7
HETATM    7  C6  UNL     1       3.013  19.851  53.359  1.00  0.00     0.201 C 
BRANCH   7   8
HETATM    8  C7  UNL     1       4.233  20.187  54.153  1.00  0.00     0.157 C 
HETATM    9  C8  UNL     1       3.955  20.806  55.500  1.00  0.00     0.076 C 
HETATM   10  C9  UNL     1       5.167  21.687  55.727  1.00  0.00    -0.021 A 
HETATM   11  C10 UNL     1       5.789  22.188  56.849  1.00  0.00     0.035 A 
HETATM   12  C14 UNL     1       5.636  21.969  54.464  1.00  0.00     0.077 A 
HETATM   13  C11 UNL     1       6.905  22.993  56.763  1.00  0.00     0.059 A 
HETATM   14 CL1  UNL     1       7.718  23.644  58.170  1.00  0.00    -0.082 Cl
HETATM   15  C12 UNL     1       7.396  23.291  55.499  1.00  0.00     0.070 A 
HETATM   16  N3  UNL     1       8.543  24.116  55.360  1.00  0.00    -0.101 NA
HETATM   17  C13 UNL     1       6.752  22.774  54.385  1.00  0.00     0.065 A 
HETATM   18  O3  UNL     1       4.833  21.344  53.506  1.00  0.00    -0.343 OA
ENDBRANCH   7   8
ENDBRANCH   6   7
ENDBRANCH   5   6
ENDBRANCH   3   5
BRANCH   1  19
HETATM   19  C3  UNL     1       3.075  16.669  57.255  1.00  0.00     0.043 A 
HETATM   20  C2  UNL     1       2.401  15.697  57.944  1.00  0.00     0.056 A 
HETATM   21  C1  UNL     1       2.775  15.238  59.217  1.00  0.00     0.049 A 
HETATM   22  N1  UNL     1       1.995  14.227  59.827  1.00  0.00    -0.102 NA
HETATM   23  C17 UNL     1       3.871  15.786  59.808  1.00  0.00     0.042 A 
HETATM   24  C16 UNL     1       4.575  16.765  59.147  1.00  0.00     0.020 A 
HETATM   25  C15 UNL     1       4.204  17.212  57.897  1.00  0.00    -0.017 A 
HETATM   26  C18 UNL     1       5.755  17.379  59.782  1.00  0.00     0.160 C 
HETATM   27  C21 UNL     1       5.066  18.249  57.298  1.00  0.00     0.042 C 
HETATM   28  C20 UNL     1       6.551  17.974  57.521  1.00  0.00     0.012 C 
HETATM   29  C19 UNL     1       6.883  17.912  58.985  1.00  0.00     0.084 C 
HETATM   30  O4  UNL     1       5.806  17.453  61.023  1.00  0.00    -0.292 OA
ENDBRANCH   1  19
TORSDOF 5
ENDMDL
MODEL 4
REMARK VINA RESULT: -7.468156956      1.162      1.454
REMARK  5 active torsions:
REMARK  status: ('A' for Active; 'I' for Inactive)
REMARK    1  A    between atoms: C3_4  and  N2_5 
REMARK       I    between atoms: N2_5  and  C4_7 
REMARK    2  A    between atoms: C4_7  and  C5_9 
REMARK    3  A    between atoms: C5_9  and  O2_10 
REMARK    4  A    between atoms: O2_10  and  C6_11 
REMARK    5  A    between atoms: C6_11  and  C7_12 
ROOT
HETATM    1  N2  UNL     1       5.720  20.684  56.459  1.00  0.00    -0.325 N 
ATOM      2  H2  UNL     1       4.710  20.804  56.383  1.00  0.00     0.169 HD
HETATM    3  C4  UNL     1       6.454  20.660  55.262  1.00  0.00     0.245 C 
HETATM    4  O1  UNL     1       7.674  20.528  55.210  1.00  0.00    -0.271 OA
ENDROOT
BRANCH   3   5
HETATM    5  C5  UNL     1       5.668  20.808  53.980  1.00  0.00     0.270 C 
BRANCH   5   6
HETATM    6  O2  UNL     1       4.343  20.862  54.107  1.00  0.00    -0.379 OA
BRANCH   6   7
HETATM    7  C6  UNL     1       3.495  19.941  53.635  1.00  0.00     0.201 C 
BRANCH   7   8
HETATM    8  C7  UNL     1       2.395  19.454  54.521  1.00  0.00     0.157 C 
HETATM    9  C8  UNL     1       2.264  20.198  55.826  1.00  0.00     0.076 C 
HETATM   10  C9  UNL     1       1.707  19.146  56.765  1.00  0.00    -0.021 A 
HETATM   11  C10 UNL     1       0.969  19.193  57.926  1.00  0.00     0.035 A 
HETATM   12  C14 UNL     1       2.105  17.946  56.219  1.00  0.00     0.077 A 
HETATM   13  C11 UNL     1       0.593  18.048  58.596  1.00  0.00     0.059 A 
HETATM   14 CL1  UNL     1      -0.346  18.077  60.073  1.00  0.00    -0.082 Cl
HETATM   15  C12 UNL     1       0.982  16.827  58.064  1.00  0.00     0.070 A 
HETATM   16  N3  UNL     1       0.619  15.621  58.719  1.00  0.00    -0.101 NA
HETATM   17  C13 UNL     1       1.726  16.805  56.893  1.00  0.00     0.065 A 
HETATM   18  O3  UNL     1       2.836  18.172  55.049  1.00  0.00    -0.343 OA
ENDBRANCH   7   8
ENDBRANCH   6   7
ENDBRANCH   5   6
ENDBRANCH   3   5
BRANCH   1  19
HETATM   19  C3  UNL     1       6.257  20.557  57.758  1.00  0.00     0.043 A 
HETATM   20  C2  UNL     1       6.857  21.556  58.477  1.00  0.00     0.056 A 
HETATM   21  C1  UNL     1       7.418  21.373  59.751  1.00  0.00     0.049 A 
HETATM   22  N1  UNL     1       8.011  22.485  60.394  1.00  0.00    -0.102 NA
HETATM   23  C17 UNL     1       7.369  20.134  60.311  1.00  0.00     0.042 A 
HETATM   24  C16 UNL     1       6.774  19.105  59.619  1.00  0.00     0.020 A 
HETATM   25  C15 UNL     1       6.222  19.289  58.369  1.00  0.00    -0.017 A 
HETATM   26  C18 UNL     1       6.727  17.754  60.206  1.00  0.00     0.160 C 
HETATM   27  C21 UNL     1       5.597  18.102  57.755  1.00  0.00     0.042 C 
HETATM   28  C20 UNL     1       4.781  17.289  58.758  1.00  0.00     0.012 C 
HETATM   29  C19 UNL     1       5.635  16.804  59.894  1.00  0.00     0.084 C 
HETATM   30  O4  UNL     1       7.630  17.400  60.986  1.00  0.00    -0.292 OA
ENDBRANCH   1  19
TORSDOF 5
ENDMDL
MODEL 5
REMARK VINA RESULT: -7.396884090      2.090      3.172
REMARK  5 active torsions:
REMARK  status: ('A' for Active; 'I' for Inactive)
REMARK    1  A    between atoms: C3_4  and  N2_5 
REMARK       I    between atoms: N2_5  and  C4_7 
REMARK    2  A    between atoms: C4_7  and  C5_9 
REMARK    3  A    between atoms: C5_9  and  O2_10 
REMARK    4  A    between atoms: O2_10  and  C6_11 
REMARK    5  A    between atoms: C6_11  and  C7_12 
ROOT
HETATM    1  N2  UNL     1       5.270  20.341  56.317  1.00  0.00    -0.325 N 
ATOM      2  H2  UNL     1       4.252  20.392  56.339  1.00  0.00     0.169 HD
HETATM    3  C4  UNL     1       5.896  20.568  55.080  1.00  0.00     0.245 C 
HETATM    4  O1  UNL     1       7.113  20.542  54.914  1.00  0.00    -0.271 OA
ENDROOT
BRANCH   3   5
HETATM    5  C5  UNL     1       4.993  20.860  53.906  1.00  0.00     0.270 C 
BRANCH   5   6
HETATM    6  O2  UNL     1       3.697  20.606  54.084  1.00  0.00    -0.379 OA
BRANCH   6   7
HETATM    7  C6  UNL     1       3.010  19.661  53.429  1.00  0.00     0.201 C 
BRANCH   7   8
HETATM    8  C7  UNL     1       2.395  18.547  54.212  1.00  0.00     0.157 C 
HETATM    9  C8  UNL     1       1.341  18.981  55.200  1.00  0.00     0.076 C 
HETATM   10  C9  UNL     1       1.445  17.934  56.292  1.00  0.00    -0.021 A 
HETATM   11  C10 UNL     1       0.572  17.451  57.241  1.00  0.00     0.035 A 
HETATM   12  C14 UNL     1       2.734  17.459  56.197  1.00  0.00     0.077 A 
HETATM   13  C11 UNL     1       0.944  16.473  58.139  1.00  0.00     0.059 A 
HETATM   14 CL1  UNL     1      -0.143  15.838  59.355  1.00  0.00    -0.082 Cl
HETATM   15  C12 UNL     1       2.239  15.978  58.062  1.00  0.00     0.070 A 
HETATM   16  N3  UNL     1       2.667  14.970  58.966  1.00  0.00    -0.101 NA
HETATM   17  C13 UNL     1       3.099  16.481  57.098  1.00  0.00     0.065 A 
HETATM   18  O3  UNL     1       3.408  18.108  55.159  1.00  0.00    -0.343 OA
ENDBRANCH   7   8
ENDBRANCH   6   7
ENDBRANCH   5   6
ENDBRANCH   3   5
BRANCH   1  19
HETATM   19  C3  UNL     1       5.926  20.047  57.532  1.00  0.00     0.043 A 
HETATM   20  C2  UNL     1       6.124  18.797  58.053  1.00  0.00     0.056 A 
HETATM   21  C1  UNL     1       6.743  18.553  59.290  1.00  0.00     0.049 A 
HETATM   22  N1  UNL     1       6.889  17.214  59.720  1.00  0.00    -0.102 NA
HETATM   23  C17 UNL     1       7.173  19.617  60.020  1.00  0.00     0.042 A 
HETATM   24  C16 UNL     1       6.991  20.889  59.530  1.00  0.00     0.020 A 
HETATM   25  C15 UNL     1       6.385  21.123  58.315  1.00  0.00    -0.017 A 
HETATM   26  C18 UNL     1       7.438  22.052  60.319  1.00  0.00     0.160 C 
HETATM   27  C21 UNL     1       6.279  22.537  57.905  1.00  0.00     0.042 C 
HETATM   28  C20 UNL     1       7.550  23.328  58.207  1.00  0.00     0.012 C 
HETATM   29  C19 UNL     1       7.868  23.314  59.674  1.00  0.00     0.084 C 
HETATM   30  O4  UNL     1       7.454  21.972  61.560  1.00  0.00    -0.292 OA
ENDBRANCH   1  19
TORSDOF 5
ENDMDL
