MODEL 1
REMARK VINA RESULT: -7.299857040      0.000      0.000
REMARK  5 active torsions:
REMARK  status: ('A' for Active; 'I' for Inactive)
REMARK    1  A    between atoms: C6_9  and  N2_10 
REMARK       I    between atoms: N2_10  and  C7_12 
REMARK    2  A    between atoms: C7_12  and  C8_14 
REMARK    3  A    between atoms: C10_16  and  C11_17 
REMARK    4  A    between atoms: C15_21  and  O3_22 
REMARK    5  A    between atoms: C16_24  and  O4_25 
ROOT
HETATM    1  C8  UNL     1       2.966  14.386  59.273  1.00  0.00     0.101 A 
HETATM    2  C9  UNL     1       3.582  15.062  58.255  1.00  0.00     0.049 A 
HETATM    3  C10 UNL     1       3.613  16.400  58.574  1.00  0.00    -0.006 A 
HETATM    4  C21 UNL     1       3.007  16.532  59.801  1.00  0.00     0.101 A 
HETATM    5  N3  UNL     1       2.636  15.304  60.182  1.00  0.00    -0.361 N 
ATOM      6  H3  UNL     1       2.159  15.096  61.060  1.00  0.00     0.165 HD
ENDROOT
BRANCH   3   7
HETATM    7  C11 UNL     1       4.183  17.493  57.765  1.00  0.00    -0.002 A 
HETATM    8  C12 UNL     1       3.552  17.877  56.599  1.00  0.00     0.026 A 
HETATM    9  C13 UNL     1       4.049  18.899  55.805  1.00  0.00    -0.022 A 
HETATM   10  C14 UNL     1       3.376  19.237  54.654  1.00  0.00     0.051 A 
HETATM   11  C18 UNL     1       5.205  19.553  56.184  1.00  0.00    -0.021 A 
HETATM   12  C15 UNL     1       3.856  20.262  53.837  1.00  0.00     0.099 A 
HETATM   13  C16 UNL     1       5.010  20.922  54.206  1.00  0.00     0.099 A 
HETATM   14  C17 UNL     1       5.677  20.564  55.376  1.00  0.00     0.051 A 
HETATM   15  C19 UNL     1       5.840  19.173  57.348  1.00  0.00     0.037 A 
HETATM   16  C20 UNL     1       5.336  18.151  58.136  1.00  0.00     0.046 A 
HETATM   17 CL1  UNL     1       6.160  17.677  59.622  1.00  0.00    -0.083 Cl
BRANCH  12  18
HETATM   18  O3  UNL     1       3.134  20.541  52.711  1.00  0.00    -0.358 OA
ATOM     19  H3  UNL     1       2.830  19.799  52.201  1.00  0.00     0.217 HD
ENDBRANCH  12  18
BRANCH  13  20
HETATM   20  O4  UNL     1       5.539  21.947  53.441  1.00  0.00    -0.358 OA
ATOM     21  H4  UNL     1       4.994  22.641  53.090  1.00  0.00     0.217 HD
ENDBRANCH  13  20
ENDBRANCH   3   7
BRANCH   1  22
HETATM   22  C7  UNL     1       2.720  12.939  59.346  1.00  0.00     0.272 C 
HETATM   23  N2  UNL     1       2.411  12.238  58.152  1.00  0.00    -0.320 N 
ATOM     24  H2  UNL     1       2.368  12.766  57.280  1.00  0.00     0.169 HD
HETATM   25  O2  UNL     1       2.778  12.320  60.442  1.00  0.00    -0.266 OA
BRANCH  23  26
HETATM   26  C6  UNL     1       2.159  10.842  58.105  1.00  0.00     0.066 A 
HETATM   27  C3  UNL     1       2.981   9.835  57.447  1.00  0.00     0.056 A 
HETATM   28  C2  UNL     1       4.094  10.019  56.783  1.00  0.00    -0.012 C 
HETATM   29  C4  UNL     1       2.329   8.534  57.655  1.00  0.00     0.257 A 
HETATM   30  C1  UNL     1       4.811   8.871  56.162  1.00  0.00     0.037 C 
HETATM   31  O1  UNL     1       2.734   7.428  57.241  1.00  0.00    -0.267 OA
HETATM   32  N1  UNL     1       1.168   8.828  58.414  1.00  0.00    -0.331 N 
HETATM   33  C5  UNL     1       1.119  10.250  58.657  1.00  0.00     0.122 A 
ATOM     34  H1  UNL     1       0.480   8.146  58.736  1.00  0.00     0.168 HD
ENDBRANCH  23  26
ENDBRANCH   1  22
TORSDOF 5
ENDMDL
MODEL 2
REMARK VINA RESULT: -7.157205075      1.614      2.187
REMARK  5 active torsions:
REMARK  status: ('A' for Active; 'I' for Inactive)
REMARK    1  A    between atoms: C6_9  and  N2_10 
REMARK       I    between atoms: N2_10  and  C7_12 
REMARK    2  A    between atoms: C7_12  and  C8_14 
REMARK    3  A    between atoms: C10_16  and  C11_17 
REMARK    4  A    between atoms: C15_21  and  O3_22 
REMARK    5  A    between atoms: C16_24  and  O4_25 
ROOT
HETATM    1  C8  UNL     1       2.811  14.608  58.681  1.00  0.00     0.101 A 
HETATM    2  C9  UNL     1       3.148  15.339  57.575  1.00  0.00     0.049 A 
HETATM    3  C10 UNL     1       3.049  16.676  57.887  1.00  0.00    -0.006 A 
HETATM    4  C21 UNL     1       2.647  16.751  59.199  1.00  0.00     0.101 A 
HETATM    5  N3  UNL     1       2.517  15.493  59.636  1.00  0.00    -0.361 N 
ATOM      6  H3  UNL     1       2.229  15.241  60.581  1.00  0.00     0.165 HD
ENDROOT
BRANCH   3   7
HETATM    7  C11 UNL     1       3.319  17.818  56.994  1.00  0.00    -0.002 A 
HETATM    8  C12 UNL     1       4.600  18.324  56.904  1.00  0.00     0.026 A 
HETATM    9  C13 UNL     1       4.903  19.396  56.079  1.00  0.00    -0.022 A 
HETATM   10  C14 UNL     1       6.199  19.856  56.031  1.00  0.00     0.051 A 
HETATM   11  C18 UNL     1       3.902  19.977  55.324  1.00  0.00    -0.021 A 
HETATM   12  C15 UNL     1       6.530  20.934  55.209  1.00  0.00     0.099 A 
HETATM   13  C16 UNL     1       5.538  21.522  54.451  1.00  0.00     0.099 A 
HETATM   14  C17 UNL     1       4.232  21.041  54.514  1.00  0.00     0.051 A 
HETATM   15  C19 UNL     1       2.620  19.476  55.411  1.00  0.00     0.037 A 
HETATM   16  C20 UNL     1       2.325  18.404  56.239  1.00  0.00     0.046 A 
HETATM   17 CL1  UNL     1       0.681  17.774  56.338  1.00  0.00    -0.083 Cl
BRANCH  12  18
HETATM   18  O3  UNL     1       7.836  21.334  55.214  1.00  0.00    -0.358 OA
ATOM     19  H3  UNL     1       8.107  21.921  54.517  1.00  0.00     0.217 HD
ENDBRANCH  12  18
BRANCH  13  20
HETATM   20  O4  UNL     1       5.799  22.594  53.615  1.00  0.00    -0.358 OA
ATOM     21  H4  UNL     1       5.577  22.573  52.692  1.00  0.00     0.217 HD
ENDBRANCH  13  20
ENDBRANCH   3   7
BRANCH   1  22
HETATM   22  C7  UNL     1       2.782  13.143  58.792  1.00  0.00     0.272 C 
HETATM   23  N2  UNL     1       2.732  12.369  57.604  1.00  0.00    -0.320 N 
ATOM     24  H2  UNL     1       2.716  12.859  56.710  1.00  0.00     0.169 HD
HETATM   25  O2  UNL     1       2.799  12.572  59.915  1.00  0.00    -0.266 OA
BRANCH  23  26
HETATM   26  C6  UNL     1       2.703  10.950  57.594  1.00  0.00     0.066 A 
HETATM   27  C3  UNL     1       3.702  10.068  57.004  1.00  0.00     0.056 A 
HETATM   28  C2  UNL     1       4.802  10.407  56.380  1.00  0.00    -0.012 C 
HETATM   29  C4  UNL     1       3.252   8.687  57.227  1.00  0.00     0.257 A 
HETATM   30  C1  UNL     1       5.716   9.371  55.827  1.00  0.00     0.037 C 
HETATM   31  O1  UNL     1       3.843   7.648  56.867  1.00  0.00    -0.267 OA
HETATM   32  N1  UNL     1       2.026   8.814  57.928  1.00  0.00    -0.331 N 
HETATM   33  C5  UNL     1       1.744  10.216  58.122  1.00  0.00     0.122 A 
ATOM     34  H1  UNL     1       1.439   8.041  58.244  1.00  0.00     0.168 HD
ENDBRANCH  23  26
ENDBRANCH   1  22
TORSDOF 5
ENDMDL
MODEL 3
REMARK VINA RESULT: -7.069547237      1.180      1.457
REMARK  5 active torsions:
REMARK  status: ('A' for Active; 'I' for Inactive)
REMARK    1  A    between atoms: C6_9  and  N2_10 
REMARK       I    between atoms: N2_10  and  C7_12 
REMARK    2  A    between atoms: C7_12  and  C8_14 
REMARK    3  A    between atoms: C10_16  and  C11_17 
REMARK    4  A    between atoms: C15_21  and  O3_22 
REMARK    5  A    between atoms: C16_24  and  O4_25 
ROOT
HETATM    1  C8  UNL     1       2.661  14.693  58.386  1.00  0.00     0.101 A 
HETATM    2  C9  UNL     1       3.749  15.399  57.949  1.00  0.00     0.049 A 
HETATM    3  C10 UNL     1       3.485  16.742  58.095  1.00  0.00    -0.006 A 
HETATM    4  C21 UNL     1       2.222  16.846  58.627  1.00  0.00     0.101 A 
HETATM    5  N3  UNL     1       1.766  15.598  58.785  1.00  0.00    -0.361 N 
ATOM      6  H3  UNL     1       0.848  15.367  59.165  1.00  0.00     0.165 HD
ENDROOT
BRANCH   3   7
HETATM    7  C11 UNL     1       4.378  17.864  57.751  1.00  0.00    -0.002 A 
HETATM    8  C12 UNL     1       4.210  18.524  56.550  1.00  0.00     0.026 A 
HETATM    9  C13 UNL     1       5.023  19.584  56.183  1.00  0.00    -0.022 A 
HETATM   10  C14 UNL     1       4.807  20.203  54.973  1.00  0.00     0.051 A 
HETATM   11  C18 UNL     1       6.030  19.997  57.034  1.00  0.00    -0.021 A 
HETATM   12  C15 UNL     1       5.613  21.273  54.579  1.00  0.00     0.099 A 
HETATM   13  C16 UNL     1       6.621  21.693  55.422  1.00  0.00     0.099 A 
HETATM   14  C17 UNL     1       6.824  21.052  56.643  1.00  0.00     0.051 A 
HETATM   15  C19 UNL     1       6.203  19.341  58.235  1.00  0.00     0.037 A 
HETATM   16  C20 UNL     1       5.385  18.281  58.595  1.00  0.00     0.046 A 
HETATM   17 CL1  UNL     1       5.618  17.453  60.135  1.00  0.00    -0.083 Cl
BRANCH  12  18
HETATM   18  O3  UNL     1       5.338  21.837  53.365  1.00  0.00    -0.358 OA
ATOM     19  H3  UNL     1       4.829  22.639  53.371  1.00  0.00     0.217 HD
ENDBRANCH  12  18
BRANCH  13  20
HETATM   20  O4  UNL     1       7.455  22.747  55.092  1.00  0.00    -0.358 OA
ATOM     21  H4  UNL     1       7.255  23.336  54.374  1.00  0.00     0.217 HD
ENDBRANCH  13  20
ENDBRANCH   3   7
BRANCH   1  22
HETATM   22  C7  UNL     1       2.514  13.231  58.409  1.00  0.00     0.272 C 
HETATM   23  N2  UNL     1       3.086  12.470  57.358  1.00  0.00    -0.320 N 
ATOM     24  H2  UNL     1       3.580  12.967  56.617  1.00  0.00     0.169 HD
HETATM   25  O2  UNL     1       1.892  12.651  59.340  1.00  0.00    -0.266 OA
BRANCH  23  26
HETATM   26  C6  UNL     1       3.007  11.055  57.281  1.00  0.00     0.066 A 
HETATM   27  C3  UNL     1       3.994  10.163  56.686  1.00  0.00     0.056 A 
HETATM   28  C2  UNL     1       5.127  10.488  56.116  1.00  0.00    -0.012 C 
HETATM   29  C4  UNL     1       3.487   8.791  56.831  1.00  0.00     0.257 A 
HETATM   30  C1  UNL     1       6.023   9.444  55.549  1.00  0.00     0.037 C 
HETATM   31  O1  UNL     1       4.054   7.748  56.444  1.00  0.00    -0.267 OA
HETATM   32  N1  UNL     1       2.242   8.933  57.495  1.00  0.00    -0.331 N 
HETATM   33  C5  UNL     1       2.004  10.334  57.742  1.00  0.00     0.122 A 
ATOM     34  H1  UNL     1       1.617   8.169  57.754  1.00  0.00     0.168 HD
ENDBRANCH  23  26
ENDBRANCH   1  22
TORSDOF 5
ENDMDL
MODEL 4
REMARK VINA RESULT: -6.907332988      1.947      2.517
REMARK  5 active torsions:
REMARK  status: ('A' for Active; 'I' for Inactive)
REMARK    1  A    between atoms: C6_9  and  N2_10 
REMARK       I    between atoms: N2_10  and  C7_12 
REMARK    2  A    between atoms: C7_12  and  C8_14 
REMARK    3  A    between atoms: C10_16  and  C11_17 
REMARK    4  A    between atoms: C15_21  and  O3_22 
REMARK    5  A    between atoms: C16_24  and  O4_25 
ROOT
HETATM    1  C8  UNL     1       2.846  14.119  58.843  1.00  0.00     0.101 A 
HETATM    2  C9  UNL     1       3.219  14.939  57.813  1.00  0.00     0.049 A 
HETATM    3  C10 UNL     1       3.766  16.086  58.344  1.00  0.00    -0.006 A 
HETATM    4  C21 UNL     1       3.721  15.954  59.711  1.00  0.00     0.101 A 
HETATM    5  N3  UNL     1       3.164  14.764  59.966  1.00  0.00    -0.361 N 
ATOM      6  H3  UNL     1       3.003  14.396  60.904  1.00  0.00     0.165 HD
ENDROOT
BRANCH   3   7
HETATM    7  C11 UNL     1       4.300  17.241  57.599  1.00  0.00    -0.002 A 
HETATM    8  C12 UNL     1       3.663  17.665  56.451  1.00  0.00     0.026 A 
HETATM    9  C13 UNL     1       4.127  18.745  55.718  1.00  0.00    -0.022 A 
HETATM   10  C14 UNL     1       3.450  19.121  54.581  1.00  0.00     0.051 A 
HETATM   11  C18 UNL     1       5.256  19.421  56.141  1.00  0.00    -0.021 A 
HETATM   12  C15 UNL     1       3.897  20.206  53.824  1.00  0.00     0.099 A 
HETATM   13  C16 UNL     1       5.023  20.887  54.239  1.00  0.00     0.099 A 
HETATM   14  C17 UNL     1       5.695  20.490  55.393  1.00  0.00     0.051 A 
HETATM   15  C19 UNL     1       5.897  19.001  57.288  1.00  0.00     0.037 A 
HETATM   16  C20 UNL     1       5.426  17.919  58.016  1.00  0.00     0.046 A 
HETATM   17 CL1  UNL     1       6.257  17.395  59.481  1.00  0.00    -0.083 Cl
BRANCH  12  18
HETATM   18  O3  UNL     1       3.172  20.519  52.709  1.00  0.00    -0.358 OA
ATOM     19  H3  UNL     1       3.641  20.941  51.998  1.00  0.00     0.217 HD
ENDBRANCH  12  18
BRANCH  13  20
HETATM   20  O4  UNL     1       5.518  21.970  53.534  1.00  0.00    -0.358 OA
ATOM     21  H4  UNL     1       5.909  22.716  53.974  1.00  0.00     0.217 HD
ENDBRANCH  13  20
ENDBRANCH   3   7
BRANCH   1  22
HETATM   22  C7  UNL     1       2.221  12.794  58.729  1.00  0.00     0.272 C 
HETATM   23  N2  UNL     1       1.627  12.218  59.882  1.00  0.00    -0.320 N 
ATOM     24  H2  UNL     1       1.657  12.746  60.754  1.00  0.00     0.169 HD
HETATM   25  O2  UNL     1       2.206  12.169  57.635  1.00  0.00    -0.266 OA
BRANCH  23  26
HETATM   26  C6  UNL     1       0.993  10.948  59.886  1.00  0.00     0.066 A 
HETATM   27  C3  UNL     1      -0.380  10.663  59.488  1.00  0.00     0.056 A 
HETATM   28  C2  UNL     1      -1.280  11.510  59.056  1.00  0.00    -0.012 C 
HETATM   29  C4  UNL     1      -0.595   9.220  59.664  1.00  0.00     0.257 A 
HETATM   30  C1  UNL     1      -2.649  11.049  58.696  1.00  0.00     0.037 C 
HETATM   31  O1  UNL     1      -1.649   8.595  59.426  1.00  0.00    -0.267 OA
HETATM   32  N1  UNL     1       0.641   8.725  60.150  1.00  0.00    -0.331 N 
HETATM   33  C5  UNL     1       1.569   9.825  60.265  1.00  0.00     0.122 A 
ATOM     34  H1  UNL     1       0.842   7.752  60.382  1.00  0.00     0.168 HD
ENDBRANCH  23  26
ENDBRANCH   1  22
TORSDOF 5
ENDMDL
MODEL 5
REMARK VINA RESULT: -6.857548917      4.548      5.926
REMARK  5 active torsions:
REMARK  status: ('A' for Active; 'I' for Inactive)
REMARK    1  A    between atoms: C6_9  and  N2_10 
REMARK       I    between atoms: N2_10  and  C7_12 
REMARK    2  A    between atoms: C7_12  and  C8_14 
REMARK    3  A    between atoms: C10_16  and  C11_17 
REMARK    4  A    between atoms: C15_21  and  O3_22 
REMARK    5  A    between atoms: C16_24  and  O4_25 
ROOT
HETATM    1  C8  UNL     1       1.908  16.752  57.494  1.00  0.00     0.101 A 
HETATM    2  C9  UNL     1       2.116  17.978  56.922  1.00  0.00     0.049 A 
HETATM    3  C10 UNL     1       3.400  18.018  56.429  1.00  0.00    -0.006 A 
HETATM    4  C21 UNL     1       3.974  16.801  56.708  1.00  0.00     0.101 A 
HETATM    5  N3  UNL     1       3.048  16.075  57.345  1.00  0.00    -0.361 N 
ATOM      6  H3  UNL     1       3.194  15.120  57.675  1.00  0.00     0.165 HD
ENDROOT
BRANCH   3   7
HETATM    7  C11 UNL     1       4.049  19.145  55.733  1.00  0.00    -0.002 A 
HETATM    8  C12 UNL     1       4.992  19.903  56.397  1.00  0.00     0.026 A 
HETATM    9  C13 UNL     1       5.629  20.971  55.785  1.00  0.00    -0.022 A 
HETATM   10  C14 UNL     1       6.561  21.690  56.497  1.00  0.00     0.051 A 
HETATM   11  C18 UNL     1       5.316  21.292  54.478  1.00  0.00    -0.021 A 
HETATM   12  C15 UNL     1       7.216  22.770  55.905  1.00  0.00     0.099 A 
HETATM   13  C16 UNL     1       6.911  23.099  54.599  1.00  0.00     0.099 A 
HETATM   14  C17 UNL     1       5.964  22.359  53.895  1.00  0.00     0.051 A 
HETATM   15  C19 UNL     1       4.374  20.538  53.810  1.00  0.00     0.037 A 
HETATM   16  C20 UNL     1       3.741  19.471  54.429  1.00  0.00     0.046 A 
HETATM   17 CL1  UNL     1       2.539  18.517  53.561  1.00  0.00    -0.083 Cl
BRANCH  12  18
HETATM   18  O3  UNL     1       8.129  23.435  56.674  1.00  0.00    -0.358 OA
ATOM     19  H3  UNL     1       8.147  24.382  56.595  1.00  0.00     0.217 HD
ENDBRANCH  12  18
BRANCH  13  20
HETATM   20  O4  UNL     1       7.524  24.158  53.953  1.00  0.00    -0.358 OA
ATOM     21  H4  UNL     1       7.125  24.585  53.205  1.00  0.00     0.217 HD
ENDBRANCH  13  20
ENDBRANCH   3   7
BRANCH   1  22
HETATM   22  C7  UNL     1       0.676  16.281  58.142  1.00  0.00     0.272 C 
HETATM   23  N2  UNL     1      -0.465  17.124  58.132  1.00  0.00    -0.320 N 
ATOM     24  H2  UNL     1      -0.390  18.033  57.675  1.00  0.00     0.169 HD
HETATM   25  O2  UNL     1       0.621  15.153  58.700  1.00  0.00    -0.266 OA
BRANCH  23  26
HETATM   26  C6  UNL     1      -1.706  16.769  58.723  1.00  0.00     0.066 A 
HETATM   27  C3  UNL     1      -2.804  16.064  58.075  1.00  0.00     0.056 A 
HETATM   28  C2  UNL     1      -2.858  15.625  56.842  1.00  0.00    -0.012 C 
HETATM   29  C4  UNL     1      -3.880  15.925  59.066  1.00  0.00     0.257 A 
HETATM   30  C1  UNL     1      -4.068  14.924  56.335  1.00  0.00     0.037 C 
HETATM   31  O1  UNL     1      -4.986  15.373  58.887  1.00  0.00    -0.267 OA
HETATM   32  N1  UNL     1      -3.377  16.546  60.237  1.00  0.00    -0.331 N 
HETATM   33  C5  UNL     1      -2.049  17.042  59.966  1.00  0.00     0.122 A 
ATOM     34  H1  UNL     1      -3.873  16.630  61.125  1.00  0.00     0.168 HD
ENDBRANCH  23  26
ENDBRANCH   1  22
TORSDOF 5
ENDMDL
