MODEL 1
REMARK VINA RESULT: -6.648247253      0.000      0.000
REMARK  6 active torsions:
REMARK  status: ('A' for Active; 'I' for Inactive)
REMARK    1  A    between atoms: O1_2  and  C2_3 
REMARK    2  A    between atoms: C2_3  and  C3_4 
REMARK    3  A    between atoms: C3_4  and  N1_5 
REMARK       I    between atoms: N1_5  and  C4_7 
REMARK    4  A    between atoms: C4_7  and  C5_9 
REMARK    5  A    between atoms: C6_10  and  C7_11 
REMARK    6  A    between atoms: N2_15  and  C10_16 
ROOT
HETATM    1  C5  UNL     1       3.265  17.975  56.624  1.00  0.00     0.068 A 
HETATM    2  C6  UNL     1       4.250  18.692  57.245  1.00  0.00     0.067 A 
HETATM    3  N3  UNL     1       4.628  19.616  56.308  1.00  0.00    -0.350 N 
ATOM      4  H3  UNL     1       5.353  20.318  56.456  1.00  0.00     0.166 HD
HETATM    5  C17 UNL     1       3.930  19.485  55.174  1.00  0.00     0.108 A 
HETATM    6  C18 UNL     1       3.041  18.451  55.317  1.00  0.00    -0.006 A 
HETATM    7  C19 UNL     1       2.075  18.044  54.252  1.00  0.00     0.062 C 
HETATM    8  C20 UNL     1       2.498  18.474  52.888  1.00  0.00     0.128 C 
HETATM    9  N4  UNL     1       3.086  19.796  52.879  1.00  0.00    -0.355 N 
ATOM     10  H4  UNL     1       2.853  20.439  52.123  1.00  0.00     0.162 HD
HETATM   11  C21 UNL     1       3.980  20.218  53.901  1.00  0.00     0.268 C 
HETATM   12  O5  UNL     1       4.786  21.165  53.760  1.00  0.00    -0.266 OA
ENDROOT
BRANCH   2  13
HETATM   13  C7  UNL     1       4.822  18.630  58.560  1.00  0.00     0.093 A 
HETATM   14  C8  UNL     1       4.221  19.069  59.733  1.00  0.00     0.091 A 
HETATM   15  C9  UNL     1       2.872  19.613  59.979  1.00  0.00     0.080 C 
HETATM   16  O3  UNL     1       5.086  18.933  60.747  1.00  0.00    -0.231 OA
HETATM   17  N2  UNL     1       6.205  18.441  60.332  1.00  0.00    -0.179 N 
HETATM   18  C16 UNL     1       6.063  18.250  58.994  1.00  0.00     0.287 A 
HETATM   19  O4  UNL     1       6.983  17.792  58.337  1.00  0.00    -0.265 OA
BRANCH  17  20
HETATM   20  C10 UNL     1       7.354  18.162  61.146  1.00  0.00     0.067 A 
HETATM   21  C11 UNL     1       7.697  16.873  61.499  1.00  0.00     0.035 A 
HETATM   22  C12 UNL     1       8.789  16.564  62.277  1.00  0.00     0.044 A 
HETATM   23  C13 UNL     1       9.597  17.587  62.738  1.00  0.00     0.116 A 
HETATM   24  F1  UNL     1      10.676  17.289  63.505  1.00  0.00    -0.206 F 
HETATM   25  C14 UNL     1       9.272  18.886  62.396  1.00  0.00     0.044 A 
HETATM   26  C15 UNL     1       8.160  19.183  61.606  1.00  0.00     0.035 A 
ENDBRANCH  17  20
ENDBRANCH   2  13
BRANCH   1  27
HETATM   27  C4  UNL     1       2.414  16.959  57.173  1.00  0.00     0.254 C 
HETATM   28  N1  UNL     1       1.146  17.315  57.690  1.00  0.00    -0.355 N 
ATOM     29  H1  UNL     1       0.881  18.298  57.641  1.00  0.00     0.162 HD
HETATM   30  O2  UNL     1       2.734  15.726  57.223  1.00  0.00    -0.268 OA
BRANCH  28  31
HETATM   31  C3  UNL     1       0.194  16.400  58.283  1.00  0.00     0.149 C 
BRANCH  31  32
HETATM   32  C2  UNL     1      -1.215  16.717  57.895  1.00  0.00     0.186 C 
BRANCH  32  33
HETATM   33  O1  UNL     1      -1.626  16.065  56.748  1.00  0.00    -0.394 OA
HETATM   34  C1  UNL     1      -2.947  15.679  56.739  1.00  0.00     0.201 C 
ENDBRANCH  32  33
ENDBRANCH  31  32
ENDBRANCH  28  31
ENDBRANCH   1  27
TORSDOF 6
ENDMDL
MODEL 2
REMARK VINA RESULT: -6.484473956      3.336      5.993
REMARK  6 active torsions:
REMARK  status: ('A' for Active; 'I' for Inactive)
REMARK    1  A    between atoms: O1_2  and  C2_3 
REMARK    2  A    between atoms: C2_3  and  C3_4 
REMARK    3  A    between atoms: C3_4  and  N1_5 
REMARK       I    between atoms: N1_5  and  C4_7 
REMARK    4  A    between atoms: C4_7  and  C5_9 
REMARK    5  A    between atoms: C6_10  and  C7_11 
REMARK    6  A    between atoms: N2_15  and  C10_16 
ROOT
HETATM    1  C5  UNL     1       4.925  20.261  55.481  1.00  0.00     0.068 A 
HETATM    2  C6  UNL     1       4.879  19.860  56.788  1.00  0.00     0.067 A 
HETATM    3  N3  UNL     1       3.781  19.045  56.846  1.00  0.00    -0.350 N 
ATOM      4  H3  UNL     1       3.463  18.573  57.693  1.00  0.00     0.166 HD
HETATM    5  C17 UNL     1       3.176  18.943  55.656  1.00  0.00     0.108 A 
HETATM    6  C18 UNL     1       3.864  19.699  54.743  1.00  0.00    -0.006 A 
HETATM    7  C19 UNL     1       3.485  19.792  53.301  1.00  0.00     0.062 C 
HETATM    8  C20 UNL     1       2.055  19.449  53.052  1.00  0.00     0.128 C 
HETATM    9  N4  UNL     1       1.601  18.339  53.860  1.00  0.00    -0.355 N 
ATOM     10  H4  UNL     1       0.998  17.632  53.440  1.00  0.00     0.162 HD
HETATM   11  C21 UNL     1       1.977  18.210  55.225  1.00  0.00     0.268 C 
HETATM   12  O5  UNL     1       1.343  17.515  56.050  1.00  0.00    -0.266 OA
ENDROOT
BRANCH   2  13
HETATM   13  C7  UNL     1       5.724  20.120  57.919  1.00  0.00     0.093 A 
HETATM   14  C8  UNL     1       6.492  19.181  58.595  1.00  0.00     0.091 A 
HETATM   15  C9  UNL     1       6.728  17.750  58.320  1.00  0.00     0.080 C 
HETATM   16  O3  UNL     1       7.077  19.768  59.648  1.00  0.00    -0.231 OA
HETATM   17  N2  UNL     1       6.751  21.015  59.716  1.00  0.00    -0.179 N 
HETATM   18  C16 UNL     1       5.922  21.249  58.666  1.00  0.00     0.287 A 
HETATM   19  O4  UNL     1       5.453  22.362  58.487  1.00  0.00    -0.265 OA
BRANCH  17  20
HETATM   20  C10 UNL     1       7.194  21.946  60.715  1.00  0.00     0.067 A 
HETATM   21  C11 UNL     1       8.343  22.693  60.553  1.00  0.00     0.035 A 
HETATM   22  C12 UNL     1       8.801  23.594  61.486  1.00  0.00     0.044 A 
HETATM   23  C13 UNL     1       8.083  23.775  62.654  1.00  0.00     0.116 A 
HETATM   24  F1  UNL     1       8.529  24.663  63.578  1.00  0.00    -0.206 F 
HETATM   25  C14 UNL     1       6.930  23.038  62.837  1.00  0.00     0.044 A 
HETATM   26  C15 UNL     1       6.478  22.126  61.881  1.00  0.00     0.035 A 
ENDBRANCH  17  20
ENDBRANCH   2  13
BRANCH   1  27
HETATM   27  C4  UNL     1       5.940  21.023  54.812  1.00  0.00     0.254 C 
HETATM   28  N1  UNL     1       5.678  22.364  54.447  1.00  0.00    -0.355 N 
ATOM     29  H1  UNL     1       4.762  22.744  54.687  1.00  0.00     0.162 HD
HETATM   30  O2  UNL     1       7.091  20.558  54.523  1.00  0.00    -0.268 OA
BRANCH  28  31
HETATM   31  C3  UNL     1       6.601  23.242  53.760  1.00  0.00     0.149 C 
BRANCH  31  32
HETATM   32  C2  UNL     1       7.257  24.214  54.689  1.00  0.00     0.186 C 
BRANCH  32  33
HETATM   33  O1  UNL     1       8.246  23.641  55.467  1.00  0.00    -0.394 OA
HETATM   34  C1  UNL     1       8.144  23.894  56.817  1.00  0.00     0.201 C 
ENDBRANCH  32  33
ENDBRANCH  31  32
ENDBRANCH  28  31
ENDBRANCH   1  27
TORSDOF 6
ENDMDL
MODEL 3
REMARK VINA RESULT: -6.329478092      2.765      5.524
REMARK  6 active torsions:
REMARK  status: ('A' for Active; 'I' for Inactive)
REMARK    1  A    between atoms: O1_2  and  C2_3 
REMARK    2  A    between atoms: C2_3  and  C3_4 
REMARK    3  A    between atoms: C3_4  and  N1_5 
REMARK       I    between atoms: N1_5  and  C4_7 
REMARK    4  A    between atoms: C4_7  and  C5_9 
REMARK    5  A    between atoms: C6_10  and  C7_11 
REMARK    6  A    between atoms: N2_15  and  C10_16 
ROOT
HETATM    1  C5  UNL     1       4.824  20.471  55.598  1.00  0.00     0.068 A 
HETATM    2  C6  UNL     1       4.676  20.131  56.915  1.00  0.00     0.067 A 
HETATM    3  N3  UNL     1       3.634  19.244  56.914  1.00  0.00    -0.350 N 
ATOM      4  H3  UNL     1       3.266  18.791  57.751  1.00  0.00     0.166 HD
HETATM    5  C17 UNL     1       3.156  19.043  55.679  1.00  0.00     0.108 A 
HETATM    6  C18 UNL     1       3.879  19.801  54.795  1.00  0.00    -0.006 A 
HETATM    7  C19 UNL     1       3.638  19.797  53.321  1.00  0.00     0.062 C 
HETATM    8  C20 UNL     1       2.264  19.343  52.958  1.00  0.00     0.128 C 
HETATM    9  N4  UNL     1       1.808  18.243  53.778  1.00  0.00    -0.355 N 
ATOM     10  H4  UNL     1       1.296  17.476  53.342  1.00  0.00     0.162 HD
HETATM   11  C21 UNL     1       2.056  18.207  55.178  1.00  0.00     0.268 C 
HETATM   12  O5  UNL     1       1.392  17.509  55.976  1.00  0.00    -0.266 OA
ENDROOT
BRANCH   2  13
HETATM   13  C7  UNL     1       5.388  20.503  58.105  1.00  0.00     0.093 A 
HETATM   14  C8  UNL     1       5.392  21.762  58.692  1.00  0.00     0.091 A 
HETATM   15  C9  UNL     1       4.648  22.989  58.348  1.00  0.00     0.080 C 
HETATM   16  O3  UNL     1       6.235  21.758  59.734  1.00  0.00    -0.231 OA
HETATM   17  N2  UNL     1       6.784  20.598  59.873  1.00  0.00    -0.179 N 
HETATM   18  C16 UNL     1       6.278  19.816  58.884  1.00  0.00     0.287 A 
HETATM   19  O4  UNL     1       6.633  18.653  58.776  1.00  0.00    -0.265 OA
BRANCH  17  20
HETATM   20  C10 UNL     1       7.737  20.235  60.884  1.00  0.00     0.067 A 
HETATM   21  C11 UNL     1       7.922  18.923  61.270  1.00  0.00     0.035 A 
HETATM   22  C12 UNL     1       8.824  18.535  62.233  1.00  0.00     0.044 A 
HETATM   23  C13 UNL     1       9.594  19.498  62.860  1.00  0.00     0.116 A 
HETATM   24  F1  UNL     1      10.485  19.122  63.811  1.00  0.00    -0.206 F 
HETATM   25  C14 UNL     1       9.425  20.818  62.489  1.00  0.00     0.044 A 
HETATM   26  C15 UNL     1       8.505  21.196  61.509  1.00  0.00     0.035 A 
ENDBRANCH  17  20
ENDBRANCH   2  13
BRANCH   1  27
HETATM   27  C4  UNL     1       5.846  21.270  54.988  1.00  0.00     0.254 C 
HETATM   28  N1  UNL     1       5.645  22.662  54.834  1.00  0.00    -0.355 N 
ATOM     29  H1  UNL     1       4.767  23.048  55.179  1.00  0.00     0.162 HD
HETATM   30  O2  UNL     1       6.953  20.795  54.569  1.00  0.00    -0.268 OA
BRANCH  28  31
HETATM   31  C3  UNL     1       6.583  23.583  54.228  1.00  0.00     0.149 C 
BRANCH  31  32
HETATM   32  C2  UNL     1       7.406  24.306  55.246  1.00  0.00     0.186 C 
BRANCH  32  33
HETATM   33  O1  UNL     1       8.670  23.769  55.407  1.00  0.00    -0.394 OA
HETATM   34  C1  UNL     1       9.672  24.690  55.614  1.00  0.00     0.201 C 
ENDBRANCH  32  33
ENDBRANCH  31  32
ENDBRANCH  28  31
ENDBRANCH   1  27
TORSDOF 6
ENDMDL
MODEL 4
REMARK VINA RESULT: -6.288986959      1.440      1.962
REMARK  6 active torsions:
REMARK  status: ('A' for Active; 'I' for Inactive)
REMARK    1  A    between atoms: O1_2  and  C2_3 
REMARK    2  A    between atoms: C2_3  and  C3_4 
REMARK    3  A    between atoms: C3_4  and  N1_5 
REMARK       I    between atoms: N1_5  and  C4_7 
REMARK    4  A    between atoms: C4_7  and  C5_9 
REMARK    5  A    between atoms: C6_10  and  C7_11 
REMARK    6  A    between atoms: N2_15  and  C10_16 
ROOT
HETATM    1  C5  UNL     1       3.090  18.179  56.766  1.00  0.00     0.068 A 
HETATM    2  C6  UNL     1       4.154  18.844  57.312  1.00  0.00     0.067 A 
HETATM    3  N3  UNL     1       4.586  19.663  56.304  1.00  0.00    -0.350 N 
ATOM      4  H3  UNL     1       5.375  20.305  56.385  1.00  0.00     0.166 HD
HETATM    5  C17 UNL     1       3.845  19.519  55.198  1.00  0.00     0.108 A 
HETATM    6  C18 UNL     1       2.872  18.583  55.434  1.00  0.00    -0.006 A 
HETATM    7  C19 UNL     1       1.842  18.195  54.423  1.00  0.00     0.062 C 
HETATM    8  C20 UNL     1       2.262  18.491  53.023  1.00  0.00     0.128 C 
HETATM    9  N4  UNL     1       2.965  19.750  52.907  1.00  0.00    -0.355 N 
ATOM     10  H4  UNL     1       2.768  20.359  52.114  1.00  0.00     0.162 HD
HETATM   11  C21 UNL     1       3.924  20.157  53.875  1.00  0.00     0.268 C 
HETATM   12  O5  UNL     1       4.806  21.014  53.650  1.00  0.00    -0.266 OA
ENDROOT
BRANCH   2  13
HETATM   13  C7  UNL     1       4.757  18.819  58.614  1.00  0.00     0.093 A 
HETATM   14  C8  UNL     1       4.197  19.321  59.782  1.00  0.00     0.091 A 
HETATM   15  C9  UNL     1       2.869  19.911  60.038  1.00  0.00     0.080 C 
HETATM   16  O3  UNL     1       5.083  19.203  60.781  1.00  0.00    -0.231 OA
HETATM   17  N2  UNL     1       6.177  18.664  60.359  1.00  0.00    -0.179 N 
HETATM   18  C16 UNL     1       5.997  18.423  59.034  1.00  0.00     0.287 A 
HETATM   19  O4  UNL     1       6.889  17.914  58.374  1.00  0.00    -0.265 OA
BRANCH  17  20
HETATM   20  C10 UNL     1       7.339  18.387  61.156  1.00  0.00     0.067 A 
HETATM   21  C11 UNL     1       7.694  17.097  61.498  1.00  0.00     0.035 A 
HETATM   22  C12 UNL     1       8.797  16.790  62.260  1.00  0.00     0.044 A 
HETATM   23  C13 UNL     1       9.605  17.815  62.716  1.00  0.00     0.116 A 
HETATM   24  F1  UNL     1      10.696  17.519  63.467  1.00  0.00    -0.206 F 
HETATM   25  C14 UNL     1       9.269  19.114  62.385  1.00  0.00     0.044 A 
HETATM   26  C15 UNL     1       8.145  19.410  61.612  1.00  0.00     0.035 A 
ENDBRANCH  17  20
ENDBRANCH   2  13
BRANCH   1  27
HETATM   27  C4  UNL     1       2.169  17.285  57.405  1.00  0.00     0.254 C 
HETATM   28  N1  UNL     1       2.630  16.044  57.901  1.00  0.00    -0.355 N 
ATOM     29  H1  UNL     1       3.623  15.836  57.789  1.00  0.00     0.162 HD
HETATM   30  O2  UNL     1       0.930  17.546  57.561  1.00  0.00    -0.268 OA
BRANCH  28  31
HETATM   31  C3  UNL     1       1.812  15.044  58.554  1.00  0.00     0.149 C 
BRANCH  31  32
HETATM   32  C2  UNL     1       2.536  13.747  58.733  1.00  0.00     0.186 C 
BRANCH  32  33
HETATM   33  O1  UNL     1       2.835  13.119  57.537  1.00  0.00    -0.394 OA
HETATM   34  C1  UNL     1       2.866  11.744  57.594  1.00  0.00     0.201 C 
ENDBRANCH  32  33
ENDBRANCH  31  32
ENDBRANCH  28  31
ENDBRANCH   1  27
TORSDOF 6
ENDMDL
MODEL 5
REMARK VINA RESULT: -6.279760844      2.297      4.981
REMARK  6 active torsions:
REMARK  status: ('A' for Active; 'I' for Inactive)
REMARK    1  A    between atoms: O1_2  and  C2_3 
REMARK    2  A    between atoms: C2_3  and  C3_4 
REMARK    3  A    between atoms: C3_4  and  N1_5 
REMARK       I    between atoms: N1_5  and  C4_7 
REMARK    4  A    between atoms: C4_7  and  C5_9 
REMARK    5  A    between atoms: C6_10  and  C7_11 
REMARK    6  A    between atoms: N2_15  and  C10_16 
ROOT
HETATM    1  C5  UNL     1       5.176  20.215  56.094  1.00  0.00     0.068 A 
HETATM    2  C6  UNL     1       4.916  19.649  57.311  1.00  0.00     0.067 A 
HETATM    3  N3  UNL     1       3.840  18.836  57.076  1.00  0.00    -0.350 N 
ATOM      4  H3  UNL     1       3.391  18.260  57.788  1.00  0.00     0.166 HD
HETATM    5  C17 UNL     1       3.448  18.891  55.797  1.00  0.00     0.108 A 
HETATM    6  C18 UNL     1       4.267  19.757  55.119  1.00  0.00    -0.006 A 
HETATM    7  C19 UNL     1       4.138  20.036  53.658  1.00  0.00     0.062 C 
HETATM    8  C20 UNL     1       2.777  19.733  53.126  1.00  0.00     0.128 C 
HETATM    9  N4  UNL     1       2.214  18.529  53.695  1.00  0.00    -0.355 N 
ATOM     10  H4  UNL     1       1.704  17.884  53.091  1.00  0.00     0.162 HD
HETATM   11  C21 UNL     1       2.354  18.224  55.077  1.00  0.00     0.268 C 
HETATM   12  O5  UNL     1       1.602  17.430  55.685  1.00  0.00    -0.266 OA
ENDROOT
BRANCH   2  13
HETATM   13  C7  UNL     1       5.550  19.757  58.594  1.00  0.00     0.093 A 
HETATM   14  C8  UNL     1       5.403  20.808  59.491  1.00  0.00     0.091 A 
HETATM   15  C9  UNL     1       4.540  22.004  59.441  1.00  0.00     0.080 C 
HETATM   16  O3  UNL     1       6.214  20.608  60.539  1.00  0.00    -0.231 OA
HETATM   17  N2  UNL     1       6.881  19.512  60.399  1.00  0.00    -0.179 N 
HETATM   18  C16 UNL     1       6.489  18.977  59.213  1.00  0.00     0.287 A 
HETATM   19  O4  UNL     1       6.970  17.926  58.823  1.00  0.00    -0.265 OA
BRANCH  17  20
HETATM   20  C10 UNL     1       7.840  18.987  61.329  1.00  0.00     0.067 A 
HETATM   21  C11 UNL     1       7.894  17.642  61.634  1.00  0.00     0.035 A 
HETATM   22  C12 UNL     1       8.797  17.101  62.520  1.00  0.00     0.044 A 
HETATM   23  C13 UNL     1       9.706  17.933  63.147  1.00  0.00     0.116 A 
HETATM   24  F1  UNL     1      10.599  17.405  64.021  1.00  0.00    -0.206 F 
HETATM   25  C14 UNL     1       9.669  19.283  62.856  1.00  0.00     0.044 A 
HETATM   26  C15 UNL     1       8.747  19.818  61.955  1.00  0.00     0.035 A 
ENDBRANCH  17  20
ENDBRANCH   2  13
BRANCH   1  27
HETATM   27  C4  UNL     1       6.275  21.054  55.712  1.00  0.00     0.254 C 
HETATM   28  N1  UNL     1       6.249  22.430  56.039  1.00  0.00    -0.355 N 
ATOM     29  H1  UNL     1       5.437  22.773  56.552  1.00  0.00     0.162 HD
HETATM   30  O2  UNL     1       7.300  20.627  55.085  1.00  0.00    -0.268 OA
BRANCH  28  31
HETATM   31  C3  UNL     1       7.279  23.391  55.707  1.00  0.00     0.149 C 
BRANCH  31  32
HETATM   32  C2  UNL     1       6.980  24.129  54.441  1.00  0.00     0.186 C 
BRANCH  32  33
HETATM   33  O1  UNL     1       5.638  24.419  54.282  1.00  0.00    -0.394 OA
HETATM   34  C1  UNL     1       5.261  25.676  54.697  1.00  0.00     0.201 C 
ENDBRANCH  32  33
ENDBRANCH  31  32
ENDBRANCH  28  31
ENDBRANCH   1  27
TORSDOF 6
ENDMDL
