MODEL 1
REMARK VINA RESULT: -6.422974674      0.000      0.000
REMARK  7 active torsions:
REMARK  status: ('A' for Active; 'I' for Inactive)
REMARK    1  A    between atoms: C3_3  and  C4_4 
REMARK    2  A    between atoms: C4_4  and  C5_6 
REMARK    3  A    between atoms: C5_6  and  C6_7 
REMARK    4  A    between atoms: C11_12  and  O2_13 
REMARK    5  A    between atoms: C13_17  and  N2_18 
REMARK    6  A    between atoms: N2_18  and  C14_20 
REMARK    7  A    between atoms: C16_22  and  O3_23 
ROOT
HETATM    1  C1  UNL     1       3.644  16.457  57.607  1.00  0.00     0.069 C 
HETATM    2  C2  UNL     1       3.308  17.240  58.814  1.00  0.00     0.027 A 
HETATM    3  C3  UNL     1       4.127  17.362  59.913  1.00  0.00     0.068 A 
HETATM    4  C11 UNL     1       3.443  18.166  60.790  1.00  0.00     0.114 A 
HETATM    5  C12 UNL     1       2.223  18.496  60.169  1.00  0.00     0.139 A 
HETATM    6  N1  UNL     1       2.150  17.938  58.982  1.00  0.00    -0.320 N 
HETATM    7  C13 UNL     1       1.017  18.124  58.089  1.00  0.00     0.207 C 
HETATM    8  C20 UNL     1      -0.220  18.373  58.900  1.00  0.00     0.170 C 
HETATM    9  N3  UNL     1      -0.015  19.449  59.850  1.00  0.00    -0.352 N 
ATOM     10  H3  UNL     1      -0.643  20.250  59.913  1.00  0.00     0.162 HD
HETATM   11  C21 UNL     1       1.130  19.305  60.692  1.00  0.00     0.271 C 
HETATM   12  O4  UNL     1       1.216  19.827  61.808  1.00  0.00    -0.266 OA
ENDROOT
BRANCH   7  13
HETATM   13  N2  UNL     1       1.300  19.279  57.233  1.00  0.00    -0.367 N 
ATOM     14  H2  UNL     1       1.125  20.203  57.629  1.00  0.00     0.161 HD
BRANCH  13  15
HETATM   15  C14 UNL     1       1.785  19.234  55.926  1.00  0.00     0.033 A 
HETATM   16  C15 UNL     1       1.184  18.490  54.936  1.00  0.00     0.065 A 
HETATM   17  C16 UNL     1       1.696  18.498  53.647  1.00  0.00     0.069 A 
HETATM   18  C17 UNL     1       2.808  19.252  53.360  1.00  0.00     0.060 A 
HETATM   19  C18 UNL     1       3.432  20.005  54.326  1.00  0.00     0.038 A 
HETATM   20 CL1  UNL     1       4.844  20.953  53.926  1.00  0.00    -0.084 Cl
HETATM   21  C19 UNL     1       2.909  19.985  55.598  1.00  0.00     0.053 A 
BRANCH  17  22
HETATM   22  O3  UNL     1       1.065  17.736  52.664  1.00  0.00    -0.361 OA
ATOM     23  H3  UNL     1       1.592  17.340  51.979  1.00  0.00     0.217 HD
ENDBRANCH  17  22
ENDBRANCH  13  15
ENDBRANCH   7  13
BRANCH   3  24
HETATM   24  C4  UNL     1       5.436  16.798  60.141  1.00  0.00     0.168 C 
HETATM   25  O1  UNL     1       5.469  15.641  60.685  1.00  0.00    -0.292 OA
BRANCH  24  26
HETATM   26  C5  UNL     1       6.731  17.412  59.816  1.00  0.00     0.122 C 
BRANCH  26  27
HETATM   27  C6  UNL     1       6.614  18.457  58.728  1.00  0.00    -0.055 A 
HETATM   28  C7  UNL     1       6.656  18.167  57.447  1.00  0.00    -0.015 A 
HETATM   29  C8  UNL     1       6.513  19.428  56.681  1.00  0.00     0.054 A 
HETATM   30  C9  UNL     1       6.388  20.450  57.719  1.00  0.00    -0.022 A 
HETATM   31  C10 UNL     1       6.448  19.871  58.890  1.00  0.00     0.003 A 
ENDBRANCH  26  27
ENDBRANCH  24  26
ENDBRANCH   3  24
BRANCH   4  32
HETATM   32  O2  UNL     1       3.838  18.588  62.038  1.00  0.00    -0.357 OA
ATOM     33  H2  UNL     1       3.724  18.143  62.869  1.00  0.00     0.217 HD
ENDBRANCH   4  32
TORSDOF 7
ENDMDL
MODEL 2
REMARK VINA RESULT: -6.355731179      1.502      1.879
REMARK  7 active torsions:
REMARK  status: ('A' for Active; 'I' for Inactive)
REMARK    1  A    between atoms: C3_3  and  C4_4 
REMARK    2  A    between atoms: C4_4  and  C5_6 
REMARK    3  A    between atoms: C5_6  and  C6_7 
REMARK    4  A    between atoms: C11_12  and  O2_13 
REMARK    5  A    between atoms: C13_17  and  N2_18 
REMARK    6  A    between atoms: N2_18  and  C14_20 
REMARK    7  A    between atoms: C16_22  and  O3_23 
ROOT
HETATM    1  C1  UNL     1       3.977  16.582  57.013  1.00  0.00     0.069 C 
HETATM    2  C2  UNL     1       3.462  17.207  58.249  1.00  0.00     0.027 A 
HETATM    3  C3  UNL     1       4.210  17.408  59.387  1.00  0.00     0.068 A 
HETATM    4  C11 UNL     1       3.359  18.009  60.280  1.00  0.00     0.114 A 
HETATM    5  C12 UNL     1       2.118  18.144  59.629  1.00  0.00     0.139 A 
HETATM    6  N1  UNL     1       2.188  17.661  58.410  1.00  0.00    -0.320 N 
HETATM    7  C13 UNL     1       1.068  17.689  57.483  1.00  0.00     0.207 C 
HETATM    8  C20 UNL     1      -0.218  17.646  58.254  1.00  0.00     0.170 C 
HETATM    9  N3  UNL     1      -0.250  18.677  59.275  1.00  0.00    -0.352 N 
ATOM     10  H3  UNL     1      -1.020  19.340  59.358  1.00  0.00     0.162 HD
HETATM   11  C21 UNL     1       0.876  18.696  60.154  1.00  0.00     0.271 C 
HETATM   12  O4  UNL     1       0.827  19.150  61.302  1.00  0.00    -0.266 OA
ENDROOT
BRANCH   7  13
HETATM   13  N2  UNL     1       1.150  18.931  56.709  1.00  0.00    -0.367 N 
ATOM     14  H2  UNL     1       0.622  19.730  57.059  1.00  0.00     0.161 HD
BRANCH  13  15
HETATM   15  C14 UNL     1       1.883  19.121  55.538  1.00  0.00     0.033 A 
HETATM   16  C15 UNL     1       2.894  20.051  55.437  1.00  0.00     0.065 A 
HETATM   17  C16 UNL     1       3.606  20.183  54.255  1.00  0.00     0.069 A 
HETATM   18  C17 UNL     1       3.300  19.384  53.181  1.00  0.00     0.060 A 
HETATM   19  C18 UNL     1       2.296  18.447  53.248  1.00  0.00     0.038 A 
HETATM   20 CL1  UNL     1       1.933  17.445  51.864  1.00  0.00    -0.084 Cl
HETATM   21  C19 UNL     1       1.602  18.329  54.430  1.00  0.00     0.053 A 
BRANCH  17  22
HETATM   22  O3  UNL     1       4.626  21.133  54.183  1.00  0.00    -0.361 OA
ATOM     23  H3  UNL     1       5.314  21.021  53.537  1.00  0.00     0.217 HD
ENDBRANCH  17  22
ENDBRANCH  13  15
ENDBRANCH   7  13
BRANCH   3  24
HETATM   24  C4  UNL     1       5.595  17.087  59.635  1.00  0.00     0.168 C 
HETATM   25  O1  UNL     1       5.826  16.265  60.587  1.00  0.00    -0.292 OA
BRANCH  24  26
HETATM   26  C5  UNL     1       6.765  17.604  58.913  1.00  0.00     0.122 C 
BRANCH  26  27
HETATM   27  C6  UNL     1       6.606  19.060  58.530  1.00  0.00    -0.055 A 
HETATM   28  C7  UNL     1       6.761  20.047  59.383  1.00  0.00    -0.015 A 
HETATM   29  C8  UNL     1       6.531  21.322  58.664  1.00  0.00     0.054 A 
HETATM   30  C9  UNL     1       6.225  20.898  57.299  1.00  0.00    -0.022 A 
HETATM   31  C10 UNL     1       6.274  19.593  57.242  1.00  0.00     0.003 A 
ENDBRANCH  26  27
ENDBRANCH  24  26
ENDBRANCH   3  24
BRANCH   4  32
HETATM   32  O2  UNL     1       3.630  18.414  61.566  1.00  0.00    -0.357 OA
ATOM     33  H2  UNL     1       4.473  18.632  61.946  1.00  0.00     0.217 HD
ENDBRANCH   4  32
TORSDOF 7
ENDMDL
MODEL 3
REMARK VINA RESULT: -6.232456729      2.828      6.238
REMARK  7 active torsions:
REMARK  status: ('A' for Active; 'I' for Inactive)
REMARK    1  A    between atoms: C3_3  and  C4_4 
REMARK    2  A    between atoms: C4_4  and  C5_6 
REMARK    3  A    between atoms: C5_6  and  C6_7 
REMARK    4  A    between atoms: C11_12  and  O2_13 
REMARK    5  A    between atoms: C13_17  and  N2_18 
REMARK    6  A    between atoms: N2_18  and  C14_20 
REMARK    7  A    between atoms: C16_22  and  O3_23 
ROOT
HETATM    1  C1  UNL     1       5.336  18.050  58.044  1.00  0.00     0.069 C 
HETATM    2  C2  UNL     1       4.515  18.321  56.845  1.00  0.00     0.027 A 
HETATM    3  C3  UNL     1       3.385  17.615  56.502  1.00  0.00     0.068 A 
HETATM    4  C11 UNL     1       2.937  18.188  55.338  1.00  0.00     0.114 A 
HETATM    5  C12 UNL     1       3.833  19.229  55.028  1.00  0.00     0.139 A 
HETATM    6  N1  UNL     1       4.777  19.304  55.938  1.00  0.00    -0.320 N 
HETATM    7  C13 UNL     1       5.832  20.305  55.904  1.00  0.00     0.207 C 
HETATM    8  C20 UNL     1       6.102  20.693  54.480  1.00  0.00     0.170 C 
HETATM    9  N3  UNL     1       4.880  21.077  53.801  1.00  0.00    -0.352 N 
ATOM     10  H3  UNL     1       4.785  21.962  53.303  1.00  0.00     0.162 HD
HETATM   11  C21 UNL     1       3.817  20.126  53.880  1.00  0.00     0.271 C 
HETATM   12  O4  UNL     1       2.919  20.045  53.035  1.00  0.00    -0.266 OA
ENDROOT
BRANCH   7  13
HETATM   13  N2  UNL     1       5.375  21.471  56.666  1.00  0.00    -0.367 N 
ATOM     14  H2  UNL     1       4.992  22.251  56.132  1.00  0.00     0.161 HD
BRANCH  13  15
HETATM   15  C14 UNL     1       5.416  21.612  58.053  1.00  0.00     0.033 A 
HETATM   16  C15 UNL     1       4.307  21.940  58.799  1.00  0.00     0.065 A 
HETATM   17  C16 UNL     1       4.399  22.046  60.178  1.00  0.00     0.069 A 
HETATM   18  C17 UNL     1       5.603  21.823  60.800  1.00  0.00     0.060 A 
HETATM   19  C18 UNL     1       6.730  21.495  60.085  1.00  0.00     0.038 A 
HETATM   20 CL1  UNL     1       8.246  21.218  60.908  1.00  0.00    -0.084 Cl
HETATM   21  C19 UNL     1       6.618  21.394  58.718  1.00  0.00     0.053 A 
BRANCH  17  22
HETATM   22  O3  UNL     1       3.257  22.378  60.908  1.00  0.00    -0.361 OA
ATOM     23  H3  UNL     1       2.489  22.692  60.445  1.00  0.00     0.217 HD
ENDBRANCH  17  22
ENDBRANCH  13  15
ENDBRANCH   7  13
BRANCH   3  24
HETATM   24  C4  UNL     1       2.757  16.512  57.188  1.00  0.00     0.168 C 
HETATM   25  O1  UNL     1       3.360  15.385  57.124  1.00  0.00    -0.292 OA
BRANCH  24  26
HETATM   26  C5  UNL     1       1.501  16.545  57.950  1.00  0.00     0.122 C 
BRANCH  26  27
HETATM   27  C6  UNL     1       1.338  17.830  58.733  1.00  0.00    -0.055 A 
HETATM   28  C7  UNL     1       1.872  18.021  59.918  1.00  0.00    -0.015 A 
HETATM   29  C8  UNL     1       1.505  19.382  60.378  1.00  0.00     0.054 A 
HETATM   30  C9  UNL     1       0.695  19.910  59.282  1.00  0.00    -0.022 A 
HETATM   31  C10 UNL     1       0.611  19.003  58.344  1.00  0.00     0.003 A 
ENDBRANCH  26  27
ENDBRANCH  24  26
ENDBRANCH   3  24
BRANCH   4  32
HETATM   32  O2  UNL     1       1.834  17.841  54.593  1.00  0.00    -0.357 OA
ATOM     33  H2  UNL     1       1.282  17.074  54.688  1.00  0.00     0.217 HD
ENDBRANCH   4  32
TORSDOF 7
ENDMDL
MODEL 4
REMARK VINA RESULT: -6.180985198      3.173      6.510
REMARK  7 active torsions:
REMARK  status: ('A' for Active; 'I' for Inactive)
REMARK    1  A    between atoms: C3_3  and  C4_4 
REMARK    2  A    between atoms: C4_4  and  C5_6 
REMARK    3  A    between atoms: C5_6  and  C6_7 
REMARK    4  A    between atoms: C11_12  and  O2_13 
REMARK    5  A    between atoms: C13_17  and  N2_18 
REMARK    6  A    between atoms: N2_18  and  C14_20 
REMARK    7  A    between atoms: C16_22  and  O3_23 
ROOT
HETATM    1  C1  UNL     1       5.440  17.789  58.046  1.00  0.00     0.069 C 
HETATM    2  C2  UNL     1       4.571  18.143  56.904  1.00  0.00     0.027 A 
HETATM    3  C3  UNL     1       3.399  17.493  56.590  1.00  0.00     0.068 A 
HETATM    4  C11 UNL     1       2.915  18.134  55.477  1.00  0.00     0.114 A 
HETATM    5  C12 UNL     1       3.834  19.155  55.166  1.00  0.00     0.139 A 
HETATM    6  N1  UNL     1       4.825  19.155  56.028  1.00  0.00    -0.320 N 
HETATM    7  C13 UNL     1       5.913  20.118  55.981  1.00  0.00     0.207 C 
HETATM    8  C20 UNL     1       6.126  20.560  54.564  1.00  0.00     0.170 C 
HETATM    9  N3  UNL     1       4.887  21.017  53.966  1.00  0.00    -0.352 N 
ATOM     10  H3  UNL     1       4.801  21.926  53.512  1.00  0.00     0.162 HD
HETATM   11  C21 UNL     1       3.794  20.102  54.060  1.00  0.00     0.271 C 
HETATM   12  O4  UNL     1       2.852  20.092  53.259  1.00  0.00    -0.266 OA
ENDROOT
BRANCH   7  13
HETATM   13  N2  UNL     1       5.541  21.264  56.816  1.00  0.00    -0.367 N 
ATOM     14  H2  UNL     1       4.629  21.688  56.639  1.00  0.00     0.161 HD
BRANCH  13  15
HETATM   15  C14 UNL     1       6.316  21.829  57.828  1.00  0.00     0.033 A 
HETATM   16  C15 UNL     1       6.637  23.168  57.857  1.00  0.00     0.065 A 
HETATM   17  C16 UNL     1       7.393  23.682  58.900  1.00  0.00     0.069 A 
HETATM   18  C17 UNL     1       7.821  22.850  59.906  1.00  0.00     0.060 A 
HETATM   19  C18 UNL     1       7.518  21.509  59.906  1.00  0.00     0.038 A 
HETATM   20 CL1  UNL     1       8.079  20.480  61.202  1.00  0.00    -0.084 Cl
HETATM   21  C19 UNL     1       6.767  21.018  58.864  1.00  0.00     0.053 A 
BRANCH  17  22
HETATM   22  O3  UNL     1       7.702  25.042  58.904  1.00  0.00    -0.361 OA
ATOM     23  H3  UNL     1       7.039  25.666  58.632  1.00  0.00     0.217 HD
ENDBRANCH  17  22
ENDBRANCH  13  15
ENDBRANCH   7  13
BRANCH   3  24
HETATM   24  C4  UNL     1       2.765  16.384  57.260  1.00  0.00     0.168 C 
HETATM   25  O1  UNL     1       3.377  15.262  57.207  1.00  0.00    -0.292 OA
BRANCH  24  26
HETATM   26  C5  UNL     1       1.492  16.406  57.994  1.00  0.00     0.122 C 
BRANCH  26  27
HETATM   27  C6  UNL     1       1.294  17.695  58.762  1.00  0.00    -0.055 A 
HETATM   28  C7  UNL     1       0.395  18.595  58.433  1.00  0.00    -0.015 A 
HETATM   29  C8  UNL     1       0.486  19.716  59.398  1.00  0.00     0.054 A 
HETATM   30  C9  UNL     1       1.561  19.308  60.300  1.00  0.00    -0.022 A 
HETATM   31  C10 UNL     1       2.013  18.142  59.918  1.00  0.00     0.003 A 
ENDBRANCH  26  27
ENDBRANCH  24  26
ENDBRANCH   3  24
BRANCH   4  32
HETATM   32  O2  UNL     1       1.764  17.860  54.776  1.00  0.00    -0.357 OA
ATOM     33  H2  UNL     1       0.896  17.686  55.121  1.00  0.00     0.217 HD
ENDBRANCH   4  32
TORSDOF 7
ENDMDL
MODEL 5
REMARK VINA RESULT: -6.121927917      3.096      6.366
REMARK  7 active torsions:
REMARK  status: ('A' for Active; 'I' for Inactive)
REMARK    1  A    between atoms: C3_3  and  C4_4 
REMARK    2  A    between atoms: C4_4  and  C5_6 
REMARK    3  A    between atoms: C5_6  and  C6_7 
REMARK    4  A    between atoms: C11_12  and  O2_13 
REMARK    5  A    between atoms: C13_17  and  N2_18 
REMARK    6  A    between atoms: N2_18  and  C14_20 
REMARK    7  A    between atoms: C16_22  and  O3_23 
ROOT
HETATM    1  C1  UNL     1       5.362  18.025  58.008  1.00  0.00     0.069 C 
HETATM    2  C2  UNL     1       4.523  18.302  56.824  1.00  0.00     0.027 A 
HETATM    3  C3  UNL     1       3.386  17.600  56.497  1.00  0.00     0.068 A 
HETATM    4  C11 UNL     1       2.920  18.178  55.342  1.00  0.00     0.114 A 
HETATM    5  C12 UNL     1       3.814  19.218  55.021  1.00  0.00     0.139 A 
HETATM    6  N1  UNL     1       4.773  19.287  55.916  1.00  0.00    -0.320 N 
HETATM    7  C13 UNL     1       5.829  20.286  55.867  1.00  0.00     0.207 C 
HETATM    8  C20 UNL     1       6.078  20.678  54.441  1.00  0.00     0.170 C 
HETATM    9  N3  UNL     1       4.846  21.067  53.783  1.00  0.00    -0.352 N 
ATOM     10  H3  UNL     1       4.746  21.954  53.289  1.00  0.00     0.162 HD
HETATM   11  C21 UNL     1       3.782  20.119  53.876  1.00  0.00     0.271 C 
HETATM   12  O4  UNL     1       2.870  20.043  53.046  1.00  0.00    -0.266 OA
ENDROOT
BRANCH   7  13
HETATM   13  N2  UNL     1       5.389  21.450  56.641  1.00  0.00    -0.367 N 
ATOM     14  H2  UNL     1       4.924  22.198  56.126  1.00  0.00     0.161 HD
BRANCH  13  15
HETATM   15  C14 UNL     1       5.547  21.631  58.015  1.00  0.00     0.033 A 
HETATM   16  C15 UNL     1       6.769  21.530  58.642  1.00  0.00     0.065 A 
HETATM   17  C16 UNL     1       6.872  21.742  60.008  1.00  0.00     0.069 A 
HETATM   18  C17 UNL     1       5.750  22.052  60.737  1.00  0.00     0.060 A 
HETATM   19  C18 UNL     1       4.515  22.159  60.142  1.00  0.00     0.038 A 
HETATM   20 CL1  UNL     1       3.108  22.555  61.099  1.00  0.00    -0.084 Cl
HETATM   21  C19 UNL     1       4.433  21.946  58.786  1.00  0.00     0.053 A 
BRANCH  17  22
HETATM   22  O3  UNL     1       8.123  21.634  60.615  1.00  0.00    -0.361 OA
ATOM     23  H3  UNL     1       8.307  20.879  61.162  1.00  0.00     0.217 HD
ENDBRANCH  17  22
ENDBRANCH  13  15
ENDBRANCH   7  13
BRANCH   3  24
HETATM   24  C4  UNL     1       2.766  16.496  57.189  1.00  0.00     0.168 C 
HETATM   25  O1  UNL     1       3.363  15.368  57.109  1.00  0.00    -0.292 OA
BRANCH  24  26
HETATM   26  C5  UNL     1       1.524  16.531  57.974  1.00  0.00     0.122 C 
BRANCH  26  27
HETATM   27  C6  UNL     1       1.368  17.824  58.746  1.00  0.00    -0.055 A 
HETATM   28  C7  UNL     1       1.949  18.042  59.904  1.00  0.00    -0.015 A 
HETATM   29  C8  UNL     1       1.575  19.402  60.361  1.00  0.00     0.054 A 
HETATM   30  C9  UNL     1       0.707  19.898  59.295  1.00  0.00    -0.022 A 
HETATM   31  C10 UNL     1       0.601  18.976  58.374  1.00  0.00     0.003 A 
ENDBRANCH  26  27
ENDBRANCH  24  26
ENDBRANCH   3  24
BRANCH   4  32
HETATM   32  O2  UNL     1       1.805  17.836  54.614  1.00  0.00    -0.357 OA
ATOM     33  H2  UNL     1       0.979  18.303  54.555  1.00  0.00     0.217 HD
ENDBRANCH   4  32
TORSDOF 7
ENDMDL
