MODEL 1
REMARK VINA RESULT: -7.060078854      0.000      0.000
REMARK  8 active torsions:
REMARK  status: ('A' for Active; 'I' for Inactive)
REMARK    1  A    between atoms: C5_6  and  C6_7 
REMARK    2  A    between atoms: C7_10  and  C8_11 
REMARK    3  A    between atoms: C8_11  and  O2_12 
REMARK    4  A    between atoms: C8_11  and  N2_14 
REMARK    5  A    between atoms: N2_14  and  C9_16 
REMARK    6  A    between atoms: C19_27  and  C20_28 
REMARK    7  A    between atoms: C20_28  and  O3_29 
REMARK    8  A    between atoms: C21_33  and  O4_34 
ROOT
HETATM    1  C6  UNL     1       1.463  19.091  56.630  1.00  0.00     0.122 A 
HETATM    2  N1  UNL     1       2.697  19.585  56.513  1.00  0.00    -0.337 N 
ATOM      3  H1  UNL     1       3.284  19.887  57.291  1.00  0.00     0.168 HD
HETATM    4  C7  UNL     1       3.062  19.626  55.185  1.00  0.00     0.110 A 
HETATM    5  C19 UNL     1       1.991  19.129  54.501  1.00  0.00     0.066 A 
HETATM    6  N3  UNL     1       1.018  18.808  55.409  1.00  0.00    -0.341 N 
ATOM      7  H3  UNL     1       0.103  18.417  55.185  1.00  0.00     0.167 HD
ENDROOT
BRANCH   4   8
HETATM    8  C8  UNL     1       4.342  20.132  54.718  1.00  0.00     0.170 C 
BRANCH   8   9
HETATM    9  O2  UNL     1       4.297  20.691  53.544  1.00  0.00    -0.344 OA
ATOM     10  H2  UNL     1       4.476  20.098  52.823  1.00  0.00     0.219 HD
ENDBRANCH   8   9
BRANCH   8  11
HETATM   11  N2  UNL     1       5.576  20.090  55.354  1.00  0.00    -0.334 N 
ATOM     12  H2  UNL     1       6.276  19.501  54.903  1.00  0.00     0.168 HD
BRANCH  11  13
HETATM   13  C9  UNL     1       6.009  20.744  56.535  1.00  0.00     0.046 A 
HETATM   14  C10 UNL     1       6.086  22.111  56.586  1.00  0.00     0.054 A 
HETATM   15  C11 UNL     1       6.496  22.726  57.776  1.00  0.00     0.037 A 
HETATM   16 CL1  UNL     1       6.595  24.477  57.833  1.00  0.00    -0.084 Cl
HETATM   17  C12 UNL     1       6.814  21.986  58.879  1.00  0.00     0.036 A 
HETATM   18  C13 UNL     1       6.726  20.602  58.802  1.00  0.00    -0.022 A 
HETATM   19  C14 UNL     1       7.059  19.839  59.928  1.00  0.00     0.012 A 
HETATM   20  C18 UNL     1       6.329  19.967  57.651  1.00  0.00     0.001 A 
HETATM   21  C15 UNL     1       7.002  18.463  59.921  1.00  0.00     0.001 A 
HETATM   22  C16 UNL     1       6.606  17.825  58.771  1.00  0.00     0.001 A 
HETATM   23  C17 UNL     1       6.274  18.585  57.645  1.00  0.00     0.014 A 
ENDBRANCH  11  13
ENDBRANCH   8  11
ENDBRANCH   4   8
BRANCH   5  24
HETATM   24  C20 UNL     1       1.821  18.929  53.033  1.00  0.00     0.223 C 
BRANCH  24  25
HETATM   25  O3  UNL     1       1.521  20.179  52.437  1.00  0.00    -0.395 OA
ATOM     26  H3  UNL     1       0.720  20.515  52.822  1.00  0.00     0.209 HD
ENDBRANCH  24  25
ENDBRANCH   5  24
BRANCH   1  27
HETATM   27  C5  UNL     1       0.743  18.887  57.904  1.00  0.00     0.083 C 
HETATM   28  C4  UNL     1       0.666  19.790  59.032  1.00  0.00     0.166 C 
HETATM   29  C3  UNL     1      -0.437  19.262  59.876  1.00  0.00     0.095 C 
HETATM   30  O1  UNL     1       1.412  20.791  59.193  1.00  0.00    -0.292 OA
HETATM   31  C2  UNL     1      -0.470  17.804  59.508  1.00  0.00     0.046 C 
HETATM   32  C1  UNL     1      -1.878  17.251  59.534  1.00  0.00     0.017 C 
HETATM   33  C21 UNL     1       0.107  17.761  58.152  1.00  0.00     0.065 C 
BRANCH  33  34
HETATM   34  O4  UNL     1      -0.028  16.657  57.278  1.00  0.00    -0.363 OA
ATOM     35  H4  UNL     1      -0.794  16.505  56.736  1.00  0.00     0.217 HD
ENDBRANCH  33  34
ENDBRANCH   1  27
TORSDOF 8
ENDMDL
MODEL 2
REMARK VINA RESULT: -6.914417912      3.491      6.196
REMARK  8 active torsions:
REMARK  status: ('A' for Active; 'I' for Inactive)
REMARK    1  A    between atoms: C5_6  and  C6_7 
REMARK    2  A    between atoms: C7_10  and  C8_11 
REMARK    3  A    between atoms: C8_11  and  O2_12 
REMARK    4  A    between atoms: C8_11  and  N2_14 
REMARK    5  A    between atoms: N2_14  and  C9_16 
REMARK    6  A    between atoms: C19_27  and  C20_28 
REMARK    7  A    between atoms: C20_28  and  O3_29 
REMARK    8  A    between atoms: C21_33  and  O4_34 
ROOT
HETATM    1  C6  UNL     1       4.810  20.657  55.032  1.00  0.00     0.122 A 
HETATM    2  N1  UNL     1       4.523  19.638  55.844  1.00  0.00    -0.337 N 
ATOM      3  H1  UNL     1       4.959  19.470  56.751  1.00  0.00     0.168 HD
HETATM    4  C7  UNL     1       3.550  18.844  55.275  1.00  0.00     0.110 A 
HETATM    5  C19 UNL     1       3.258  19.434  54.080  1.00  0.00     0.066 A 
HETATM    6  N3  UNL     1       4.045  20.546  53.949  1.00  0.00    -0.341 N 
ATOM      7  H3  UNL     1       4.045  21.185  53.153  1.00  0.00     0.167 HD
ENDROOT
BRANCH   4   8
HETATM    8  C8  UNL     1       3.030  17.639  55.897  1.00  0.00     0.170 C 
BRANCH   8   9
HETATM    9  O2  UNL     1       1.732  17.551  55.883  1.00  0.00    -0.344 OA
ATOM     10  H2  UNL     1       1.285  18.365  56.084  1.00  0.00     0.219 HD
ENDBRANCH   8   9
BRANCH   8  11
HETATM   11  N2  UNL     1       3.730  16.597  56.492  1.00  0.00    -0.334 N 
ATOM     12  H2  UNL     1       4.337  16.069  55.864  1.00  0.00     0.168 HD
BRANCH  11  13
HETATM   13  C9  UNL     1       3.729  16.157  57.840  1.00  0.00     0.046 A 
HETATM   14  C10 UNL     1       2.777  15.279  58.284  1.00  0.00     0.054 A 
HETATM   15  C11 UNL     1       2.818  14.846  59.616  1.00  0.00     0.037 A 
HETATM   16 CL1  UNL     1       1.595  13.722  60.180  1.00  0.00    -0.084 Cl
HETATM   17  C12 UNL     1       3.791  15.284  60.469  1.00  0.00     0.036 A 
HETATM   18  C13 UNL     1       4.745  16.174  59.994  1.00  0.00    -0.022 A 
HETATM   19  C14 UNL     1       5.739  16.632  60.868  1.00  0.00     0.012 A 
HETATM   20  C18 UNL     1       4.733  16.619  58.695  1.00  0.00     0.001 A 
HETATM   21  C15 UNL     1       6.711  17.520  60.466  1.00  0.00     0.001 A 
HETATM   22  C16 UNL     1       6.702  17.967  59.168  1.00  0.00     0.001 A 
HETATM   23  C17 UNL     1       5.710  17.511  58.294  1.00  0.00     0.014 A 
ENDBRANCH  11  13
ENDBRANCH   8  11
ENDBRANCH   4   8
BRANCH   5  24
HETATM   24  C20 UNL     1       2.272  19.019  53.040  1.00  0.00     0.223 C 
BRANCH  24  25
HETATM   25  O3  UNL     1       1.545  20.160  52.623  1.00  0.00    -0.395 OA
ATOM     26  H3  UNL     1       0.777  20.250  53.175  1.00  0.00     0.209 HD
ENDBRANCH  24  25
ENDBRANCH   5  24
BRANCH   1  27
HETATM   27  C5  UNL     1       5.795  21.721  55.314  1.00  0.00     0.083 C 
HETATM   28  C4  UNL     1       6.300  22.725  54.404  1.00  0.00     0.166 C 
HETATM   29  C3  UNL     1       6.978  23.726  55.267  1.00  0.00     0.095 C 
HETATM   30  O1  UNL     1       6.155  22.688  53.154  1.00  0.00    -0.292 OA
HETATM   31  C2  UNL     1       7.348  22.922  56.483  1.00  0.00     0.046 C 
HETATM   32  C1  UNL     1       7.269  23.749  57.748  1.00  0.00     0.017 C 
HETATM   33  C21 UNL     1       6.372  21.816  56.494  1.00  0.00     0.065 C 
BRANCH  33  34
HETATM   34  O4  UNL     1       6.123  21.004  57.626  1.00  0.00    -0.363 OA
ATOM     35  H4  UNL     1       5.260  20.882  58.006  1.00  0.00     0.217 HD
ENDBRANCH  33  34
ENDBRANCH   1  27
TORSDOF 8
ENDMDL
MODEL 3
REMARK VINA RESULT: -6.831833603      3.000      6.046
REMARK  8 active torsions:
REMARK  status: ('A' for Active; 'I' for Inactive)
REMARK    1  A    between atoms: C5_6  and  C6_7 
REMARK    2  A    between atoms: C7_10  and  C8_11 
REMARK    3  A    between atoms: C8_11  and  O2_12 
REMARK    4  A    between atoms: C8_11  and  N2_14 
REMARK    5  A    between atoms: N2_14  and  C9_16 
REMARK    6  A    between atoms: C19_27  and  C20_28 
REMARK    7  A    between atoms: C20_28  and  O3_29 
REMARK    8  A    between atoms: C21_33  and  O4_34 
ROOT
HETATM    1  C6  UNL     1       4.869  20.639  55.007  1.00  0.00     0.122 A 
HETATM    2  N1  UNL     1       4.544  19.636  55.825  1.00  0.00    -0.337 N 
ATOM      3  H1  UNL     1       4.959  19.470  56.743  1.00  0.00     0.168 HD
HETATM    4  C7  UNL     1       3.567  18.855  55.247  1.00  0.00     0.110 A 
HETATM    5  C19 UNL     1       3.310  19.436  54.039  1.00  0.00     0.066 A 
HETATM    6  N3  UNL     1       4.122  20.530  53.911  1.00  0.00    -0.341 N 
ATOM      7  H3  UNL     1       4.151  21.159  53.108  1.00  0.00     0.167 HD
ENDROOT
BRANCH   4   8
HETATM    8  C8  UNL     1       3.009  17.669  55.874  1.00  0.00     0.170 C 
BRANCH   8   9
HETATM    9  O2  UNL     1       1.711  17.595  55.812  1.00  0.00    -0.344 OA
ATOM     10  H2  UNL     1       1.362  16.731  55.995  1.00  0.00     0.219 HD
ENDBRANCH   8   9
BRANCH   8  11
HETATM   11  N2  UNL     1       3.673  16.632  56.515  1.00  0.00    -0.334 N 
ATOM     12  H2  UNL     1       3.811  15.792  55.953  1.00  0.00     0.168 HD
BRANCH  11  13
HETATM   13  C9  UNL     1       4.190  16.566  57.834  1.00  0.00     0.046 A 
HETATM   14  C10 UNL     1       5.212  17.389  58.224  1.00  0.00     0.054 A 
HETATM   15  C11 UNL     1       5.683  17.314  59.541  1.00  0.00     0.037 A 
HETATM   16 CL1  UNL     1       6.994  18.370  60.033  1.00  0.00    -0.084 Cl
HETATM   17  C12 UNL     1       5.137  16.437  60.435  1.00  0.00     0.036 A 
HETATM   18  C13 UNL     1       4.101  15.613  60.016  1.00  0.00    -0.022 A 
HETATM   19  C14 UNL     1       3.545  14.708  60.927  1.00  0.00     0.012 A 
HETATM   20  C18 UNL     1       3.616  15.661  58.732  1.00  0.00     0.001 A 
HETATM   21  C15 UNL     1       2.520  13.857  60.578  1.00  0.00     0.001 A 
HETATM   22  C16 UNL     1       2.033  13.901  59.294  1.00  0.00     0.001 A 
HETATM   23  C17 UNL     1       2.588  14.805  58.382  1.00  0.00     0.014 A 
ENDBRANCH  11  13
ENDBRANCH   8  11
ENDBRANCH   4   8
BRANCH   5  24
HETATM   24  C20 UNL     1       2.336  19.029  52.986  1.00  0.00     0.223 C 
BRANCH  24  25
HETATM   25  O3  UNL     1       1.547  20.153  52.638  1.00  0.00    -0.395 OA
ATOM     26  H3  UNL     1       0.669  19.856  52.431  1.00  0.00     0.209 HD
ENDBRANCH  24  25
ENDBRANCH   5  24
BRANCH   1  27
HETATM   27  C5  UNL     1       5.870  21.685  55.296  1.00  0.00     0.083 C 
HETATM   28  C4  UNL     1       6.324  22.744  54.420  1.00  0.00     0.166 C 
HETATM   29  C3  UNL     1       7.053  23.692  55.302  1.00  0.00     0.095 C 
HETATM   30  O1  UNL     1       6.107  22.781  53.181  1.00  0.00    -0.292 OA
HETATM   31  C2  UNL     1       7.490  22.816  56.444  1.00  0.00     0.046 C 
HETATM   32  C1  UNL     1       7.486  23.565  57.759  1.00  0.00     0.017 C 
HETATM   33  C21 UNL     1       6.515  21.710  56.445  1.00  0.00     0.065 C 
BRANCH  33  34
HETATM   34  O4  UNL     1       6.329  20.830  57.537  1.00  0.00    -0.363 OA
ATOM     35  H4  UNL     1       7.008  20.628  58.171  1.00  0.00     0.217 HD
ENDBRANCH  33  34
ENDBRANCH   1  27
TORSDOF 8
ENDMDL
MODEL 4
REMARK VINA RESULT: -6.612891994      1.574      2.487
REMARK  8 active torsions:
REMARK  status: ('A' for Active; 'I' for Inactive)
REMARK    1  A    between atoms: C5_6  and  C6_7 
REMARK    2  A    between atoms: C7_10  and  C8_11 
REMARK    3  A    between atoms: C8_11  and  O2_12 
REMARK    4  A    between atoms: C8_11  and  N2_14 
REMARK    5  A    between atoms: N2_14  and  C9_16 
REMARK    6  A    between atoms: C19_27  and  C20_28 
REMARK    7  A    between atoms: C20_28  and  O3_29 
REMARK    8  A    between atoms: C21_33  and  O4_34 
ROOT
HETATM    1  C6  UNL     1       1.369  19.001  56.875  1.00  0.00     0.122 A 
HETATM    2  N1  UNL     1       2.601  19.514  56.887  1.00  0.00    -0.337 N 
ATOM      3  H1  UNL     1       3.103  19.815  57.722  1.00  0.00     0.168 HD
HETATM    4  C7  UNL     1       3.096  19.577  55.601  1.00  0.00     0.110 A 
HETATM    5  C19 UNL     1       2.105  19.074  54.810  1.00  0.00     0.066 A 
HETATM    6  N3  UNL     1       1.052  18.727  55.613  1.00  0.00    -0.341 N 
ATOM      7  H3  UNL     1       0.170  18.325  55.295  1.00  0.00     0.167 HD
ENDROOT
BRANCH   4   8
HETATM    8  C8  UNL     1       4.407  20.108  55.269  1.00  0.00     0.170 C 
BRANCH   8   9
HETATM    9  O2  UNL     1       4.394  21.014  54.335  1.00  0.00    -0.344 OA
ATOM     10  H2  UNL     1       4.879  21.802  54.551  1.00  0.00     0.219 HD
ENDBRANCH   8   9
BRANCH   8  11
HETATM   11  N2  UNL     1       5.641  19.773  55.811  1.00  0.00    -0.334 N 
ATOM     12  H2  UNL     1       6.370  19.560  55.130  1.00  0.00     0.168 HD
BRANCH  11  13
HETATM   13  C9  UNL     1       6.041  19.684  57.169  1.00  0.00     0.046 A 
HETATM   14  C10 UNL     1       5.984  18.488  57.833  1.00  0.00     0.054 A 
HETATM   15  C11 UNL     1       6.409  18.429  59.167  1.00  0.00     0.037 A 
HETATM   16 CL1  UNL     1       6.332  16.894  60.013  1.00  0.00    -0.084 Cl
HETATM   17  C12 UNL     1       6.877  19.541  59.807  1.00  0.00     0.036 A 
HETATM   18  C13 UNL     1       6.925  20.742  59.111  1.00  0.00    -0.022 A 
HETATM   19  C14 UNL     1       7.397  21.886  59.766  1.00  0.00     0.012 A 
HETATM   20  C18 UNL     1       6.516  20.834  57.803  1.00  0.00     0.001 A 
HETATM   21  C15 UNL     1       7.466  23.110  59.139  1.00  0.00     0.001 A 
HETATM   22  C16 UNL     1       7.057  23.206  57.831  1.00  0.00     0.001 A 
HETATM   23  C17 UNL     1       6.585  22.065  57.175  1.00  0.00     0.014 A 
ENDBRANCH  11  13
ENDBRANCH   8  11
ENDBRANCH   4   8
BRANCH   5  24
HETATM   24  C20 UNL     1       2.083  18.890  53.330  1.00  0.00     0.223 C 
BRANCH  24  25
HETATM   25  O3  UNL     1       1.815  20.141  52.721  1.00  0.00    -0.395 OA
ATOM     26  H3  UNL     1       1.901  20.046  51.780  1.00  0.00     0.209 HD
ENDBRANCH  24  25
ENDBRANCH   5  24
BRANCH   1  27
HETATM   27  C5  UNL     1       0.531  18.770  58.069  1.00  0.00     0.083 C 
HETATM   28  C4  UNL     1       0.314  19.665  59.186  1.00  0.00     0.166 C 
HETATM   29  C3  UNL     1      -0.853  19.102  59.913  1.00  0.00     0.095 C 
HETATM   30  O1  UNL     1       1.011  20.686  59.423  1.00  0.00    -0.292 OA
HETATM   31  C2  UNL     1      -0.807  17.645  59.540  1.00  0.00     0.046 C 
HETATM   32  C1  UNL     1      -2.194  17.052  59.422  1.00  0.00     0.017 C 
HETATM   33  C21 UNL     1      -0.094  17.625  58.249  1.00  0.00     0.065 C 
BRANCH  33  34
HETATM   34  O4  UNL     1      -0.108  16.522  57.363  1.00  0.00    -0.363 OA
ATOM     35  H4  UNL     1      -0.135  15.616  57.652  1.00  0.00     0.217 HD
ENDBRANCH  33  34
ENDBRANCH   1  27
TORSDOF 8
ENDMDL
MODEL 5
REMARK VINA RESULT: -6.592592171      1.642      2.904
REMARK  8 active torsions:
REMARK  status: ('A' for Active; 'I' for Inactive)
REMARK    1  A    between atoms: C5_6  and  C6_7 
REMARK    2  A    between atoms: C7_10  and  C8_11 
REMARK    3  A    between atoms: C8_11  and  O2_12 
REMARK    4  A    between atoms: C8_11  and  N2_14 
REMARK    5  A    between atoms: N2_14  and  C9_16 
REMARK    6  A    between atoms: C19_27  and  C20_28 
REMARK    7  A    between atoms: C20_28  and  O3_29 
REMARK    8  A    between atoms: C21_33  and  O4_34 
ROOT
HETATM    1  C6  UNL     1       1.172  18.830  56.211  1.00  0.00     0.122 A 
HETATM    2  N1  UNL     1       2.280  19.489  55.869  1.00  0.00    -0.337 N 
ATOM      3  H1  UNL     1       2.869  20.019  56.512  1.00  0.00     0.168 HD
HETATM    4  C7  UNL     1       2.513  19.349  54.518  1.00  0.00     0.110 A 
HETATM    5  C19 UNL     1       1.493  18.568  54.057  1.00  0.00     0.066 A 
HETATM    6  N3  UNL     1       0.680  18.261  55.113  1.00  0.00    -0.341 N 
ATOM      7  H3  UNL     1      -0.166  17.691  55.067  1.00  0.00     0.167 HD
ENDROOT
BRANCH   4   8
HETATM    8  C8  UNL     1       3.633  19.964  53.826  1.00  0.00     0.170 C 
BRANCH   8   9
HETATM    9  O2  UNL     1       3.310  20.555  52.712  1.00  0.00    -0.344 OA
ATOM     10  H2  UNL     1       2.662  21.244  52.811  1.00  0.00     0.219 HD
ENDBRANCH   8   9
BRANCH   8  11
HETATM   11  N2  UNL     1       4.970  19.997  54.197  1.00  0.00    -0.334 N 
ATOM     12  H2  UNL     1       5.617  19.588  53.523  1.00  0.00     0.168 HD
BRANCH  11  13
HETATM   13  C9  UNL     1       5.572  20.513  55.373  1.00  0.00     0.046 A 
HETATM   14  C10 UNL     1       5.592  19.776  56.526  1.00  0.00     0.054 A 
HETATM   15  C11 UNL     1       6.216  20.306  57.663  1.00  0.00     0.037 A 
HETATM   16 CL1  UNL     1       6.236  19.358  59.138  1.00  0.00    -0.084 Cl
HETATM   17  C12 UNL     1       6.803  21.539  57.634  1.00  0.00     0.036 A 
HETATM   18  C13 UNL     1       6.770  22.267  56.452  1.00  0.00    -0.022 A 
HETATM   19  C14 UNL     1       7.363  23.535  56.420  1.00  0.00     0.012 A 
HETATM   20  C18 UNL     1       6.166  21.777  55.320  1.00  0.00     0.001 A 
HETATM   21  C15 UNL     1       7.362  24.314  55.285  1.00  0.00     0.001 A 
HETATM   22  C16 UNL     1       6.759  23.827  54.151  1.00  0.00     0.001 A 
HETATM   23  C17 UNL     1       6.165  22.561  54.180  1.00  0.00     0.014 A 
ENDBRANCH  11  13
ENDBRANCH   8  11
ENDBRANCH   4   8
BRANCH   5  24
HETATM   24  C20 UNL     1       1.233  18.081  52.671  1.00  0.00     0.223 C 
BRANCH  24  25
HETATM   25  O3  UNL     1       2.457  17.649  52.104  1.00  0.00    -0.395 OA
ATOM     26  H3  UNL     1       2.664  16.788  52.446  1.00  0.00     0.209 HD
ENDBRANCH  24  25
ENDBRANCH   5  24
BRANCH   1  27
HETATM   27  C5  UNL     1       0.617  18.744  57.577  1.00  0.00     0.083 C 
HETATM   28  C4  UNL     1       0.769  19.696  58.656  1.00  0.00     0.166 C 
HETATM   29  C3  UNL     1      -0.248  19.305  59.665  1.00  0.00     0.095 C 
HETATM   30  O1  UNL     1       1.611  20.632  58.664  1.00  0.00    -0.292 OA
HETATM   31  C2  UNL     1      -0.453  17.842  59.382  1.00  0.00     0.046 C 
HETATM   32  C1  UNL     1      -1.886  17.419  59.623  1.00  0.00     0.017 C 
HETATM   33  C21 UNL     1      -0.071  17.691  57.966  1.00  0.00     0.065 C 
BRANCH  33  34
HETATM   34  O4  UNL     1      -0.415  16.568  57.177  1.00  0.00    -0.363 OA
ATOM     35  H4  UNL     1      -1.181  16.535  56.615  1.00  0.00     0.217 HD
ENDBRANCH  33  34
ENDBRANCH   1  27
TORSDOF 8
ENDMDL
