MODEL 1
REMARK VINA RESULT: -6.750606151      0.000      0.000
REMARK  6 active torsions:
REMARK  status: ('A' for Active; 'I' for Inactive)
REMARK    1  A    between atoms: C3_6  and  C4_7 
REMARK    2  A    between atoms: C8_12  and  C9_13 
REMARK    3  A    between atoms: C9_13  and  C10_14 
REMARK    4  A    between atoms: C10_14  and  O3_15 
REMARK    5  A    between atoms: C12_20  and  C13_21 
REMARK    6  A    between atoms: C13_21  and  C14_23 
ROOT
HETATM    1  O1  UNL     1       3.586  19.122  59.287  1.00  0.00    -0.266 OA
HETATM    2  C1  UNL     1       2.957  18.510  58.522  1.00  0.00     0.272 C 
HETATM    3  N1  UNL     1       1.527  18.481  58.812  1.00  0.00    -0.323 N 
ATOM      4  H1  UNL     1       1.166  18.977  59.627  1.00  0.00     0.169 HD
HETATM    5  C2  UNL     1       0.619  17.757  57.954  1.00  0.00     0.037 C 
HETATM    6  C3  UNL     1      -0.456  17.204  58.434  1.00  0.00     0.064 C 
HETATM    7  C8  UNL     1       1.067  17.716  56.523  1.00  0.00     0.134 C 
HETATM    8  N2  UNL     1       2.393  17.130  56.590  1.00  0.00    -0.375 N 
ATOM      9  H2  UNL     1       2.601  16.260  56.101  1.00  0.00     0.160 HD
HETATM   10  C11 UNL     1       3.409  17.797  57.359  1.00  0.00     0.101 C 
HETATM   11  C12 UNL     1       4.640  17.699  56.972  1.00  0.00     0.090 C 
ENDROOT
BRANCH  11  12
HETATM   12  C13 UNL     1       5.836  18.227  57.539  1.00  0.00     0.188 C 
HETATM   13  O4  UNL     1       6.710  17.603  58.132  1.00  0.00    -0.287 OA
BRANCH  12  14
HETATM   14  C14 UNL     1       6.127  19.703  57.436  1.00  0.00     0.065 A 
HETATM   15  C15 UNL     1       6.600  20.528  58.428  1.00  0.00     0.119 A 
HETATM   16 CL1  UNL     1       6.976  20.008  60.077  1.00  0.00    -0.063 Cl
HETATM   17  N3  UNL     1       6.706  21.741  57.903  1.00  0.00    -0.345 N 
HETATM   18  C16 UNL     1       6.314  21.717  56.598  1.00  0.00     0.044 A 
ATOM     19  H3  UNL     1       7.033  22.569  58.401  1.00  0.00     0.167 HD
HETATM   20  C17 UNL     1       6.229  22.677  55.611  1.00  0.00     0.030 A 
HETATM   21  C21 UNL     1       5.941  20.424  56.285  1.00  0.00     0.008 A 
HETATM   22  C18 UNL     1       5.785  22.388  54.328  1.00  0.00     0.002 A 
HETATM   23  C19 UNL     1       5.413  21.095  54.013  1.00  0.00     0.001 A 
HETATM   24  C20 UNL     1       5.501  20.140  55.003  1.00  0.00     0.015 A 
ENDBRANCH  12  14
ENDBRANCH  11  12
BRANCH   7  25
HETATM   25  C9  UNL     1       1.247  19.089  55.927  1.00  0.00     0.057 C 
BRANCH  25  26
HETATM   26  C10 UNL     1       1.719  19.142  54.521  1.00  0.00     0.166 C 
BRANCH  26  27
HETATM   27  O3  UNL     1       1.483  17.971  53.818  1.00  0.00    -0.401 OA
ATOM     28  H3  UNL     1       0.889  18.084  53.086  1.00  0.00     0.209 HD
ENDBRANCH  26  27
ENDBRANCH  25  26
ENDBRANCH   7  25
BRANCH   6  29
HETATM   29  C4  UNL     1      -1.468  16.445  57.742  1.00  0.00     0.076 A 
HETATM   30  C5  UNL     1      -2.350  15.541  58.349  1.00  0.00     0.039 A 
HETATM   31  C6  UNL     1      -3.154  15.026  57.359  1.00  0.00     0.027 A 
HETATM   32  C7  UNL     1      -2.730  15.633  56.199  1.00  0.00     0.142 A 
HETATM   33  O2  UNL     1      -1.744  16.452  56.482  1.00  0.00    -0.323 OA
ENDBRANCH   6  29
TORSDOF 6
ENDMDL
MODEL 2
REMARK VINA RESULT: -6.650675165      3.803      6.028
REMARK  6 active torsions:
REMARK  status: ('A' for Active; 'I' for Inactive)
REMARK    1  A    between atoms: C3_6  and  C4_7 
REMARK    2  A    between atoms: C8_12  and  C9_13 
REMARK    3  A    between atoms: C9_13  and  C10_14 
REMARK    4  A    between atoms: C10_14  and  O3_15 
REMARK    5  A    between atoms: C12_20  and  C13_21 
REMARK    6  A    between atoms: C13_21  and  C14_23 
ROOT
HETATM    1  O1  UNL     1       2.085  18.859  58.619  1.00  0.00    -0.266 OA
HETATM    2  C1  UNL     1       2.731  17.903  58.771  1.00  0.00     0.272 C 
HETATM    3  N1  UNL     1       3.189  17.704  60.141  1.00  0.00    -0.323 N 
ATOM      4  H1  UNL     1       2.931  18.377  60.864  1.00  0.00     0.169 HD
HETATM    5  C2  UNL     1       4.005  16.563  60.485  1.00  0.00     0.037 C 
HETATM    6  C3  UNL     1       4.892  16.636  61.432  1.00  0.00     0.064 C 
HETATM    7  C8  UNL     1       3.720  15.359  59.637  1.00  0.00     0.134 C 
HETATM    8  N2  UNL     1       3.924  15.832  58.280  1.00  0.00    -0.375 N 
ATOM      9  H2  UNL     1       4.626  15.399  57.680  1.00  0.00     0.160 HD
HETATM   10  C11 UNL     1       3.121  16.922  57.796  1.00  0.00     0.101 C 
HETATM   11  C12 UNL     1       2.824  16.958  56.537  1.00  0.00     0.090 C 
ENDROOT
BRANCH  11  12
HETATM   12  C13 UNL     1       2.075  17.910  55.786  1.00  0.00     0.188 C 
HETATM   13  O4  UNL     1       0.865  18.105  55.838  1.00  0.00    -0.287 OA
BRANCH  12  14
HETATM   14  C14 UNL     1       2.778  18.810  54.802  1.00  0.00     0.065 A 
HETATM   15  C15 UNL     1       2.507  18.950  53.462  1.00  0.00     0.119 A 
HETATM   16 CL1  UNL     1       1.236  18.076  52.595  1.00  0.00    -0.063 Cl
HETATM   17  N3  UNL     1       3.366  19.841  52.985  1.00  0.00    -0.345 N 
HETATM   18  C16 UNL     1       4.183  20.277  53.984  1.00  0.00     0.044 A 
ATOM     19  H3  UNL     1       3.409  20.153  52.015  1.00  0.00     0.167 HD
HETATM   20  C17 UNL     1       5.226  21.179  54.038  1.00  0.00     0.030 A 
HETATM   21  C21 UNL     1       3.821  19.629  55.150  1.00  0.00     0.008 A 
HETATM   22  C18 UNL     1       5.914  21.453  55.211  1.00  0.00     0.002 A 
HETATM   23  C19 UNL     1       5.553  20.807  56.377  1.00  0.00     0.001 A 
HETATM   24  C20 UNL     1       4.511  19.907  56.319  1.00  0.00     0.015 A 
ENDBRANCH  12  14
ENDBRANCH  11  12
BRANCH   7  25
HETATM   25  C9  UNL     1       2.280  14.919  59.712  1.00  0.00     0.057 C 
BRANCH  25  26
HETATM   26  C10 UNL     1       1.972  13.570  59.173  1.00  0.00     0.166 C 
BRANCH  26  27
HETATM   27  O3  UNL     1       2.481  13.358  57.901  1.00  0.00    -0.401 OA
ATOM     28  H3  UNL     1       3.241  12.788  57.890  1.00  0.00     0.209 HD
ENDBRANCH  26  27
ENDBRANCH  25  26
ENDBRANCH   7  25
BRANCH   6  29
HETATM   29  C4  UNL     1       5.793  15.616  61.908  1.00  0.00     0.076 A 
HETATM   30  C5  UNL     1       7.065  15.357  61.379  1.00  0.00     0.039 A 
HETATM   31  C6  UNL     1       7.603  14.317  62.100  1.00  0.00     0.027 A 
HETATM   32  C7  UNL     1       6.644  13.988  63.030  1.00  0.00     0.142 A 
HETATM   33  O2  UNL     1       5.609  14.779  62.872  1.00  0.00    -0.323 OA
ENDBRANCH   6  29
TORSDOF 6
ENDMDL
MODEL 3
REMARK VINA RESULT: -6.439459767      2.717      8.191
REMARK  6 active torsions:
REMARK  status: ('A' for Active; 'I' for Inactive)
REMARK    1  A    between atoms: C3_6  and  C4_7 
REMARK    2  A    between atoms: C8_12  and  C9_13 
REMARK    3  A    between atoms: C9_13  and  C10_14 
REMARK    4  A    between atoms: C10_14  and  O3_15 
REMARK    5  A    between atoms: C12_20  and  C13_21 
REMARK    6  A    between atoms: C13_21  and  C14_23 
ROOT
HETATM    1  O1  UNL     1       2.502  15.786  57.489  1.00  0.00    -0.266 OA
HETATM    2  C1  UNL     1       2.456  16.868  57.063  1.00  0.00     0.272 C 
HETATM    3  N1  UNL     1       3.724  17.353  56.530  1.00  0.00    -0.323 N 
ATOM      4  H1  UNL     1       4.547  16.750  56.553  1.00  0.00     0.169 HD
HETATM    5  C2  UNL     1       3.825  18.681  55.970  1.00  0.00     0.037 C 
HETATM    6  C3  UNL     1       4.933  19.357  56.049  1.00  0.00     0.064 C 
HETATM    7  C8  UNL     1       2.549  19.151  55.337  1.00  0.00     0.134 C 
HETATM    8  N2  UNL     1       1.572  19.045  56.406  1.00  0.00    -0.375 N 
ATOM      9  H2  UNL     1       1.065  19.868  56.729  1.00  0.00     0.160 HD
HETATM   10  C11 UNL     1       1.330  17.758  57.000  1.00  0.00     0.101 C 
HETATM   11  C12 UNL     1       0.143  17.498  57.447  1.00  0.00     0.090 C 
ENDROOT
BRANCH  11  12
HETATM   12  C13 UNL     1      -0.372  16.336  58.091  1.00  0.00     0.188 C 
HETATM   13  O4  UNL     1       0.256  15.337  58.425  1.00  0.00    -0.287 OA
BRANCH  12  14
HETATM   14  C14 UNL     1      -1.839  16.255  58.430  1.00  0.00     0.065 A 
HETATM   15  C15 UNL     1      -2.417  16.421  59.666  1.00  0.00     0.119 A 
HETATM   16 CL1  UNL     1      -1.529  16.777  61.154  1.00  0.00    -0.063 Cl
HETATM   17  N3  UNL     1      -3.724  16.263  59.505  1.00  0.00    -0.345 N 
HETATM   18  C16 UNL     1      -4.001  16.000  58.197  1.00  0.00     0.044 A 
ATOM     19  H3  UNL     1      -4.418  16.329  60.249  1.00  0.00     0.167 HD
HETATM   20  C17 UNL     1      -5.167  15.759  57.500  1.00  0.00     0.030 A 
HETATM   21  C21 UNL     1      -2.809  15.991  57.498  1.00  0.00     0.008 A 
HETATM   22  C18 UNL     1      -5.180  15.511  56.134  1.00  0.00     0.002 A 
HETATM   23  C19 UNL     1      -3.989  15.502  55.434  1.00  0.00     0.001 A 
HETATM   24  C20 UNL     1      -2.827  15.744  56.135  1.00  0.00     0.015 A 
ENDBRANCH  12  14
ENDBRANCH  11  12
BRANCH   7  25
HETATM   25  C9  UNL     1       2.068  18.237  54.239  1.00  0.00     0.057 C 
BRANCH  25  26
HETATM   26  C10 UNL     1       2.126  18.777  52.858  1.00  0.00     0.166 C 
BRANCH  26  27
HETATM   27  O3  UNL     1       1.711  20.096  52.765  1.00  0.00    -0.401 OA
ATOM     28  H3  UNL     1       0.931  20.281  53.275  1.00  0.00     0.209 HD
ENDBRANCH  26  27
ENDBRANCH  25  26
ENDBRANCH   7  25
BRANCH   6  29
HETATM   29  C4  UNL     1       5.219  20.682  55.559  1.00  0.00     0.076 A 
HETATM   30  C5  UNL     1       5.750  20.975  54.295  1.00  0.00     0.039 A 
HETATM   31  C6  UNL     1       5.875  22.342  54.211  1.00  0.00     0.027 A 
HETATM   32  C7  UNL     1       5.419  22.821  55.418  1.00  0.00     0.142 A 
HETATM   33  O2  UNL     1       5.049  21.808  56.165  1.00  0.00    -0.323 OA
ENDBRANCH   6  29
TORSDOF 6
ENDMDL
MODEL 4
REMARK VINA RESULT: -6.424750292      2.836      7.536
REMARK  6 active torsions:
REMARK  status: ('A' for Active; 'I' for Inactive)
REMARK    1  A    between atoms: C3_6  and  C4_7 
REMARK    2  A    between atoms: C8_12  and  C9_13 
REMARK    3  A    between atoms: C9_13  and  C10_14 
REMARK    4  A    between atoms: C10_14  and  O3_15 
REMARK    5  A    between atoms: C12_20  and  C13_21 
REMARK    6  A    between atoms: C13_21  and  C14_23 
ROOT
HETATM    1  O1  UNL     1       2.406  16.280  57.655  1.00  0.00    -0.266 OA
HETATM    2  C1  UNL     1       2.422  17.297  57.088  1.00  0.00     0.272 C 
HETATM    3  N1  UNL     1       3.752  17.725  56.668  1.00  0.00    -0.323 N 
ATOM      4  H1  UNL     1       4.561  17.141  56.878  1.00  0.00     0.169 HD
HETATM    5  C2  UNL     1       3.932  18.970  55.957  1.00  0.00     0.037 C 
HETATM    6  C3  UNL     1       5.022  19.665  56.093  1.00  0.00     0.064 C 
HETATM    7  C8  UNL     1       2.752  19.338  55.107  1.00  0.00     0.134 C 
HETATM    8  N2  UNL     1       1.642  19.359  56.042  1.00  0.00    -0.375 N 
ATOM      9  H2  UNL     1       1.101  20.211  56.186  1.00  0.00     0.160 HD
HETATM   10  C11 UNL     1       1.318  18.157  56.762  1.00  0.00     0.101 C 
HETATM   11  C12 UNL     1       0.082  17.942  57.079  1.00  0.00     0.090 C 
ENDROOT
BRANCH  11  12
HETATM   12  C13 UNL     1      -0.520  16.868  57.796  1.00  0.00     0.188 C 
HETATM   13  O4  UNL     1      -1.088  15.890  57.321  1.00  0.00    -0.287 OA
BRANCH  12  14
HETATM   14  C14 UNL     1      -0.493  16.864  59.303  1.00  0.00     0.065 A 
HETATM   15  C15 UNL     1      -0.076  15.845  60.125  1.00  0.00     0.119 A 
HETATM   16 CL1  UNL     1       0.535  14.283  59.562  1.00  0.00    -0.063 Cl
HETATM   17  N3  UNL     1      -0.226  16.269  61.373  1.00  0.00    -0.345 N 
HETATM   18  C16 UNL     1      -0.729  17.535  61.374  1.00  0.00     0.044 A 
ATOM     19  H3  UNL     1       0.002  15.728  62.207  1.00  0.00     0.167 HD
HETATM   20  C17 UNL     1      -1.068  18.425  62.373  1.00  0.00     0.030 A 
HETATM   21  C21 UNL     1      -0.905  17.929  60.062  1.00  0.00     0.008 A 
HETATM   22  C18 UNL     1      -1.574  19.689  62.103  1.00  0.00     0.002 A 
HETATM   23  C19 UNL     1      -1.750  20.084  60.792  1.00  0.00     0.001 A 
HETATM   24  C20 UNL     1      -1.410  19.192  59.797  1.00  0.00     0.015 A 
ENDBRANCH  12  14
ENDBRANCH  11  12
BRANCH   7  25
HETATM   25  C9  UNL     1       2.416  18.282  54.084  1.00  0.00     0.057 C 
BRANCH  25  26
HETATM   26  C10 UNL     1       1.623  18.728  52.911  1.00  0.00     0.166 C 
BRANCH  26  27
HETATM   27  O3  UNL     1       1.573  20.106  52.774  1.00  0.00    -0.401 OA
ATOM     28  H3  UNL     1       2.377  20.480  52.433  1.00  0.00     0.209 HD
ENDBRANCH  26  27
ENDBRANCH  25  26
ENDBRANCH   7  25
BRANCH   6  29
HETATM   29  C4  UNL     1       5.377  20.919  55.476  1.00  0.00     0.076 A 
HETATM   30  C5  UNL     1       5.991  21.053  54.223  1.00  0.00     0.039 A 
HETATM   31  C6  UNL     1       6.162  22.398  53.993  1.00  0.00     0.027 A 
HETATM   32  C7  UNL     1       5.649  23.022  55.107  1.00  0.00     0.142 A 
HETATM   33  O2  UNL     1       5.204  22.109  55.939  1.00  0.00    -0.323 OA
ENDBRANCH   6  29
TORSDOF 6
ENDMDL
MODEL 5
REMARK VINA RESULT: -6.398092939      3.489      8.252
REMARK  6 active torsions:
REMARK  status: ('A' for Active; 'I' for Inactive)
REMARK    1  A    between atoms: C3_6  and  C4_7 
REMARK    2  A    between atoms: C8_12  and  C9_13 
REMARK    3  A    between atoms: C9_13  and  C10_14 
REMARK    4  A    between atoms: C10_14  and  O3_15 
REMARK    5  A    between atoms: C12_20  and  C13_21 
REMARK    6  A    between atoms: C13_21  and  C14_23 
ROOT
HETATM    1  O1  UNL     1       7.333  20.673  55.361  1.00  0.00    -0.266 OA
HETATM    2  C1  UNL     1       7.030  21.521  56.099  1.00  0.00     0.272 C 
HETATM    3  N1  UNL     1       7.591  22.827  55.771  1.00  0.00    -0.323 N 
ATOM      4  H1  UNL     1       8.189  22.929  54.950  1.00  0.00     0.169 HD
HETATM    5  C2  UNL     1       7.308  23.977  56.597  1.00  0.00     0.037 C 
HETATM    6  C3  UNL     1       8.180  24.931  56.736  1.00  0.00     0.064 C 
HETATM    7  C8  UNL     1       5.959  23.914  57.251  1.00  0.00     0.134 C 
HETATM    8  N2  UNL     1       5.987  22.663  57.986  1.00  0.00    -0.375 N 
ATOM      9  H2  UNL     1       5.862  22.653  58.998  1.00  0.00     0.160 HD
HETATM   10  C11 UNL     1       6.192  21.437  57.263  1.00  0.00     0.101 C 
HETATM   11  C12 UNL     1       5.636  20.357  57.710  1.00  0.00     0.090 C 
ENDROOT
BRANCH  11  12
HETATM   12  C13 UNL     1       5.681  19.019  57.221  1.00  0.00     0.188 C 
HETATM   13  O4  UNL     1       6.645  18.261  57.231  1.00  0.00    -0.287 OA
BRANCH  12  14
HETATM   14  C14 UNL     1       4.448  18.401  56.613  1.00  0.00     0.065 A 
HETATM   15  C15 UNL     1       3.713  17.351  57.110  1.00  0.00     0.119 A 
HETATM   16 CL1  UNL     1       4.076  16.487  58.610  1.00  0.00    -0.063 Cl
HETATM   17  N3  UNL     1       2.720  17.137  56.257  1.00  0.00    -0.345 N 
HETATM   18  C16 UNL     1       2.797  18.023  55.225  1.00  0.00     0.044 A 
ATOM     19  H3  UNL     1       2.004  16.417  56.358  1.00  0.00     0.167 HD
HETATM   20  C17 UNL     1       2.037  18.238  54.094  1.00  0.00     0.030 A 
HETATM   21  C21 UNL     1       3.894  18.836  55.437  1.00  0.00     0.008 A 
HETATM   22  C18 UNL     1       2.336  19.233  53.173  1.00  0.00     0.002 A 
HETATM   23  C19 UNL     1       3.431  20.046  53.385  1.00  0.00     0.001 A 
HETATM   24  C20 UNL     1       4.188  19.829  54.516  1.00  0.00     0.015 A 
ENDBRANCH  12  14
ENDBRANCH  11  12
BRANCH   7  25
HETATM   25  C9  UNL     1       4.833  23.789  56.257  1.00  0.00     0.057 C 
BRANCH  25  26
HETATM   26  C10 UNL     1       3.458  23.762  56.816  1.00  0.00     0.166 C 
BRANCH  26  27
HETATM   27  O3  UNL     1       2.895  22.496  56.828  1.00  0.00    -0.401 OA
ATOM     28  H3  UNL     1       2.748  22.158  57.704  1.00  0.00     0.209 HD
ENDBRANCH  26  27
ENDBRANCH  25  26
ENDBRANCH   7  25
BRANCH   6  29
HETATM   29  C4  UNL     1       8.079  26.141  57.514  1.00  0.00     0.076 A 
HETATM   30  C5  UNL     1       7.692  27.391  57.010  1.00  0.00     0.039 A 
HETATM   31  C6  UNL     1       7.721  28.281  58.058  1.00  0.00     0.027 A 
HETATM   32  C7  UNL     1       8.121  27.542  59.148  1.00  0.00     0.142 A 
HETATM   33  O2  UNL     1       8.316  26.299  58.771  1.00  0.00    -0.323 OA
ENDBRANCH   6  29
TORSDOF 6
ENDMDL
