MODEL 1
REMARK VINA RESULT: -6.842634576      0.000      0.000
REMARK  5 active torsions:
REMARK  status: ('A' for Active; 'I' for Inactive)
REMARK       I    between atoms: N1_2  and  C2_4 
REMARK    1  A    between atoms: C2_4  and  O2_6 
REMARK    2  A    between atoms: O2_6  and  C3_7 
REMARK    3  A    between atoms: C8_12  and  N2_13 
REMARK       I    between atoms: N2_13  and  C9_15 
REMARK    4  A    between atoms: C9_15  and  C10_17 
REMARK    5  A    between atoms: C14_23  and  O4_24 
ROOT
HETATM    1  C3  UNL     1     -31.805 -15.365  16.607  1.00  0.00     0.083 A 
HETATM    2  C4  UNL     1     -31.500 -15.640  15.271  1.00  0.00     0.038 A 
HETATM    3  C5  UNL     1     -32.140 -16.649  14.585  1.00  0.00     0.016 A 
HETATM    4  C6  UNL     1     -33.102 -17.420  15.187  1.00  0.00    -0.007 A 
HETATM    5  C7  UNL     1     -33.760 -18.449  14.499  1.00  0.00     0.049 A 
HETATM    6  C8  UNL     1     -34.706 -19.185  15.145  1.00  0.00     0.104 A 
HETATM    7  C19 UNL     1     -35.000 -18.894  16.488  1.00  0.00     0.272 A 
HETATM    8  O5  UNL     1     -35.868 -19.550  17.121  1.00  0.00    -0.266 OA
HETATM    9  N4  UNL     1     -34.359 -17.899  17.145  1.00  0.00    -0.321 N 
ATOM     10  H4  UNL     1     -34.583 -17.700  18.120  1.00  0.00     0.169 HD
HETATM   11  C20 UNL     1     -33.426 -17.174  16.504  1.00  0.00     0.048 A 
HETATM   12  C21 UNL     1     -32.783 -16.171  17.176  1.00  0.00     0.067 A 
ENDROOT
BRANCH   6  13
HETATM   13  N2  UNL     1     -35.454 -20.262  14.562  1.00  0.00    -0.318 N 
HETATM   14  C9  UNL     1     -35.051 -21.564  14.349  1.00  0.00     0.260 C 
HETATM   15  O3  UNL     1     -33.867 -21.875  14.704  1.00  0.00    -0.267 OA
ATOM     16  H2  UNL     1     -36.404 -20.037  14.269  1.00  0.00     0.169 HD
BRANCH  14  17
HETATM   17  C10 UNL     1     -35.825 -22.627  13.760  1.00  0.00     0.083 A 
HETATM   18  C11 UNL     1     -35.167 -23.650  13.046  1.00  0.00     0.030 A 
HETATM   19  C12 UNL     1     -35.828 -24.678  12.468  1.00  0.00    -0.034 A 
HETATM   20  C13 UNL     1     -37.192 -24.762  12.561  1.00  0.00     0.017 A 
HETATM   21  C18 UNL     1     -35.337 -25.864  11.673  1.00  0.00     0.041 C 
HETATM   22  N3  UNL     1     -37.813 -23.794  13.237  1.00  0.00    -0.339 N 
HETATM   23  C16 UNL     1     -37.704 -25.984  11.838  1.00  0.00     0.058 C 
HETATM   24  C14 UNL     1     -37.182 -22.739  13.836  1.00  0.00     0.158 A 
ATOM     25  H3  UNL     1     -38.830 -23.844  13.313  1.00  0.00     0.168 HD
HETATM   26  C17 UNL     1     -36.549 -26.260  10.895  1.00  0.00     0.011 C 
BRANCH  24  27
HETATM   27  O4  UNL     1     -37.980 -21.806  14.511  1.00  0.00    -0.340 OA
HETATM   28  C15 UNL     1     -39.298 -21.611  14.092  1.00  0.00     0.211 C 
ENDBRANCH  24  27
ENDBRANCH  14  17
ENDBRANCH   6  13
BRANCH   1  29
HETATM   29  O2  UNL     1     -31.175 -14.357  17.317  1.00  0.00    -0.262 OA
BRANCH  29  30
HETATM   30  C2  UNL     1     -31.645 -13.046  17.351  1.00  0.00     0.365 C 
HETATM   31  N1  UNL     1     -31.786 -12.255  16.188  1.00  0.00    -0.341 N 
HETATM   32  C1  UNL     1     -32.281 -10.903  16.316  1.00  0.00     0.151 C 
ATOM     33  H1  UNL     1     -31.543 -12.632  15.272  1.00  0.00     0.164 HD
HETATM   34  O1  UNL     1     -31.948 -12.569  18.462  1.00  0.00    -0.238 OA
ENDBRANCH  29  30
ENDBRANCH   1  29
TORSDOF 5
ENDMDL
MODEL 2
REMARK VINA RESULT: -6.794704366      5.230      8.827
REMARK  5 active torsions:
REMARK  status: ('A' for Active; 'I' for Inactive)
REMARK       I    between atoms: N1_2  and  C2_4 
REMARK    1  A    between atoms: C2_4  and  O2_6 
REMARK    2  A    between atoms: O2_6  and  C3_7 
REMARK    3  A    between atoms: C8_12  and  N2_13 
REMARK       I    between atoms: N2_13  and  C9_15 
REMARK    4  A    between atoms: C9_15  and  C10_17 
REMARK    5  A    between atoms: C14_23  and  O4_24 
ROOT
HETATM    1  C3  UNL     1     -31.294 -17.332  13.610  1.00  0.00     0.083 A 
HETATM    2  C4  UNL     1     -32.488 -18.021  13.380  1.00  0.00     0.038 A 
HETATM    3  C5  UNL     1     -33.588 -17.834  14.188  1.00  0.00     0.016 A 
HETATM    4  C6  UNL     1     -33.553 -16.965  15.248  1.00  0.00    -0.007 A 
HETATM    5  C7  UNL     1     -34.666 -16.766  16.076  1.00  0.00     0.049 A 
HETATM    6  C8  UNL     1     -34.577 -15.892  17.116  1.00  0.00     0.104 A 
HETATM    7  C19 UNL     1     -33.368 -15.206  17.332  1.00  0.00     0.272 A 
HETATM    8  O5  UNL     1     -33.245 -14.389  18.281  1.00  0.00    -0.266 OA
HETATM    9  N4  UNL     1     -32.298 -15.404  16.526  1.00  0.00    -0.321 N 
ATOM     10  H4  UNL     1     -31.428 -14.901  16.697  1.00  0.00     0.169 HD
HETATM   11  C20 UNL     1     -32.390 -16.269  15.502  1.00  0.00     0.048 A 
HETATM   12  C21 UNL     1     -31.304 -16.462  14.693  1.00  0.00     0.067 A 
ENDROOT
BRANCH   6  13
HETATM   13  N2  UNL     1     -35.635 -15.594  18.038  1.00  0.00    -0.318 N 
HETATM   14  C9  UNL     1     -35.985 -16.276  19.186  1.00  0.00     0.260 C 
HETATM   15  O3  UNL     1     -35.296 -17.305  19.486  1.00  0.00    -0.267 OA
ATOM     16  H2  UNL     1     -36.201 -14.775  17.818  1.00  0.00     0.169 HD
BRANCH  14  17
HETATM   17  C10 UNL     1     -37.055 -15.953  20.095  1.00  0.00     0.083 A 
HETATM   18  C11 UNL     1     -36.747 -15.550  21.411  1.00  0.00     0.030 A 
HETATM   19  C12 UNL     1     -37.699 -15.232  22.318  1.00  0.00    -0.034 A 
HETATM   20  C13 UNL     1     -39.024 -15.292  21.978  1.00  0.00     0.017 A 
HETATM   21  C18 UNL     1     -37.601 -14.780  23.755  1.00  0.00     0.041 C 
HETATM   22  N3  UNL     1     -39.314 -15.673  20.732  1.00  0.00    -0.339 N 
HETATM   23  C16 UNL     1     -39.895 -14.900  23.148  1.00  0.00     0.058 C 
HETATM   24  C14 UNL     1     -38.383 -16.001  19.787  1.00  0.00     0.158 A 
ATOM     25  H3  UNL     1     -40.298 -15.722  20.468  1.00  0.00     0.168 HD
HETATM   26  C17 UNL     1     -38.942 -15.141  24.302  1.00  0.00     0.011 C 
BRANCH  24  27
HETATM   27  O4  UNL     1     -38.851 -16.381  18.522  1.00  0.00    -0.340 OA
HETATM   28  C15 UNL     1     -39.609 -17.548  18.402  1.00  0.00     0.211 C 
ENDBRANCH  24  27
ENDBRANCH  14  17
ENDBRANCH   6  13
BRANCH   1  29
HETATM   29  O2  UNL     1     -30.176 -17.503  12.811  1.00  0.00    -0.262 OA
BRANCH  29  30
HETATM   30  C2  UNL     1     -29.404 -18.662  12.826  1.00  0.00     0.365 C 
HETATM   31  N1  UNL     1     -28.869 -19.210  14.014  1.00  0.00    -0.341 N 
HETATM   32  C1  UNL     1     -28.078 -20.418  13.935  1.00  0.00     0.151 C 
ATOM     33  H1  UNL     1     -29.038 -18.760  14.913  1.00  0.00     0.164 HD
HETATM   34  O1  UNL     1     -29.188 -19.226  11.735  1.00  0.00    -0.238 OA
ENDBRANCH  29  30
ENDBRANCH   1  29
TORSDOF 5
ENDMDL
MODEL 3
REMARK VINA RESULT: -6.725946996      5.212      8.050
REMARK  5 active torsions:
REMARK  status: ('A' for Active; 'I' for Inactive)
REMARK       I    between atoms: N1_2  and  C2_4 
REMARK    1  A    between atoms: C2_4  and  O2_6 
REMARK    2  A    between atoms: O2_6  and  C3_7 
REMARK    3  A    between atoms: C8_12  and  N2_13 
REMARK       I    between atoms: N2_13  and  C9_15 
REMARK    4  A    between atoms: C9_15  and  C10_17 
REMARK    5  A    between atoms: C14_23  and  O4_24 
ROOT
HETATM    1  C3  UNL     1     -31.180 -17.145  13.901  1.00  0.00     0.083 A 
HETATM    2  C4  UNL     1     -32.290 -17.807  13.368  1.00  0.00     0.038 A 
HETATM    3  C5  UNL     1     -33.526 -17.729  13.970  1.00  0.00     0.016 A 
HETATM    4  C6  UNL     1     -33.715 -16.997  15.114  1.00  0.00    -0.007 A 
HETATM    5  C7  UNL     1     -34.969 -16.909  15.735  1.00  0.00     0.049 A 
HETATM    6  C8  UNL     1     -35.101 -16.170  16.870  1.00  0.00     0.104 A 
HETATM    7  C19 UNL     1     -33.975 -15.509  17.393  1.00  0.00     0.272 A 
HETATM    8  O5  UNL     1     -34.055 -14.815  18.440  1.00  0.00    -0.266 OA
HETATM    9  N4  UNL     1     -32.768 -15.600  16.786  1.00  0.00    -0.321 N 
ATOM     10  H4  UNL     1     -31.960 -15.117  17.177  1.00  0.00     0.169 HD
HETATM   11  C20 UNL     1     -32.641 -16.331  15.666  1.00  0.00     0.048 A 
HETATM   12  C21 UNL     1     -31.418 -16.417  15.060  1.00  0.00     0.067 A 
ENDROOT
BRANCH   6  13
HETATM   13  N2  UNL     1     -36.322 -15.995  17.605  1.00  0.00    -0.318 N 
HETATM   14  C9  UNL     1     -37.009 -16.928  18.353  1.00  0.00     0.260 C 
HETATM   15  O3  UNL     1     -36.520 -18.103  18.414  1.00  0.00    -0.267 OA
ATOM     16  H2  UNL     1     -36.733 -15.062  17.570  1.00  0.00     0.169 HD
BRANCH  14  17
HETATM   17  C10 UNL     1     -38.236 -16.724  19.082  1.00  0.00     0.083 A 
HETATM   18  C11 UNL     1     -39.404 -17.401  18.675  1.00  0.00     0.030 A 
HETATM   19  C12 UNL     1     -40.589 -17.258  19.311  1.00  0.00    -0.034 A 
HETATM   20  C13 UNL     1     -40.695 -16.431  20.397  1.00  0.00     0.017 A 
HETATM   21  C18 UNL     1     -41.942 -17.877  19.056  1.00  0.00     0.041 C 
HETATM   22  N3  UNL     1     -39.588 -15.791  20.781  1.00  0.00    -0.339 N 
HETATM   23  C16 UNL     1     -42.106 -16.429  20.933  1.00  0.00     0.058 C 
HETATM   24  C14 UNL     1     -38.373 -15.909  20.167  1.00  0.00     0.158 A 
ATOM     25  H3  UNL     1     -39.655 -15.171  21.588  1.00  0.00     0.168 HD
HETATM   26  C17 UNL     1     -42.871 -16.912  19.716  1.00  0.00     0.011 C 
BRANCH  24  27
HETATM   27  O4  UNL     1     -37.307 -15.168  20.694  1.00  0.00    -0.340 OA
HETATM   28  C15 UNL     1     -37.121 -15.138  22.078  1.00  0.00     0.211 C 
ENDBRANCH  24  27
ENDBRANCH  14  17
ENDBRANCH   6  13
BRANCH   1  29
HETATM   29  O2  UNL     1     -29.928 -17.210  13.314  1.00  0.00    -0.262 OA
BRANCH  29  30
HETATM   30  C2  UNL     1     -29.306 -18.411  12.983  1.00  0.00     0.365 C 
HETATM   31  N1  UNL     1     -28.847 -19.328  13.957  1.00  0.00    -0.341 N 
HETATM   32  C1  UNL     1     -28.213 -20.552  13.523  1.00  0.00     0.151 C 
ATOM     33  H1  UNL     1     -28.962 -19.129  14.950  1.00  0.00     0.164 HD
HETATM   34  O1  UNL     1     -29.159 -18.672  11.773  1.00  0.00    -0.238 OA
ENDBRANCH  29  30
ENDBRANCH   1  29
TORSDOF 5
ENDMDL
MODEL 4
REMARK VINA RESULT: -6.662186539      5.378      9.096
REMARK  5 active torsions:
REMARK  status: ('A' for Active; 'I' for Inactive)
REMARK       I    between atoms: N1_2  and  C2_4 
REMARK    1  A    between atoms: C2_4  and  O2_6 
REMARK    2  A    between atoms: O2_6  and  C3_7 
REMARK    3  A    between atoms: C8_12  and  N2_13 
REMARK       I    between atoms: N2_13  and  C9_15 
REMARK    4  A    between atoms: C9_15  and  C10_17 
REMARK    5  A    between atoms: C14_23  and  O4_24 
ROOT
HETATM    1  C3  UNL     1     -32.482 -17.527  13.781  1.00  0.00     0.083 A 
HETATM    2  C4  UNL     1     -33.726 -18.163  13.756  1.00  0.00     0.038 A 
HETATM    3  C5  UNL     1     -34.668 -17.930  14.734  1.00  0.00     0.016 A 
HETATM    4  C6  UNL     1     -34.420 -17.065  15.769  1.00  0.00    -0.007 A 
HETATM    5  C7  UNL     1     -35.370 -16.820  16.769  1.00  0.00     0.049 A 
HETATM    6  C8  UNL     1     -35.072 -15.952  17.775  1.00  0.00     0.104 A 
HETATM    7  C19 UNL     1     -33.815 -15.320  17.784  1.00  0.00     0.272 A 
HETATM    8  O5  UNL     1     -33.501 -14.511  18.695  1.00  0.00    -0.266 OA
HETATM    9  N4  UNL     1     -32.904 -15.563  16.813  1.00  0.00    -0.321 N 
ATOM     10  H4  UNL     1     -31.996 -15.099  16.834  1.00  0.00     0.169 HD
HETATM   11  C20 UNL     1     -33.202 -16.421  15.822  1.00  0.00     0.048 A 
HETATM   12  C21 UNL     1     -32.275 -16.660  14.846  1.00  0.00     0.067 A 
ENDROOT
BRANCH   6  13
HETATM   13  N2  UNL     1     -35.948 -15.610  18.859  1.00  0.00    -0.318 N 
HETATM   14  C9  UNL     1     -36.284 -16.372  19.958  1.00  0.00     0.260 C 
HETATM   15  O3  UNL     1     -35.764 -17.532  20.046  1.00  0.00    -0.267 OA
ATOM     16  H2  UNL     1     -36.378 -14.686  18.810  1.00  0.00     0.169 HD
BRANCH  14  17
HETATM   17  C10 UNL     1     -37.169 -16.002  21.033  1.00  0.00     0.083 A 
HETATM   18  C11 UNL     1     -36.856 -16.391  22.352  1.00  0.00     0.030 A 
HETATM   19  C12 UNL     1     -37.640 -16.079  23.410  1.00  0.00    -0.034 A 
HETATM   20  C13 UNL     1     -38.790 -15.358  23.229  1.00  0.00     0.017 A 
HETATM   21  C18 UNL     1     -37.500 -16.382  24.882  1.00  0.00     0.041 C 
HETATM   22  N3  UNL     1     -39.084 -14.991  21.980  1.00  0.00    -0.339 N 
HETATM   23  C16 UNL     1     -39.497 -15.138  24.545  1.00  0.00     0.058 C 
HETATM   24  C14 UNL     1     -38.320 -15.284  20.886  1.00  0.00     0.158 A 
ATOM     25  H3  UNL     1     -39.939 -14.453  21.833  1.00  0.00     0.168 HD
HETATM   26  C17 UNL     1     -38.905 -16.261  25.375  1.00  0.00     0.011 C 
BRANCH  24  27
HETATM   27  O4  UNL     1     -38.768 -14.824  19.641  1.00  0.00    -0.340 OA
HETATM   28  C15 UNL     1     -39.825 -15.487  19.013  1.00  0.00     0.211 C 
ENDBRANCH  24  27
ENDBRANCH  14  17
ENDBRANCH   6  13
BRANCH   1  29
HETATM   29  O2  UNL     1     -31.520 -17.745  12.809  1.00  0.00    -0.262 OA
BRANCH  29  30
HETATM   30  C2  UNL     1     -30.207 -18.098  13.108  1.00  0.00     0.365 C 
HETATM   31  N1  UNL     1     -29.876 -19.258  13.846  1.00  0.00    -0.341 N 
HETATM   32  C1  UNL     1     -28.484 -19.547  14.111  1.00  0.00     0.151 C 
ATOM     33  H1  UNL     1     -30.608 -19.881  14.187  1.00  0.00     0.164 HD
HETATM   34  O1  UNL     1     -29.299 -17.348  12.699  1.00  0.00    -0.238 OA
ENDBRANCH  29  30
ENDBRANCH   1  29
TORSDOF 5
ENDMDL
MODEL 5
REMARK VINA RESULT: -6.657554292      5.060      8.314
REMARK  5 active torsions:
REMARK  status: ('A' for Active; 'I' for Inactive)
REMARK       I    between atoms: N1_2  and  C2_4 
REMARK    1  A    between atoms: C2_4  and  O2_6 
REMARK    2  A    between atoms: O2_6  and  C3_7 
REMARK    3  A    between atoms: C8_12  and  N2_13 
REMARK       I    between atoms: N2_13  and  C9_15 
REMARK    4  A    between atoms: C9_15  and  C10_17 
REMARK    5  A    between atoms: C14_23  and  O4_24 
ROOT
HETATM    1  C3  UNL     1     -31.064 -17.275  13.649  1.00  0.00     0.083 A 
HETATM    2  C4  UNL     1     -32.165 -18.038  13.250  1.00  0.00     0.038 A 
HETATM    3  C5  UNL     1     -33.373 -17.949  13.907  1.00  0.00     0.016 A 
HETATM    4  C6  UNL     1     -33.540 -17.108  14.976  1.00  0.00    -0.007 A 
HETATM    5  C7  UNL     1     -34.765 -17.009  15.652  1.00  0.00     0.049 A 
HETATM    6  C8  UNL     1     -34.877 -16.158  16.708  1.00  0.00     0.104 A 
HETATM    7  C19 UNL     1     -33.760 -15.397  17.096  1.00  0.00     0.272 A 
HETATM    8  O5  UNL     1     -33.822 -14.598  18.067  1.00  0.00    -0.266 OA
HETATM    9  N4  UNL     1     -32.581 -15.499  16.438  1.00  0.00    -0.321 N 
ATOM     10  H4  UNL     1     -31.779 -14.942  16.731  1.00  0.00     0.169 HD
HETATM   11  C20 UNL     1     -32.474 -16.341  15.395  1.00  0.00     0.048 A 
HETATM   12  C21 UNL     1     -31.280 -16.438  14.736  1.00  0.00     0.067 A 
ENDROOT
BRANCH   6  13
HETATM   13  N2  UNL     1     -36.066 -15.958  17.486  1.00  0.00    -0.318 N 
HETATM   14  C9  UNL     1     -36.550 -16.731  18.522  1.00  0.00     0.260 C 
HETATM   15  O3  UNL     1     -35.872 -17.760  18.847  1.00  0.00    -0.267 OA
ATOM     16  H2  UNL     1     -36.626 -15.141  17.243  1.00  0.00     0.169 HD
BRANCH  14  17
HETATM   17  C10 UNL     1     -37.750 -16.506  19.286  1.00  0.00     0.083 A 
HETATM   18  C11 UNL     1     -37.689 -15.721  20.456  1.00  0.00     0.030 A 
HETATM   19  C12 UNL     1     -38.774 -15.467  21.222  1.00  0.00    -0.034 A 
HETATM   20  C13 UNL     1     -39.997 -15.977  20.877  1.00  0.00     0.017 A 
HETATM   21  C18 UNL     1     -38.938 -14.664  22.489  1.00  0.00     0.041 C 
HETATM   22  N3  UNL     1     -40.054 -16.720  19.770  1.00  0.00    -0.339 N 
HETATM   23  C16 UNL     1     -41.050 -15.567  21.879  1.00  0.00     0.058 C 
HETATM   24  C14 UNL     1     -38.982 -16.999  18.969  1.00  0.00     0.158 A 
ATOM     25  H3  UNL     1     -40.959 -17.107  19.504  1.00  0.00     0.168 HD
HETATM   26  C17 UNL     1     -40.184 -15.238  23.080  1.00  0.00     0.011 C 
BRANCH  24  27
HETATM   27  O4  UNL     1     -39.208 -17.796  17.839  1.00  0.00    -0.340 OA
HETATM   28  C15 UNL     1     -39.395 -19.170  18.004  1.00  0.00     0.211 C 
ENDBRANCH  24  27
ENDBRANCH  14  17
ENDBRANCH   6  13
BRANCH   1  29
HETATM   29  O2  UNL     1     -29.841 -17.348  13.005  1.00  0.00    -0.262 OA
BRANCH  29  30
HETATM   30  C2  UNL     1     -29.170 -18.548  12.784  1.00  0.00     0.365 C 
HETATM   31  N1  UNL     1     -28.699 -19.365  13.838  1.00  0.00    -0.341 N 
HETATM   32  C1  UNL     1     -28.012 -20.596  13.517  1.00  0.00     0.151 C 
ATOM     33  H1  UNL     1     -28.842 -19.091  14.809  1.00  0.00     0.164 HD
HETATM   34  O1  UNL     1     -28.987 -18.899  11.602  1.00  0.00    -0.238 OA
ENDBRANCH  29  30
ENDBRANCH   1  29
TORSDOF 5
ENDMDL
