MODEL 1
REMARK VINA RESULT: -6.322463705      0.000      0.000
REMARK  6 active torsions:
REMARK  status: ('A' for Active; 'I' for Inactive)
REMARK    1  A    between atoms: C3_6  and  C4_7 
REMARK    2  A    between atoms: C8_12  and  C9_13 
REMARK    3  A    between atoms: C9_13  and  C10_14 
REMARK    4  A    between atoms: C10_14  and  O3_15 
REMARK    5  A    between atoms: C12_20  and  C13_21 
REMARK    6  A    between atoms: C13_21  and  C14_23 
ROOT
HETATM    1  O1  UNL     1     -35.519 -20.657  17.315  1.00  0.00    -0.266 OA
HETATM    2  C1  UNL     1     -35.343 -19.581  16.909  1.00  0.00     0.272 C 
HETATM    3  N1  UNL     1     -34.007 -19.055  17.170  1.00  0.00    -0.323 N 
ATOM      4  H1  UNL     1     -33.326 -19.630  17.668  1.00  0.00     0.169 HD
HETATM    5  C2  UNL     1     -33.640 -17.730  16.730  1.00  0.00     0.037 C 
HETATM    6  C3  UNL     1     -32.786 -17.015  17.402  1.00  0.00     0.064 C 
HETATM    7  C8  UNL     1     -34.349 -17.308  15.477  1.00  0.00     0.134 C 
HETATM    8  N2  UNL     1     -35.755 -17.441  15.812  1.00  0.00    -0.375 N 
ATOM      9  H2  UNL     1     -36.376 -16.632  15.773  1.00  0.00     0.160 HD
HETATM   10  C11 UNL     1     -36.259 -18.731  16.200  1.00  0.00     0.101 C 
HETATM   11  C12 UNL     1     -37.484 -19.028  15.908  1.00  0.00     0.090 C 
ENDROOT
BRANCH  11  12
HETATM   12  C13 UNL     1     -38.245 -20.202  16.180  1.00  0.00     0.188 C 
HETATM   13  O4  UNL     1     -38.633 -20.592  17.276  1.00  0.00    -0.287 OA
BRANCH  12  14
HETATM   14  C14 UNL     1     -38.652 -21.110  15.048  1.00  0.00     0.065 A 
HETATM   15  C15 UNL     1     -39.902 -21.234  14.491  1.00  0.00     0.119 A 
HETATM   16 CL1  UNL     1     -41.329 -20.322  15.004  1.00  0.00    -0.063 Cl
HETATM   17  N3  UNL     1     -39.809 -22.144  13.530  1.00  0.00    -0.345 N 
HETATM   18  C16 UNL     1     -38.530 -22.608  13.456  1.00  0.00     0.044 A 
ATOM     19  H3  UNL     1     -40.578 -22.450  12.936  1.00  0.00     0.167 HD
HETATM   20  C17 UNL     1     -37.898 -23.538  12.656  1.00  0.00     0.030 A 
HETATM   21  C21 UNL     1     -37.780 -21.959  14.418  1.00  0.00     0.008 A 
HETATM   22  C18 UNL     1     -36.550 -23.838  12.785  1.00  0.00     0.002 A 
HETATM   23  C19 UNL     1     -35.799 -23.190  13.746  1.00  0.00     0.001 A 
HETATM   24  C20 UNL     1     -36.433 -22.261  14.543  1.00  0.00     0.015 A 
ENDBRANCH  12  14
ENDBRANCH  11  12
BRANCH   7  25
HETATM   25  C9  UNL     1     -34.105 -18.247  14.323  1.00  0.00     0.057 C 
BRANCH  25  26
HETATM   26  C10 UNL     1     -32.779 -18.152  13.663  1.00  0.00     0.166 C 
BRANCH  26  27
HETATM   27  O3  UNL     1     -32.246 -16.873  13.683  1.00  0.00    -0.401 OA
ATOM     28  H3  UNL     1     -31.351 -16.833  13.367  1.00  0.00     0.209 HD
ENDBRANCH  26  27
ENDBRANCH  25  26
ENDBRANCH   7  25
BRANCH   6  29
HETATM   29  C4  UNL     1     -32.306 -15.684  17.124  1.00  0.00     0.076 A 
HETATM   30  C5  UNL     1     -32.698 -14.528  17.813  1.00  0.00     0.039 A 
HETATM   31  C6  UNL     1     -32.022 -13.470  17.254  1.00  0.00     0.027 A 
HETATM   32  C7  UNL     1     -31.253 -14.021  16.255  1.00  0.00     0.142 A 
HETATM   33  O2  UNL     1     -31.459 -15.316  16.225  1.00  0.00    -0.323 OA
ENDBRANCH   6  29
TORSDOF 6
ENDMDL
MODEL 2
REMARK VINA RESULT: -6.271075349      3.759      7.895
REMARK  6 active torsions:
REMARK  status: ('A' for Active; 'I' for Inactive)
REMARK    1  A    between atoms: C3_6  and  C4_7 
REMARK    2  A    between atoms: C8_12  and  C9_13 
REMARK    3  A    between atoms: C9_13  and  C10_14 
REMARK    4  A    between atoms: C10_14  and  O3_15 
REMARK    5  A    between atoms: C12_20  and  C13_21 
REMARK    6  A    between atoms: C13_21  and  C14_23 
ROOT
HETATM    1  O1  UNL     1     -34.122 -17.896  19.070  1.00  0.00    -0.266 OA
HETATM    2  C1  UNL     1     -35.172 -17.889  18.568  1.00  0.00     0.272 C 
HETATM    3  N1  UNL     1     -35.980 -19.069  18.859  1.00  0.00    -0.323 N 
ATOM      4  H1  UNL     1     -35.605 -19.803  19.461  1.00  0.00     0.169 HD
HETATM    5  C2  UNL     1     -37.306 -19.207  18.304  1.00  0.00     0.037 C 
HETATM    6  C3  UNL     1     -37.792 -20.378  18.017  1.00  0.00     0.064 C 
HETATM    7  C8  UNL     1     -37.997 -17.891  18.098  1.00  0.00     0.134 C 
HETATM    8  N2  UNL     1     -37.085 -17.149  17.247  1.00  0.00    -0.375 N 
ATOM      9  H2  UNL     1     -37.384 -16.819  16.330  1.00  0.00     0.160 HD
HETATM   10  C11 UNL     1     -35.752 -16.886  17.720  1.00  0.00     0.101 C 
HETATM   11  C12 UNL     1     -35.168 -15.794  17.342  1.00  0.00     0.090 C 
ENDROOT
BRANCH  11  12
HETATM   12  C13 UNL     1     -33.867 -15.291  17.631  1.00  0.00     0.188 C 
HETATM   13  O4  UNL     1     -33.488 -14.780  18.680  1.00  0.00    -0.287 OA
BRANCH  12  14
HETATM   14  C14 UNL     1     -32.787 -15.359  16.581  1.00  0.00     0.065 A 
HETATM   15  C15 UNL     1     -31.744 -14.482  16.403  1.00  0.00     0.119 A 
HETATM   16 CL1  UNL     1     -31.449 -13.052  17.402  1.00  0.00    -0.063 Cl
HETATM   17  N3  UNL     1     -31.042 -14.922  15.367  1.00  0.00    -0.345 N 
HETATM   18  C16 UNL     1     -31.607 -16.059  14.875  1.00  0.00     0.044 A 
ATOM     19  H3  UNL     1     -30.204 -14.475  14.995  1.00  0.00     0.167 HD
HETATM   20  C17 UNL     1     -31.292 -16.906  13.832  1.00  0.00     0.030 A 
HETATM   21  C21 UNL     1     -32.721 -16.351  15.638  1.00  0.00     0.008 A 
HETATM   22  C18 UNL     1     -32.050 -18.029  13.529  1.00  0.00     0.002 A 
HETATM   23  C19 UNL     1     -33.163 -18.322  14.292  1.00  0.00     0.001 A 
HETATM   24  C20 UNL     1     -33.474 -17.474  15.333  1.00  0.00     0.015 A 
ENDBRANCH  12  14
ENDBRANCH  11  12
BRANCH   7  25
HETATM   25  C9  UNL     1     -38.125 -17.092  19.370  1.00  0.00     0.057 C 
BRANCH  25  26
HETATM   26  C10 UNL     1     -38.932 -15.849  19.290  1.00  0.00     0.166 C 
BRANCH  26  27
HETATM   27  O3  UNL     1     -38.277 -14.808  18.651  1.00  0.00    -0.401 OA
ATOM     28  H3  UNL     1     -38.864 -14.136  18.328  1.00  0.00     0.209 HD
ENDBRANCH  26  27
ENDBRANCH  25  26
ENDBRANCH   7  25
BRANCH   6  29
HETATM   29  C4  UNL     1     -39.079 -20.710  17.458  1.00  0.00     0.076 A 
HETATM   30  C5  UNL     1     -39.358 -20.809  16.088  1.00  0.00     0.039 A 
HETATM   31  C6  UNL     1     -40.687 -21.141  15.964  1.00  0.00     0.027 A 
HETATM   32  C7  UNL     1     -41.158 -21.230  17.254  1.00  0.00     0.142 A 
HETATM   33  O2  UNL     1     -40.176 -20.968  18.085  1.00  0.00    -0.323 OA
ENDBRANCH   6  29
TORSDOF 6
ENDMDL
MODEL 3
REMARK VINA RESULT: -6.176382337      5.083      8.478
REMARK  6 active torsions:
REMARK  status: ('A' for Active; 'I' for Inactive)
REMARK    1  A    between atoms: C3_6  and  C4_7 
REMARK    2  A    between atoms: C8_12  and  C9_13 
REMARK    3  A    between atoms: C9_13  and  C10_14 
REMARK    4  A    between atoms: C10_14  and  O3_15 
REMARK    5  A    between atoms: C12_20  and  C13_21 
REMARK    6  A    between atoms: C13_21  and  C14_23 
ROOT
HETATM    1  O1  UNL     1     -29.569 -17.764  13.509  1.00  0.00    -0.266 OA
HETATM    2  C1  UNL     1     -29.573 -18.913  13.692  1.00  0.00     0.272 C 
HETATM    3  N1  UNL     1     -28.246 -19.521  13.703  1.00  0.00    -0.323 N 
ATOM      4  H1  UNL     1     -27.421 -18.937  13.561  1.00  0.00     0.169 HD
HETATM    5  C2  UNL     1     -28.091 -20.941  13.914  1.00  0.00     0.037 C 
HETATM    6  C3  UNL     1     -27.111 -21.595  13.364  1.00  0.00     0.064 C 
HETATM    7  C8  UNL     1     -29.161 -21.527  14.787  1.00  0.00     0.134 C 
HETATM    8  N2  UNL     1     -30.395 -21.172  14.111  1.00  0.00    -0.375 N 
ATOM      9  H2  UNL     1     -31.036 -21.896  13.789  1.00  0.00     0.160 HD
HETATM   10  C11 UNL     1     -30.698 -19.782  13.902  1.00  0.00     0.101 C 
HETATM   11  C12 UNL     1     -31.939 -19.415  13.898  1.00  0.00     0.090 C 
ENDROOT
BRANCH  11  12
HETATM   12  C13 UNL     1     -32.527 -18.132  13.699  1.00  0.00     0.188 C 
HETATM   13  O4  UNL     1     -32.572 -17.495  12.652  1.00  0.00    -0.287 OA
BRANCH  12  14
HETATM   14  C14 UNL     1     -33.185 -17.421  14.854  1.00  0.00     0.065 A 
HETATM   15  C15 UNL     1     -34.367 -17.755  15.472  1.00  0.00     0.119 A 
HETATM   16 CL1  UNL     1     -35.385 -19.129  15.022  1.00  0.00    -0.063 Cl
HETATM   17  N3  UNL     1     -34.566 -16.862  16.432  1.00  0.00    -0.345 N 
HETATM   18  C16 UNL     1     -33.543 -15.962  16.447  1.00  0.00     0.044 A 
ATOM     19  H3  UNL     1     -35.366 -16.849  17.064  1.00  0.00     0.167 HD
HETATM   20  C17 UNL     1     -33.256 -14.857  17.222  1.00  0.00     0.030 A 
HETATM   21  C21 UNL     1     -32.653 -16.306  15.447  1.00  0.00     0.008 A 
HETATM   22  C18 UNL     1     -32.117 -14.088  17.030  1.00  0.00     0.002 A 
HETATM   23  C19 UNL     1     -31.227 -14.431  16.032  1.00  0.00     0.001 A 
HETATM   24  C20 UNL     1     -31.516 -15.536  15.261  1.00  0.00     0.015 A 
ENDBRANCH  12  14
ENDBRANCH  11  12
BRANCH   7  25
HETATM   25  C9  UNL     1     -29.228 -20.877  16.146  1.00  0.00     0.057 C 
BRANCH  25  26
HETATM   26  C10 UNL     1     -28.085 -21.132  17.058  1.00  0.00     0.166 C 
BRANCH  26  27
HETATM   27  O3  UNL     1     -27.293 -20.015  17.272  1.00  0.00    -0.401 OA
ATOM     28  H3  UNL     1     -27.689 -19.381  17.858  1.00  0.00     0.209 HD
ENDBRANCH  26  27
ENDBRANCH  25  26
ENDBRANCH   7  25
BRANCH   6  29
HETATM   29  C4  UNL     1     -26.799 -22.999  13.454  1.00  0.00     0.076 A 
HETATM   30  C5  UNL     1     -26.033 -23.589  14.470  1.00  0.00     0.039 A 
HETATM   31  C6  UNL     1     -25.965 -24.936  14.201  1.00  0.00     0.027 A 
HETATM   32  C7  UNL     1     -26.686 -25.109  13.041  1.00  0.00     0.142 A 
HETATM   33  O2  UNL     1     -27.150 -23.945  12.651  1.00  0.00    -0.323 OA
ENDBRANCH   6  29
TORSDOF 6
ENDMDL
MODEL 4
REMARK VINA RESULT: -6.170045634      5.061      8.164
REMARK  6 active torsions:
REMARK  status: ('A' for Active; 'I' for Inactive)
REMARK    1  A    between atoms: C3_6  and  C4_7 
REMARK    2  A    between atoms: C8_12  and  C9_13 
REMARK    3  A    between atoms: C9_13  and  C10_14 
REMARK    4  A    between atoms: C10_14  and  O3_15 
REMARK    5  A    between atoms: C12_20  and  C13_21 
REMARK    6  A    between atoms: C13_21  and  C14_23 
ROOT
HETATM    1  O1  UNL     1     -31.906 -20.389  14.313  1.00  0.00    -0.266 OA
HETATM    2  C1  UNL     1     -30.761 -20.192  14.233  1.00  0.00     0.272 C 
HETATM    3  N1  UNL     1     -29.933 -21.345  14.572  1.00  0.00    -0.323 N 
ATOM      4  H1  UNL     1     -30.375 -22.223  14.844  1.00  0.00     0.169 HD
HETATM    5  C2  UNL     1     -28.492 -21.254  14.524  1.00  0.00     0.037 C 
HETATM    6  C3  UNL     1     -27.752 -21.951  15.334  1.00  0.00     0.064 C 
HETATM    7  C8  UNL     1     -27.998 -20.289  13.488  1.00  0.00     0.134 C 
HETATM    8  N2  UNL     1     -28.647 -19.039  13.838  1.00  0.00    -0.375 N 
ATOM      9  H2  UNL     1     -28.095 -18.214  14.070  1.00  0.00     0.160 HD
HETATM   10  C11 UNL     1     -30.084 -18.983  13.853  1.00  0.00     0.101 C 
HETATM   11  C12 UNL     1     -30.662 -17.866  13.547  1.00  0.00     0.090 C 
ENDROOT
BRANCH  11  12
HETATM   12  C13 UNL     1     -32.043 -17.518  13.498  1.00  0.00     0.188 C 
HETATM   13  O4  UNL     1     -32.770 -17.519  12.510  1.00  0.00    -0.287 OA
BRANCH  12  14
HETATM   14  C14 UNL     1     -32.754 -17.092  14.757  1.00  0.00     0.065 A 
HETATM   15  C15 UNL     1     -33.867 -17.671  15.319  1.00  0.00     0.119 A 
HETATM   16 CL1  UNL     1     -34.714 -19.076  14.658  1.00  0.00    -0.063 Cl
HETATM   17  N3  UNL     1     -34.152 -16.977  16.413  1.00  0.00    -0.345 N 
HETATM   18  C16 UNL     1     -33.251 -15.967  16.568  1.00  0.00     0.044 A 
ATOM     19  H3  UNL     1     -34.930 -17.170  17.044  1.00  0.00     0.167 HD
HETATM   20  C17 UNL     1     -33.087 -14.972  17.511  1.00  0.00     0.030 A 
HETATM   21  C21 UNL     1     -32.352 -16.027  15.520  1.00  0.00     0.008 A 
HETATM   22  C18 UNL     1     -32.060 -14.041  17.440  1.00  0.00     0.002 A 
HETATM   23  C19 UNL     1     -31.161 -14.101  16.393  1.00  0.00     0.001 A 
HETATM   24  C20 UNL     1     -31.328 -15.096  15.454  1.00  0.00     0.015 A 
ENDBRANCH  12  14
ENDBRANCH  11  12
BRANCH   7  25
HETATM   25  C9  UNL     1     -28.471 -20.630  12.098  1.00  0.00     0.057 C 
BRANCH  25  26
HETATM   26  C10 UNL     1     -27.867 -19.854  10.986  1.00  0.00     0.166 C 
BRANCH  26  27
HETATM   27  O3  UNL     1     -28.563 -18.695  10.682  1.00  0.00    -0.401 OA
ATOM     28  H3  UNL     1     -28.024 -17.914  10.713  1.00  0.00     0.209 HD
ENDBRANCH  26  27
ENDBRANCH  25  26
ENDBRANCH   7  25
BRANCH   6  29
HETATM   29  C4  UNL     1     -26.314 -21.988  15.437  1.00  0.00     0.076 A 
HETATM   30  C5  UNL     1     -25.521 -20.967  15.980  1.00  0.00     0.039 A 
HETATM   31  C6  UNL     1     -24.212 -21.380  15.897  1.00  0.00     0.027 A 
HETATM   32  C7  UNL     1     -24.261 -22.625  15.313  1.00  0.00     0.142 A 
HETATM   33  O2  UNL     1     -25.514 -22.929  15.066  1.00  0.00    -0.323 OA
ENDBRANCH   6  29
TORSDOF 6
ENDMDL
MODEL 5
REMARK VINA RESULT: -6.157656345      5.274      8.543
REMARK  6 active torsions:
REMARK  status: ('A' for Active; 'I' for Inactive)
REMARK    1  A    between atoms: C3_6  and  C4_7 
REMARK    2  A    between atoms: C8_12  and  C9_13 
REMARK    3  A    between atoms: C9_13  and  C10_14 
REMARK    4  A    between atoms: C10_14  and  O3_15 
REMARK    5  A    between atoms: C12_20  and  C13_21 
REMARK    6  A    between atoms: C13_21  and  C14_23 
ROOT
HETATM    1  O1  UNL     1     -31.956 -20.395  13.065  1.00  0.00    -0.266 OA
HETATM    2  C1  UNL     1     -30.817 -20.303  13.285  1.00  0.00     0.272 C 
HETATM    3  N1  UNL     1     -30.095 -21.570  13.229  1.00  0.00    -0.323 N 
ATOM      4  H1  UNL     1     -30.598 -22.430  13.007  1.00  0.00     0.169 HD
HETATM    5  C2  UNL     1     -28.674 -21.617  13.484  1.00  0.00     0.037 C 
HETATM    6  C3  UNL     1     -28.127 -22.664  14.027  1.00  0.00     0.064 C 
HETATM    7  C8  UNL     1     -27.961 -20.361  13.079  1.00  0.00     0.134 C 
HETATM    8  N2  UNL     1     -28.650 -19.317  13.817  1.00  0.00    -0.375 N 
ATOM      9  H2  UNL     1     -28.143 -18.730  14.479  1.00  0.00     0.160 HD
HETATM   10  C11 UNL     1     -30.058 -19.124  13.597  1.00  0.00     0.101 C 
HETATM   11  C12 UNL     1     -30.542 -17.930  13.711  1.00  0.00     0.090 C 
ENDROOT
BRANCH  11  12
HETATM   12  C13 UNL     1     -31.877 -17.452  13.573  1.00  0.00     0.188 C 
HETATM   13  O4  UNL     1     -32.508 -17.313  12.530  1.00  0.00    -0.287 OA
BRANCH  12  14
HETATM   14  C14 UNL     1     -32.662 -17.056  14.798  1.00  0.00     0.065 A 
HETATM   15  C15 UNL     1     -33.776 -17.679  15.309  1.00  0.00     0.119 A 
HETATM   16 CL1  UNL     1     -34.535 -19.117  14.612  1.00  0.00    -0.063 Cl
HETATM   17  N3  UNL     1     -34.139 -16.997  16.387  1.00  0.00    -0.345 N 
HETATM   18  C16 UNL     1     -33.287 -15.951  16.582  1.00  0.00     0.044 A 
ATOM     19  H3  UNL     1     -34.936 -17.221  16.982  1.00  0.00     0.167 HD
HETATM   20  C17 UNL     1     -33.207 -14.951  17.529  1.00  0.00     0.030 A 
HETATM   21  C21 UNL     1     -32.340 -15.975  15.576  1.00  0.00     0.008 A 
HETATM   22  C18 UNL     1     -32.216 -13.979  17.503  1.00  0.00     0.002 A 
HETATM   23  C19 UNL     1     -31.268 -14.002  16.499  1.00  0.00     0.001 A 
HETATM   24  C20 UNL     1     -31.352 -15.004  15.556  1.00  0.00     0.015 A 
ENDBRANCH  12  14
ENDBRANCH  11  12
BRANCH   7  25
HETATM   25  C9  UNL     1     -28.144 -20.030  11.620  1.00  0.00     0.057 C 
BRANCH  25  26
HETATM   26  C10 UNL     1     -27.035 -20.417  10.711  1.00  0.00     0.166 C 
BRANCH  26  27
HETATM   27  O3  UNL     1     -25.984 -21.042  11.363  1.00  0.00    -0.401 OA
ATOM     28  H3  UNL     1     -26.085 -21.985  11.421  1.00  0.00     0.209 HD
ENDBRANCH  26  27
ENDBRANCH  25  26
ENDBRANCH   7  25
BRANCH   6  29
HETATM   29  C4  UNL     1     -26.743 -22.891  14.359  1.00  0.00     0.076 A 
HETATM   30  C5  UNL     1     -26.221 -22.909  15.660  1.00  0.00     0.039 A 
HETATM   31  C6  UNL     1     -24.872 -23.154  15.556  1.00  0.00     0.027 A 
HETATM   32  C7  UNL     1     -24.630 -23.273  14.206  1.00  0.00     0.142 A 
HETATM   33  O2  UNL     1     -25.758 -23.110  13.556  1.00  0.00    -0.323 OA
ENDBRANCH   6  29
TORSDOF 6
ENDMDL
