MODEL 1
REMARK VINA RESULT: -7.929961772      0.000      0.000
REMARK  5 active torsions:
REMARK  status: ('A' for Active; 'I' for Inactive)
REMARK    1  A    between atoms: C6_8  and  N1_9 
REMARK       I    between atoms: N1_9  and  C7_11 
REMARK    2  A    between atoms: C7_11  and  C8_13 
REMARK    3  A    between atoms: C8_13  and  C9_14 
REMARK    4  A    between atoms: C9_14  and  C10_15 
REMARK    5  A    between atoms: C12_19  and  C13_20 
ROOT
HETATM    1  C1  UNL     1     -37.460 -20.567  15.547  1.00  0.00     0.062 C 
HETATM    2  C2  UNL     1     -36.187 -20.852  14.833  1.00  0.00     0.023 C 
HETATM    3 CL1  UNL     1     -36.134 -22.321  13.893  1.00  0.00    -0.088 Cl
HETATM    4  C3  UNL     1     -35.201 -20.022  14.936  1.00  0.00     0.045 A 
HETATM    5  C4  UNL     1     -33.845 -20.094  14.320  1.00  0.00     0.197 A 
HETATM    6  O1  UNL     1     -33.387 -20.979  13.575  1.00  0.00    -0.286 OA
HETATM    7  C5  UNL     1     -33.103 -18.899  14.753  1.00  0.00     0.055 A 
HETATM    8  C6  UNL     1     -31.835 -18.326  14.577  1.00  0.00     0.050 A 
HETATM    9  C11 UNL     1     -31.585 -17.111  15.231  1.00  0.00     0.045 A 
HETATM   10  C12 UNL     1     -32.501 -16.438  16.037  1.00  0.00     0.006 A 
HETATM   11  C17 UNL     1     -33.751 -17.049  16.182  1.00  0.00     0.055 A 
HETATM   12  N3  UNL     1     -34.922 -16.824  16.817  1.00  0.00    -0.364 N 
ATOM     13  H3  UNL     1     -35.123 -16.016  17.407  1.00  0.00     0.165 HD
HETATM   14  C18 UNL     1     -35.802 -17.850  16.546  1.00  0.00     0.101 A 
HETATM   15  C19 UNL     1     -35.182 -18.773  15.708  1.00  0.00     0.008 A 
HETATM   16  C20 UNL     1     -33.957 -18.218  15.539  1.00  0.00     0.021 A 
ENDROOT
BRANCH   8  17
HETATM   17  N1  UNL     1     -30.938 -19.016  13.770  1.00  0.00    -0.326 N 
HETATM   18  C7  UNL     1     -29.875 -18.534  12.979  1.00  0.00     0.222 C 
HETATM   19  O2  UNL     1     -29.608 -17.329  12.921  1.00  0.00    -0.273 OA
ATOM     20  H1  UNL     1     -31.070 -20.027  13.745  1.00  0.00     0.169 HD
BRANCH  18  21
HETATM   21  C8  UNL     1     -29.042 -19.516  12.183  1.00  0.00     0.112 C 
BRANCH  21  22
HETATM   22  C9  UNL     1     -29.666 -20.867  12.149  1.00  0.00     0.109 C 
BRANCH  22  23
HETATM   23  C10 UNL     1     -30.576 -21.109  11.017  1.00  0.00     0.231 C 
HETATM   24  N2  UNL     1     -31.395 -22.277  11.092  1.00  0.00    -0.062 NA
HETATM   25  O3  UNL     1     -30.692 -20.385  10.002  1.00  0.00    -0.277 OA
ENDBRANCH  22  23
ENDBRANCH  21  22
ENDBRANCH  18  21
ENDBRANCH   8  17
BRANCH  10  26
HETATM   26  C13 UNL     1     -32.252 -15.190  16.712  1.00  0.00     0.001 A 
HETATM   27  C14 UNL     1     -31.478 -14.143  16.251  1.00  0.00     0.039 A 
HETATM   28  C15 UNL     1     -31.497 -13.122  17.207  1.00  0.00     0.142 A 
HETATM   29  O4  UNL     1     -32.239 -13.545  18.177  1.00  0.00    -0.334 OA
HETATM   30  C16 UNL     1     -32.706 -14.747  17.938  1.00  0.00     0.153 A 
ENDBRANCH  10  26
TORSDOF 5
ENDMDL
MODEL 2
REMARK VINA RESULT: -7.777390616      2.716      6.255
REMARK  5 active torsions:
REMARK  status: ('A' for Active; 'I' for Inactive)
REMARK    1  A    between atoms: C6_8  and  N1_9 
REMARK       I    between atoms: N1_9  and  C7_11 
REMARK    2  A    between atoms: C7_11  and  C8_13 
REMARK    3  A    between atoms: C8_13  and  C9_14 
REMARK    4  A    between atoms: C9_14  and  C10_15 
REMARK    5  A    between atoms: C12_19  and  C13_20 
ROOT
HETATM    1  C1  UNL     1     -32.096 -22.846  11.816  1.00  0.00     0.062 C 
HETATM    2  C2  UNL     1     -31.691 -21.442  12.095  1.00  0.00     0.023 C 
HETATM    3 CL1  UNL     1     -30.238 -20.880  11.307  1.00  0.00    -0.088 Cl
HETATM    4  C3  UNL     1     -32.412 -20.718  12.887  1.00  0.00     0.045 A 
HETATM    5  C4  UNL     1     -32.208 -19.304  13.311  1.00  0.00     0.197 A 
HETATM    6  O1  UNL     1     -31.292 -18.528  12.983  1.00  0.00    -0.286 OA
HETATM    7  C5  UNL     1     -33.313 -18.955  14.219  1.00  0.00     0.055 A 
HETATM    8  C6  UNL     1     -33.754 -17.853  14.967  1.00  0.00     0.050 A 
HETATM    9  C11 UNL     1     -34.926 -18.017  15.719  1.00  0.00     0.045 A 
HETATM   10  C12 UNL     1     -35.678 -19.188  15.775  1.00  0.00     0.006 A 
HETATM   11  C17 UNL     1     -35.198 -20.259  15.012  1.00  0.00     0.055 A 
HETATM   12  N3  UNL     1     -35.535 -21.537  14.736  1.00  0.00    -0.364 N 
ATOM     13  H3  UNL     1     -36.349 -22.024  15.111  1.00  0.00     0.165 HD
HETATM   14  C18 UNL     1     -34.610 -22.085  13.872  1.00  0.00     0.101 A 
HETATM   15  C19 UNL     1     -33.639 -21.130  13.578  1.00  0.00     0.008 A 
HETATM   16  C20 UNL     1     -34.067 -20.066  14.301  1.00  0.00     0.021 A 
ENDROOT
BRANCH   8  17
HETATM   17  N1  UNL     1     -32.987 -16.696  14.896  1.00  0.00    -0.326 N 
HETATM   18  C7  UNL     1     -32.043 -16.177  15.806  1.00  0.00     0.222 C 
HETATM   19  O2  UNL     1     -31.777 -16.759  16.862  1.00  0.00    -0.273 OA
ATOM     20  H1  UNL     1     -33.128 -16.136  14.056  1.00  0.00     0.169 HD
BRANCH  18  21
HETATM   21  C8  UNL     1     -31.340 -14.876  15.479  1.00  0.00     0.112 C 
BRANCH  21  22
HETATM   22  C9  UNL     1     -30.925 -14.150  16.710  1.00  0.00     0.109 C 
BRANCH  22  23
HETATM   23  C10 UNL     1     -31.973 -13.326  17.335  1.00  0.00     0.231 C 
HETATM   24  N2  UNL     1     -32.476 -13.777  18.594  1.00  0.00    -0.062 NA
HETATM   25  O3  UNL     1     -32.457 -12.272  16.862  1.00  0.00    -0.277 OA
ENDBRANCH  22  23
ENDBRANCH  21  22
ENDBRANCH  18  21
ENDBRANCH   8  17
BRANCH  10  26
HETATM   26  C13 UNL     1     -36.883 -19.364  16.544  1.00  0.00     0.001 A 
HETATM   27  C14 UNL     1     -38.161 -19.526  16.049  1.00  0.00     0.039 A 
HETATM   28  C15 UNL     1     -39.042 -19.664  17.127  1.00  0.00     0.142 A 
HETATM   29  O4  UNL     1     -38.322 -19.588  18.197  1.00  0.00    -0.334 OA
HETATM   30  C16 UNL     1     -37.053 -19.413  17.914  1.00  0.00     0.153 A 
ENDBRANCH  10  26
TORSDOF 5
ENDMDL
MODEL 3
REMARK VINA RESULT: -7.714880314      2.872      6.524
REMARK  5 active torsions:
REMARK  status: ('A' for Active; 'I' for Inactive)
REMARK    1  A    between atoms: C6_8  and  N1_9 
REMARK       I    between atoms: N1_9  and  C7_11 
REMARK    2  A    between atoms: C7_11  and  C8_13 
REMARK    3  A    between atoms: C8_13  and  C9_14 
REMARK    4  A    between atoms: C9_14  and  C10_15 
REMARK    5  A    between atoms: C12_19  and  C13_20 
ROOT
HETATM    1  C1  UNL     1     -33.681 -22.118  13.114  1.00  0.00     0.062 C 
HETATM    2  C2  UNL     1     -34.861 -21.652  13.891  1.00  0.00     0.023 C 
HETATM    3 CL1  UNL     1     -36.249 -22.711  13.905  1.00  0.00    -0.088 Cl
HETATM    4  C3  UNL     1     -34.810 -20.516  14.505  1.00  0.00     0.045 A 
HETATM    5  C4  UNL     1     -35.854 -19.850  15.334  1.00  0.00     0.197 A 
HETATM    6  O1  UNL     1     -36.997 -20.261  15.605  1.00  0.00    -0.286 OA
HETATM    7  C5  UNL     1     -35.292 -18.574  15.804  1.00  0.00     0.055 A 
HETATM    8  C6  UNL     1     -35.680 -17.477  16.588  1.00  0.00     0.050 A 
HETATM    9  C11 UNL     1     -34.745 -16.446  16.756  1.00  0.00     0.045 A 
HETATM   10  C12 UNL     1     -33.466 -16.435  16.203  1.00  0.00     0.006 A 
HETATM   11  C17 UNL     1     -33.126 -17.550  15.430  1.00  0.00     0.055 A 
HETATM   12  N3  UNL     1     -32.074 -18.004  14.714  1.00  0.00    -0.364 N 
ATOM     13  H3  UNL     1     -31.186 -17.514  14.600  1.00  0.00     0.165 HD
HETATM   14  C18 UNL     1     -32.381 -19.230  14.163  1.00  0.00     0.101 A 
HETATM   15  C19 UNL     1     -33.677 -19.583  14.532  1.00  0.00     0.008 A 
HETATM   16  C20 UNL     1     -34.050 -18.523  15.289  1.00  0.00     0.021 A 
ENDROOT
BRANCH   8  17
HETATM   17  N1  UNL     1     -36.961 -17.510  17.129  1.00  0.00    -0.326 N 
HETATM   18  C7  UNL     1     -37.430 -18.119  18.311  1.00  0.00     0.222 C 
HETATM   19  O2  UNL     1     -36.672 -18.745  19.059  1.00  0.00    -0.273 OA
ATOM     20  H1  UNL     1     -37.671 -17.019  16.586  1.00  0.00     0.169 HD
BRANCH  18  21
HETATM   21  C8  UNL     1     -38.896 -18.001  18.670  1.00  0.00     0.112 C 
BRANCH  21  22
HETATM   22  C9  UNL     1     -39.145 -16.875  19.611  1.00  0.00     0.109 C 
BRANCH  22  23
HETATM   23  C10 UNL     1     -39.070 -15.531  19.014  1.00  0.00     0.231 C 
HETATM   24  N2  UNL     1     -40.310 -14.910  18.676  1.00  0.00    -0.062 NA
HETATM   25  O3  UNL     1     -38.019 -14.891  18.780  1.00  0.00    -0.277 OA
ENDBRANCH  22  23
ENDBRANCH  21  22
ENDBRANCH  18  21
ENDBRANCH   8  17
BRANCH  10  26
HETATM   26  C13 UNL     1     -32.499 -15.380  16.371  1.00  0.00     0.001 A 
HETATM   27  C14 UNL     1     -32.521 -14.386  17.328  1.00  0.00     0.039 A 
HETATM   28  C15 UNL     1     -31.402 -13.566  17.144  1.00  0.00     0.142 A 
HETATM   29  O4  UNL     1     -30.758 -14.051  16.134  1.00  0.00    -0.334 OA
HETATM   30  C16 UNL     1     -31.356 -15.112  15.645  1.00  0.00     0.153 A 
ENDBRANCH  10  26
TORSDOF 5
ENDMDL
MODEL 4
REMARK VINA RESULT: -7.689674236      1.099      1.156
REMARK  5 active torsions:
REMARK  status: ('A' for Active; 'I' for Inactive)
REMARK    1  A    between atoms: C6_8  and  N1_9 
REMARK       I    between atoms: N1_9  and  C7_11 
REMARK    2  A    between atoms: C7_11  and  C8_13 
REMARK    3  A    between atoms: C8_13  and  C9_14 
REMARK    4  A    between atoms: C9_14  and  C10_15 
REMARK    5  A    between atoms: C12_19  and  C13_20 
ROOT
HETATM    1  C1  UNL     1     -36.486 -21.619  15.089  1.00  0.00     0.062 C 
HETATM    2  C2  UNL     1     -35.256 -21.626  14.252  1.00  0.00     0.023 C 
HETATM    3 CL1  UNL     1     -35.020 -23.020  13.229  1.00  0.00    -0.088 Cl
HETATM    4  C3  UNL     1     -34.438 -20.627  14.316  1.00  0.00     0.045 A 
HETATM    5  C4  UNL     1     -33.158 -20.414  13.584  1.00  0.00     0.197 A 
HETATM    6  O1  UNL     1     -32.615 -21.164  12.752  1.00  0.00    -0.286 OA
HETATM    7  C5  UNL     1     -32.615 -19.117  14.018  1.00  0.00     0.055 A 
HETATM    8  C6  UNL     1     -31.499 -18.305  13.766  1.00  0.00     0.050 A 
HETATM    9  C11 UNL     1     -31.419 -17.091  14.464  1.00  0.00     0.045 A 
HETATM   10  C12 UNL     1     -32.364 -16.638  15.383  1.00  0.00     0.006 A 
HETATM   11  C17 UNL     1     -33.458 -17.483  15.600  1.00  0.00     0.055 A 
HETATM   12  N3  UNL     1     -34.584 -17.511  16.345  1.00  0.00    -0.364 N 
ATOM     13  H3  UNL     1     -34.876 -16.781  16.995  1.00  0.00     0.165 HD
HETATM   14  C18 UNL     1     -35.279 -18.676  16.093  1.00  0.00     0.101 A 
HETATM   15  C19 UNL     1     -34.579 -19.429  15.154  1.00  0.00     0.008 A 
HETATM   16  C20 UNL     1     -33.502 -18.644  14.912  1.00  0.00     0.021 A 
ENDROOT
BRANCH   8  17
HETATM   17  N1  UNL     1     -30.570 -18.777  12.846  1.00  0.00    -0.326 N 
HETATM   18  C7  UNL     1     -29.229 -19.170  13.033  1.00  0.00     0.222 C 
HETATM   19  O2  UNL     1     -28.693 -19.129  14.144  1.00  0.00    -0.273 OA
ATOM     20  H1  UNL     1     -30.912 -18.852  11.888  1.00  0.00     0.169 HD
BRANCH  18  21
HETATM   21  C8  UNL     1     -28.428 -19.652  11.842  1.00  0.00     0.112 C 
BRANCH  21  22
HETATM   22  C9  UNL     1     -28.799 -21.041  11.453  1.00  0.00     0.109 C 
BRANCH  22  23
HETATM   23  C10 UNL     1     -29.723 -21.147  10.311  1.00  0.00     0.231 C 
HETATM   24  N2  UNL     1     -29.403 -22.119   9.316  1.00  0.00    -0.062 NA
HETATM   25  O3  UNL     1     -30.758 -20.462  10.139  1.00  0.00    -0.277 OA
ENDBRANCH  22  23
ENDBRANCH  21  22
ENDBRANCH  18  21
ENDBRANCH   8  17
BRANCH  10  26
HETATM   26  C13 UNL     1     -32.290 -15.393  16.103  1.00  0.00     0.001 A 
HETATM   27  C14 UNL     1     -31.289 -14.446  16.013  1.00  0.00     0.039 A 
HETATM   28  C15 UNL     1     -31.598 -13.389  16.876  1.00  0.00     0.142 A 
HETATM   29  O4  UNL     1     -32.717 -13.697  17.443  1.00  0.00    -0.334 OA
HETATM   30  C16 UNL     1     -33.165 -14.858  17.027  1.00  0.00     0.153 A 
ENDBRANCH  10  26
TORSDOF 5
ENDMDL
MODEL 5
REMARK VINA RESULT: -7.645228620      1.370      1.903
REMARK  5 active torsions:
REMARK  status: ('A' for Active; 'I' for Inactive)
REMARK    1  A    between atoms: C6_8  and  N1_9 
REMARK       I    between atoms: N1_9  and  C7_11 
REMARK    2  A    between atoms: C7_11  and  C8_13 
REMARK    3  A    between atoms: C8_13  and  C9_14 
REMARK    4  A    between atoms: C9_14  and  C10_15 
REMARK    5  A    between atoms: C12_19  and  C13_20 
ROOT
HETATM    1  C1  UNL     1     -37.317 -20.542  15.395  1.00  0.00     0.062 C 
HETATM    2  C2  UNL     1     -35.987 -20.831  14.796  1.00  0.00     0.023 C 
HETATM    3 CL1  UNL     1     -35.843 -22.324  13.905  1.00  0.00    -0.088 Cl
HETATM    4  C3  UNL     1     -35.021 -19.986  14.955  1.00  0.00     0.045 A 
HETATM    5  C4  UNL     1     -33.619 -20.058  14.455  1.00  0.00     0.197 A 
HETATM    6  O1  UNL     1     -33.092 -20.958  13.775  1.00  0.00    -0.286 OA
HETATM    7  C5  UNL     1     -32.927 -18.843  14.913  1.00  0.00     0.055 A 
HETATM    8  C6  UNL     1     -31.654 -18.260  14.825  1.00  0.00     0.050 A 
HETATM    9  C11 UNL     1     -31.470 -17.024  15.463  1.00  0.00     0.045 A 
HETATM   10  C12 UNL     1     -32.456 -16.341  16.172  1.00  0.00     0.006 A 
HETATM   11  C17 UNL     1     -33.708 -16.963  16.231  1.00  0.00     0.055 A 
HETATM   12  N3  UNL     1     -34.929 -16.734  16.761  1.00  0.00    -0.364 N 
ATOM     13  H3  UNL     1     -35.186 -15.914  17.310  1.00  0.00     0.165 HD
HETATM   14  C18 UNL     1     -35.774 -17.779  16.449  1.00  0.00     0.101 A 
HETATM   15  C19 UNL     1     -35.077 -18.717  15.691  1.00  0.00     0.008 A 
HETATM   16  C20 UNL     1     -33.849 -18.152  15.607  1.00  0.00     0.021 A 
ENDROOT
BRANCH   8  17
HETATM   17  N1  UNL     1     -30.687 -18.960  14.114  1.00  0.00    -0.326 N 
HETATM   18  C7  UNL     1     -29.713 -18.493  13.208  1.00  0.00     0.222 C 
HETATM   19  O2  UNL     1     -29.611 -17.294  12.931  1.00  0.00    -0.273 OA
ATOM     20  H1  UNL     1     -30.682 -19.968  14.271  1.00  0.00     0.169 HD
BRANCH  18  21
HETATM   21  C8  UNL     1     -28.769 -19.486  12.562  1.00  0.00     0.112 C 
BRANCH  21  22
HETATM   22  C9  UNL     1     -28.420 -20.598  13.487  1.00  0.00     0.109 C 
BRANCH  22  23
HETATM   23  C10 UNL     1     -27.914 -20.182  14.805  1.00  0.00     0.231 C 
HETATM   24  N2  UNL     1     -28.689 -20.569  15.941  1.00  0.00    -0.062 NA
HETATM   25  O3  UNL     1     -26.870 -19.522  15.015  1.00  0.00    -0.277 OA
ENDBRANCH  22  23
ENDBRANCH  21  22
ENDBRANCH  18  21
ENDBRANCH   8  17
BRANCH  10  26
HETATM   26  C13 UNL     1     -32.276 -15.071  16.829  1.00  0.00     0.001 A 
HETATM   27  C14 UNL     1     -31.614 -13.970  16.326  1.00  0.00     0.039 A 
HETATM   28  C15 UNL     1     -31.667 -12.946  17.279  1.00  0.00     0.142 A 
HETATM   29  O4  UNL     1     -32.323 -13.420  18.286  1.00  0.00    -0.334 OA
HETATM   30  C16 UNL     1     -32.702 -14.658  18.076  1.00  0.00     0.153 A 
ENDBRANCH  10  26
TORSDOF 5
ENDMDL
