MODEL 1
REMARK VINA RESULT: -8.374336487      0.000      0.000
REMARK  18 active torsions:
REMARK  status: ('A' for Active; 'I' for Inactive)
REMARK    1  A    between atoms: N1_1  and  N2_4 
REMARK    2  A    between atoms: C1_6  and  C2_7 
REMARK    3  A    between atoms: C3_8  and  C4_9 
REMARK    4  A    between atoms: C4_9  and  O1_10 
REMARK    5  A    between atoms: C4_9  and  O2_12 
REMARK    6  A    between atoms: C5_14  and  O3_15 
REMARK    7  A    between atoms: C7_20  and  C8_21 
REMARK    8  A    between atoms: C8_21  and  C9_22 
REMARK    9  A    between atoms: C8_21  and  N4_43 
REMARK   10  A    between atoms: C9_22  and  O6_23 
REMARK   11  A    between atoms: O6_23  and  C10_24 
REMARK   12  A    between atoms: C10_24  and  C11_26 
REMARK   13  A    between atoms: C11_26  and  N3_27 
REMARK   14  A    between atoms: C12_28  and  O8_29 
REMARK   15  A    between atoms: C14_32  and  C15_33 
REMARK   16  A    between atoms: C15_33  and  O9_34 
REMARK   17  A    between atoms: C15_33  and  O10_36 
REMARK   18  A    between atoms: C16_38  and  O11_39 
ROOT
HETATM    1  C8  UNL     1      60.132  16.400  94.619  1.00  0.00     0.053 C 
ENDROOT
BRANCH   1   2
HETATM    2  C7  UNL     1      60.417  17.505  95.526  1.00  0.00     0.077 A 
HETATM    3  C2  UNL     1      60.008  18.846  95.397  1.00  0.00     0.015 A 
HETATM    4  C3  UNL     1      60.526  19.855  96.178  1.00  0.00     0.067 A 
HETATM    5  C5  UNL     1      61.506  19.500  97.157  1.00  0.00     0.198 A 
HETATM    6  O4  UNL     1      61.865  18.270  97.268  1.00  0.00    -0.250 OA
HETATM    7  C6  UNL     1      61.396  17.301  96.537  1.00  0.00     0.303 A 
HETATM    8  O5  UNL     1      61.858  16.164  96.764  1.00  0.00    -0.259 OA
BRANCH   3   9
HETATM    9  C1  UNL     1      58.868  19.094  94.551  1.00  0.00     0.119 C 
HETATM   10  N2  UNL     1      58.914  19.180  93.283  1.00  0.00    -0.318 N 
ATOM     11  H2  UNL     1      59.829  19.062  92.848  1.00  0.00     0.185 HD
BRANCH  10  12
HETATM   12  N1  UNL     1      57.850  19.418  92.437  1.00  0.00    -0.345 N 
ATOM     13  H12 UNL     1      56.934  19.457  92.882  1.00  0.00     0.176 HD
ATOM     14  H11 UNL     1      57.896  19.555  91.427  1.00  0.00     0.176 HD
ENDBRANCH  10  12
ENDBRANCH   3   9
BRANCH   4  15
HETATM   15  C4  UNL     1      60.208  21.273  96.035  1.00  0.00     0.294 C 
BRANCH  15  16
HETATM   16  O1  UNL     1      59.756  21.927  97.158  1.00  0.00    -0.367 OA
ATOM     17  H1  UNL     1      58.832  21.843  97.363  1.00  0.00     0.213 HD
ENDBRANCH  15  16
BRANCH  15  18
HETATM   18  O2  UNL     1      61.187  22.003  95.333  1.00  0.00    -0.367 OA
ATOM     19  H2  UNL     1      61.930  22.257  95.869  1.00  0.00     0.213 HD
ENDBRANCH  15  18
ENDBRANCH   4  15
BRANCH   5  20
HETATM   20  O3  UNL     1      62.020  20.514  97.944  1.00  0.00    -0.340 OA
ATOM     21  H3  UNL     1      62.352  20.278  98.802  1.00  0.00     0.220 HD
ENDBRANCH   5  20
ENDBRANCH   1   2
BRANCH   1  22
HETATM   22  C9  UNL     1      61.257  16.214  93.630  1.00  0.00     0.237 C 
BRANCH  22  23
HETATM   23  O6  UNL     1      61.180  16.817  92.423  1.00  0.00    -0.311 OA
BRANCH  23  24
HETATM   24  C10 UNL     1      61.640  17.969  91.877  1.00  0.00     0.299 C 
HETATM   25  O7  UNL     1      60.791  18.738  91.376  1.00  0.00    -0.259 OA
BRANCH  24  26
HETATM   26  C11 UNL     1      63.079  18.315  91.873  1.00  0.00     0.184 C 
BRANCH  26  27
HETATM   27  N3  UNL     1      63.473  19.528  91.289  1.00  0.00    -0.261 N 
HETATM   28  C12 UNL     1      63.503  20.707  91.943  1.00  0.00     0.150 A 
HETATM   29  C13 UNL     1      63.837  21.891  91.285  1.00  0.00     0.071 A 
HETATM   30  C14 UNL     1      64.150  21.903  89.948  1.00  0.00     0.039 A 
HETATM   31  C16 UNL     1      64.118  20.692  89.294  1.00  0.00     0.146 A 
HETATM   32  C17 UNL     1      63.789  19.566  89.962  1.00  0.00     0.287 A 
HETATM   33  O12 UNL     1      63.773  18.474  89.316  1.00  0.00    -0.264 OA
BRANCH  28  34
HETATM   34  O8  UNL     1      63.203  20.762  93.289  1.00  0.00    -0.346 OA
ATOM     35  H8  UNL     1      63.070  21.600  93.715  1.00  0.00     0.219 HD
ENDBRANCH  28  34
BRANCH  30  36
HETATM   36  C15 UNL     1      64.478  23.177  89.255  1.00  0.00     0.291 C 
BRANCH  36  37
HETATM   37  O9  UNL     1      65.818  23.336  88.979  1.00  0.00    -0.367 OA
ATOM     38  H9  UNL     1      66.355  23.495  89.746  1.00  0.00     0.213 HD
ENDBRANCH  36  37
BRANCH  36  39
HETATM   39  O10 UNL     1      63.752  23.256  88.040  1.00  0.00    -0.367 OA
ATOM     40  H10 UNL     1      63.526  24.162  87.864  1.00  0.00     0.213 HD
ENDBRANCH  36  39
ENDBRANCH  30  36
BRANCH  31  41
HETATM   41  O11 UNL     1      64.448  20.744  87.928  1.00  0.00    -0.355 OA
ATOM     42  H11 UNL     1      65.378  20.728  87.737  1.00  0.00     0.218 HD
ENDBRANCH  31  41
ENDBRANCH  26  27
ENDBRANCH  24  26
ENDBRANCH  23  24
ENDBRANCH  22  23
ENDBRANCH   1  22
BRANCH   1  43
HETATM   43  N4  UNL     1      59.492  15.261  95.092  1.00  0.00    -0.334 N 
HETATM   44  C18 UNL     1      58.863  14.355  94.391  1.00  0.00     0.201 C 
HETATM   45  N5  UNL     1      58.283  13.259  95.082  1.00  0.00    -0.067 NA
HETATM   46  N6  UNL     1      58.723  14.460  92.986  1.00  0.00    -0.067 NA
ATOM     47  H4  UNL     1      59.516  15.115  96.102  1.00  0.00     0.168 HD
ENDBRANCH   1  43
TORSDOF 18
ENDMDL
MODEL 2
REMARK VINA RESULT: -8.285568909      2.605      8.500
REMARK  18 active torsions:
REMARK  status: ('A' for Active; 'I' for Inactive)
REMARK    1  A    between atoms: N1_1  and  N2_4 
REMARK    2  A    between atoms: C1_6  and  C2_7 
REMARK    3  A    between atoms: C3_8  and  C4_9 
REMARK    4  A    between atoms: C4_9  and  O1_10 
REMARK    5  A    between atoms: C4_9  and  O2_12 
REMARK    6  A    between atoms: C5_14  and  O3_15 
REMARK    7  A    between atoms: C7_20  and  C8_21 
REMARK    8  A    between atoms: C8_21  and  C9_22 
REMARK    9  A    between atoms: C8_21  and  N4_43 
REMARK   10  A    between atoms: C9_22  and  O6_23 
REMARK   11  A    between atoms: O6_23  and  C10_24 
REMARK   12  A    between atoms: C10_24  and  C11_26 
REMARK   13  A    between atoms: C11_26  and  N3_27 
REMARK   14  A    between atoms: C12_28  and  O8_29 
REMARK   15  A    between atoms: C14_32  and  C15_33 
REMARK   16  A    between atoms: C15_33  and  O9_34 
REMARK   17  A    between atoms: C15_33  and  O10_36 
REMARK   18  A    between atoms: C16_38  and  O11_39 
ROOT
HETATM    1  C8  UNL     1      62.754  18.957  92.177  1.00  0.00     0.053 C 
ENDROOT
BRANCH   1   2
HETATM    2  C7  UNL     1      63.343  19.488  90.954  1.00  0.00     0.077 A 
HETATM    3  C2  UNL     1      63.556  20.840  90.623  1.00  0.00     0.015 A 
HETATM    4  C3  UNL     1      63.898  21.245  89.352  1.00  0.00     0.067 A 
HETATM    5  C5  UNL     1      64.046  20.234  88.351  1.00  0.00     0.198 A 
HETATM    6  O4  UNL     1      63.855  19.002  88.669  1.00  0.00    -0.250 OA
HETATM    7  C6  UNL     1      63.524  18.596  89.860  1.00  0.00     0.303 A 
HETATM    8  O5  UNL     1      63.364  17.367  90.001  1.00  0.00    -0.259 OA
BRANCH   3   9
HETATM    9  C1  UNL     1      63.605  21.772  91.721  1.00  0.00     0.119 C 
HETATM   10  N2  UNL     1      62.586  22.231  92.326  1.00  0.00    -0.318 N 
ATOM     11  H2  UNL     1      61.675  21.906  92.001  1.00  0.00     0.185 HD
BRANCH  10  12
HETATM   12  N1  UNL     1      62.588  23.124  93.377  1.00  0.00    -0.345 N 
ATOM     13  H12 UNL     1      63.391  23.750  93.422  1.00  0.00     0.176 HD
ATOM     14  H11 UNL     1      61.873  23.214  94.100  1.00  0.00     0.176 HD
ENDBRANCH  10  12
ENDBRANCH   3   9
BRANCH   4  15
HETATM   15  C4  UNL     1      64.048  22.633  88.927  1.00  0.00     0.294 C 
BRANCH  15  16
HETATM   16  O1  UNL     1      65.329  23.134  88.875  1.00  0.00    -0.367 OA
ATOM     17  H1  UNL     1      65.646  23.422  88.026  1.00  0.00     0.213 HD
ENDBRANCH  15  16
BRANCH  15  18
HETATM   18  O2  UNL     1      63.286  22.960  87.788  1.00  0.00    -0.367 OA
ATOM     19  H2  UNL     1      63.158  23.894  87.671  1.00  0.00     0.213 HD
ENDBRANCH  15  18
ENDBRANCH   4  15
BRANCH   5  20
HETATM   20  O3  UNL     1      64.396  20.643  87.077  1.00  0.00    -0.340 OA
ATOM     21  H3  UNL     1      65.179  21.174  86.987  1.00  0.00     0.220 HD
ENDBRANCH   5  20
ENDBRANCH   1   2
BRANCH   1  22
HETATM   22  C9  UNL     1      61.539  18.115  91.866  1.00  0.00     0.237 C 
BRANCH  22  23
HETATM   23  O6  UNL     1      60.321  18.547  92.259  1.00  0.00    -0.311 OA
BRANCH  23  24
HETATM   24  C10 UNL     1      59.487  18.299  93.298  1.00  0.00     0.299 C 
HETATM   25  O7  UNL     1      58.270  18.519  93.114  1.00  0.00    -0.259 OA
BRANCH  24  26
HETATM   26  C11 UNL     1      59.982  17.785  94.595  1.00  0.00     0.184 C 
BRANCH  26  27
HETATM   27  N3  UNL     1      59.442  16.587  95.089  1.00  0.00    -0.261 N 
HETATM   28  C12 UNL     1      59.840  15.361  94.694  1.00  0.00     0.150 A 
HETATM   29  C13 UNL     1      59.214  14.209  95.172  1.00  0.00     0.071 A 
HETATM   30  C14 UNL     1      58.172  14.279  96.063  1.00  0.00     0.039 A 
HETATM   31  C16 UNL     1      57.778  15.537  96.458  1.00  0.00     0.146 A 
HETATM   32  C17 UNL     1      58.406  16.630  95.975  1.00  0.00     0.287 A 
HETATM   33  O12 UNL     1      58.007  17.768  96.369  1.00  0.00    -0.264 OA
BRANCH  28  34
HETATM   34  O8  UNL     1      60.886  15.223  93.805  1.00  0.00    -0.346 OA
ATOM     35  H8  UNL     1      61.197  14.358  93.562  1.00  0.00     0.219 HD
ENDBRANCH  28  34
BRANCH  30  36
HETATM   36  C15 UNL     1      57.498  13.042  96.542  1.00  0.00     0.291 C 
BRANCH  36  37
HETATM   37  O9  UNL     1      57.547  12.871  97.908  1.00  0.00    -0.367 OA
ATOM     38  H9  UNL     1      58.355  12.479  98.219  1.00  0.00     0.213 HD
ENDBRANCH  36  37
BRANCH  36  39
HETATM   39  O10 UNL     1      56.140  13.056  96.136  1.00  0.00    -0.367 OA
ATOM     40  H10 UNL     1      55.824  12.163  96.055  1.00  0.00     0.213 HD
ENDBRANCH  36  39
ENDBRANCH  30  36
BRANCH  31  41
HETATM   41  O11 UNL     1      56.710  15.567  97.373  1.00  0.00    -0.355 OA
ATOM     42  H11 UNL     1      56.468  16.432  97.681  1.00  0.00     0.218 HD
ENDBRANCH  31  41
ENDBRANCH  26  27
ENDBRANCH  24  26
ENDBRANCH  23  24
ENDBRANCH  22  23
ENDBRANCH   1  22
BRANCH   1  43
HETATM   43  N4  UNL     1      63.574  18.547  93.221  1.00  0.00    -0.334 N 
HETATM   44  C18 UNL     1      63.646  19.061  94.421  1.00  0.00     0.201 C 
HETATM   45  N5  UNL     1      64.555  18.478  95.344  1.00  0.00    -0.067 NA
HETATM   46  N6  UNL     1      62.874  20.185  94.802  1.00  0.00    -0.067 NA
ATOM     47  H4  UNL     1      64.189  17.757  93.030  1.00  0.00     0.168 HD
ENDBRANCH   1  43
TORSDOF 18
ENDMDL
MODEL 3
REMARK VINA RESULT: -8.203706636      2.846      8.994
REMARK  18 active torsions:
REMARK  status: ('A' for Active; 'I' for Inactive)
REMARK    1  A    between atoms: N1_1  and  N2_4 
REMARK    2  A    between atoms: C1_6  and  C2_7 
REMARK    3  A    between atoms: C3_8  and  C4_9 
REMARK    4  A    between atoms: C4_9  and  O1_10 
REMARK    5  A    between atoms: C4_9  and  O2_12 
REMARK    6  A    between atoms: C5_14  and  O3_15 
REMARK    7  A    between atoms: C7_20  and  C8_21 
REMARK    8  A    between atoms: C8_21  and  C9_22 
REMARK    9  A    between atoms: C8_21  and  N4_43 
REMARK   10  A    between atoms: C9_22  and  O6_23 
REMARK   11  A    between atoms: O6_23  and  C10_24 
REMARK   12  A    between atoms: C10_24  and  C11_26 
REMARK   13  A    between atoms: C11_26  and  N3_27 
REMARK   14  A    between atoms: C12_28  and  O8_29 
REMARK   15  A    between atoms: C14_32  and  C15_33 
REMARK   16  A    between atoms: C15_33  and  O9_34 
REMARK   17  A    between atoms: C15_33  and  O10_36 
REMARK   18  A    between atoms: C16_38  and  O11_39 
ROOT
HETATM    1  C8  UNL     1      63.037  19.315  91.938  1.00  0.00     0.053 C 
ENDROOT
BRANCH   1   2
HETATM    2  C7  UNL     1      63.186  18.821  90.574  1.00  0.00     0.077 A 
HETATM    3  C2  UNL     1      63.296  19.582  89.395  1.00  0.00     0.015 A 
HETATM    4  C3  UNL     1      63.195  19.021  88.141  1.00  0.00     0.067 A 
HETATM    5  C5  UNL     1      62.982  17.609  88.062  1.00  0.00     0.198 A 
HETATM    6  O4  UNL     1      62.890  16.926  89.147  1.00  0.00    -0.250 OA
HETATM    7  C6  UNL     1      62.975  17.433  90.342  1.00  0.00     0.303 A 
HETATM    8  O5  UNL     1      62.853  16.635  91.293  1.00  0.00    -0.259 OA
BRANCH   3   9
HETATM    9  C1  UNL     1      63.727  20.949  89.547  1.00  0.00     0.119 C 
HETATM   10  N2  UNL     1      64.776  21.439  89.022  1.00  0.00    -0.318 N 
ATOM     11  H2  UNL     1      65.342  20.809  88.454  1.00  0.00     0.185 HD
BRANCH  10  12
HETATM   12  N1  UNL     1      65.225  22.738  89.144  1.00  0.00    -0.345 N 
ATOM     13  H12 UNL     1      64.622  23.364  89.677  1.00  0.00     0.176 HD
ATOM     14  H11 UNL     1      66.088  23.121  88.758  1.00  0.00     0.176 HD
ENDBRANCH  10  12
ENDBRANCH   3   9
BRANCH   4  15
HETATM   15  C4  UNL     1      63.214  19.766  86.886  1.00  0.00     0.294 C 
BRANCH  15  16
HETATM   16  O1  UNL     1      64.443  19.972  86.302  1.00  0.00    -0.367 OA
ATOM     17  H1  UNL     1      64.860  20.811  86.459  1.00  0.00     0.213 HD
ENDBRANCH  15  16
BRANCH  15  18
HETATM   18  O2  UNL     1      62.234  19.346  85.966  1.00  0.00    -0.367 OA
ATOM     19  H2  UNL     1      62.200  19.875  85.177  1.00  0.00     0.213 HD
ENDBRANCH  15  18
ENDBRANCH   4  15
BRANCH   5  20
HETATM   20  O3  UNL     1      62.887  17.048  86.801  1.00  0.00    -0.340 OA
ATOM     21  H3  UNL     1      62.674  16.123  86.748  1.00  0.00     0.220 HD
ENDBRANCH   5  20
ENDBRANCH   1   2
BRANCH   1  22
HETATM   22  C9  UNL     1      61.582  19.557  92.264  1.00  0.00     0.237 C 
BRANCH  22  23
HETATM   23  O6  UNL     1      61.093  19.130  93.448  1.00  0.00    -0.311 OA
BRANCH  23  24
HETATM   24  C10 UNL     1      60.740  17.936  93.985  1.00  0.00     0.299 C 
HETATM   25  O7  UNL     1      61.618  17.321  94.626  1.00  0.00    -0.259 OA
BRANCH  24  26
HETATM   26  C11 UNL     1      59.377  17.379  93.829  1.00  0.00     0.184 C 
BRANCH  26  27
HETATM   27  N3  UNL     1      59.002  16.296  94.639  1.00  0.00    -0.261 N 
HETATM   28  C12 UNL     1      59.407  15.026  94.437  1.00  0.00     0.150 A 
HETATM   29  C13 UNL     1      58.941  13.982  95.237  1.00  0.00     0.071 A 
HETATM   30  C14 UNL     1      58.054  14.207  96.261  1.00  0.00     0.039 A 
HETATM   31  C16 UNL     1      57.652  15.508  96.457  1.00  0.00     0.146 A 
HETATM   32  C17 UNL     1      58.122  16.494  95.663  1.00  0.00     0.287 A 
HETATM   33  O12 UNL     1      57.721  17.677  95.882  1.00  0.00    -0.264 OA
BRANCH  28  34
HETATM   34  O8  UNL     1      60.301  14.735  93.427  1.00  0.00    -0.346 OA
ATOM     35  H8  UNL     1      61.127  15.203  93.370  1.00  0.00     0.219 HD
ENDBRANCH  28  34
BRANCH  30  36
HETATM   36  C15 UNL     1      57.546  13.080  97.088  1.00  0.00     0.291 C 
BRANCH  36  37
HETATM   37  O9  UNL     1      57.710  13.261  98.443  1.00  0.00    -0.367 OA
ATOM     38  H9  UNL     1      58.326  12.658  98.842  1.00  0.00     0.213 HD
ENDBRANCH  36  37
BRANCH  36  39
HETATM   39  O10 UNL     1      56.169  12.880  96.820  1.00  0.00    -0.367 OA
ATOM     40  H10 UNL     1      55.833  12.191  97.383  1.00  0.00     0.213 HD
ENDBRANCH  36  39
ENDBRANCH  30  36
BRANCH  31  41
HETATM   41  O11 UNL     1      56.746  15.699  97.517  1.00  0.00    -0.355 OA
ATOM     42  H11 UNL     1      57.137  15.983  98.335  1.00  0.00     0.218 HD
ENDBRANCH  31  41
ENDBRANCH  26  27
ENDBRANCH  24  26
ENDBRANCH  23  24
ENDBRANCH  22  23
ENDBRANCH   1  22
BRANCH   1  43
HETATM   43  N4  UNL     1      63.852  18.822  92.948  1.00  0.00    -0.334 N 
HETATM   44  C18 UNL     1      64.480  19.508  93.867  1.00  0.00     0.201 C 
HETATM   45  N5  UNL     1      65.261  18.796  94.816  1.00  0.00    -0.067 NA
HETATM   46  N6  UNL     1      64.424  20.922  93.916  1.00  0.00    -0.067 NA
ATOM     47  H4  UNL     1      63.976  17.809  92.976  1.00  0.00     0.168 HD
ENDBRANCH   1  43
TORSDOF 18
ENDMDL
MODEL 4
REMARK VINA RESULT: -8.042760670      2.494      8.403
REMARK  18 active torsions:
REMARK  status: ('A' for Active; 'I' for Inactive)
REMARK    1  A    between atoms: N1_1  and  N2_4 
REMARK    2  A    between atoms: C1_6  and  C2_7 
REMARK    3  A    between atoms: C3_8  and  C4_9 
REMARK    4  A    between atoms: C4_9  and  O1_10 
REMARK    5  A    between atoms: C4_9  and  O2_12 
REMARK    6  A    between atoms: C5_14  and  O3_15 
REMARK    7  A    between atoms: C7_20  and  C8_21 
REMARK    8  A    between atoms: C8_21  and  C9_22 
REMARK    9  A    between atoms: C8_21  and  N4_43 
REMARK   10  A    between atoms: C9_22  and  O6_23 
REMARK   11  A    between atoms: O6_23  and  C10_24 
REMARK   12  A    between atoms: C10_24  and  C11_26 
REMARK   13  A    between atoms: C11_26  and  N3_27 
REMARK   14  A    between atoms: C12_28  and  O8_29 
REMARK   15  A    between atoms: C14_32  and  C15_33 
REMARK   16  A    between atoms: C15_33  and  O9_34 
REMARK   17  A    between atoms: C15_33  and  O10_36 
REMARK   18  A    between atoms: C16_38  and  O11_39 
ROOT
HETATM    1  C8  UNL     1      63.676  20.595  91.983  1.00  0.00     0.053 C 
ENDROOT
BRANCH   1   2
HETATM    2  C7  UNL     1      63.743  19.827  90.746  1.00  0.00     0.077 A 
HETATM    3  C2  UNL     1      63.672  20.318  89.428  1.00  0.00     0.015 A 
HETATM    4  C3  UNL     1      63.506  19.491  88.339  1.00  0.00     0.067 A 
HETATM    5  C5  UNL     1      63.417  18.085  88.582  1.00  0.00     0.198 A 
HETATM    6  O4  UNL     1      63.490  17.650  89.790  1.00  0.00    -0.250 OA
HETATM    7  C6  UNL     1      63.639  18.411  90.835  1.00  0.00     0.303 A 
HETATM    8  O5  UNL     1      63.680  17.832  91.939  1.00  0.00    -0.259 OA
BRANCH   3   9
HETATM    9  C1  UNL     1      63.988  21.712  89.242  1.00  0.00     0.119 C 
HETATM   10  N2  UNL     1      65.155  22.207  89.335  1.00  0.00    -0.318 N 
ATOM     11  H2  UNL     1      65.911  21.560  89.557  1.00  0.00     0.185 HD
BRANCH  10  12
HETATM   12  N1  UNL     1      65.500  23.532  89.167  1.00  0.00    -0.345 N 
ATOM     13  H12 UNL     1      65.006  24.026  88.424  1.00  0.00     0.176 HD
ATOM     14  H11 UNL     1      66.191  24.053  89.707  1.00  0.00     0.176 HD
ENDBRANCH  10  12
ENDBRANCH   3   9
BRANCH   4  15
HETATM   15  C4  UNL     1      63.340  19.944  86.962  1.00  0.00     0.294 C 
BRANCH  15  16
HETATM   16  O1  UNL     1      64.477  20.028  86.191  1.00  0.00    -0.367 OA
ATOM     17  H1  UNL     1      64.380  20.389  85.317  1.00  0.00     0.213 HD
ENDBRANCH  15  16
BRANCH  15  18
HETATM   18  O2  UNL     1      62.268  19.324  86.290  1.00  0.00    -0.367 OA
ATOM     19  H2  UNL     1      61.422  19.710  86.484  1.00  0.00     0.213 HD
ENDBRANCH  15  18
ENDBRANCH   4  15
BRANCH   5  20
HETATM   20  O3  UNL     1      63.257  17.257  87.486  1.00  0.00    -0.340 OA
ATOM     21  H3  UNL     1      63.142  16.328  87.651  1.00  0.00     0.220 HD
ENDBRANCH   5  20
ENDBRANCH   1   2
BRANCH   1  22
HETATM   22  C9  UNL     1      62.312  20.470  92.619  1.00  0.00     0.237 C 
BRANCH  22  23
HETATM   23  O6  UNL     1      62.213  20.449  93.966  1.00  0.00    -0.311 OA
BRANCH  23  24
HETATM   24  C10 UNL     1      62.326  19.511  94.938  1.00  0.00     0.299 C 
HETATM   25  O7  UNL     1      63.475  19.082  95.181  1.00  0.00    -0.259 OA
BRANCH  24  26
HETATM   26  C11 UNL     1      61.151  19.015  95.688  1.00  0.00     0.184 C 
BRANCH  26  27
HETATM   27  N3  UNL     1      60.685  17.719  95.417  1.00  0.00    -0.261 N 
HETATM   28  C12 UNL     1      61.276  16.594  95.867  1.00  0.00     0.150 A 
HETATM   29  C13 UNL     1      60.803  15.332  95.504  1.00  0.00     0.071 A 
HETATM   30  C14 UNL     1      59.717  15.187  94.677  1.00  0.00     0.039 A 
HETATM   31  C16 UNL     1      59.122  16.344  94.227  1.00  0.00     0.146 A 
HETATM   32  C17 UNL     1      59.607  17.548  94.598  1.00  0.00     0.287 A 
HETATM   33  O12 UNL     1      59.025  18.585  94.158  1.00  0.00    -0.264 OA
BRANCH  28  34
HETATM   34  O8  UNL     1      62.369  16.672  96.706  1.00  0.00    -0.346 OA
ATOM     35  H8  UNL     1      63.245  16.749  96.345  1.00  0.00     0.219 HD
ENDBRANCH  28  34
BRANCH  30  36
HETATM   36  C15 UNL     1      59.241  13.836  94.277  1.00  0.00     0.291 C 
BRANCH  36  37
HETATM   37  O9  UNL     1      58.018  13.493  94.809  1.00  0.00    -0.367 OA
ATOM     38  H9  UNL     1      58.018  12.666  95.277  1.00  0.00     0.213 HD
ENDBRANCH  36  37
BRANCH  36  39
HETATM   39  O10 UNL     1      59.157  13.762  92.864  1.00  0.00    -0.367 OA
ATOM     40  H10 UNL     1      59.841  14.297  92.477  1.00  0.00     0.213 HD
ENDBRANCH  36  39
ENDBRANCH  30  36
BRANCH  31  41
HETATM   41  O11 UNL     1      58.011  16.155  93.385  1.00  0.00    -0.355 OA
ATOM     42  H11 UNL     1      57.949  16.762  92.657  1.00  0.00     0.218 HD
ENDBRANCH  31  41
ENDBRANCH  26  27
ENDBRANCH  24  26
ENDBRANCH  23  24
ENDBRANCH  22  23
ENDBRANCH   1  22
BRANCH   1  43
HETATM   43  N4  UNL     1      64.780  20.651  92.826  1.00  0.00    -0.334 N 
HETATM   44  C18 UNL     1      65.563  21.675  93.040  1.00  0.00     0.201 C 
HETATM   45  N5  UNL     1      66.638  21.515  93.954  1.00  0.00    -0.067 NA
HETATM   46  N6  UNL     1      65.385  22.908  92.367  1.00  0.00    -0.067 NA
ATOM     47  H4  UNL     1      65.004  19.795  93.334  1.00  0.00     0.168 HD
ENDBRANCH   1  43
TORSDOF 18
ENDMDL
MODEL 5
REMARK VINA RESULT: -8.031303549      2.262      7.746
REMARK  18 active torsions:
REMARK  status: ('A' for Active; 'I' for Inactive)
REMARK    1  A    between atoms: N1_1  and  N2_4 
REMARK    2  A    between atoms: C1_6  and  C2_7 
REMARK    3  A    between atoms: C3_8  and  C4_9 
REMARK    4  A    between atoms: C4_9  and  O1_10 
REMARK    5  A    between atoms: C4_9  and  O2_12 
REMARK    6  A    between atoms: C5_14  and  O3_15 
REMARK    7  A    between atoms: C7_20  and  C8_21 
REMARK    8  A    between atoms: C8_21  and  C9_22 
REMARK    9  A    between atoms: C8_21  and  N4_43 
REMARK   10  A    between atoms: C9_22  and  O6_23 
REMARK   11  A    between atoms: O6_23  and  C10_24 
REMARK   12  A    between atoms: C10_24  and  C11_26 
REMARK   13  A    between atoms: C11_26  and  N3_27 
REMARK   14  A    between atoms: C12_28  and  O8_29 
REMARK   15  A    between atoms: C14_32  and  C15_33 
REMARK   16  A    between atoms: C15_33  and  O9_34 
REMARK   17  A    between atoms: C15_33  and  O10_36 
REMARK   18  A    between atoms: C16_38  and  O11_39 
ROOT
HETATM    1  C8  UNL     1      62.522  19.340  92.282  1.00  0.00     0.053 C 
ENDROOT
BRANCH   1   2
HETATM    2  C7  UNL     1      63.146  19.745  91.028  1.00  0.00     0.077 A 
HETATM    3  C2  UNL     1      63.679  21.007  90.704  1.00  0.00     0.015 A 
HETATM    4  C3  UNL     1      64.028  21.355  89.418  1.00  0.00     0.067 A 
HETATM    5  C5  UNL     1      63.842  20.375  88.393  1.00  0.00     0.198 A 
HETATM    6  O4  UNL     1      63.359  19.225  88.704  1.00  0.00    -0.250 OA
HETATM    7  C6  UNL     1      63.016  18.875  89.909  1.00  0.00     0.303 A 
HETATM    8  O5  UNL     1      62.552  17.724  90.041  1.00  0.00    -0.259 OA
BRANCH   3   9
HETATM    9  C1  UNL     1      64.042  21.856  91.811  1.00  0.00     0.119 C 
HETATM   10  N2  UNL     1      65.126  21.763  92.469  1.00  0.00    -0.318 N 
ATOM     11  H2  UNL     1      65.776  21.032  92.180  1.00  0.00     0.185 HD
BRANCH  10  12
HETATM   12  N1  UNL     1      65.511  22.551  93.533  1.00  0.00    -0.345 N 
ATOM     13  H12 UNL     1      64.860  23.293  93.790  1.00  0.00     0.176 HD
ATOM     14  H11 UNL     1      66.369  22.462  94.077  1.00  0.00     0.176 HD
ENDBRANCH  10  12
ENDBRANCH   3   9
BRANCH   4  15
HETATM   15  C4  UNL     1      64.504  22.672  89.007  1.00  0.00     0.294 C 
BRANCH  15  16
HETATM   16  O1  UNL     1      65.866  22.839  88.905  1.00  0.00    -0.367 OA
ATOM     17  H1  UNL     1      66.264  23.490  89.471  1.00  0.00     0.213 HD
ENDBRANCH  15  16
BRANCH  15  18
HETATM   18  O2  UNL     1      63.803  23.207  87.908  1.00  0.00    -0.367 OA
ATOM     19  H2  UNL     1      63.814  24.156  87.875  1.00  0.00     0.213 HD
ENDBRANCH  15  18
ENDBRANCH   4  15
BRANCH   5  20
HETATM   20  O3  UNL     1      64.199  20.726  87.104  1.00  0.00    -0.340 OA
ATOM     21  H3  UNL     1      64.047  20.086  86.417  1.00  0.00     0.220 HD
ENDBRANCH   5  20
ENDBRANCH   1   2
BRANCH   1  22
HETATM   22  C9  UNL     1      61.117  18.841  92.046  1.00  0.00     0.237 C 
BRANCH  22  23
HETATM   23  O6  UNL     1      60.382  18.420  93.099  1.00  0.00    -0.311 OA
BRANCH  23  24
HETATM   24  C10 UNL     1      60.134  17.232  93.703  1.00  0.00     0.299 C 
HETATM   25  O7  UNL     1      60.329  16.200  93.026  1.00  0.00    -0.259 OA
BRANCH  24  26
HETATM   26  C11 UNL     1      59.657  17.149  95.101  1.00  0.00     0.184 C 
BRANCH  26  27
HETATM   27  N3  UNL     1      60.539  17.515  96.130  1.00  0.00    -0.261 N 
HETATM   28  C12 UNL     1      60.616  18.755  96.653  1.00  0.00     0.150 A 
HETATM   29  C13 UNL     1      61.565  19.073  97.626  1.00  0.00     0.071 A 
HETATM   30  C14 UNL     1      62.453  18.134  98.091  1.00  0.00     0.039 A 
HETATM   31  C16 UNL     1      62.361  16.872  97.550  1.00  0.00     0.146 A 
HETATM   32  C17 UNL     1      61.432  16.600  96.609  1.00  0.00     0.287 A 
HETATM   33  O12 UNL     1      61.386  15.423  96.140  1.00  0.00    -0.264 OA
BRANCH  28  34
HETATM   34  O8  UNL     1      59.748  19.741  96.231  1.00  0.00    -0.346 OA
ATOM     35  H8  UNL     1      59.338  20.320  96.864  1.00  0.00     0.219 HD
ENDBRANCH  28  34
BRANCH  30  36
HETATM   36  C15 UNL     1      63.475  18.495  99.110  1.00  0.00     0.291 C 
BRANCH  36  37
HETATM   37  O9  UNL     1      63.491  17.663 100.207  1.00  0.00    -0.367 OA
ATOM     38  H9  UNL     1      63.473  18.120 101.039  1.00  0.00     0.213 HD
ENDBRANCH  36  37
BRANCH  36  39
HETATM   39  O10 UNL     1      64.762  18.484  98.514  1.00  0.00    -0.367 OA
ATOM     40  H10 UNL     1      65.267  19.221  98.837  1.00  0.00     0.213 HD
ENDBRANCH  36  39
ENDBRANCH  30  36
BRANCH  31  41
HETATM   41  O11 UNL     1      63.285  15.939  98.054  1.00  0.00    -0.355 OA
ATOM     42  H11 UNL     1      62.930  15.077  98.235  1.00  0.00     0.218 HD
ENDBRANCH  31  41
ENDBRANCH  26  27
ENDBRANCH  24  26
ENDBRANCH  23  24
ENDBRANCH  22  23
ENDBRANCH   1  22
BRANCH   1  43
HETATM   43  N4  UNL     1      63.279  18.705  93.259  1.00  0.00    -0.334 N 
HETATM   44  C18 UNL     1      63.642  19.188  94.419  1.00  0.00     0.201 C 
HETATM   45  N5  UNL     1      64.414  18.358  95.275  1.00  0.00    -0.067 NA
HETATM   46  N6  UNL     1      63.316  20.506  94.817  1.00  0.00    -0.067 NA
ATOM     47  H4  UNL     1      63.586  17.755  93.048  1.00  0.00     0.168 HD
ENDBRANCH   1  43
TORSDOF 18
ENDMDL
