MODEL 1
REMARK VINA RESULT: -8.442098190      0.000      0.000
REMARK  4 active torsions:
REMARK  status: ('A' for Active; 'I' for Inactive)
REMARK    1  A    between atoms: O1_1  and  C1_3 
REMARK    2  A    between atoms: C4_6  and  C5_7 
REMARK    3  A    between atoms: C6_8  and  C7_9 
REMARK    4  A    between atoms: C17_21  and  C18_22 
ROOT
HETATM    1  C1  UNL     1      14.723  33.821  30.234  1.00  0.00     0.094 A 
HETATM    2  C2  UNL     1      14.243  32.522  30.201  1.00  0.00     0.054 A 
HETATM    3  C3  UNL     1      15.154  31.498  30.388  1.00  0.00     0.012 A 
HETATM    4  C4  UNL     1      14.671  30.210  30.354  1.00  0.00     0.030 A 
HETATM    5  C13 UNL     1      15.594  29.203  30.542  1.00  0.00     0.022 A 
HETATM    6  C14 UNL     1      16.938  29.472  30.755  1.00  0.00     0.004 A 
HETATM    7  C15 UNL     1      17.409  30.749  30.787  1.00  0.00     0.030 A 
HETATM    8  C16 UNL     1      16.493  31.786  30.599  1.00  0.00     0.044 A 
HETATM    9  N1  UNL     1      16.889  33.061  30.620  1.00  0.00    -0.353 N 
ATOM     10  H1  UNL     1      17.878  33.260  30.777  1.00  0.00     0.166 HD
HETATM   11  C17 UNL     1      16.051  34.093  30.444  1.00  0.00     0.076 A 
ENDROOT
BRANCH   4  12
HETATM   12  C5  UNL     1      13.276  29.959  30.132  1.00  0.00    -0.060 C 
HETATM   13  C6  UNL     1      12.098  29.730  29.955  1.00  0.00    -0.061 C 
BRANCH  13  14
HETATM   14  C7  UNL     1      10.705  29.435  29.755  1.00  0.00     0.018 A 
HETATM   15  C8  UNL     1       9.993  29.880  28.662  1.00  0.00     0.020 A 
HETATM   16  C9  UNL     1       8.658  29.604  28.462  1.00  0.00     0.001 A 
HETATM   17  C10 UNL     1       8.023  28.840  29.420  1.00  0.00     0.000 A 
HETATM   18  C11 UNL     1       8.687  28.373  30.528  1.00  0.00     0.001 A 
HETATM   19  C12 UNL     1      10.013  28.665  30.697  1.00  0.00     0.020 A 
ENDBRANCH  13  14
ENDBRANCH   4  12
BRANCH   1  20
HETATM   20  O1  UNL     1      13.862  34.893  30.055  1.00  0.00    -0.358 OA
ATOM     21  H1  UNL     1      14.062  35.570  29.420  1.00  0.00     0.217 HD
ENDBRANCH   1  20
BRANCH  11  22
HETATM   22  C18 UNL     1      16.564  35.479  30.483  1.00  0.00    -0.007 A 
HETATM   23  C19 UNL     1      17.852  35.738  30.899  1.00  0.00     0.014 A 
HETATM   24  C20 UNL     1      18.379  37.007  30.950  1.00  0.00     0.001 A 
HETATM   25  C21 UNL     1      17.572  38.054  30.566  1.00  0.00     0.000 A 
HETATM   26  C22 UNL     1      16.288  37.829  30.147  1.00  0.00     0.001 A 
HETATM   27  C23 UNL     1      15.779  36.545  30.103  1.00  0.00     0.014 A 
ENDBRANCH  11  22
TORSDOF 4
ENDMDL
MODEL 2
REMARK VINA RESULT: -8.243057664      0.069      1.348
REMARK  4 active torsions:
REMARK  status: ('A' for Active; 'I' for Inactive)
REMARK    1  A    between atoms: O1_1  and  C1_3 
REMARK    2  A    between atoms: C4_6  and  C5_7 
REMARK    3  A    between atoms: C6_8  and  C7_9 
REMARK    4  A    between atoms: C17_21  and  C18_22 
ROOT
HETATM    1  C1  UNL     1      14.713  33.811  30.264  1.00  0.00     0.094 A 
HETATM    2  C2  UNL     1      14.244  32.508  30.235  1.00  0.00     0.054 A 
HETATM    3  C3  UNL     1      15.165  31.492  30.416  1.00  0.00     0.012 A 
HETATM    4  C4  UNL     1      14.692  30.200  30.386  1.00  0.00     0.030 A 
HETATM    5  C13 UNL     1      15.623  29.201  30.568  1.00  0.00     0.022 A 
HETATM    6  C14 UNL     1      16.967  29.480  30.771  1.00  0.00     0.004 A 
HETATM    7  C15 UNL     1      17.428  30.761  30.799  1.00  0.00     0.030 A 
HETATM    8  C16 UNL     1      16.502  31.791  30.617  1.00  0.00     0.044 A 
HETATM    9  N1  UNL     1      16.888  33.069  30.634  1.00  0.00    -0.353 N 
ATOM     10  H1  UNL     1      17.876  33.276  30.784  1.00  0.00     0.166 HD
HETATM   11  C17 UNL     1      16.041  34.094  30.464  1.00  0.00     0.076 A 
ENDROOT
BRANCH   4  12
HETATM   12  C5  UNL     1      13.297  29.937  30.174  1.00  0.00    -0.060 C 
HETATM   13  C6  UNL     1      12.119  29.699  30.008  1.00  0.00    -0.061 C 
BRANCH  13  14
HETATM   14  C7  UNL     1      10.726  29.396  29.823  1.00  0.00     0.018 A 
HETATM   15  C8  UNL     1       9.995  28.646  30.719  1.00  0.00     0.020 A 
HETATM   16  C9  UNL     1       8.661  28.349  30.551  1.00  0.00     0.001 A 
HETATM   17  C10 UNL     1       8.046  28.841  29.417  1.00  0.00     0.000 A 
HETATM   18  C11 UNL     1       8.728  29.592  28.493  1.00  0.00     0.001 A 
HETATM   19  C12 UNL     1      10.054  29.869  28.690  1.00  0.00     0.020 A 
ENDBRANCH  13  14
ENDBRANCH   4  12
BRANCH   1  20
HETATM   20  O1  UNL     1      13.842  34.876  30.090  1.00  0.00    -0.358 OA
ATOM     21  H1  UNL     1      14.167  35.768  30.083  1.00  0.00     0.217 HD
ENDBRANCH   1  20
BRANCH  11  22
HETATM   22  C18 UNL     1      16.542  35.484  30.498  1.00  0.00    -0.007 A 
HETATM   23  C19 UNL     1      15.717  36.535  30.161  1.00  0.00     0.014 A 
HETATM   24  C20 UNL     1      16.131  37.846  30.179  1.00  0.00     0.001 A 
HETATM   25  C21 UNL     1      17.431  38.104  30.551  1.00  0.00     0.000 A 
HETATM   26  C22 UNL     1      18.276  37.081  30.892  1.00  0.00     0.001 A 
HETATM   27  C23 UNL     1      17.838  35.771  30.868  1.00  0.00     0.014 A 
ENDBRANCH  11  22
TORSDOF 4
ENDMDL
MODEL 3
REMARK VINA RESULT: -7.666273334      2.894      9.630
REMARK  4 active torsions:
REMARK  status: ('A' for Active; 'I' for Inactive)
REMARK    1  A    between atoms: O1_1  and  C1_3 
REMARK    2  A    between atoms: C4_6  and  C5_7 
REMARK    3  A    between atoms: C6_8  and  C7_9 
REMARK    4  A    between atoms: C17_21  and  C18_22 
ROOT
HETATM    1  C1  UNL     1      16.981  33.259  30.377  1.00  0.00     0.094 A 
HETATM    2  C2  UNL     1      17.395  34.565  30.585  1.00  0.00     0.054 A 
HETATM    3  C3  UNL     1      16.443  35.563  30.475  1.00  0.00     0.012 A 
HETATM    4  C4  UNL     1      16.861  36.857  30.683  1.00  0.00     0.030 A 
HETATM    5  C13 UNL     1      15.899  37.838  30.570  1.00  0.00     0.022 A 
HETATM    6  C14 UNL     1      14.579  37.539  30.263  1.00  0.00     0.004 A 
HETATM    7  C15 UNL     1      14.174  36.255  30.059  1.00  0.00     0.030 A 
HETATM    8  C16 UNL     1      15.131  35.244  30.169  1.00  0.00     0.044 A 
HETATM    9  N1  UNL     1      14.798  33.964  29.981  1.00  0.00    -0.353 N 
ATOM     10  H1  UNL     1      13.828  33.742  29.756  1.00  0.00     0.166 HD
HETATM   11  C17 UNL     1      15.678  32.957  30.074  1.00  0.00     0.076 A 
ENDROOT
BRANCH   4  12
HETATM   12  C5  UNL     1      18.232  37.141  30.999  1.00  0.00    -0.060 C 
HETATM   13  C6  UNL     1      19.392  37.362  31.273  1.00  0.00    -0.061 C 
BRANCH  13  14
HETATM   14  C7  UNL     1      20.769  37.603  31.612  1.00  0.00     0.018 A 
HETATM   15  C8  UNL     1      21.816  37.270  30.779  1.00  0.00     0.020 A 
HETATM   16  C9  UNL     1      23.138  37.497  31.094  1.00  0.00     0.001 A 
HETATM   17  C10 UNL     1      23.401  38.089  32.312  1.00  0.00     0.000 A 
HETATM   18  C11 UNL     1      22.395  38.439  33.178  1.00  0.00     0.001 A 
HETATM   19  C12 UNL     1      21.091  38.201  32.835  1.00  0.00     0.020 A 
ENDBRANCH  13  14
ENDBRANCH   4  12
BRANCH   1  20
HETATM   20  O1  UNL     1      17.886  32.212  30.473  1.00  0.00    -0.358 OA
ATOM     21  H1  UNL     1      18.403  31.953  29.720  1.00  0.00     0.217 HD
ENDBRANCH   1  20
BRANCH  11  22
HETATM   22  C18 UNL     1      15.235  31.563  29.855  1.00  0.00    -0.007 A 
HETATM   23  C19 UNL     1      15.607  30.565  30.728  1.00  0.00     0.014 A 
HETATM   24  C20 UNL     1      15.220  29.254  30.573  1.00  0.00     0.001 A 
HETATM   25  C21 UNL     1      14.426  28.942  29.492  1.00  0.00     0.000 A 
HETATM   26  C22 UNL     1      14.039  29.913  28.606  1.00  0.00     0.001 A 
HETATM   27  C23 UNL     1      14.440  31.223  28.782  1.00  0.00     0.014 A 
ENDBRANCH  11  22
TORSDOF 4
ENDMDL
MODEL 4
REMARK VINA RESULT: -7.615822016      2.641      5.410
REMARK  4 active torsions:
REMARK  status: ('A' for Active; 'I' for Inactive)
REMARK    1  A    between atoms: O1_1  and  C1_3 
REMARK    2  A    between atoms: C4_6  and  C5_7 
REMARK    3  A    between atoms: C6_8  and  C7_9 
REMARK    4  A    between atoms: C17_21  and  C18_22 
ROOT
HETATM    1  C1  UNL     1      18.274  35.710  30.862  1.00  0.00     0.094 A 
HETATM    2  C2  UNL     1      17.001  35.307  30.491  1.00  0.00     0.054 A 
HETATM    3  C3  UNL     1      16.019  36.277  30.419  1.00  0.00     0.012 A 
HETATM    4  C4  UNL     1      14.757  35.870  30.050  1.00  0.00     0.030 A 
HETATM    5  C13 UNL     1      13.790  36.850  29.984  1.00  0.00     0.022 A 
HETATM    6  C14 UNL     1      14.072  38.178  30.273  1.00  0.00     0.004 A 
HETATM    7  C15 UNL     1      15.323  38.573  30.638  1.00  0.00     0.030 A 
HETATM    8  C16 UNL     1      16.319  37.597  30.712  1.00  0.00     0.044 A 
HETATM    9  N1  UNL     1      17.567  37.919  31.063  1.00  0.00    -0.353 N 
ATOM     10  H1  UNL     1      17.776  38.895  31.275  1.00  0.00     0.166 HD
HETATM   11  C17 UNL     1      18.558  37.021  31.150  1.00  0.00     0.076 A 
ENDROOT
BRANCH   4  12
HETATM   12  C5  UNL     1      14.491  34.490  29.756  1.00  0.00    -0.060 C 
HETATM   13  C6  UNL     1      14.279  33.319  29.524  1.00  0.00    -0.061 C 
BRANCH  13  14
HETATM   14  C7  UNL     1      14.045  31.925  29.263  1.00  0.00     0.018 A 
HETATM   15  C8  UNL     1      12.782  31.376  29.192  1.00  0.00     0.020 A 
HETATM   16  C9  UNL     1      12.547  30.041  28.943  1.00  0.00     0.001 A 
HETATM   17  C10 UNL     1      13.650  29.232  28.760  1.00  0.00     0.000 A 
HETATM   18  C11 UNL     1      14.929  29.729  28.822  1.00  0.00     0.001 A 
HETATM   19  C12 UNL     1      15.128  31.060  29.071  1.00  0.00     0.020 A 
ENDBRANCH  13  14
ENDBRANCH   4  12
BRANCH   1  20
HETATM   20  O1  UNL     1      19.305  34.787  30.953  1.00  0.00    -0.358 OA
ATOM     21  H1  UNL     1      19.928  34.831  31.668  1.00  0.00     0.217 HD
ENDBRANCH   1  20
BRANCH  11  22
HETATM   22  C18 UNL     1      19.917  37.453  31.543  1.00  0.00    -0.007 A 
HETATM   23  C19 UNL     1      20.999  37.185  30.733  1.00  0.00     0.014 A 
HETATM   24  C20 UNL     1      22.281  37.567  31.049  1.00  0.00     0.001 A 
HETATM   25  C21 UNL     1      22.477  38.245  32.231  1.00  0.00     0.000 A 
HETATM   26  C22 UNL     1      21.422  38.526  33.058  1.00  0.00     0.001 A 
HETATM   27  C23 UNL     1      20.141  38.133  32.720  1.00  0.00     0.014 A 
ENDBRANCH  11  22
TORSDOF 4
ENDMDL
MODEL 5
REMARK VINA RESULT: -7.286494265      1.121      1.991
REMARK  4 active torsions:
REMARK  status: ('A' for Active; 'I' for Inactive)
REMARK    1  A    between atoms: O1_1  and  C1_3 
REMARK    2  A    between atoms: C4_6  and  C5_7 
REMARK    3  A    between atoms: C6_8  and  C7_9 
REMARK    4  A    between atoms: C17_21  and  C18_22 
ROOT
HETATM    1  C1  UNL     1      15.370  34.649  30.959  1.00  0.00     0.094 A 
HETATM    2  C2  UNL     1      15.094  33.308  30.742  1.00  0.00     0.054 A 
HETATM    3  C3  UNL     1      16.167  32.441  30.652  1.00  0.00     0.012 A 
HETATM    4  C4  UNL     1      15.886  31.111  30.436  1.00  0.00     0.030 A 
HETATM    5  C13 UNL     1      16.968  30.261  30.349  1.00  0.00     0.022 A 
HETATM    6  C14 UNL     1      18.272  30.720  30.473  1.00  0.00     0.004 A 
HETATM    7  C15 UNL     1      18.542  32.037  30.686  1.00  0.00     0.030 A 
HETATM    8  C16 UNL     1      17.462  32.917  30.778  1.00  0.00     0.044 A 
HETATM    9  N1  UNL     1      17.658  34.221  30.987  1.00  0.00    -0.353 N 
ATOM     10  H1  UNL     1      18.616  34.560  31.079  1.00  0.00     0.166 HD
HETATM   11  C17 UNL     1      16.657  35.108  31.082  1.00  0.00     0.076 A 
ENDROOT
BRANCH   4  12
HETATM   12  C5  UNL     1      14.529  30.662  30.311  1.00  0.00    -0.060 C 
HETATM   13  C6  UNL     1      13.375  30.300  30.215  1.00  0.00    -0.061 C 
BRANCH  13  14
HETATM   14  C7  UNL     1      12.001  29.888  30.116  1.00  0.00     0.018 A 
HETATM   15  C8  UNL     1      11.271  29.444  31.197  1.00  0.00     0.020 A 
HETATM   16  C9  UNL     1       9.954  29.047  31.113  1.00  0.00     0.001 A 
HETATM   17  C10 UNL     1       9.358  29.108  29.870  1.00  0.00     0.000 A 
HETATM   18  C11 UNL     1      10.041  29.542  28.761  1.00  0.00     0.001 A 
HETATM   19  C12 UNL     1      11.349  29.929  28.878  1.00  0.00     0.020 A 
ENDBRANCH  13  14
ENDBRANCH   4  12
BRANCH   1  20
HETATM   20  O1  UNL     1      14.339  35.571  31.060  1.00  0.00    -0.358 OA
ATOM     21  H1  UNL     1      14.501  36.493  30.899  1.00  0.00     0.217 HD
ENDBRANCH   1  20
BRANCH  11  22
HETATM   22  C18 UNL     1      16.952  36.537  31.317  1.00  0.00    -0.007 A 
HETATM   23  C19 UNL     1      16.208  37.517  30.697  1.00  0.00     0.014 A 
HETATM   24  C20 UNL     1      16.438  38.860  30.883  1.00  0.00     0.001 A 
HETATM   25  C21 UNL     1      17.461  39.226  31.728  1.00  0.00     0.000 A 
HETATM   26  C22 UNL     1      18.219  38.275  32.360  1.00  0.00     0.001 A 
HETATM   27  C23 UNL     1      17.969  36.931  32.159  1.00  0.00     0.014 A 
ENDBRANCH  11  22
TORSDOF 4
ENDMDL
