MODEL 1
REMARK VINA RESULT: -10.817597774      0.000      0.000
REMARK  1 active torsions:
REMARK  status: ('A' for Active; 'I' for Inactive)
REMARK    1  A    between atoms: C5_5  and  C6_6 
ROOT
HETATM    1  C6  UNL     1      16.049  36.571  31.583  1.00  0.00     0.035 A 
HETATM    2  C7  UNL     1      15.475  37.335  30.566  1.00  0.00     0.019 A 
HETATM    3  C8  UNL     1      14.838  36.697  29.554  1.00  0.00     0.019 A 
HETATM    4  C9  UNL     1      14.777  35.327  29.559  1.00  0.00     0.099 A 
HETATM    5  N1  UNL     1      15.318  34.561  30.515  1.00  0.00    -0.304 N 
HETATM    6  C10 UNL     1      15.961  35.186  31.537  1.00  0.00     0.125 A 
HETATM    7  N2  UNL     1      16.448  34.270  32.348  1.00  0.00    -0.334 N 
ATOM      8  H2  UNL     1      16.982  34.432  33.201  1.00  0.00     0.168 HD
HETATM    9  C11 UNL     1      16.099  33.065  31.828  1.00  0.00     0.104 A 
HETATM   10  S1  UNL     1      16.202  31.387  32.050  1.00  0.00    -0.069 SA
HETATM   11  C12 UNL     1      15.336  30.873  30.672  1.00  0.00     0.019 A 
HETATM   12  C13 UNL     1      15.015  29.603  30.197  1.00  0.00     0.020 A 
HETATM   13  C14 UNL     1      14.289  29.487  29.031  1.00  0.00     0.001 A 
HETATM   14  C15 UNL     1      13.931  30.638  28.414  1.00  0.00     0.001 A 
HETATM   15  C16 UNL     1      14.242  31.889  28.872  1.00  0.00     0.015 A 
HETATM   16  C17 UNL     1      14.985  32.045  30.065  1.00  0.00     0.011 A 
HETATM   17  C18 UNL     1      15.390  33.196  30.679  1.00  0.00     0.086 A 
ENDROOT
BRANCH   1  18
HETATM   18  C5  UNL     1      16.735  37.316  32.612  1.00  0.00     0.046 A 
HETATM   19  C4  UNL     1      16.165  38.300  33.341  1.00  0.00     0.031 A 
HETATM   20  C3  UNL     1      16.914  39.038  34.275  1.00  0.00     0.010 A 
HETATM   21  C2  UNL     1      18.244  38.767  34.458  1.00  0.00    -0.047 A 
HETATM   22  C1  UNL     1      19.034  39.545  35.443  1.00  0.00     0.049 C 
HETATM   23  C19 UNL     1      18.794  37.752  33.690  1.00  0.00     0.095 A 
HETATM   24  N3  UNL     1      18.051  37.078  32.819  1.00  0.00    -0.365 N 
ATOM     25  H3  UNL     1      18.498  36.339  32.276  1.00  0.00     0.165 HD
ENDBRANCH   1  18
TORSDOF 1
ENDMDL
MODEL 2
REMARK VINA RESULT: -10.161195942      0.974      1.289
REMARK  1 active torsions:
REMARK  status: ('A' for Active; 'I' for Inactive)
REMARK    1  A    between atoms: C5_5  and  C6_6 
ROOT
HETATM    1  C6  UNL     1      16.343  36.479  30.747  1.00  0.00     0.035 A 
HETATM    2  C7  UNL     1      15.587  37.109  29.758  1.00  0.00     0.019 A 
HETATM    3  C8  UNL     1      14.798  36.350  28.959  1.00  0.00     0.019 A 
HETATM    4  C9  UNL     1      14.766  34.992  29.144  1.00  0.00     0.099 A 
HETATM    5  N1  UNL     1      15.479  34.351  30.080  1.00  0.00    -0.304 N 
HETATM    6  C10 UNL     1      16.276  35.099  30.889  1.00  0.00     0.125 A 
HETATM    7  N2  UNL     1      16.914  34.291  31.711  1.00  0.00    -0.334 N 
ATOM      8  H2  UNL     1      17.584  34.560  32.431  1.00  0.00     0.168 HD
HETATM    9  C11 UNL     1      16.505  33.032  31.413  1.00  0.00     0.104 A 
HETATM   10  S1  UNL     1      16.678  31.395  31.822  1.00  0.00    -0.069 SA
HETATM   11  C12 UNL     1      15.598  30.712  30.689  1.00  0.00     0.019 A 
HETATM   12  C13 UNL     1      15.225  29.393  30.440  1.00  0.00     0.020 A 
HETATM   13  C14 UNL     1      14.311  29.133  29.441  1.00  0.00     0.001 A 
HETATM   14  C15 UNL     1      13.829  30.198  28.757  1.00  0.00     0.001 A 
HETATM   15  C16 UNL     1      14.190  31.495  28.995  1.00  0.00     0.015 A 
HETATM   16  C17 UNL     1      15.124  31.800  30.012  1.00  0.00     0.011 A 
HETATM   17  C18 UNL     1      15.606  33.018  30.398  1.00  0.00     0.086 A 
ENDROOT
BRANCH   1  18
HETATM   18  C5  UNL     1      17.181  37.346  31.540  1.00  0.00     0.046 A 
HETATM   19  C4  UNL     1      18.529  37.256  31.590  1.00  0.00     0.031 A 
HETATM   20  C3  UNL     1      19.279  38.084  32.444  1.00  0.00     0.010 A 
HETATM   21  C2  UNL     1      18.649  38.997  33.245  1.00  0.00    -0.047 A 
HETATM   22  C1  UNL     1      19.440  39.871  34.147  1.00  0.00     0.049 C 
HETATM   23  C19 UNL     1      17.265  39.058  33.169  1.00  0.00     0.095 A 
HETATM   24  N3  UNL     1      16.593  38.259  32.347  1.00  0.00    -0.365 N 
ATOM     25  H3  UNL     1      15.576  38.338  32.323  1.00  0.00     0.165 HD
ENDBRANCH   1  18
TORSDOF 1
ENDMDL
MODEL 3
REMARK VINA RESULT: -9.223430455      1.552      1.975
REMARK  1 active torsions:
REMARK  status: ('A' for Active; 'I' for Inactive)
REMARK    1  A    between atoms: C5_5  and  C6_6 
ROOT
HETATM    1  C6  UNL     1      16.954  36.206  30.474  1.00  0.00     0.035 A 
HETATM    2  C7  UNL     1      16.024  37.054  29.871  1.00  0.00     0.019 A 
HETATM    3  C8  UNL     1      14.926  36.509  29.294  1.00  0.00     0.019 A 
HETATM    4  C9  UNL     1      14.761  35.148  29.318  1.00  0.00     0.099 A 
HETATM    5  N1  UNL     1      15.632  34.303  29.884  1.00  0.00    -0.304 N 
HETATM    6  C10 UNL     1      16.740  34.834  30.467  1.00  0.00     0.125 A 
HETATM    7  N2  UNL     1      17.482  33.850  30.931  1.00  0.00    -0.334 N 
ATOM      8  H2  UNL     1      18.375  33.935  31.416  1.00  0.00     0.168 HD
HETATM    9  C11 UNL     1      16.826  32.697  30.639  1.00  0.00     0.104 A 
HETATM   10  S1  UNL     1      16.885  31.008  30.771  1.00  0.00    -0.069 SA
HETATM   11  C12 UNL     1      15.419  30.619  29.987  1.00  0.00     0.019 A 
HETATM   12  C13 UNL     1      14.803  29.398  29.721  1.00  0.00     0.020 A 
HETATM   13  C14 UNL     1      13.595  29.386  29.056  1.00  0.00     0.001 A 
HETATM   14  C15 UNL     1      13.080  30.587  28.701  1.00  0.00     0.001 A 
HETATM   15  C16 UNL     1      13.677  31.790  28.957  1.00  0.00     0.015 A 
HETATM   16  C17 UNL     1      14.916  31.839  29.637  1.00  0.00     0.011 A 
HETATM   17  C18 UNL     1      15.662  32.930  29.983  1.00  0.00     0.086 A 
ENDROOT
BRANCH   1  18
HETATM   18  C5  UNL     1      18.113  36.853  31.042  1.00  0.00     0.046 A 
HETATM   19  C4  UNL     1      19.371  36.697  30.575  1.00  0.00     0.031 A 
HETATM   20  C3  UNL     1      20.465  37.297  31.224  1.00  0.00     0.010 A 
HETATM   21  C2  UNL     1      20.268  38.050  32.350  1.00  0.00    -0.047 A 
HETATM   22  C1  UNL     1      21.422  38.683  33.035  1.00  0.00     0.049 C 
HETATM   23  C19 UNL     1      18.964  38.184  32.801  1.00  0.00     0.095 A 
HETATM   24  N3  UNL     1      17.957  37.603  32.157  1.00  0.00    -0.365 N 
ATOM     25  H3  UNL     1      17.014  37.729  32.525  1.00  0.00     0.165 HD
ENDBRANCH   1  18
TORSDOF 1
ENDMDL
MODEL 4
REMARK VINA RESULT: -9.154924231      2.005      7.757
REMARK  1 active torsions:
REMARK  status: ('A' for Active; 'I' for Inactive)
REMARK    1  A    between atoms: C5_5  and  C6_6 
ROOT
HETATM    1  C6  UNL     1      16.300  32.418  31.397  1.00  0.00     0.035 A 
HETATM    2  C7  UNL     1      17.303  31.724  32.076  1.00  0.00     0.019 A 
HETATM    3  C8  UNL     1      18.226  32.431  32.772  1.00  0.00     0.019 A 
HETATM    4  C9  UNL     1      18.149  33.800  32.790  1.00  0.00     0.099 A 
HETATM    5  N1  UNL     1      17.204  34.500  32.150  1.00  0.00    -0.304 N 
HETATM    6  C10 UNL     1      16.271  33.805  31.446  1.00  0.00     0.125 A 
HETATM    7  N2  UNL     1      15.458  34.665  30.866  1.00  0.00    -0.334 N 
ATOM      8  H2  UNL     1      14.661  34.444  30.269  1.00  0.00     0.168 HD
HETATM    9  C11 UNL     1      15.887  35.904  31.218  1.00  0.00     0.104 A 
HETATM   10  S1  UNL     1      15.591  37.565  31.045  1.00  0.00    -0.069 SA
HETATM   11  C12 UNL     1      16.866  38.173  32.003  1.00  0.00     0.019 A 
HETATM   12  C13 UNL     1      17.249  39.474  32.323  1.00  0.00     0.020 A 
HETATM   13  C14 UNL     1      18.344  39.670  33.137  1.00  0.00     0.001 A 
HETATM   14  C15 UNL     1      18.985  38.563  33.580  1.00  0.00     0.001 A 
HETATM   15  C16 UNL     1      18.617  37.282  33.271  1.00  0.00     0.015 A 
HETATM   16  C17 UNL     1      17.499  37.044  32.439  1.00  0.00     0.011 A 
HETATM   17  C18 UNL     1      16.978  35.852  32.022  1.00  0.00     0.086 A 
ENDROOT
BRANCH   1  18
HETATM   18  C5  UNL     1      15.370  31.603  30.653  1.00  0.00     0.046 A 
HETATM   19  C4  UNL     1      15.035  31.823  29.363  1.00  0.00     0.031 A 
HETATM   20  C3  UNL     1      14.063  31.035  28.721  1.00  0.00     0.010 A 
HETATM   21  C2  UNL     1      13.435  30.028  29.403  1.00  0.00    -0.047 A 
HETATM   22  C1  UNL     1      12.409  29.196  28.726  1.00  0.00     0.049 C 
HETATM   23  C19 UNL     1      13.802  29.834  30.726  1.00  0.00     0.095 A 
HETATM   24  N3  UNL     1      14.727  30.600  31.295  1.00  0.00    -0.365 N 
ATOM     25  H3  UNL     1      14.967  30.421  32.270  1.00  0.00     0.165 HD
ENDBRANCH   1  18
TORSDOF 1
ENDMDL
MODEL 5
REMARK VINA RESULT: -9.099522816      1.597      7.380
REMARK  1 active torsions:
REMARK  status: ('A' for Active; 'I' for Inactive)
REMARK    1  A    between atoms: C5_5  and  C6_6 
ROOT
HETATM    1  C6  UNL     1      15.165  34.273  29.699  1.00  0.00     0.035 A 
HETATM    2  C7  UNL     1      14.706  35.160  28.724  1.00  0.00     0.019 A 
HETATM    3  C8  UNL     1      14.994  36.477  28.855  1.00  0.00     0.019 A 
HETATM    4  C9  UNL     1      15.725  36.899  29.936  1.00  0.00     0.099 A 
HETATM    5  N1  UNL     1      16.180  36.080  30.892  1.00  0.00    -0.304 N 
HETATM    6  C10 UNL     1      15.898  34.755  30.775  1.00  0.00     0.125 A 
HETATM    7  N2  UNL     1      16.398  34.127  31.820  1.00  0.00    -0.334 N 
ATOM      8  H2  UNL     1      16.343  33.127  32.014  1.00  0.00     0.168 HD
HETATM    9  C11 UNL     1      16.999  35.070  32.589  1.00  0.00     0.104 A 
HETATM   10  S1  UNL     1      17.871  35.328  34.021  1.00  0.00    -0.069 SA
HETATM   11  C12 UNL     1      18.086  37.018  33.911  1.00  0.00     0.019 A 
HETATM   12  C13 UNL     1      18.722  37.930  34.750  1.00  0.00     0.020 A 
HETATM   13  C14 UNL     1      18.740  39.264  34.401  1.00  0.00     0.001 A 
HETATM   14  C15 UNL     1      18.125  39.603  33.244  1.00  0.00     0.001 A 
HETATM   15  C16 UNL     1      17.497  38.715  32.414  1.00  0.00     0.015 A 
HETATM   16  C17 UNL     1      17.460  37.340  32.741  1.00  0.00     0.011 A 
HETATM   17  C18 UNL     1      16.889  36.309  32.049  1.00  0.00     0.086 A 
ENDROOT
BRANCH   1  18
HETATM   18  C5  UNL     1      14.796  32.891  29.510  1.00  0.00     0.046 A 
HETATM   19  C4  UNL     1      15.634  31.850  29.712  1.00  0.00     0.031 A 
HETATM   20  C3  UNL     1      15.232  30.531  29.435  1.00  0.00     0.010 A 
HETATM   21  C2  UNL     1      13.976  30.283  28.949  1.00  0.00    -0.047 A 
HETATM   22  C1  UNL     1      13.552  28.891  28.656  1.00  0.00     0.049 C 
HETATM   23  C19 UNL     1      13.146  31.376  28.751  1.00  0.00     0.095 A 
HETATM   24  N3  UNL     1      13.564  32.607  29.028  1.00  0.00    -0.365 N 
ATOM     25  H3  UNL     1      12.920  33.381  28.868  1.00  0.00     0.165 HD
ENDBRANCH   1  18
TORSDOF 1
ENDMDL
