MODEL 1
REMARK VINA RESULT: -3.258243437      0.000      0.000
REMARK  2 active torsions:
REMARK  status: ('A' for Active; 'I' for Inactive)
REMARK    1  A    between atoms: N1_2  and  C2_4 
REMARK    2  A    between atoms: C2_4  and  C3_6 
ROOT
HETATM    1  C2  UNL     1     -25.283  41.960  14.406  1.00  0.00     0.218 C 
HETATM    2 CL1  UNL     1     -24.103  42.778  15.458  1.00  0.00    -0.097 Cl
ENDROOT
BRANCH   1   3
HETATM    3  N1  UNL     1     -26.595  42.316  14.910  1.00  0.00    -0.387 N 
HETATM    4  C1  UNL     1     -26.815  42.320  16.160  1.00  0.00     0.114 C 
ATOM      5  H1  UNL     1     -27.341  42.564  14.260  1.00  0.00     0.159 HD
ENDBRANCH   1   3
BRANCH   1   6
HETATM    6  C3  UNL     1     -25.147  42.481  13.028  1.00  0.00     0.016 C 
HETATM    7  C4  UNL     1     -26.156  43.018  12.367  1.00  0.00     0.030 C 
HETATM    8 BR1  UNL     1     -23.463  42.393  12.135  1.00  0.00    -0.053 Br
ENDBRANCH   1   6
TORSDOF 2
ENDMDL
MODEL 2
REMARK VINA RESULT: -3.253720018      2.524      2.825
REMARK  2 active torsions:
REMARK  status: ('A' for Active; 'I' for Inactive)
REMARK    1  A    between atoms: N1_2  and  C2_4 
REMARK    2  A    between atoms: C2_4  and  C3_6 
ROOT
HETATM    1  C2  UNL     1     -24.131  43.604  14.410  1.00  0.00     0.218 C 
HETATM    2 CL1  UNL     1     -25.314  42.778  15.452  1.00  0.00    -0.097 Cl
ENDROOT
BRANCH   1   3
HETATM    3  N1  UNL     1     -22.820  43.253  14.921  1.00  0.00    -0.387 N 
HETATM    4  C1  UNL     1     -22.603  43.270  16.172  1.00  0.00     0.114 C 
ATOM      5  H1  UNL     1     -22.074  42.992  14.276  1.00  0.00     0.159 HD
ENDBRANCH   1   3
BRANCH   1   6
HETATM    6  C3  UNL     1     -24.256  43.085  13.030  1.00  0.00     0.016 C 
HETATM    7  C4  UNL     1     -23.239  42.556  12.373  1.00  0.00     0.030 C 
HETATM    8 BR1  UNL     1     -25.935  43.164  12.127  1.00  0.00    -0.053 Br
ENDBRANCH   1   6
TORSDOF 2
ENDMDL
MODEL 3
REMARK VINA RESULT: -3.200793692      2.817      3.018
REMARK  2 active torsions:
REMARK  status: ('A' for Active; 'I' for Inactive)
REMARK    1  A    between atoms: N1_2  and  C2_4 
REMARK    2  A    between atoms: C2_4  and  C3_6 
ROOT
HETATM    1  C2  UNL     1     -23.909  42.452  13.755  1.00  0.00     0.218 C 
HETATM    2 CL1  UNL     1     -23.328  42.628  12.081  1.00  0.00    -0.097 Cl
ENDROOT
BRANCH   1   3
HETATM    3  N1  UNL     1     -23.335  43.552  14.505  1.00  0.00    -0.387 N 
HETATM    4  C1  UNL     1     -22.832  43.343  15.652  1.00  0.00     0.114 C 
ATOM      5  H1  UNL     1     -23.334  44.493  14.111  1.00  0.00     0.159 HD
ENDBRANCH   1   3
BRANCH   1   6
HETATM    6  C3  UNL     1     -25.383  42.586  13.772  1.00  0.00     0.016 C 
HETATM    7  C4  UNL     1     -26.081  42.904  12.697  1.00  0.00     0.030 C 
HETATM    8 BR1  UNL     1     -26.350  42.295  15.390  1.00  0.00    -0.053 Br
ENDBRANCH   1   6
TORSDOF 2
ENDMDL
MODEL 4
REMARK VINA RESULT: -3.182328130      2.224      2.384
REMARK  2 active torsions:
REMARK  status: ('A' for Active; 'I' for Inactive)
REMARK    1  A    between atoms: N1_2  and  C2_4 
REMARK    2  A    between atoms: C2_4  and  C3_6 
ROOT
HETATM    1  C2  UNL     1     -25.502  43.063  13.903  1.00  0.00     0.218 C 
HETATM    2 CL1  UNL     1     -26.107  43.016  12.229  1.00  0.00    -0.097 Cl
ENDROOT
BRANCH   1   3
HETATM    3  N1  UNL     1     -26.027  41.882  14.560  1.00  0.00    -0.387 N 
HETATM    4  C1  UNL     1     -26.403  41.945  15.772  1.00  0.00     0.114 C 
ATOM      5  H1  UNL     1     -26.094  41.002  14.050  1.00  0.00     0.159 HD
ENDBRANCH   1   3
BRANCH   1   6
HETATM    6  C3  UNL     1     -24.025  42.979  13.886  1.00  0.00     0.016 C 
HETATM    7  C4  UNL     1     -23.342  42.679  12.796  1.00  0.00     0.030 C 
HETATM    8 BR1  UNL     1     -23.031  43.310  15.480  1.00  0.00    -0.053 Br
ENDBRANCH   1   6
TORSDOF 2
ENDMDL
MODEL 5
REMARK VINA RESULT: -3.174485974      2.510      3.438
REMARK  2 active torsions:
REMARK  status: ('A' for Active; 'I' for Inactive)
REMARK    1  A    between atoms: N1_2  and  C2_4 
REMARK    2  A    between atoms: C2_4  and  C3_6 
ROOT
HETATM    1  C2  UNL     1     -25.243  42.015  13.388  1.00  0.00     0.218 C 
HETATM    2 CL1  UNL     1     -26.121  43.075  12.258  1.00  0.00    -0.097 Cl
ENDROOT
BRANCH   1   3
HETATM    3  N1  UNL     1     -23.849  42.061  12.991  1.00  0.00    -0.387 N 
HETATM    4  C1  UNL     1     -23.528  42.534  11.857  1.00  0.00     0.114 C 
ATOM      5  H1  UNL     1     -23.128  41.713  13.622  1.00  0.00     0.159 HD
ENDBRANCH   1   3
BRANCH   1   6
HETATM    6  C3  UNL     1     -25.364  42.563  14.757  1.00  0.00     0.016 C 
HETATM    7  C4  UNL     1     -26.402  42.313  15.534  1.00  0.00     0.030 C 
HETATM    8 BR1  UNL     1     -23.987  43.677  15.466  1.00  0.00    -0.053 Br
ENDBRANCH   1   6
TORSDOF 2
ENDMDL
