MODEL 1
REMARK VINA RESULT: -4.354961049      0.000      0.000
REMARK  3 active torsions:
REMARK  status: ('A' for Active; 'I' for Inactive)
REMARK    1  A    between atoms: C1_2  and  C2_4 
REMARK    2  A    between atoms: C5_8  and  C6_9 
REMARK    3  A    between atoms: C6_9  and  C7_10 
ROOT
HETATM    1  C2  UNL     1     -24.853  43.011  13.766  1.00  0.00     0.067 A 
HETATM    2  C3  UNL     1     -25.541  41.641  13.424  1.00  0.00     0.048 A 
HETATM    3  C4  UNL     1     -25.015  42.024  14.722  1.00  0.00     0.059 A 
HETATM    4 CL1  UNL     1     -26.336  42.209  15.942  1.00  0.00    -0.117 Cl
HETATM    5  C5  UNL     1     -23.906  42.917  15.015  1.00  0.00     0.032 A 
ENDROOT
BRANCH   1   6
HETATM    6  C1  UNL     1     -24.080  43.422  12.653  1.00  0.00     0.242 C 
HETATM    7  N1  UNL     1     -23.193  42.561  11.943  1.00  0.00    -0.061 NA
HETATM    8  O1  UNL     1     -24.153  44.621  12.228  1.00  0.00    -0.276 OA
ENDBRANCH   1   6
BRANCH   5   9
HETATM    9  C6  UNL     1     -24.021  44.069  15.985  1.00  0.00     0.039 C 
BRANCH   9  10
HETATM   10  C7  UNL     1     -22.712  44.171  16.738  1.00  0.00     0.222 C 
HETATM   11  F1  UNL     1     -21.762  43.326  16.196  1.00  0.00    -0.255 F 
ENDBRANCH   9  10
ENDBRANCH   5   9
TORSDOF 3
ENDMDL
MODEL 2
REMARK VINA RESULT: -4.348756770      2.778      3.316
REMARK  3 active torsions:
REMARK  status: ('A' for Active; 'I' for Inactive)
REMARK    1  A    between atoms: C1_2  and  C2_4 
REMARK    2  A    between atoms: C5_8  and  C6_9 
REMARK    3  A    between atoms: C6_9  and  C7_10 
ROOT
HETATM    1  C2  UNL     1     -24.559  42.540  13.805  1.00  0.00     0.067 A 
HETATM    2  C3  UNL     1     -23.859  43.910  13.485  1.00  0.00     0.048 A 
HETATM    3  C4  UNL     1     -24.398  43.514  14.774  1.00  0.00     0.059 A 
HETATM    4 CL1  UNL     1     -23.089  43.307  16.003  1.00  0.00    -0.117 Cl
HETATM    5  C5  UNL     1     -25.515  42.625  15.048  1.00  0.00     0.032 A 
ENDROOT
BRANCH   1   6
HETATM    6  C1  UNL     1     -25.325  42.147  12.681  1.00  0.00     0.242 C 
HETATM    7  N1  UNL     1     -26.215  43.017  11.985  1.00  0.00    -0.061 NA
HETATM    8  O1  UNL     1     -25.243  40.957  12.232  1.00  0.00    -0.276 OA
ENDBRANCH   1   6
BRANCH   5   9
HETATM    9  C6  UNL     1     -25.415  41.461  16.005  1.00  0.00     0.039 C 
BRANCH   9  10
HETATM   10  C7  UNL     1     -26.710  41.391  16.784  1.00  0.00     0.222 C 
HETATM   11  F1  UNL     1     -27.664  42.226  16.234  1.00  0.00    -0.255 F 
ENDBRANCH   9  10
ENDBRANCH   5   9
TORSDOF 3
ENDMDL
MODEL 3
REMARK VINA RESULT: -4.086877466      2.854      3.119
REMARK  3 active torsions:
REMARK  status: ('A' for Active; 'I' for Inactive)
REMARK    1  A    between atoms: C1_2  and  C2_4 
REMARK    2  A    between atoms: C5_8  and  C6_9 
REMARK    3  A    between atoms: C6_9  and  C7_10 
ROOT
HETATM    1  C2  UNL     1     -25.061  42.192  14.620  1.00  0.00     0.067 A 
HETATM    2  C3  UNL     1     -25.816  42.285  13.246  1.00  0.00     0.048 A 
HETATM    3  C4  UNL     1     -24.675  43.091  13.642  1.00  0.00     0.059 A 
HETATM    4 CL1  UNL     1     -23.218  42.711  12.642  1.00  0.00    -0.117 Cl
HETATM    5  C5  UNL     1     -24.294  43.515  14.979  1.00  0.00     0.032 A 
ENDROOT
BRANCH   1   6
HETATM    6  C1  UNL     1     -26.006  41.936  15.643  1.00  0.00     0.242 C 
HETATM    7  N1  UNL     1     -25.815  40.968  16.673  1.00  0.00    -0.061 NA
HETATM    8  O1  UNL     1     -27.102  42.585  15.683  1.00  0.00    -0.276 OA
ENDBRANCH   1   6
BRANCH   5   9
HETATM    9  C6  UNL     1     -22.904  43.310  15.534  1.00  0.00     0.039 C 
BRANCH   9  10
HETATM   10  C7  UNL     1     -22.743  44.226  16.727  1.00  0.00     0.222 C 
HETATM   11  F1  UNL     1     -23.891  44.963  16.943  1.00  0.00    -0.255 F 
ENDBRANCH   9  10
ENDBRANCH   5   9
TORSDOF 3
ENDMDL
MODEL 4
REMARK VINA RESULT: -4.081958535      2.882      3.481
REMARK  3 active torsions:
REMARK  status: ('A' for Active; 'I' for Inactive)
REMARK    1  A    between atoms: C1_2  and  C2_4 
REMARK    2  A    between atoms: C5_8  and  C6_9 
REMARK    3  A    between atoms: C6_9  and  C7_10 
ROOT
HETATM    1  C2  UNL     1     -24.335  43.378  14.648  1.00  0.00     0.067 A 
HETATM    2  C3  UNL     1     -23.574  43.295  13.277  1.00  0.00     0.048 A 
HETATM    3  C4  UNL     1     -24.713  42.481  13.665  1.00  0.00     0.059 A 
HETATM    4 CL1  UNL     1     -26.167  42.858  12.660  1.00  0.00    -0.117 Cl
HETATM    5  C5  UNL     1     -25.097  42.050  14.998  1.00  0.00     0.032 A 
ENDROOT
BRANCH   1   6
HETATM    6  C1  UNL     1     -23.396  43.635  15.675  1.00  0.00     0.242 C 
HETATM    7  N1  UNL     1     -23.594  44.600  16.707  1.00  0.00    -0.061 NA
HETATM    8  O1  UNL     1     -22.298  42.989  15.719  1.00  0.00    -0.276 OA
ENDBRANCH   1   6
BRANCH   5   9
HETATM    9  C6  UNL     1     -26.490  42.246  15.548  1.00  0.00     0.039 C 
BRANCH   9  10
HETATM   10  C7  UNL     1     -26.651  41.325  16.738  1.00  0.00     0.222 C 
HETATM   11  F1  UNL     1     -25.529  40.538  16.909  1.00  0.00    -0.255 F 
ENDBRANCH   9  10
ENDBRANCH   5   9
TORSDOF 3
ENDMDL
MODEL 5
REMARK VINA RESULT: -4.011048423      3.604      4.467
REMARK  3 active torsions:
REMARK  status: ('A' for Active; 'I' for Inactive)
REMARK    1  A    between atoms: C1_2  and  C2_4 
REMARK    2  A    between atoms: C5_8  and  C6_9 
REMARK    3  A    between atoms: C6_9  and  C7_10 
ROOT
HETATM    1  C2  UNL     1     -25.948  42.560  16.057  1.00  0.00     0.067 A 
HETATM    2  C3  UNL     1     -24.798  42.435  17.119  1.00  0.00     0.048 A 
HETATM    3  C4  UNL     1     -24.633  42.361  15.678  1.00  0.00     0.059 A 
HETATM    4 CL1  UNL     1     -23.690  43.767  15.047  1.00  0.00    -0.117 Cl
HETATM    5  C5  UNL     1     -25.583  41.883  14.687  1.00  0.00     0.032 A 
ENDROOT
BRANCH   1   6
HETATM    6  C1  UNL     1     -27.110  41.931  16.566  1.00  0.00     0.242 C 
HETATM    7  N1  UNL     1     -27.137  40.589  17.049  1.00  0.00    -0.061 NA
HETATM    8  O1  UNL     1     -28.215  42.564  16.616  1.00  0.00    -0.276 OA
ENDBRANCH   1   6
BRANCH   5   9
HETATM    9  C6  UNL     1     -25.957  42.686  13.464  1.00  0.00     0.039 C 
BRANCH   9  10
HETATM   10  C7  UNL     1     -25.264  42.063  12.272  1.00  0.00     0.222 C 
HETATM   11  F1  UNL     1     -24.685  40.856  12.613  1.00  0.00    -0.255 F 
ENDBRANCH   9  10
ENDBRANCH   5   9
TORSDOF 3
ENDMDL
