MODEL 1
REMARK VINA RESULT: -3.174587670      0.000      0.000
REMARK  3 active torsions:
REMARK  status: ('A' for Active; 'I' for Inactive)
REMARK    1  A    between atoms: N2_4  and  C1_6 
REMARK    2  A    between atoms: C1_6  and  C2_7 
REMARK    3  A    between atoms: C1_6  and  C3_9 
ROOT
HETATM    1  N1  UNL     1     -26.803  42.036  15.544  1.00  0.00    -0.349 N 
ATOM      2  H11 UNL     1     -27.790  42.127  15.785  1.00  0.00     0.176 HD
ATOM      3  H12 UNL     1     -26.128  41.686  16.223  1.00  0.00     0.176 HD
HETATM    4  N2  UNL     1     -26.412  42.349  14.424  1.00  0.00    -0.336 N 
ATOM      5  H2  UNL     1     -27.075  42.701  13.732  1.00  0.00     0.180 HD
ENDROOT
BRANCH   4   6
HETATM    6  C1  UNL     1     -25.038  42.222  14.088  1.00  0.00     0.122 C 
BRANCH   6   7
HETATM    7  C2  UNL     1     -24.850  41.567  12.734  1.00  0.00     0.142 C 
HETATM    8 CL1  UNL     1     -23.429  42.190  11.889  1.00  0.00    -0.128 Cl
ENDBRANCH   6   7
BRANCH   6   9
HETATM    9  C3  UNL     1     -24.261  43.507  14.201  1.00  0.00     0.113 C 
HETATM   10 BR1  UNL     1     -23.225  43.425  15.843  1.00  0.00    -0.094 Br
ENDBRANCH   6   9
ENDBRANCH   4   6
TORSDOF 3
ENDMDL
MODEL 2
REMARK VINA RESULT: -3.165972641      2.685      2.956
REMARK  3 active torsions:
REMARK  status: ('A' for Active; 'I' for Inactive)
REMARK    1  A    between atoms: N2_4  and  C1_6 
REMARK    2  A    between atoms: C1_6  and  C2_7 
REMARK    3  A    between atoms: C1_6  and  C3_9 
ROOT
HETATM    1  N1  UNL     1     -22.551  43.501  15.551  1.00  0.00    -0.349 N 
ATOM      2  H11 UNL     1     -21.563  43.435  15.796  1.00  0.00     0.176 HD
ATOM      3  H12 UNL     1     -23.232  43.869  16.214  1.00  0.00     0.176 HD
HETATM    4  N2  UNL     1     -22.935  43.134  14.444  1.00  0.00    -0.336 N 
ATOM      5  H2  UNL     1     -22.266  42.763  13.769  1.00  0.00     0.180 HD
ENDROOT
BRANCH   4   6
HETATM    6  C1  UNL     1     -24.310  43.225  14.103  1.00  0.00     0.122 C 
BRANCH   6   7
HETATM    7  C2  UNL     1     -24.514  43.939  12.781  1.00  0.00     0.142 C 
HETATM    8 CL1  UNL     1     -25.956  43.369  11.935  1.00  0.00    -0.128 Cl
ENDBRANCH   6   7
BRANCH   6   9
HETATM    9  C3  UNL     1     -25.039  41.908  14.144  1.00  0.00     0.113 C 
HETATM   10 BR1  UNL     1     -25.924  41.780  15.870  1.00  0.00    -0.094 Br
ENDBRANCH   6   9
ENDBRANCH   4   6
TORSDOF 3
ENDMDL
MODEL 3
REMARK VINA RESULT: -3.131564053      3.318      3.471
REMARK  3 active torsions:
REMARK  status: ('A' for Active; 'I' for Inactive)
REMARK    1  A    between atoms: N2_4  and  C1_6 
REMARK    2  A    between atoms: C1_6  and  C2_7 
REMARK    3  A    between atoms: C1_6  and  C3_9 
ROOT
HETATM    1  N1  UNL     1     -22.139  43.229  15.572  1.00  0.00    -0.349 N 
ATOM      2  H11 UNL     1     -21.730  43.689  16.385  1.00  0.00     0.176 HD
ATOM      3  H12 UNL     1     -21.710  42.396  15.169  1.00  0.00     0.176 HD
HETATM    4  N2  UNL     1     -23.162  43.677  15.062  1.00  0.00    -0.336 N 
ATOM      5  H2  UNL     1     -23.604  44.510  15.452  1.00  0.00     0.180 HD
ENDROOT
BRANCH   4   6
HETATM    6  C1  UNL     1     -23.731  43.037  13.929  1.00  0.00     0.122 C 
BRANCH   6   7
HETATM    7  C2  UNL     1     -24.800  42.039  14.327  1.00  0.00     0.142 C 
HETATM    8 CL1  UNL     1     -25.698  42.564  15.755  1.00  0.00    -0.128 Cl
ENDBRANCH   6   7
BRANCH   6   9
HETATM    9  C3  UNL     1     -24.223  43.990  12.872  1.00  0.00     0.113 C 
HETATM   10 BR1  UNL     1     -25.799  43.200  12.055  1.00  0.00    -0.094 Br
ENDBRANCH   6   9
ENDBRANCH   4   6
TORSDOF 3
ENDMDL
MODEL 4
REMARK VINA RESULT: -3.087118874      2.292      2.666
REMARK  3 active torsions:
REMARK  status: ('A' for Active; 'I' for Inactive)
REMARK    1  A    between atoms: N2_4  and  C1_6 
REMARK    2  A    between atoms: C1_6  and  C2_7 
REMARK    3  A    between atoms: C1_6  and  C3_9 
ROOT
HETATM    1  N1  UNL     1     -27.812  42.370  15.987  1.00  0.00    -0.349 N 
ATOM      2  H11 UNL     1     -28.538  41.874  16.504  1.00  0.00     0.176 HD
ATOM      3  H12 UNL     1     -27.904  43.363  15.776  1.00  0.00     0.176 HD
HETATM    4  N2  UNL     1     -26.809  41.772  15.607  1.00  0.00    -0.336 N 
ATOM      5  H2  UNL     1     -26.702  40.777  15.809  1.00  0.00     0.180 HD
ENDROOT
BRANCH   4   6
HETATM    6  C1  UNL     1     -25.799  42.462  14.887  1.00  0.00     0.122 C 
BRANCH   6   7
HETATM    7  C2  UNL     1     -24.593  42.758  15.756  1.00  0.00     0.142 C 
HETATM    8 CL1  UNL     1     -23.159  43.132  14.796  1.00  0.00    -0.128 Cl
ENDBRANCH   6   7
BRANCH   6   9
HETATM    9  C3  UNL     1     -25.406  41.796  13.595  1.00  0.00     0.113 C 
HETATM   10 BR1  UNL     1     -25.836  43.020  12.147  1.00  0.00    -0.094 Br
ENDBRANCH   6   9
ENDBRANCH   4   6
TORSDOF 3
ENDMDL
MODEL 5
REMARK VINA RESULT: -3.083858405      3.399      3.657
REMARK  3 active torsions:
REMARK  status: ('A' for Active; 'I' for Inactive)
REMARK    1  A    between atoms: N2_4  and  C1_6 
REMARK    2  A    between atoms: C1_6  and  C2_7 
REMARK    3  A    between atoms: C1_6  and  C3_9 
ROOT
HETATM    1  N1  UNL     1     -21.561  43.189  15.960  1.00  0.00    -0.349 N 
ATOM      2  H11 UNL     1     -20.814  43.674  16.457  1.00  0.00     0.176 HD
ATOM      3  H12 UNL     1     -21.493  42.193  15.754  1.00  0.00     0.176 HD
HETATM    4  N2  UNL     1     -22.560  43.804  15.600  1.00  0.00    -0.336 N 
ATOM      5  H2  UNL     1     -22.643  44.802  15.798  1.00  0.00     0.180 HD
ENDROOT
BRANCH   4   6
HETATM    6  C1  UNL     1     -23.600  43.129  14.908  1.00  0.00     0.122 C 
BRANCH   6   7
HETATM    7  C2  UNL     1     -24.806  42.897  15.797  1.00  0.00     0.142 C 
HETATM    8 CL1  UNL     1     -26.222  42.385  14.873  1.00  0.00    -0.128 Cl
ENDBRANCH   6   7
BRANCH   6   9
HETATM    9  C3  UNL     1     -23.985  43.774  13.603  1.00  0.00     0.113 C 
HETATM   10 BR1  UNL     1     -23.561  42.520  12.180  1.00  0.00    -0.094 Br
ENDBRANCH   6   9
ENDBRANCH   4   6
TORSDOF 3
ENDMDL
