MODEL 1
REMARK VINA RESULT: -6.506675279      0.000      0.000
REMARK  11 active torsions:
REMARK  status: ('A' for Active; 'I' for Inactive)
REMARK    1  A    between atoms: N1_1  and  C1_4 
REMARK    2  A    between atoms: C4_13  and  N6_14 
REMARK    3  A    between atoms: C5_19  and  C6_20 
REMARK    4  A    between atoms: C6_20  and  C7_21 
REMARK    5  A    between atoms: C6_20  and  N9_29 
REMARK    6  A    between atoms: C7_21  and  C8_22 
REMARK    7  A    between atoms: C8_22  and  N8_23 
REMARK    8  A    between atoms: N8_23  and  S1_25 
REMARK    9  A    between atoms: N9_29  and  C9_30 
REMARK   10  A    between atoms: C9_30  and  O4_31 
REMARK   11  A    between atoms: C9_30  and  O5_33 
ROOT
HETATM    1  C1  UNL     1      -4.390 -41.442  17.540  1.00  0.00     0.705 A 
HETATM    2  N2  UNL     1      -3.898 -41.110  16.333  1.00  0.00    -0.019 N 
ATOM      3  H2  UNL     1      -4.526 -41.111  15.529  1.00  0.00     0.203 HD
HETATM    4  C2  UNL     1      -2.600 -40.775  16.150  1.00  0.00     0.737 A 
HETATM    5  N3  UNL     1      -1.879 -40.416  15.066  1.00  0.00    -0.159 N 
HETATM    6  C3  UNL     1      -0.592 -40.178  15.404  1.00  0.00     0.176 A 
HETATM    7  N4  UNL     1      -0.590 -40.417  16.751  1.00  0.00    -0.246 N 
ATOM      8  H4  UNL     1       0.234 -40.331  17.347  1.00  0.00     0.190 HD
HETATM    9  N5  UNL     1      -1.766 -40.766  17.181  1.00  0.00     0.092 N 
HETATM   10  C4  UNL     1      -2.242 -41.098  18.413  1.00  0.00     0.727 A 
HETATM   11  N7  UNL     1      -3.532 -41.431  18.591  1.00  0.00    -0.020 N 
ATOM     12  H7  UNL     1      -3.868 -41.677  19.522  1.00  0.00     0.203 HD
HETATM   13  C5  UNL     1       0.600 -39.790  14.659  1.00  0.00     0.151 C 
HETATM   14  O6  UNL     1       0.573 -40.037  13.321  1.00  0.00    -0.342 OA
HETATM   15  C10 UNL     1      -0.515 -39.669  12.604  1.00  0.00     0.218 C 
HETATM   16  C11 UNL     1      -1.555 -40.765  12.664  1.00  0.00     0.187 A 
HETATM   17  C12 UNL     1      -1.370 -42.071  12.170  1.00  0.00     0.276 A 
HETATM   18  N10 UNL     1      -2.217 -41.132  11.416  1.00  0.00    -0.058 N 
ATOM     19 1H10 UNL     1      -2.254 -40.771  10.463  1.00  0.00     0.278 HD
ATOM     20 2H10 UNL     1      -3.171 -41.124  11.053  1.00  0.00     0.278 HD
HETATM   21  C13 UNL     1      -2.499 -40.339  13.771  1.00  0.00     0.192 C 
ENDROOT
BRANCH  13  22
HETATM   22  C6  UNL     1       1.161 -38.433  15.025  1.00  0.00     0.122 C 
BRANCH  22  23
HETATM   23  C7  UNL     1       2.653 -38.270  14.807  1.00  0.00     0.096 C 
BRANCH  23  24
HETATM   24  C8  UNL     1       3.012 -36.993  14.130  1.00  0.00     0.141 C 
BRANCH  24  25
HETATM   25  N8  UNL     1       2.182 -36.668  13.010  1.00  0.00    -0.300 N 
ATOM     26  H8  UNL     1       1.935 -37.355  12.298  1.00  0.00     0.174 HD
BRANCH  25  27
HETATM   27  S1  UNL     1       1.636 -35.060  12.948  1.00  0.00     0.204 S 
HETATM   28  O1  UNL     1       2.364 -34.257  11.910  1.00  0.00    -0.578 OA
HETATM   29  O2  UNL     1       1.786 -34.367  14.272  1.00  0.00    -0.578 OA
HETATM   30  O3  UNL     1       0.002 -35.028  12.573  1.00  0.00    -0.578 OA
ENDBRANCH  25  27
ENDBRANCH  24  25
ENDBRANCH  23  24
ENDBRANCH  22  23
BRANCH  22  31
HETATM   31  N9  UNL     1       0.518 -37.564  15.437  1.00  0.00    -0.392 NA
BRANCH  31  32
HETATM   32  C9  UNL     1      -0.210 -36.577  15.905  1.00  0.00     0.449 C 
BRANCH  32  33
HETATM   33  O4  UNL     1      -0.835 -36.732  17.172  1.00  0.00    -0.344 OA
ATOM     34  H4  UNL     1      -1.501 -36.105  17.432  1.00  0.00     0.215 HD
ENDBRANCH  32  33
BRANCH  32  35
HETATM   35  O5  UNL     1      -1.310 -36.191  15.063  1.00  0.00    -0.344 OA
ATOM     36  H5  UNL     1      -1.793 -35.430  15.365  1.00  0.00     0.215 HD
ENDBRANCH  32  35
ENDBRANCH  31  32
ENDBRANCH  22  31
ENDBRANCH  13  22
BRANCH  10  37
HETATM   37  N6  UNL     1      -1.471 -41.100  19.428  1.00  0.00    -0.232 N 
ATOM     38  H62 UNL     1      -0.829 -40.318  19.549  1.00  0.00     0.174 HD
ATOM     39  H61 UNL     1      -1.499 -41.867  20.101  1.00  0.00     0.174 HD
ENDBRANCH  10  37
BRANCH   1  40
HETATM   40  N1  UNL     1      -5.648 -41.765  17.706  1.00  0.00    -0.234 N 
ATOM     41  H12 UNL     1      -6.344 -41.530  16.999  1.00  0.00     0.174 HD
ATOM     42  H11 UNL     1      -5.969 -42.258  18.539  1.00  0.00     0.174 HD
ENDBRANCH   1  40
TORSDOF 11
ENDMDL
MODEL 2
REMARK VINA RESULT: -6.449894586      3.058      4.971
REMARK  11 active torsions:
REMARK  status: ('A' for Active; 'I' for Inactive)
REMARK    1  A    between atoms: N1_1  and  C1_4 
REMARK    2  A    between atoms: C4_13  and  N6_14 
REMARK    3  A    between atoms: C5_19  and  C6_20 
REMARK    4  A    between atoms: C6_20  and  C7_21 
REMARK    5  A    between atoms: C6_20  and  N9_29 
REMARK    6  A    between atoms: C7_21  and  C8_22 
REMARK    7  A    between atoms: C8_22  and  N8_23 
REMARK    8  A    between atoms: N8_23  and  S1_25 
REMARK    9  A    between atoms: N9_29  and  C9_30 
REMARK   10  A    between atoms: C9_30  and  O4_31 
REMARK   11  A    between atoms: C9_30  and  O5_33 
ROOT
HETATM    1  C1  UNL     1      -2.444 -41.297  11.259  1.00  0.00     0.705 A 
HETATM    2  N2  UNL     1      -1.330 -40.741  10.750  1.00  0.00    -0.019 N 
ATOM      3  H2  UNL     1      -1.037 -40.999   9.808  1.00  0.00     0.203 HD
HETATM    4  C2  UNL     1      -0.586 -39.850  11.446  1.00  0.00     0.737 A 
HETATM    5  N3  UNL     1       0.546 -39.170  11.167  1.00  0.00    -0.159 N 
HETATM    6  C3  UNL     1       0.905 -38.387  12.210  1.00  0.00     0.176 A 
HETATM    7  N4  UNL     1      -0.081 -38.643  13.125  1.00  0.00    -0.246 N 
ATOM      8  H4  UNL     1      -0.129 -38.214  14.049  1.00  0.00     0.190 HD
HETATM    9  N5  UNL     1      -0.948 -39.499  12.672  1.00  0.00     0.092 N 
HETATM   10  C4  UNL     1      -2.073 -40.050  13.207  1.00  0.00     0.727 A 
HETATM   11  N7  UNL     1      -2.809 -40.934  12.513  1.00  0.00    -0.020 N 
ATOM     12  H7  UNL     1      -3.648 -41.335  12.933  1.00  0.00     0.203 HD
HETATM   13  C5  UNL     1       2.017 -37.479  12.466  1.00  0.00     0.151 C 
HETATM   14  O6  UNL     1       3.127 -37.668  11.703  1.00  0.00    -0.342 OA
HETATM   15  C10 UNL     1       2.992 -37.807  10.363  1.00  0.00     0.218 C 
HETATM   16  C11 UNL     1       2.714 -39.256  10.031  1.00  0.00     0.187 A 
HETATM   17  C12 UNL     1       3.596 -40.322  10.297  1.00  0.00     0.276 A 
HETATM   18  N10 UNL     1       3.447 -39.843   8.913  1.00  0.00    -0.058 N 
ATOM     19 1H10 UNL     1       4.067 -39.506   8.176  1.00  0.00     0.278 HD
ATOM     20 2H10 UNL     1       3.214 -40.254   8.009  1.00  0.00     0.278 HD
HETATM   21  C13 UNL     1       1.205 -39.339   9.901  1.00  0.00     0.192 C 
ENDROOT
BRANCH  13  22
HETATM   22  C6  UNL     1       1.622 -36.028  12.633  1.00  0.00     0.122 C 
BRANCH  22  23
HETATM   23  C7  UNL     1       2.298 -35.302  13.781  1.00  0.00     0.096 C 
BRANCH  23  24
HETATM   24  C8  UNL     1       1.359 -34.926  14.873  1.00  0.00     0.141 C 
BRANCH  24  25
HETATM   25  N8  UNL     1       0.034 -35.443  14.713  1.00  0.00    -0.300 N 
ATOM     26  H8  UNL     1      -0.586 -35.132  13.964  1.00  0.00     0.174 HD
BRANCH  25  27
HETATM   27  S1  UNL     1      -0.438 -36.610  15.855  1.00  0.00     0.204 S 
HETATM   28  O1  UNL     1      -0.480 -36.052  17.248  1.00  0.00    -0.578 OA
HETATM   29  O2  UNL     1       0.479 -37.799  15.850  1.00  0.00    -0.578 OA
HETATM   30  O3  UNL     1      -1.969 -37.183  15.483  1.00  0.00    -0.578 OA
ENDBRANCH  25  27
ENDBRANCH  24  25
ENDBRANCH  23  24
ENDBRANCH  22  23
BRANCH  22  31
HETATM   31  N9  UNL     1       0.866 -35.485  11.945  1.00  0.00    -0.392 NA
BRANCH  31  32
HETATM   32  C9  UNL     1       0.009 -34.870  11.166  1.00  0.00     0.449 C 
BRANCH  32  33
HETATM   33  O4  UNL     1      -1.073 -34.166  11.763  1.00  0.00    -0.344 OA
ATOM     34  H4  UNL     1      -1.934 -34.233  11.367  1.00  0.00     0.215 HD
ENDBRANCH  32  33
BRANCH  32  35
HETATM   35  O5  UNL     1      -0.661 -35.719  10.218  1.00  0.00    -0.344 OA
ATOM     36  H5  UNL     1      -1.352 -35.295   9.723  1.00  0.00     0.215 HD
ENDBRANCH  32  35
ENDBRANCH  31  32
ENDBRANCH  22  31
ENDBRANCH  13  22
BRANCH  10  37
HETATM   37  N6  UNL     1      -2.454 -39.736  14.384  1.00  0.00    -0.232 N 
ATOM     38  H62 UNL     1      -2.333 -38.771  14.690  1.00  0.00     0.174 HD
ATOM     39  H61 UNL     1      -2.868 -40.436  15.000  1.00  0.00     0.174 HD
ENDBRANCH  10  37
BRANCH   1  40
HETATM   40  N1  UNL     1      -3.156 -42.159  10.577  1.00  0.00    -0.234 N 
ATOM     41  H12 UNL     1      -3.586 -41.894   9.691  1.00  0.00     0.174 HD
ATOM     42  H11 UNL     1      -3.303 -43.113  10.906  1.00  0.00     0.174 HD
ENDBRANCH   1  40
TORSDOF 11
ENDMDL
MODEL 3
REMARK VINA RESULT: -6.357596493      1.253      1.596
REMARK  11 active torsions:
REMARK  status: ('A' for Active; 'I' for Inactive)
REMARK    1  A    between atoms: N1_1  and  C1_4 
REMARK    2  A    between atoms: C4_13  and  N6_14 
REMARK    3  A    between atoms: C5_19  and  C6_20 
REMARK    4  A    between atoms: C6_20  and  C7_21 
REMARK    5  A    between atoms: C6_20  and  N9_29 
REMARK    6  A    between atoms: C7_21  and  C8_22 
REMARK    7  A    between atoms: C8_22  and  N8_23 
REMARK    8  A    between atoms: N8_23  and  S1_25 
REMARK    9  A    between atoms: N9_29  and  C9_30 
REMARK   10  A    between atoms: C9_30  and  O4_31 
REMARK   11  A    between atoms: C9_30  and  O5_33 
ROOT
HETATM    1  C1  UNL     1      -3.927 -41.656  16.166  1.00  0.00     0.705 A 
HETATM    2  N2  UNL     1      -3.223 -41.253  15.093  1.00  0.00    -0.019 N 
ATOM      3  H2  UNL     1      -3.610 -41.411  14.162  1.00  0.00     0.203 HD
HETATM    4  C2  UNL     1      -2.021 -40.643  15.206  1.00  0.00     0.737 A 
HETATM    5  N3  UNL     1      -1.138 -40.160  14.306  1.00  0.00    -0.159 N 
HETATM    6  C3  UNL     1      -0.058 -39.635  14.929  1.00  0.00     0.176 A 
HETATM    7  N4  UNL     1      -0.351 -39.835  16.250  1.00  0.00    -0.246 N 
ATOM      8  H4  UNL     1       0.257 -39.556  17.020  1.00  0.00     0.190 HD
HETATM    9  N5  UNL     1      -1.499 -40.426  16.405  1.00  0.00     0.092 N 
HETATM   10  C4  UNL     1      -2.194 -40.825  17.506  1.00  0.00     0.727 A 
HETATM   11  N7  UNL     1      -3.388 -41.431  17.389  1.00  0.00    -0.020 N 
ATOM     12  H7  UNL     1      -3.892 -41.723  18.227  1.00  0.00     0.203 HD
HETATM   13  C5  UNL     1       1.177 -39.010  14.470  1.00  0.00     0.151 C 
HETATM   14  O6  UNL     1       1.545 -39.288  13.189  1.00  0.00    -0.342 OA
HETATM   15  C10 UNL     1       0.624 -39.187  12.201  1.00  0.00     0.218 C 
HETATM   16  C11 UNL     1      -0.145 -40.484  12.092  1.00  0.00     0.187 A 
HETATM   17  C12 UNL     1       0.428 -41.729  11.762  1.00  0.00     0.276 A 
HETATM   18  N10 UNL     1      -0.375 -41.019  10.752  1.00  0.00    -0.058 N 
ATOM     19 1H10 UNL     1      -0.242 -40.697   9.794  1.00  0.00     0.278 HD
ATOM     20 2H10 UNL     1      -1.184 -41.230  10.169  1.00  0.00     0.278 HD
HETATM   21  C13 UNL     1      -1.408 -40.252  12.897  1.00  0.00     0.192 C 
ENDROOT
BRANCH  13  22
HETATM   22  C6  UNL     1       1.330 -37.555  14.853  1.00  0.00     0.122 C 
BRANCH  22  23
HETATM   23  C7  UNL     1       2.640 -36.911  14.439  1.00  0.00     0.096 C 
BRANCH  23  24
HETATM   24  C8  UNL     1       2.464 -35.784  13.482  1.00  0.00     0.141 C 
BRANCH  24  25
HETATM   25  N8  UNL     1       1.742 -36.126  12.295  1.00  0.00    -0.300 N 
ATOM     26  H8  UNL     1       1.942 -36.972  11.761  1.00  0.00     0.174 HD
BRANCH  25  27
HETATM   27  S1  UNL     1       0.529 -35.029  11.836  1.00  0.00     0.204 S 
HETATM   28  O1  UNL     1      -0.441 -34.760  12.950  1.00  0.00    -0.578 OA
HETATM   29  O2  UNL     1      -0.244 -35.516  10.644  1.00  0.00    -0.578 OA
HETATM   30  O3  UNL     1       1.222 -33.568  11.393  1.00  0.00    -0.578 OA
ENDBRANCH  25  27
ENDBRANCH  24  25
ENDBRANCH  23  24
ENDBRANCH  22  23
BRANCH  22  31
HETATM   31  N9  UNL     1       0.520 -36.951  15.416  1.00  0.00    -0.392 NA
BRANCH  31  32
HETATM   32  C9  UNL     1      -0.399 -36.266  16.055  1.00  0.00     0.449 C 
BRANCH  32  33
HETATM   33  O4  UNL     1      -0.129 -35.835  17.383  1.00  0.00    -0.344 OA
ATOM     34  H4  UNL     1      -0.634 -36.210  18.096  1.00  0.00     0.215 HD
ENDBRANCH  32  33
BRANCH  32  35
HETATM   35  O5  UNL     1      -1.660 -36.942  16.201  1.00  0.00    -0.344 OA
ATOM     36  H5  UNL     1      -2.317 -36.457  16.688  1.00  0.00     0.215 HD
ENDBRANCH  32  35
ENDBRANCH  31  32
ENDBRANCH  22  31
ENDBRANCH  13  22
BRANCH  10  37
HETATM   37  N6  UNL     1      -1.725 -40.633  18.676  1.00  0.00    -0.232 N 
ATOM     38  H62 UNL     1      -0.790 -40.235  18.763  1.00  0.00     0.174 HD
ATOM     39  H61 UNL     1      -2.274 -40.872  19.502  1.00  0.00     0.174 HD
ENDBRANCH  10  37
BRANCH   1  40
HETATM   40  N1  UNL     1      -5.090 -42.246  16.044  1.00  0.00    -0.234 N 
ATOM     41  H12 UNL     1      -5.332 -42.750  15.191  1.00  0.00     0.174 HD
ATOM     42  H11 UNL     1      -5.784 -42.221  16.791  1.00  0.00     0.174 HD
ENDBRANCH   1  40
TORSDOF 11
ENDMDL
MODEL 4
REMARK VINA RESULT: -6.218863119      1.958      2.802
REMARK  11 active torsions:
REMARK  status: ('A' for Active; 'I' for Inactive)
REMARK    1  A    between atoms: N1_1  and  C1_4 
REMARK    2  A    between atoms: C4_13  and  N6_14 
REMARK    3  A    between atoms: C5_19  and  C6_20 
REMARK    4  A    between atoms: C6_20  and  C7_21 
REMARK    5  A    between atoms: C6_20  and  N9_29 
REMARK    6  A    between atoms: C7_21  and  C8_22 
REMARK    7  A    between atoms: C8_22  and  N8_23 
REMARK    8  A    between atoms: N8_23  and  S1_25 
REMARK    9  A    between atoms: N9_29  and  C9_30 
REMARK   10  A    between atoms: C9_30  and  O4_31 
REMARK   11  A    between atoms: C9_30  and  O5_33 
ROOT
HETATM    1  C1  UNL     1      -3.923 -40.758  13.111  1.00  0.00     0.705 A 
HETATM    2  N2  UNL     1      -2.642 -40.695  12.708  1.00  0.00    -0.019 N 
ATOM      3  H2  UNL     1      -2.393 -41.074  11.794  1.00  0.00     0.203 HD
HETATM    4  C2  UNL     1      -1.671 -40.147  13.475  1.00  0.00     0.737 A 
HETATM    5  N3  UNL     1      -0.343 -39.971  13.304  1.00  0.00    -0.159 N 
HETATM    6  C3  UNL     1       0.202 -39.362  14.382  1.00  0.00     0.176 A 
HETATM    7  N4  UNL     1      -0.879 -39.187  15.202  1.00  0.00    -0.246 N 
ATOM      8  H4  UNL     1      -0.835 -38.748  16.121  1.00  0.00     0.190 HD
HETATM    9  N5  UNL     1      -1.970 -39.649  14.667  1.00  0.00     0.092 N 
HETATM   10  C4  UNL     1      -3.262 -39.701  15.094  1.00  0.00     0.727 A 
HETATM   11  N7  UNL     1      -4.223 -40.247  14.330  1.00  0.00    -0.020 N 
ATOM     12  H7  UNL     1      -5.185 -40.277  14.670  1.00  0.00     0.203 HD
HETATM   13  C5  UNL     1       1.554 -38.954  14.743  1.00  0.00     0.151 C 
HETATM   14  O6  UNL     1       2.564 -39.583  14.082  1.00  0.00    -0.342 OA
HETATM   15  C10 UNL     1       2.500 -39.695  12.733  1.00  0.00     0.218 C 
HETATM   16  C11 UNL     1       1.706 -40.929  12.367  1.00  0.00     0.187 A 
HETATM   17  C12 UNL     1       2.074 -42.247  12.702  1.00  0.00     0.276 A 
HETATM   18  N10 UNL     1       2.244 -41.787  11.314  1.00  0.00    -0.058 N 
ATOM     19 1H10 UNL     1       3.007 -41.739  10.638  1.00  0.00     0.278 HD
ATOM     20 2H10 UNL     1       1.947 -42.099  10.389  1.00  0.00     0.278 HD
HETATM   21  C13 UNL     1       0.303 -40.420  12.101  1.00  0.00     0.192 C 
ENDROOT
BRANCH  13  22
HETATM   22  C6  UNL     1       1.747 -37.460  14.885  1.00  0.00     0.122 C 
BRANCH  22  23
HETATM   23  C7  UNL     1       3.085 -36.932  14.402  1.00  0.00     0.096 C 
BRANCH  23  24
HETATM   24  C8  UNL     1       2.966 -35.997  13.250  1.00  0.00     0.141 C 
BRANCH  24  25
HETATM   25  N8  UNL     1       1.859 -36.269  12.384  1.00  0.00    -0.300 N 
ATOM     26  H8  UNL     1       1.604 -37.217  12.107  1.00  0.00     0.174 HD
BRANCH  25  27
HETATM   27  S1  UNL     1       1.000 -34.904  11.847  1.00  0.00     0.204 S 
HETATM   28  O1  UNL     1       0.679 -34.979  10.382  1.00  0.00    -0.578 OA
HETATM   29  O2  UNL     1       1.755 -33.632  12.101  1.00  0.00    -0.578 OA
HETATM   30  O3  UNL     1      -0.447 -34.778  12.686  1.00  0.00    -0.578 OA
ENDBRANCH  25  27
ENDBRANCH  24  25
ENDBRANCH  23  24
ENDBRANCH  22  23
BRANCH  22  31
HETATM   31  N9  UNL     1       0.946 -36.748  15.322  1.00  0.00    -0.392 NA
BRANCH  31  32
HETATM   32  C9  UNL     1       0.039 -35.942  15.819  1.00  0.00     0.449 C 
BRANCH  32  33
HETATM   33  O4  UNL     1      -0.157 -35.918  17.227  1.00  0.00    -0.344 OA
ATOM     34  H4  UNL     1       0.603 -35.983  17.794  1.00  0.00     0.215 HD
ENDBRANCH  32  33
BRANCH  32  35
HETATM   35  O5  UNL     1      -1.295 -36.160  15.326  1.00  0.00    -0.344 OA
ATOM     36  H5  UNL     1      -1.572 -35.554  14.649  1.00  0.00     0.215 HD
ENDBRANCH  32  35
ENDBRANCH  31  32
ENDBRANCH  22  31
ENDBRANCH  13  22
BRANCH  10  37
HETATM   37  N6  UNL     1      -3.589 -39.232  16.234  1.00  0.00    -0.232 N 
ATOM     38  H62 UNL     1      -3.577 -38.220  16.362  1.00  0.00     0.174 HD
ATOM     39  H61 UNL     1      -3.854 -39.855  16.997  1.00  0.00     0.174 HD
ENDBRANCH  10  37
BRANCH   1  40
HETATM   40  N1  UNL     1      -4.855 -41.292  12.360  1.00  0.00    -0.234 N 
ATOM     41  H12 UNL     1      -4.924 -42.304  12.255  1.00  0.00     0.174 HD
ATOM     42  H11 UNL     1      -5.535 -40.718  11.862  1.00  0.00     0.174 HD
ENDBRANCH   1  40
TORSDOF 11
ENDMDL
MODEL 5
REMARK VINA RESULT: -6.212296841      3.125      7.388
REMARK  11 active torsions:
REMARK  status: ('A' for Active; 'I' for Inactive)
REMARK    1  A    between atoms: N1_1  and  C1_4 
REMARK    2  A    between atoms: C4_13  and  N6_14 
REMARK    3  A    between atoms: C5_19  and  C6_20 
REMARK    4  A    between atoms: C6_20  and  C7_21 
REMARK    5  A    between atoms: C6_20  and  N9_29 
REMARK    6  A    between atoms: C7_21  and  C8_22 
REMARK    7  A    between atoms: C8_22  and  N8_23 
REMARK    8  A    between atoms: N8_23  and  S1_25 
REMARK    9  A    between atoms: N9_29  and  C9_30 
REMARK   10  A    between atoms: C9_30  and  O4_31 
REMARK   11  A    between atoms: C9_30  and  O5_33 
ROOT
HETATM    1  C1  UNL     1       1.668 -34.219   9.798  1.00  0.00     0.705 A 
HETATM    2  N2  UNL     1       2.405 -34.736  10.797  1.00  0.00    -0.019 N 
ATOM      3  H2  UNL     1       3.277 -34.275  11.056  1.00  0.00     0.203 HD
HETATM    4  C2  UNL     1       2.028 -35.848  11.469  1.00  0.00     0.737 A 
HETATM    5  N3  UNL     1       2.580 -36.551  12.482  1.00  0.00    -0.159 N 
HETATM    6  C3  UNL     1       1.805 -37.610  12.809  1.00  0.00     0.176 A 
HETATM    7  N4  UNL     1       0.762 -37.495  11.931  1.00  0.00    -0.246 N 
ATOM      8  H4  UNL     1      -0.028 -38.140  11.893  1.00  0.00     0.190 HD
HETATM    9  N5  UNL     1       0.899 -36.465  11.151  1.00  0.00     0.092 N 
HETATM   10  C4  UNL     1       0.136 -35.958  10.143  1.00  0.00     0.727 A 
HETATM   11  N7  UNL     1       0.514 -34.853   9.477  1.00  0.00    -0.020 N 
ATOM     12  H7  UNL     1      -0.072 -34.490   8.724  1.00  0.00     0.203 HD
HETATM   13  C5  UNL     1       1.915 -38.688  13.784  1.00  0.00     0.151 C 
HETATM   14  O6  UNL     1       3.168 -38.947  14.248  1.00  0.00    -0.342 OA
HETATM   15  C10 UNL     1       3.944 -37.917  14.663  1.00  0.00     0.218 C 
HETATM   16  C11 UNL     1       4.677 -37.327  13.479  1.00  0.00     0.187 A 
HETATM   17  C12 UNL     1       5.607 -38.026  12.685  1.00  0.00     0.276 A 
HETATM   18  N10 UNL     1       6.096 -37.026  13.649  1.00  0.00    -0.058 N 
ATOM     19 1H10 UNL     1       6.761 -37.007  14.422  1.00  0.00     0.278 HD
ATOM     20 2H10 UNL     1       6.685 -36.194  13.618  1.00  0.00     0.278 HD
HETATM   21  C13 UNL     1       3.833 -36.141  13.055  1.00  0.00     0.192 C 
ENDROOT
BRANCH  13  22
HETATM   22  C6  UNL     1       0.849 -38.680  14.858  1.00  0.00     0.122 C 
BRANCH  22  23
HETATM   23  C7  UNL     1       0.448 -40.046  15.382  1.00  0.00     0.096 C 
BRANCH  23  24
HETATM   24  C8  UNL     1      -0.850 -40.527  14.834  1.00  0.00     0.141 C 
BRANCH  24  25
HETATM   25  N8  UNL     1      -1.837 -39.503  14.674  1.00  0.00    -0.300 N 
ATOM     26  H8  UNL     1      -1.907 -38.943  13.824  1.00  0.00     0.174 HD
BRANCH  25  27
HETATM   27  S1  UNL     1      -2.882 -39.283  15.995  1.00  0.00     0.204 S 
HETATM   28  O1  UNL     1      -3.742 -38.062  15.837  1.00  0.00    -0.578 OA
HETATM   29  O2  UNL     1      -2.131 -39.168  17.290  1.00  0.00    -0.578 OA
HETATM   30  O3  UNL     1      -3.895 -40.611  16.145  1.00  0.00    -0.578 OA
ENDBRANCH  25  27
ENDBRANCH  24  25
ENDBRANCH  23  24
ENDBRANCH  22  23
BRANCH  22  31
HETATM   31  N9  UNL     1       0.363 -37.715  15.273  1.00  0.00    -0.392 NA
BRANCH  31  32
HETATM   32  C9  UNL     1      -0.188 -36.621  15.742  1.00  0.00     0.449 C 
BRANCH  32  33
HETATM   33  O4  UNL     1      -0.605 -36.596  17.101  1.00  0.00    -0.344 OA
ATOM     34  H4  UNL     1      -1.047 -37.358  17.457  1.00  0.00     0.215 HD
ENDBRANCH  32  33
BRANCH  32  35
HETATM   35  O5  UNL     1      -1.374 -36.199  15.047  1.00  0.00    -0.344 OA
ATOM     36  H5  UNL     1      -1.283 -36.143  14.103  1.00  0.00     0.215 HD
ENDBRANCH  32  35
ENDBRANCH  31  32
ENDBRANCH  22  31
ENDBRANCH  13  22
BRANCH  10  37
HETATM   37  N6  UNL     1      -0.957 -36.522   9.808  1.00  0.00    -0.232 N 
ATOM     38  H62 UNL     1      -1.048 -37.527   9.956  1.00  0.00     0.174 HD
ATOM     39  H61 UNL     1      -1.720 -35.979   9.402  1.00  0.00     0.174 HD
ENDBRANCH  10  37
BRANCH   1  40
HETATM   40  N1  UNL     1       2.042 -33.142   9.153  1.00  0.00    -0.234 N 
ATOM     41  H12 UNL     1       2.467 -33.209   8.228  1.00  0.00     0.174 HD
ATOM     42  H11 UNL     1       1.923 -32.210   9.550  1.00  0.00     0.174 HD
ENDBRANCH   1  40
TORSDOF 11
ENDMDL
