MODEL 1
REMARK VINA RESULT: -7.201826169      0.000      0.000
REMARK  12 active torsions:
REMARK  status: ('A' for Active; 'I' for Inactive)
REMARK    1  A    between atoms: N4_8  and  C3_9 
REMARK    2  A    between atoms: C4_14  and  N7_15 
REMARK       I    between atoms: N7_15  and  C5_17 
REMARK       I    between atoms: C5_17  and  N8_19 
REMARK    3  A    between atoms: N8_19  and  N9_21 
REMARK    4  A    between atoms: C6_23  and  C7_24 
REMARK    5  A    between atoms: C9_26  and  O2_27 
REMARK    6  A    between atoms: C10_29  and  O3_30 
REMARK    7  A    between atoms: C11_32  and  O4_33 
REMARK    8  A    between atoms: N10_36  and  C13_37 
REMARK    9  A    between atoms: C13_37  and  C14_38 
REMARK   10  A    between atoms: C14_38  and  C15_40 
REMARK   11  A    between atoms: C15_40  and  O6_41 
REMARK   12  A    between atoms: C15_40  and  O7_43 
ROOT
HETATM    1  C3  UNL     1      -0.743 -39.275  15.397  1.00  0.00     0.738 A 
HETATM    2  N5  UNL     1       0.093 -40.053  16.145  1.00  0.00    -0.115 N 
ATOM      3  H5  UNL     1       1.050 -39.814  16.409  1.00  0.00     0.206 HD
HETATM    4  N6  UNL     1      -0.539 -41.165  16.472  1.00  0.00    -0.117 N 
ATOM      5  H6  UNL     1      -0.163 -41.933  17.028  1.00  0.00     0.206 HD
HETATM    6  C4  UNL     1      -1.759 -41.096  15.940  1.00  0.00     0.718 A 
HETATM    7  N10 UNL     1      -1.903 -39.928  15.268  1.00  0.00    -0.002 N 
ENDROOT
BRANCH   6   8
HETATM    8  N7  UNL     1      -2.678 -41.982  16.032  1.00  0.00    -0.138 N 
HETATM    9  C5  UNL     1      -3.771 -41.789  16.919  1.00  0.00     0.353 C 
HETATM   10  O1  UNL     1      -4.947 -41.690  16.498  1.00  0.00    -0.245 OA
HETATM   11  N8  UNL     1      -3.502 -41.710  18.308  1.00  0.00    -0.251 N 
ATOM     12  H8  UNL     1      -2.547 -41.790  18.658  1.00  0.00     0.191 HD
ATOM     13  H7  UNL     1      -2.625 -42.830  15.467  1.00  0.00     0.189 HD
BRANCH  11  14
HETATM   14  N9  UNL     1      -4.567 -41.520  19.186  1.00  0.00    -0.307 N 
HETATM   15  C6  UNL     1      -5.303 -40.449  19.165  1.00  0.00     0.118 C 
ATOM     16  H9  UNL     1      -4.775 -42.247  19.871  1.00  0.00     0.186 HD
BRANCH  15  17
HETATM   17  C7  UNL     1      -6.387 -40.340  20.115  1.00  0.00    -0.014 A 
HETATM   18  C8  UNL     1      -6.736 -39.098  20.589  1.00  0.00     0.052 A 
HETATM   19  C9  UNL     1      -7.767 -38.949  21.499  1.00  0.00     0.102 A 
HETATM   20  C10 UNL     1      -8.432 -40.082  21.914  1.00  0.00     0.132 A 
HETATM   21  C11 UNL     1      -8.103 -41.346  21.455  1.00  0.00     0.102 A 
HETATM   22  C12 UNL     1      -7.069 -41.438  20.549  1.00  0.00     0.052 A 
BRANCH  19  23
HETATM   23  O2  UNL     1      -8.145 -37.693  22.001  1.00  0.00    -0.358 OA
ATOM     24  H2  UNL     1      -8.527 -37.022  21.448  1.00  0.00     0.217 HD
ENDBRANCH  19  23
BRANCH  20  25
HETATM   25  O3  UNL     1      -9.469 -40.005  22.819  1.00  0.00    -0.356 OA
ATOM     26  H3  UNL     1      -9.732 -40.764  23.327  1.00  0.00     0.218 HD
ENDBRANCH  20  25
BRANCH  21  27
HETATM   27  O4  UNL     1      -8.745 -42.495  21.848  1.00  0.00    -0.358 OA
ATOM     28  H4  UNL     1      -8.817 -42.780  22.752  1.00  0.00     0.217 HD
ENDBRANCH  21  27
ENDBRANCH  15  17
ENDBRANCH  11  14
ENDBRANCH   6   8
BRANCH   7  29
HETATM   29  C13 UNL     1      -3.105 -39.525  14.569  1.00  0.00     0.250 C 
BRANCH  29  30
HETATM   30  C14 UNL     1      -3.216 -40.305  13.311  1.00  0.00     0.200 C 
HETATM   31  O5  UNL     1      -2.316 -40.321  12.513  1.00  0.00    -0.291 OA
BRANCH  30  32
HETATM   32  C15 UNL     1      -4.452 -41.074  13.034  1.00  0.00     0.327 C 
BRANCH  32  33
HETATM   33  O6  UNL     1      -4.334 -42.368  13.529  1.00  0.00    -0.365 OA
ATOM     34  H6  UNL     1      -5.048 -42.557  14.126  1.00  0.00     0.213 HD
ENDBRANCH  32  33
BRANCH  32  35
HETATM   35  O7  UNL     1      -5.484 -40.448  13.757  1.00  0.00    -0.365 OA
ATOM     36  H7  UNL     1      -5.752 -41.062  14.431  1.00  0.00     0.213 HD
ENDBRANCH  32  35
ENDBRANCH  30  32
ENDBRANCH  29  30
ENDBRANCH   7  29
BRANCH   1  37
HETATM   37  N4  UNL     1      -0.432 -37.980  14.845  1.00  0.00    -0.054 N 
HETATM   38  C1  UNL     1      -0.452 -36.861  15.563  1.00  0.00     0.174 A 
HETATM   39  N1  UNL     1      -0.767 -36.704  16.955  1.00  0.00    -0.079 NA
HETATM   40  C2  UNL     1      -0.109 -35.821  14.730  1.00  0.00     0.156 A 
HETATM   41  N2  UNL     1       0.104 -36.382  13.533  1.00  0.00    -0.293 N 
HETATM   42  N3  UNL     1      -0.095 -37.676  13.622  1.00  0.00    -0.220 N 
ATOM     43  H2  UNL     1       0.376 -35.882  12.686  1.00  0.00     0.187 HD
ATOM     44  H3  UNL     1      -0.000 -38.340  12.855  1.00  0.00     0.209 HD
ENDBRANCH   1  37
TORSDOF 12
ENDMDL
MODEL 2
REMARK VINA RESULT: -7.178722785      0.195      1.488
REMARK  12 active torsions:
REMARK  status: ('A' for Active; 'I' for Inactive)
REMARK    1  A    between atoms: N4_8  and  C3_9 
REMARK    2  A    between atoms: C4_14  and  N7_15 
REMARK       I    between atoms: N7_15  and  C5_17 
REMARK       I    between atoms: C5_17  and  N8_19 
REMARK    3  A    between atoms: N8_19  and  N9_21 
REMARK    4  A    between atoms: C6_23  and  C7_24 
REMARK    5  A    between atoms: C9_26  and  O2_27 
REMARK    6  A    between atoms: C10_29  and  O3_30 
REMARK    7  A    between atoms: C11_32  and  O4_33 
REMARK    8  A    between atoms: N10_36  and  C13_37 
REMARK    9  A    between atoms: C13_37  and  C14_38 
REMARK   10  A    between atoms: C14_38  and  C15_40 
REMARK   11  A    between atoms: C15_40  and  O6_41 
REMARK   12  A    between atoms: C15_40  and  O7_43 
ROOT
HETATM    1  C3  UNL     1      -0.809 -39.478  15.401  1.00  0.00     0.738 A 
HETATM    2  N5  UNL     1       0.028 -40.320  16.075  1.00  0.00    -0.115 N 
ATOM      3  H5  UNL     1       1.003 -40.129  16.305  1.00  0.00     0.206 HD
HETATM    4  N6  UNL     1      -0.632 -41.422  16.378  1.00  0.00    -0.117 N 
ATOM      5  H6  UNL     1      -0.263 -42.229  16.880  1.00  0.00     0.206 HD
HETATM    6  C4  UNL     1      -1.871 -41.284  15.905  1.00  0.00     0.718 A 
HETATM    7  N10 UNL     1      -1.998 -40.080  15.295  1.00  0.00    -0.002 N 
ENDROOT
BRANCH   6   8
HETATM    8  N7  UNL     1      -2.818 -42.139  15.998  1.00  0.00    -0.138 N 
HETATM    9  C5  UNL     1      -3.903 -41.911  16.887  1.00  0.00     0.353 C 
HETATM   10  O1  UNL     1      -5.075 -41.773  16.467  1.00  0.00    -0.245 OA
HETATM   11  N8  UNL     1      -3.629 -41.842  18.275  1.00  0.00    -0.251 N 
ATOM     12  H8  UNL     1      -2.677 -41.954  18.623  1.00  0.00     0.191 HD
ATOM     13  H7  UNL     1      -2.794 -42.988  15.432  1.00  0.00     0.189 HD
BRANCH  11  14
HETATM   14  N9  UNL     1      -4.686 -41.618  19.155  1.00  0.00    -0.307 N 
HETATM   15  C6  UNL     1      -5.277 -40.465  19.252  1.00  0.00     0.118 C 
ATOM     16  H9  UNL     1      -5.006 -42.387  19.745  1.00  0.00     0.186 HD
BRANCH  15  17
HETATM   17  C7  UNL     1      -6.365 -40.326  20.194  1.00  0.00    -0.014 A 
HETATM   18  C8  UNL     1      -6.997 -41.457  20.655  1.00  0.00     0.052 A 
HETATM   19  C9  UNL     1      -8.042 -41.369  21.556  1.00  0.00     0.102 A 
HETATM   20  C10 UNL     1      -8.429 -40.115  21.978  1.00  0.00     0.132 A 
HETATM   21  C11 UNL     1      -7.812 -38.959  21.532  1.00  0.00     0.102 A 
HETATM   22  C12 UNL     1      -6.776 -39.104  20.635  1.00  0.00     0.052 A 
BRANCH  19  23
HETATM   23  O2  UNL     1      -8.706 -42.506  22.043  1.00  0.00    -0.358 OA
ATOM     24  H2  UNL     1      -9.554 -42.778  21.712  1.00  0.00     0.217 HD
ENDBRANCH  19  23
BRANCH  20  25
HETATM   25  O3  UNL     1      -9.462 -39.956  22.876  1.00  0.00    -0.356 OA
ATOM     26  H3  UNL     1     -10.151 -39.320  22.721  1.00  0.00     0.218 HD
ENDBRANCH  20  25
BRANCH  21  27
HETATM   27  O4  UNL     1      -8.172 -37.695  21.932  1.00  0.00    -0.358 OA
ATOM     28  H4  UNL     1      -7.553 -37.030  22.211  1.00  0.00     0.217 HD
ENDBRANCH  21  27
ENDBRANCH  15  17
ENDBRANCH  11  14
ENDBRANCH   6   8
BRANCH   7  29
HETATM   29  C13 UNL     1      -3.213 -39.602  14.669  1.00  0.00     0.250 C 
BRANCH  29  30
HETATM   30  C14 UNL     1      -3.385 -40.284  13.363  1.00  0.00     0.200 C 
HETATM   31  O5  UNL     1      -2.494 -40.306  12.555  1.00  0.00    -0.291 OA
BRANCH  30  32
HETATM   32  C15 UNL     1      -4.672 -40.949  13.048  1.00  0.00     0.327 C 
BRANCH  32  33
HETATM   33  O6  UNL     1      -4.672 -42.250  13.535  1.00  0.00    -0.365 OA
ATOM     34  H6  UNL     1      -4.485 -42.252  14.467  1.00  0.00     0.213 HD
ENDBRANCH  32  33
BRANCH  32  35
HETATM   35  O7  UNL     1      -5.668 -40.245  13.750  1.00  0.00    -0.365 OA
ATOM     36  H7  UNL     1      -5.425 -40.278  14.668  1.00  0.00     0.213 HD
ENDBRANCH  32  35
ENDBRANCH  30  32
ENDBRANCH  29  30
ENDBRANCH   7  29
BRANCH   1  37
HETATM   37  N4  UNL     1      -0.473 -38.170  14.895  1.00  0.00    -0.054 N 
HETATM   38  C1  UNL     1      -0.512 -37.070  15.643  1.00  0.00     0.174 A 
HETATM   39  N1  UNL     1      -0.873 -36.949  17.027  1.00  0.00    -0.079 NA
HETATM   40  C2  UNL     1      -0.135 -36.010  14.850  1.00  0.00     0.156 A 
HETATM   41  N2  UNL     1       0.115 -36.540  13.646  1.00  0.00    -0.293 N 
HETATM   42  N3  UNL     1      -0.093 -37.835  13.693  1.00  0.00    -0.220 N 
ATOM     43  H2  UNL     1       0.419 -36.019  12.823  1.00  0.00     0.187 HD
ATOM     44  H3  UNL     1       0.024 -38.479  12.911  1.00  0.00     0.209 HD
ENDBRANCH   1  37
TORSDOF 12
ENDMDL
MODEL 3
REMARK VINA RESULT: -6.739222117      4.282      6.883
REMARK  12 active torsions:
REMARK  status: ('A' for Active; 'I' for Inactive)
REMARK    1  A    between atoms: N4_8  and  C3_9 
REMARK    2  A    between atoms: C4_14  and  N7_15 
REMARK       I    between atoms: N7_15  and  C5_17 
REMARK       I    between atoms: C5_17  and  N8_19 
REMARK    3  A    between atoms: N8_19  and  N9_21 
REMARK    4  A    between atoms: C6_23  and  C7_24 
REMARK    5  A    between atoms: C9_26  and  O2_27 
REMARK    6  A    between atoms: C10_29  and  O3_30 
REMARK    7  A    between atoms: C11_32  and  O4_33 
REMARK    8  A    between atoms: N10_36  and  C13_37 
REMARK    9  A    between atoms: C13_37  and  C14_38 
REMARK   10  A    between atoms: C14_38  and  C15_40 
REMARK   11  A    between atoms: C15_40  and  O6_41 
REMARK   12  A    between atoms: C15_40  and  O7_43 
ROOT
HETATM    1  C3  UNL     1       2.957 -35.875  12.532  1.00  0.00     0.738 A 
HETATM    2  N5  UNL     1       3.384 -35.736  13.821  1.00  0.00    -0.115 N 
ATOM      3  H5  UNL     1       4.358 -35.696  14.123  1.00  0.00     0.206 HD
HETATM    4  N6  UNL     1       2.330 -35.664  14.612  1.00  0.00    -0.117 N 
ATOM      5  H6  UNL     1       2.341 -35.559  15.627  1.00  0.00     0.206 HD
HETATM    6  C4  UNL     1       1.248 -35.754  13.839  1.00  0.00     0.718 A 
HETATM    7  N10 UNL     1       1.620 -35.886  12.542  1.00  0.00    -0.002 N 
ENDROOT
BRANCH   6   8
HETATM    8  N7  UNL     1       0.030 -35.725  14.231  1.00  0.00    -0.138 N 
HETATM    9  C5  UNL     1      -0.411 -36.601  15.259  1.00  0.00     0.353 C 
HETATM   10  O1  UNL     1      -0.830 -36.165  16.356  1.00  0.00    -0.245 OA
HETATM   11  N8  UNL     1      -0.366 -37.996  15.016  1.00  0.00    -0.251 N 
ATOM     12  H8  UNL     1      -0.026 -38.358  14.125  1.00  0.00     0.191 HD
ATOM     13  H7  UNL     1      -0.626 -35.071  13.804  1.00  0.00     0.189 HD
BRANCH  11  14
HETATM   14  N9  UNL     1      -0.796 -38.864  16.018  1.00  0.00    -0.307 N 
HETATM   15  C6  UNL     1      -1.946 -39.468  15.968  1.00  0.00     0.118 C 
ATOM     16  H9  UNL     1      -0.186 -39.031  16.819  1.00  0.00     0.186 HD
BRANCH  15  17
HETATM   17  C7  UNL     1      -2.307 -40.351  17.054  1.00  0.00    -0.014 A 
HETATM   18  C8  UNL     1      -3.415 -41.154  16.920  1.00  0.00     0.052 A 
HETATM   19  C9  UNL     1      -3.796 -42.013  17.935  1.00  0.00     0.102 A 
HETATM   20  C10 UNL     1      -3.031 -42.040  19.081  1.00  0.00     0.132 A 
HETATM   21  C11 UNL     1      -1.911 -41.243  19.244  1.00  0.00     0.102 A 
HETATM   22  C12 UNL     1      -1.576 -40.406  18.203  1.00  0.00     0.052 A 
BRANCH  19  23
HETATM   23  O2  UNL     1      -4.922 -42.844  17.827  1.00  0.00    -0.358 OA
ATOM     24  H2  UNL     1      -4.857 -43.792  17.854  1.00  0.00     0.217 HD
ENDBRANCH  19  23
BRANCH  20  25
HETATM   25  O3  UNL     1      -3.355 -42.873  20.131  1.00  0.00    -0.356 OA
ATOM     26  H3  UNL     1      -3.315 -43.817  20.035  1.00  0.00     0.218 HD
ENDBRANCH  20  25
BRANCH  21  27
HETATM   27  O4  UNL     1      -1.128 -41.244  20.373  1.00  0.00    -0.358 OA
ATOM     28  H4  UNL     1      -0.706 -40.469  20.727  1.00  0.00     0.217 HD
ENDBRANCH  21  27
ENDBRANCH  15  17
ENDBRANCH  11  14
ENDBRANCH   6   8
BRANCH   7  29
HETATM   29  C13 UNL     1       0.698 -36.010  11.432  1.00  0.00     0.250 C 
BRANCH  29  30
HETATM   30  C14 UNL     1       0.167 -34.666  11.094  1.00  0.00     0.200 C 
HETATM   31  O5  UNL     1      -0.927 -34.324  11.459  1.00  0.00    -0.291 OA
BRANCH  30  32
HETATM   32  C15 UNL     1       0.994 -33.732  10.294  1.00  0.00     0.327 C 
BRANCH  32  33
HETATM   33  O6  UNL     1       0.380 -33.467   9.076  1.00  0.00    -0.365 OA
ATOM     34  H6  UNL     1       0.740 -32.676   8.692  1.00  0.00     0.213 HD
ENDBRANCH  32  33
BRANCH  32  35
HETATM   35  O7  UNL     1       1.032 -32.520  11.009  1.00  0.00    -0.365 OA
ATOM     36  H7  UNL     1       1.719 -31.995  10.614  1.00  0.00     0.213 HD
ENDBRANCH  32  35
ENDBRANCH  30  32
ENDBRANCH  29  30
ENDBRANCH   7  29
BRANCH   1  37
HETATM   37  N4  UNL     1       3.798 -35.987  11.365  1.00  0.00    -0.054 N 
HETATM   38  C1  UNL     1       4.772 -35.125  11.087  1.00  0.00     0.174 A 
HETATM   39  N1  UNL     1       5.176 -33.969  11.836  1.00  0.00    -0.079 NA
HETATM   40  C2  UNL     1       5.366 -35.527   9.912  1.00  0.00     0.156 A 
HETATM   41  N2  UNL     1       4.704 -36.631   9.541  1.00  0.00    -0.293 N 
HETATM   42  N3  UNL     1       3.768 -36.890  10.424  1.00  0.00    -0.220 N 
ATOM     43  H2  UNL     1       4.896 -37.182   8.704  1.00  0.00     0.187 HD
ATOM     44  H3  UNL     1       3.120 -37.675  10.382  1.00  0.00     0.209 HD
ENDBRANCH   1  37
TORSDOF 12
ENDMDL
MODEL 4
REMARK VINA RESULT: -6.703460999      1.846      2.862
REMARK  12 active torsions:
REMARK  status: ('A' for Active; 'I' for Inactive)
REMARK    1  A    between atoms: N4_8  and  C3_9 
REMARK    2  A    between atoms: C4_14  and  N7_15 
REMARK       I    between atoms: N7_15  and  C5_17 
REMARK       I    between atoms: C5_17  and  N8_19 
REMARK    3  A    between atoms: N8_19  and  N9_21 
REMARK    4  A    between atoms: C6_23  and  C7_24 
REMARK    5  A    between atoms: C9_26  and  O2_27 
REMARK    6  A    between atoms: C10_29  and  O3_30 
REMARK    7  A    between atoms: C11_32  and  O4_33 
REMARK    8  A    between atoms: N10_36  and  C13_37 
REMARK    9  A    between atoms: C13_37  and  C14_38 
REMARK   10  A    between atoms: C14_38  and  C15_40 
REMARK   11  A    between atoms: C15_40  and  O6_41 
REMARK   12  A    between atoms: C15_40  and  O7_43 
ROOT
HETATM    1  C3  UNL     1      -1.595 -38.193  15.392  1.00  0.00     0.738 A 
HETATM    2  N5  UNL     1      -2.938 -37.951  15.393  1.00  0.00    -0.115 N 
ATOM      3  H5  UNL     1      -3.380 -37.051  15.199  1.00  0.00     0.206 HD
HETATM    4  N6  UNL     1      -3.572 -39.070  15.687  1.00  0.00    -0.117 N 
ATOM      5  H6  UNL     1      -4.582 -39.192  15.760  1.00  0.00     0.206 HD
HETATM    6  C4  UNL     1      -2.647 -40.012  15.869  1.00  0.00     0.718 A 
HETATM    7  N10 UNL     1      -1.412 -39.483  15.690  1.00  0.00    -0.002 N 
ENDROOT
BRANCH   6   8
HETATM    8  N7  UNL     1      -2.860 -41.237  16.170  1.00  0.00    -0.138 N 
HETATM    9  C5  UNL     1      -3.815 -41.573  17.168  1.00  0.00     0.353 C 
HETATM   10  O1  UNL     1      -4.840 -42.239  16.896  1.00  0.00    -0.245 OA
HETATM   11  N8  UNL     1      -3.580 -41.133  18.494  1.00  0.00    -0.251 N 
ATOM     12  H8  UNL     1      -2.748 -40.591  18.723  1.00  0.00     0.191 HD
ATOM     13  H7  UNL     1      -2.344 -41.976  15.692  1.00  0.00     0.189 HD
BRANCH  11  14
HETATM   14  N9  UNL     1      -4.510 -41.456  19.481  1.00  0.00    -0.307 N 
HETATM   15  C6  UNL     1      -5.556 -40.721  19.718  1.00  0.00     0.118 C 
ATOM     16  H9  UNL     1      -4.365 -42.300  20.036  1.00  0.00     0.186 HD
BRANCH  15  17
HETATM   17  C7  UNL     1      -6.466 -41.136  20.762  1.00  0.00    -0.014 A 
HETATM   18  C8  UNL     1      -7.429 -40.257  21.194  1.00  0.00     0.052 A 
HETATM   19  C9  UNL     1      -8.320 -40.613  22.191  1.00  0.00     0.102 A 
HETATM   20  C10 UNL     1      -8.212 -41.875  22.734  1.00  0.00     0.132 A 
HETATM   21  C11 UNL     1      -7.252 -42.782  22.318  1.00  0.00     0.102 A 
HETATM   22  C12 UNL     1      -6.391 -42.375  21.323  1.00  0.00     0.052 A 
BRANCH  19  23
HETATM   23  O2  UNL     1      -9.313 -39.735  22.653  1.00  0.00    -0.358 OA
ATOM     24  H2  UNL     1     -10.173 -39.686  22.251  1.00  0.00     0.217 HD
ENDBRANCH  19  23
BRANCH  20  25
HETATM   25  O3  UNL     1      -9.068 -42.294  23.730  1.00  0.00    -0.356 OA
ATOM     26  H3  UNL     1      -8.764 -42.861  24.429  1.00  0.00     0.218 HD
ENDBRANCH  20  25
BRANCH  21  27
HETATM   27  O4  UNL     1      -7.117 -44.047  22.839  1.00  0.00    -0.358 OA
ATOM     28  H4  UNL     1      -6.399 -44.633  22.628  1.00  0.00     0.217 HD
ENDBRANCH  21  27
ENDBRANCH  15  17
ENDBRANCH  11  14
ENDBRANCH   6   8
BRANCH   7  29
HETATM   29  C13 UNL     1      -0.175 -40.227  15.812  1.00  0.00     0.250 C 
BRANCH  29  30
HETATM   30  C14 UNL     1       0.465 -40.322  14.476  1.00  0.00     0.200 C 
HETATM   31  O5  UNL     1      -0.127 -40.790  13.540  1.00  0.00    -0.291 OA
BRANCH  30  32
HETATM   32  C15 UNL     1       1.852 -39.834  14.293  1.00  0.00     0.327 C 
BRANCH  32  33
HETATM   33  O6  UNL     1       1.937 -39.046  13.152  1.00  0.00    -0.365 OA
ATOM     34  H6  UNL     1       2.140 -39.584  12.395  1.00  0.00     0.213 HD
ENDBRANCH  32  33
BRANCH  32  35
HETATM   35  O7  UNL     1       2.131 -39.000  15.392  1.00  0.00    -0.365 OA
ATOM     36  H7  UNL     1       2.448 -38.179  15.034  1.00  0.00     0.213 HD
ENDBRANCH  32  35
ENDBRANCH  30  32
ENDBRANCH  29  30
ENDBRANCH   7  29
BRANCH   1  37
HETATM   37  N4  UNL     1      -0.557 -37.230  15.117  1.00  0.00    -0.054 N 
HETATM   38  C1  UNL     1      -0.156 -36.323  16.003  1.00  0.00     0.174 A 
HETATM   39  N1  UNL     1      -0.634 -36.115  17.341  1.00  0.00    -0.079 NA
HETATM   40  C2  UNL     1       0.838 -35.573  15.417  1.00  0.00     0.156 A 
HETATM   41  N2  UNL     1       0.983 -36.080  14.186  1.00  0.00    -0.293 N 
HETATM   42  N3  UNL     1       0.138 -37.071  14.026  1.00  0.00    -0.220 N 
ATOM     43  H2  UNL     1       1.645 -35.748  13.484  1.00  0.00     0.187 HD
ATOM     44  H3  UNL     1       0.041 -37.631  13.179  1.00  0.00     0.209 HD
ENDBRANCH   1  37
TORSDOF 12
ENDMDL
MODEL 5
REMARK VINA RESULT: -6.677807835      4.261      6.886
REMARK  12 active torsions:
REMARK  status: ('A' for Active; 'I' for Inactive)
REMARK    1  A    between atoms: N4_8  and  C3_9 
REMARK    2  A    between atoms: C4_14  and  N7_15 
REMARK       I    between atoms: N7_15  and  C5_17 
REMARK       I    between atoms: C5_17  and  N8_19 
REMARK    3  A    between atoms: N8_19  and  N9_21 
REMARK    4  A    between atoms: C6_23  and  C7_24 
REMARK    5  A    between atoms: C9_26  and  O2_27 
REMARK    6  A    between atoms: C10_29  and  O3_30 
REMARK    7  A    between atoms: C11_32  and  O4_33 
REMARK    8  A    between atoms: N10_36  and  C13_37 
REMARK    9  A    between atoms: C13_37  and  C14_38 
REMARK   10  A    between atoms: C14_38  and  C15_40 
REMARK   11  A    between atoms: C15_40  and  O6_41 
REMARK   12  A    between atoms: C15_40  and  O7_43 
ROOT
HETATM    1  C3  UNL     1       2.973 -35.819  12.477  1.00  0.00     0.738 A 
HETATM    2  N5  UNL     1       3.419 -35.650  13.756  1.00  0.00    -0.115 N 
ATOM      3  H5  UNL     1       4.397 -35.605  14.043  1.00  0.00     0.206 HD
HETATM    4  N6  UNL     1       2.376 -35.555  14.560  1.00  0.00    -0.117 N 
ATOM      5  H6  UNL     1       2.403 -35.425  15.571  1.00  0.00     0.206 HD
HETATM    6  C4  UNL     1       1.284 -35.661  13.805  1.00  0.00     0.718 A 
HETATM    7  N10 UNL     1       1.636 -35.826  12.506  1.00  0.00    -0.002 N 
ENDROOT
BRANCH   6   8
HETATM    8  N7  UNL     1       0.071 -35.618  14.214  1.00  0.00    -0.138 N 
HETATM    9  C5  UNL     1      -0.388 -36.548  15.186  1.00  0.00     0.353 C 
HETATM   10  O1  UNL     1      -0.781 -36.174  16.315  1.00  0.00    -0.245 OA
HETATM   11  N8  UNL     1      -0.394 -37.923  14.848  1.00  0.00    -0.251 N 
ATOM     12  H8  UNL     1      -0.075 -38.235  13.930  1.00  0.00     0.191 HD
ATOM     13  H7  UNL     1      -0.567 -34.916  13.840  1.00  0.00     0.189 HD
BRANCH  11  14
HETATM   14  N9  UNL     1      -0.842 -38.843  15.794  1.00  0.00    -0.307 N 
HETATM   15  C6  UNL     1      -2.040 -39.346  15.760  1.00  0.00     0.118 C 
ATOM     16  H9  UNL     1      -0.207 -39.131  16.539  1.00  0.00     0.186 HD
BRANCH  15  17
HETATM   17  C7  UNL     1      -2.418 -40.294  16.785  1.00  0.00    -0.014 A 
HETATM   18  C8  UNL     1      -1.653 -40.386  17.923  1.00  0.00     0.052 A 
HETATM   19  C9  UNL     1      -1.978 -41.279  18.927  1.00  0.00     0.102 A 
HETATM   20  C10 UNL     1      -3.092 -42.072  18.752  1.00  0.00     0.132 A 
HETATM   21  C11 UNL     1      -3.881 -42.002  17.617  1.00  0.00     0.102 A 
HETATM   22  C12 UNL     1      -3.512 -41.095  16.648  1.00  0.00     0.052 A 
BRANCH  19  23
HETATM   23  O2  UNL     1      -1.215 -41.395  20.100  1.00  0.00    -0.358 OA
ATOM     24  H2  UNL     1      -1.262 -40.754  20.800  1.00  0.00     0.217 HD
ENDBRANCH  19  23
BRANCH  20  25
HETATM   25  O3  UNL     1      -3.473 -42.982  19.714  1.00  0.00    -0.356 OA
ATOM     26  H3  UNL     1      -4.378 -43.046  19.996  1.00  0.00     0.218 HD
ENDBRANCH  20  25
BRANCH  21  27
HETATM   27  O4  UNL     1      -4.997 -42.777  17.411  1.00  0.00    -0.358 OA
ATOM     28  H4  UNL     1      -5.097 -43.379  16.681  1.00  0.00     0.217 HD
ENDBRANCH  21  27
ENDBRANCH  15  17
ENDBRANCH  11  14
ENDBRANCH   6   8
BRANCH   7  29
HETATM   29  C13 UNL     1       0.698 -35.974  11.413  1.00  0.00     0.250 C 
BRANCH  29  30
HETATM   30  C14 UNL     1       0.169 -34.637  11.046  1.00  0.00     0.200 C 
HETATM   31  O5  UNL     1      -0.924 -34.285  11.405  1.00  0.00    -0.291 OA
BRANCH  30  32
HETATM   32  C15 UNL     1       0.998 -33.721  10.227  1.00  0.00     0.327 C 
BRANCH  32  33
HETATM   33  O6  UNL     1       0.406 -33.517   8.987  1.00  0.00    -0.365 OA
ATOM     34  H6  UNL     1       1.021 -33.102   8.393  1.00  0.00     0.213 HD
ENDBRANCH  32  33
BRANCH  32  35
HETATM   35  O7  UNL     1       1.000 -32.481  10.893  1.00  0.00    -0.365 OA
ATOM     36  H7  UNL     1       1.891 -32.152  10.847  1.00  0.00     0.213 HD
ENDBRANCH  32  35
ENDBRANCH  30  32
ENDBRANCH  29  30
ENDBRANCH   7  29
BRANCH   1  37
HETATM   37  N4  UNL     1       3.796 -35.963  11.301  1.00  0.00    -0.054 N 
HETATM   38  C1  UNL     1       4.775 -35.116  10.993  1.00  0.00     0.174 A 
HETATM   39  N1  UNL     1       5.201 -33.950  11.713  1.00  0.00    -0.079 NA
HETATM   40  C2  UNL     1       5.349 -35.548   9.819  1.00  0.00     0.156 A 
HETATM   41  N2  UNL     1       4.671 -36.652   9.478  1.00  0.00    -0.293 N 
HETATM   42  N3  UNL     1       3.745 -36.884  10.379  1.00  0.00    -0.220 N 
ATOM     43  H2  UNL     1       4.846 -37.221   8.650  1.00  0.00     0.187 HD
ATOM     44  H3  UNL     1       3.088 -37.663  10.361  1.00  0.00     0.209 HD
ENDBRANCH   1  37
TORSDOF 12
ENDMDL
