MODEL 1
REMARK VINA RESULT: -6.375405395      0.000      0.000
REMARK  15 active torsions:
REMARK  status: ('A' for Active; 'I' for Inactive)
REMARK       I    between atoms: C1_2  and  N1_3 
REMARK    1  A    between atoms: C1_2  and  C5_14 
REMARK    2  A    between atoms: N1_3  and  C2_5 
REMARK    3  A    between atoms: C2_5  and  C3_6 
REMARK    4  A    between atoms: C3_6  and  O2_7 
REMARK    5  A    between atoms: C3_6  and  C4_9 
REMARK    6  A    between atoms: C4_9  and  O3_10 
REMARK    7  A    between atoms: C4_9  and  O4_12 
REMARK    8  A    between atoms: C8_17  and  O5_18 
REMARK    9  A    between atoms: C10_21  and  N2_22 
REMARK   10  A    between atoms: C12_24  and  C13_25 
REMARK   11  A    between atoms: C13_25  and  O6_26 
REMARK   12  A    between atoms: C15_30  and  O8_31 
REMARK   13  A    between atoms: C15_30  and  C16_33 
REMARK   14  A    between atoms: C16_33  and  O9_34 
REMARK   15  A    between atoms: C17_36  and  O10_37 
ROOT
HETATM    1  C5  UNL     1       3.213 -36.771  13.565  1.00  0.00     0.061 A 
HETATM    2  C6  UNL     1       4.590 -37.059  13.390  1.00  0.00     0.022 A 
HETATM    3  C7  UNL     1       5.161 -38.173  13.917  1.00  0.00     0.037 A 
HETATM    4  C8  UNL     1       4.403 -39.079  14.661  1.00  0.00     0.068 A 
HETATM    5  C9  UNL     1       3.088 -38.795  14.825  1.00  0.00     0.069 A 
HETATM    6  C10 UNL     1       2.459 -37.638  14.285  1.00  0.00     0.075 A 
ENDROOT
BRANCH   6   7
HETATM    7  N2  UNL     1       1.080 -37.513  14.563  1.00  0.00    -0.250 N 
HETATM    8  C11 UNL     1       0.274 -38.512  15.017  1.00  0.00     0.148 A 
HETATM    9  C12 UNL     1      -1.019 -38.067  15.126  1.00  0.00     0.084 A 
HETATM   10  N3  UNL     1      -0.972 -36.783  14.735  1.00  0.00    -0.285 N 
HETATM   11  N4  UNL     1       0.290 -36.497  14.409  1.00  0.00    -0.236 N 
ATOM     12  H3  UNL     1      -1.763 -36.140  14.694  1.00  0.00     0.188 HD
ATOM     13  H4  UNL     1       0.598 -35.583  14.076  1.00  0.00     0.209 HD
BRANCH   9  14
HETATM   14  C13 UNL     1      -2.165 -38.839  15.512  1.00  0.00     0.155 C 
HETATM   15  C14 UNL     1      -2.690 -39.847  14.502  1.00  0.00     0.219 C 
HETATM   16  O7  UNL     1      -3.752 -40.379  15.287  1.00  0.00    -0.348 OA
HETATM   17  C15 UNL     1      -3.267 -40.564  16.573  1.00  0.00     0.213 C 
HETATM   18  C17 UNL     1      -1.943 -39.802  16.670  1.00  0.00     0.225 C 
BRANCH  14  19
HETATM   19  O6  UNL     1      -3.290 -38.036  15.815  1.00  0.00    -0.378 OA
ATOM     20  H6  UNL     1      -4.070 -38.548  15.993  1.00  0.00     0.211 HD
ENDBRANCH  14  19
BRANCH  17  21
HETATM   21  O8  UNL     1      -4.156 -40.165  17.566  1.00  0.00    -0.362 OA
ATOM     22  H8  UNL     1      -3.736 -39.736  18.302  1.00  0.00     0.213 HD
ENDBRANCH  17  21
BRANCH  17  23
HETATM   23  C16 UNL     1      -3.075 -42.055  16.772  1.00  0.00     0.235 C 
BRANCH  23  24
HETATM   24  O9  UNL     1      -1.945 -42.366  17.535  1.00  0.00    -0.395 OA
ATOM     25  H9  UNL     1      -1.689 -43.278  17.468  1.00  0.00     0.209 HD
ENDBRANCH  23  24
ENDBRANCH  17  23
BRANCH  18  26
HETATM   26  O10 UNL     1      -1.781 -39.128  17.854  1.00  0.00    -0.386 OA
ATOM     27  H10 UNL     1      -1.506 -39.714  18.549  1.00  0.00     0.210 HD
ENDBRANCH  18  26
ENDBRANCH   9  14
ENDBRANCH   6   7
BRANCH   1  28
HETATM   28  C1  UNL     1       2.753 -35.548  12.936  1.00  0.00     0.257 C 
HETATM   29  O1  UNL     1       2.385 -34.565  13.560  1.00  0.00    -0.267 OA
HETATM   30  N1  UNL     1       2.732 -35.515  11.501  1.00  0.00    -0.330 N 
ATOM     31  H1  UNL     1       3.043 -36.379  11.056  1.00  0.00     0.168 HD
BRANCH  30  32
HETATM   32  C2  UNL     1       2.361 -34.509  10.606  1.00  0.00     0.128 C 
BRANCH  32  33
HETATM   33  C3  UNL     1       1.013 -33.906  10.569  1.00  0.00     0.113 C 
BRANCH  33  34
HETATM   34  O2  UNL     1       0.929 -32.582  11.024  1.00  0.00    -0.359 OA
ATOM     35  H2  UNL     1       0.204 -32.075  10.679  1.00  0.00     0.217 HD
ENDBRANCH  33  34
BRANCH  33  36
HETATM   36  C4  UNL     1      -0.181 -34.713  10.911  1.00  0.00     0.313 C 
BRANCH  36  37
HETATM   37  O3  UNL     1      -0.355 -34.692  12.338  1.00  0.00    -0.365 OA
ATOM     38  H3  UNL     1      -0.892 -35.435  12.589  1.00  0.00     0.213 HD
ENDBRANCH  36  37
BRANCH  36  39
HETATM   39  O4  UNL     1       0.045 -36.115  10.705  1.00  0.00    -0.365 OA
ATOM     40  H4  UNL     1      -0.671 -36.642  11.041  1.00  0.00     0.213 HD
ENDBRANCH  36  39
ENDBRANCH  33  36
ENDBRANCH  32  33
ENDBRANCH  30  32
ENDBRANCH   1  28
BRANCH   4  41
HETATM   41  O5  UNL     1       5.058 -40.178  15.163  1.00  0.00    -0.361 OA
ATOM     42  H5  UNL     1       4.679 -41.029  14.977  1.00  0.00     0.217 HD
ENDBRANCH   4  41
TORSDOF 15
ENDMDL
MODEL 2
REMARK VINA RESULT: -6.369911355      1.445      1.921
REMARK  15 active torsions:
REMARK  status: ('A' for Active; 'I' for Inactive)
REMARK       I    between atoms: C1_2  and  N1_3 
REMARK    1  A    between atoms: C1_2  and  C5_14 
REMARK    2  A    between atoms: N1_3  and  C2_5 
REMARK    3  A    between atoms: C2_5  and  C3_6 
REMARK    4  A    between atoms: C3_6  and  O2_7 
REMARK    5  A    between atoms: C3_6  and  C4_9 
REMARK    6  A    between atoms: C4_9  and  O3_10 
REMARK    7  A    between atoms: C4_9  and  O4_12 
REMARK    8  A    between atoms: C8_17  and  O5_18 
REMARK    9  A    between atoms: C10_21  and  N2_22 
REMARK   10  A    between atoms: C12_24  and  C13_25 
REMARK   11  A    between atoms: C13_25  and  O6_26 
REMARK   12  A    between atoms: C15_30  and  O8_31 
REMARK   13  A    between atoms: C15_30  and  C16_33 
REMARK   14  A    between atoms: C16_33  and  O9_34 
REMARK   15  A    between atoms: C17_36  and  O10_37 
ROOT
HETATM    1  C5  UNL     1       4.109 -36.841  12.128  1.00  0.00     0.061 A 
HETATM    2  C6  UNL     1       5.339 -37.051  11.456  1.00  0.00     0.022 A 
HETATM    3  C7  UNL     1       6.105 -38.148  11.693  1.00  0.00     0.037 A 
HETATM    4  C8  UNL     1       5.703 -39.113  12.619  1.00  0.00     0.068 A 
HETATM    5  C9  UNL     1       4.527 -38.902  13.257  1.00  0.00     0.069 A 
HETATM    6  C10 UNL     1       3.700 -37.765  13.032  1.00  0.00     0.075 A 
ENDROOT
BRANCH   6   7
HETATM    7  N2  UNL     1       2.512 -37.720  13.793  1.00  0.00    -0.250 N 
HETATM    8  C11 UNL     1       1.531 -38.664  13.781  1.00  0.00     0.148 A 
HETATM    9  C12 UNL     1       0.492 -38.281  14.591  1.00  0.00     0.084 A 
HETATM   10  N3  UNL     1       0.870 -37.094  15.092  1.00  0.00    -0.285 N 
HETATM   11  N4  UNL     1       2.072 -36.798  14.592  1.00  0.00    -0.236 N 
ATOM     12  H3  UNL     1       0.332 -36.519  15.740  1.00  0.00     0.188 HD
ATOM     13  H4  UNL     1       2.585 -35.945  14.813  1.00  0.00     0.209 HD
BRANCH   9  14
HETATM   14  C13 UNL     1      -0.745 -38.980  14.791  1.00  0.00     0.155 C 
HETATM   15  C14 UNL     1      -0.653 -40.422  15.266  1.00  0.00     0.219 C 
HETATM   16  O7  UNL     1      -2.048 -40.688  15.358  1.00  0.00    -0.348 OA
HETATM   17  C15 UNL     1      -2.646 -39.584  15.948  1.00  0.00     0.213 C 
HETATM   18  C17 UNL     1      -1.621 -38.447  15.916  1.00  0.00     0.225 C 
BRANCH  14  19
HETATM   19  O6  UNL     1      -1.529 -39.053  13.616  1.00  0.00    -0.378 OA
ATOM     20  H6  UNL     1      -2.380 -38.641  13.716  1.00  0.00     0.211 HD
ENDBRANCH  14  19
BRANCH  17  21
HETATM   21  O8  UNL     1      -3.841 -39.208  15.343  1.00  0.00    -0.362 OA
ATOM     22  H8  UNL     1      -4.513 -39.877  15.380  1.00  0.00     0.213 HD
ENDBRANCH  17  21
BRANCH  17  23
HETATM   23  C16 UNL     1      -3.011 -39.973  17.367  1.00  0.00     0.235 C 
BRANCH  23  24
HETATM   24  O9  UNL     1      -2.083 -39.528  18.315  1.00  0.00    -0.395 OA
ATOM     25  H9  UNL     1      -2.221 -38.625  18.576  1.00  0.00     0.209 HD
ENDBRANCH  23  24
ENDBRANCH  17  23
BRANCH  18  26
HETATM   26  O10 UNL     1      -2.161 -37.229  15.590  1.00  0.00    -0.386 OA
ATOM     27  H10 UNL     1      -2.823 -36.966  16.220  1.00  0.00     0.210 HD
ENDBRANCH  18  26
ENDBRANCH   9  14
ENDBRANCH   6   7
BRANCH   1  28
HETATM   28  C1  UNL     1       3.405 -35.627  11.761  1.00  0.00     0.257 C 
HETATM   29  O1  UNL     1       3.395 -34.618  12.449  1.00  0.00    -0.267 OA
HETATM   30  N1  UNL     1       2.684 -35.635  10.520  1.00  0.00    -0.330 N 
ATOM     31  H1  UNL     1       2.733 -36.518  10.011  1.00  0.00     0.168 HD
BRANCH  30  32
HETATM   32  C2  UNL     1       1.927 -34.647   9.886  1.00  0.00     0.128 C 
BRANCH  32  33
HETATM   33  C3  UNL     1       0.769 -33.978  10.513  1.00  0.00     0.113 C 
BRANCH  33  34
HETATM   34  O2  UNL     1       1.029 -32.721  11.077  1.00  0.00    -0.359 OA
ATOM     35  H2  UNL     1       0.934 -32.668  12.021  1.00  0.00     0.217 HD
ENDBRANCH  33  34
BRANCH  33  36
HETATM   36  C4  UNL     1      -0.228 -34.762  11.278  1.00  0.00     0.313 C 
BRANCH  36  37
HETATM   37  O3  UNL     1      -1.321 -33.894  11.629  1.00  0.00    -0.365 OA
ATOM     38  H3  UNL     1      -1.689 -33.532  10.831  1.00  0.00     0.213 HD
ENDBRANCH  36  37
BRANCH  36  39
HETATM   39  O4  UNL     1       0.250 -35.105  12.585  1.00  0.00    -0.365 OA
ATOM     40  H4  UNL     1       0.854 -35.838  12.561  1.00  0.00     0.213 HD
ENDBRANCH  36  39
ENDBRANCH  33  36
ENDBRANCH  32  33
ENDBRANCH  30  32
ENDBRANCH   1  28
BRANCH   4  41
HETATM   41  O5  UNL     1       6.537 -40.189  12.803  1.00  0.00    -0.361 OA
ATOM     42  H5  UNL     1       6.127 -41.035  12.939  1.00  0.00     0.217 HD
ENDBRANCH   4  41
TORSDOF 15
ENDMDL
MODEL 3
REMARK VINA RESULT: -6.360407317      2.610      4.181
REMARK  15 active torsions:
REMARK  status: ('A' for Active; 'I' for Inactive)
REMARK       I    between atoms: C1_2  and  N1_3 
REMARK    1  A    between atoms: C1_2  and  C5_14 
REMARK    2  A    between atoms: N1_3  and  C2_5 
REMARK    3  A    between atoms: C2_5  and  C3_6 
REMARK    4  A    between atoms: C3_6  and  O2_7 
REMARK    5  A    between atoms: C3_6  and  C4_9 
REMARK    6  A    between atoms: C4_9  and  O3_10 
REMARK    7  A    between atoms: C4_9  and  O4_12 
REMARK    8  A    between atoms: C8_17  and  O5_18 
REMARK    9  A    between atoms: C10_21  and  N2_22 
REMARK   10  A    between atoms: C12_24  and  C13_25 
REMARK   11  A    between atoms: C13_25  and  O6_26 
REMARK   12  A    between atoms: C15_30  and  O8_31 
REMARK   13  A    between atoms: C15_30  and  C16_33 
REMARK   14  A    between atoms: C16_33  and  O9_34 
REMARK   15  A    between atoms: C17_36  and  O10_37 
ROOT
HETATM    1  C5  UNL     1       1.664 -35.940  11.926  1.00  0.00     0.061 A 
HETATM    2  C6  UNL     1       2.745 -35.138  11.480  1.00  0.00     0.022 A 
HETATM    3  C7  UNL     1       3.535 -35.515  10.441  1.00  0.00     0.037 A 
HETATM    4  C8  UNL     1       3.308 -36.720   9.773  1.00  0.00     0.068 A 
HETATM    5  C9  UNL     1       2.273 -37.480  10.206  1.00  0.00     0.069 A 
HETATM    6  C10 UNL     1       1.426 -37.114  11.291  1.00  0.00     0.075 A 
ENDROOT
BRANCH   6   7
HETATM    7  N2  UNL     1       0.403 -38.037  11.597  1.00  0.00    -0.250 N 
HETATM    8  C11 UNL     1       0.307 -38.754  12.751  1.00  0.00     0.148 A 
HETATM    9  C12 UNL     1      -0.773 -39.597  12.698  1.00  0.00     0.084 A 
HETATM   10  N3  UNL     1      -1.325 -39.371  11.495  1.00  0.00    -0.285 N 
HETATM   11  N4  UNL     1      -0.596 -38.440  10.876  1.00  0.00    -0.236 N 
ATOM     12  H3  UNL     1      -2.155 -39.829  11.121  1.00  0.00     0.188 HD
ATOM     13  H4  UNL     1      -0.801 -38.087   9.940  1.00  0.00     0.209 HD
BRANCH   9  14
HETATM   14  C13 UNL     1      -1.169 -40.552  13.694  1.00  0.00     0.155 C 
HETATM   15  C14 UNL     1      -0.300 -40.651  14.938  1.00  0.00     0.219 C 
HETATM   16  O7  UNL     1      -1.053 -41.644  15.626  1.00  0.00    -0.348 OA
HETATM   17  C15 UNL     1      -2.394 -41.319  15.491  1.00  0.00     0.213 C 
HETATM   18  C17 UNL     1      -2.492 -40.261  14.388  1.00  0.00     0.225 C 
BRANCH  14  19
HETATM   19  O6  UNL     1      -1.213 -41.876  13.197  1.00  0.00    -0.378 OA
ATOM     20  H6  UNL     1      -1.926 -42.015  12.585  1.00  0.00     0.211 HD
ENDBRANCH  14  19
BRANCH  17  21
HETATM   21  O8  UNL     1      -3.208 -42.414  15.216  1.00  0.00    -0.362 OA
ATOM     22  H8  UNL     1      -3.958 -42.485  15.795  1.00  0.00     0.213 HD
ENDBRANCH  17  21
BRANCH  17  23
HETATM   23  C16 UNL     1      -2.867 -40.783  16.828  1.00  0.00     0.235 C 
BRANCH  23  24
HETATM   24  O9  UNL     1      -3.515 -39.548  16.727  1.00  0.00    -0.395 OA
ATOM     25  H9  UNL     1      -4.422 -39.579  17.010  1.00  0.00     0.209 HD
ENDBRANCH  23  24
ENDBRANCH  17  23
BRANCH  18  26
HETATM   26  O10 UNL     1      -3.552 -40.449  13.537  1.00  0.00    -0.386 OA
ATOM     27  H10 UNL     1      -4.310 -39.949  13.815  1.00  0.00     0.210 HD
ENDBRANCH  18  26
ENDBRANCH   9  14
ENDBRANCH   6   7
BRANCH   1  28
HETATM   28  C1  UNL     1       0.911 -35.397  13.040  1.00  0.00     0.257 C 
HETATM   29  O1  UNL     1      -0.204 -34.911  12.928  1.00  0.00    -0.267 OA
HETATM   30  N1  UNL     1       1.530 -35.439  14.334  1.00  0.00    -0.330 N 
ATOM     31  H1  UNL     1       2.463 -35.849  14.341  1.00  0.00     0.168 HD
BRANCH  30  32
HETATM   32  C2  UNL     1       1.078 -35.018  15.587  1.00  0.00     0.128 C 
BRANCH  32  33
HETATM   33  C3  UNL     1      -0.068 -35.629  16.290  1.00  0.00     0.113 C 
BRANCH  33  34
HETATM   34  O2  UNL     1      -0.137 -35.377  17.668  1.00  0.00    -0.359 OA
ATOM     35  H2  UNL     1      -1.010 -35.389  18.043  1.00  0.00     0.217 HD
ENDBRANCH  33  34
BRANCH  33  36
HETATM   36  C4  UNL     1      -0.537 -36.985  15.925  1.00  0.00     0.313 C 
BRANCH  36  37
HETATM   37  O3  UNL     1      -1.679 -36.858  15.059  1.00  0.00    -0.365 OA
ATOM     38  H3  UNL     1      -1.913 -37.721  14.737  1.00  0.00     0.213 HD
ENDBRANCH  36  37
BRANCH  36  39
HETATM   39  O4  UNL     1      -1.139 -37.661  17.037  1.00  0.00    -0.365 OA
ATOM     40  H4  UNL     1      -1.977 -38.045  16.808  1.00  0.00     0.213 HD
ENDBRANCH  36  39
ENDBRANCH  33  36
ENDBRANCH  32  33
ENDBRANCH  30  32
ENDBRANCH   1  28
BRANCH   4  41
HETATM   41  O5  UNL     1       4.155 -37.029   8.736  1.00  0.00    -0.361 OA
ATOM     42  H5  UNL     1       4.262 -37.949   8.526  1.00  0.00     0.217 HD
ENDBRANCH   4  41
TORSDOF 15
ENDMDL
MODEL 4
REMARK VINA RESULT: -6.196688066      4.793     10.530
REMARK  15 active torsions:
REMARK  status: ('A' for Active; 'I' for Inactive)
REMARK       I    between atoms: C1_2  and  N1_3 
REMARK    1  A    between atoms: C1_2  and  C5_14 
REMARK    2  A    between atoms: N1_3  and  C2_5 
REMARK    3  A    between atoms: C2_5  and  C3_6 
REMARK    4  A    between atoms: C3_6  and  O2_7 
REMARK    5  A    between atoms: C3_6  and  C4_9 
REMARK    6  A    between atoms: C4_9  and  O3_10 
REMARK    7  A    between atoms: C4_9  and  O4_12 
REMARK    8  A    between atoms: C8_17  and  O5_18 
REMARK    9  A    between atoms: C10_21  and  N2_22 
REMARK   10  A    between atoms: C12_24  and  C13_25 
REMARK   11  A    between atoms: C13_25  and  O6_26 
REMARK   12  A    between atoms: C15_30  and  O8_31 
REMARK   13  A    between atoms: C15_30  and  C16_33 
REMARK   14  A    between atoms: C16_33  and  O9_34 
REMARK   15  A    between atoms: C17_36  and  O10_37 
ROOT
HETATM    1  C5  UNL     1      -6.763 -42.967  18.683  1.00  0.00     0.061 A 
HETATM    2  C6  UNL     1      -7.447 -43.986  19.392  1.00  0.00     0.022 A 
HETATM    3  C7  UNL     1      -7.107 -45.296  19.269  1.00  0.00     0.037 A 
HETATM    4  C8  UNL     1      -6.063 -45.686  18.428  1.00  0.00     0.068 A 
HETATM    5  C9  UNL     1      -5.415 -44.705  17.753  1.00  0.00     0.069 A 
HETATM    6  C10 UNL     1      -5.746 -43.324  17.860  1.00  0.00     0.075 A 
ENDROOT
BRANCH   6   7
HETATM    7  N2  UNL     1      -4.959 -42.451  17.077  1.00  0.00    -0.250 N 
HETATM    8  C11 UNL     1      -3.924 -41.696  17.537  1.00  0.00     0.148 A 
HETATM    9  C12 UNL     1      -3.416 -40.920  16.527  1.00  0.00     0.084 A 
HETATM   10  N3  UNL     1      -4.161 -41.227  15.453  1.00  0.00    -0.285 N 
HETATM   11  N4  UNL     1      -5.064 -42.136  15.824  1.00  0.00    -0.236 N 
ATOM     12  H3  UNL     1      -4.056 -40.833  14.518  1.00  0.00     0.188 HD
ATOM     13  H4  UNL     1      -5.758 -42.538  15.193  1.00  0.00     0.209 HD
BRANCH   9  14
HETATM   14  C13 UNL     1      -2.362 -39.951  16.633  1.00  0.00     0.155 C 
HETATM   15  C14 UNL     1      -0.951 -40.430  16.330  1.00  0.00     0.219 C 
HETATM   16  O7  UNL     1      -0.277 -39.191  16.517  1.00  0.00    -0.348 OA
HETATM   17  C15 UNL     1      -1.041 -38.205  15.910  1.00  0.00     0.213 C 
HETATM   18  C17 UNL     1      -2.416 -38.815  15.622  1.00  0.00     0.225 C 
BRANCH  14  19
HETATM   19  O6  UNL     1      -2.266 -39.387  17.927  1.00  0.00    -0.378 OA
ATOM     20  H6  UNL     1      -2.537 -39.989  18.611  1.00  0.00     0.211 HD
ENDBRANCH  14  19
BRANCH  17  21
HETATM   21  O8  UNL     1      -1.150 -37.041  16.664  1.00  0.00    -0.362 OA
ATOM     22  H8  UNL     1      -1.463 -36.295  16.167  1.00  0.00     0.213 HD
ENDBRANCH  17  21
BRANCH  17  23
HETATM   23  C16 UNL     1      -0.326 -37.802  14.635  1.00  0.00     0.235 C 
BRANCH  23  24
HETATM   24  O9  UNL     1      -0.470 -36.445  14.330  1.00  0.00    -0.395 OA
ATOM     25  H9  UNL     1       0.281 -35.923  14.587  1.00  0.00     0.209 HD
ENDBRANCH  23  24
ENDBRANCH  17  23
BRANCH  18  26
HETATM   26  O10 UNL     1      -3.460 -37.964  15.885  1.00  0.00    -0.386 OA
ATOM     27  H10 UNL     1      -3.991 -37.821  15.110  1.00  0.00     0.210 HD
ENDBRANCH  18  26
ENDBRANCH   9  14
ENDBRANCH   6   7
BRANCH   1  28
HETATM   28  C1  UNL     1      -7.239 -41.619  18.925  1.00  0.00     0.257 C 
HETATM   29  O1  UNL     1      -8.133 -41.093  18.281  1.00  0.00    -0.267 OA
HETATM   30  N1  UNL     1      -6.609 -40.879  19.982  1.00  0.00    -0.330 N 
ATOM     31  H1  UNL     1      -5.865 -41.384  20.463  1.00  0.00     0.168 HD
BRANCH  30  32
HETATM   32  C2  UNL     1      -6.835 -39.589  20.467  1.00  0.00     0.128 C 
BRANCH  32  33
HETATM   33  C3  UNL     1      -7.979 -39.229  21.328  1.00  0.00     0.113 C 
BRANCH  33  34
HETATM   34  O2  UNL     1      -7.909 -37.965  21.931  1.00  0.00    -0.359 OA
ATOM     35  H2  UNL     1      -8.619 -37.371  21.721  1.00  0.00     0.217 HD
ENDBRANCH  33  34
BRANCH  33  36
HETATM   36  C4  UNL     1      -8.619 -40.248  22.192  1.00  0.00     0.313 C 
BRANCH  36  37
HETATM   37  O3  UNL     1      -9.545 -39.587  23.072  1.00  0.00    -0.365 OA
ATOM     38  H3  UNL     1     -10.398 -39.565  22.654  1.00  0.00     0.213 HD
ENDBRANCH  36  37
BRANCH  36  39
HETATM   39  O4  UNL     1      -7.701 -40.788  23.152  1.00  0.00    -0.365 OA
ATOM     40  H4  UNL     1      -8.149 -41.138  23.913  1.00  0.00     0.213 HD
ENDBRANCH  36  39
ENDBRANCH  33  36
ENDBRANCH  32  33
ENDBRANCH  30  32
ENDBRANCH   1  28
BRANCH   4  41
HETATM   41  O5  UNL     1      -5.786 -47.029  18.358  1.00  0.00    -0.361 OA
ATOM     42  H5  UNL     1      -4.969 -47.323  18.745  1.00  0.00     0.217 HD
ENDBRANCH   4  41
TORSDOF 15
ENDMDL
MODEL 5
REMARK VINA RESULT: -6.079093537      4.874      9.847
REMARK  15 active torsions:
REMARK  status: ('A' for Active; 'I' for Inactive)
REMARK       I    between atoms: C1_2  and  N1_3 
REMARK    1  A    between atoms: C1_2  and  C5_14 
REMARK    2  A    between atoms: N1_3  and  C2_5 
REMARK    3  A    between atoms: C2_5  and  C3_6 
REMARK    4  A    between atoms: C3_6  and  O2_7 
REMARK    5  A    between atoms: C3_6  and  C4_9 
REMARK    6  A    between atoms: C4_9  and  O3_10 
REMARK    7  A    between atoms: C4_9  and  O4_12 
REMARK    8  A    between atoms: C8_17  and  O5_18 
REMARK    9  A    between atoms: C10_21  and  N2_22 
REMARK   10  A    between atoms: C12_24  and  C13_25 
REMARK   11  A    between atoms: C13_25  and  O6_26 
REMARK   12  A    between atoms: C15_30  and  O8_31 
REMARK   13  A    between atoms: C15_30  and  C16_33 
REMARK   14  A    between atoms: C16_33  and  O9_34 
REMARK   15  A    between atoms: C17_36  and  O10_37 
ROOT
HETATM    1  C5  UNL     1      -3.745 -42.523  20.853  1.00  0.00     0.061 A 
HETATM    2  C6  UNL     1      -3.677 -42.850  22.231  1.00  0.00     0.022 A 
HETATM    3  C7  UNL     1      -2.492 -43.085  22.854  1.00  0.00     0.037 A 
HETATM    4  C8  UNL     1      -1.290 -43.014  22.149  1.00  0.00     0.068 A 
HETATM    5  C9  UNL     1      -1.364 -42.702  20.832  1.00  0.00     0.069 A 
HETATM    6  C10 UNL     1      -2.588 -42.450  20.149  1.00  0.00     0.075 A 
ENDROOT
BRANCH   6   7
HETATM    7  N2  UNL     1      -2.464 -42.142  18.777  1.00  0.00    -0.250 N 
HETATM    8  C11 UNL     1      -2.173 -40.913  18.267  1.00  0.00     0.148 A 
HETATM    9  C12 UNL     1      -2.186 -40.953  16.896  1.00  0.00     0.084 A 
HETATM   10  N3  UNL     1      -2.484 -42.226  16.594  1.00  0.00    -0.285 N 
HETATM   11  N4  UNL     1      -2.642 -42.896  17.737  1.00  0.00    -0.236 N 
ATOM     12  H3  UNL     1      -2.574 -42.614  15.655  1.00  0.00     0.188 HD
ATOM     13  H4  UNL     1      -2.877 -43.888  17.787  1.00  0.00     0.209 HD
BRANCH   9  14
HETATM   14  C13 UNL     1      -1.986 -39.847  16.003  1.00  0.00     0.155 C 
HETATM   15  C14 UNL     1      -2.935 -38.667  16.143  1.00  0.00     0.219 C 
HETATM   16  O7  UNL     1      -2.369 -37.838  15.134  1.00  0.00    -0.348 OA
HETATM   17  C15 UNL     1      -0.990 -37.903  15.265  1.00  0.00     0.213 C 
HETATM   18  C17 UNL     1      -0.681 -39.087  16.187  1.00  0.00     0.225 C 
BRANCH  14  19
HETATM   19  O6  UNL     1      -2.094 -40.218  14.642  1.00  0.00    -0.378 OA
ATOM     20  H6  UNL     1      -2.881 -39.880  14.229  1.00  0.00     0.211 HD
ENDBRANCH  14  19
BRANCH  17  21
HETATM   21  O8  UNL     1      -0.318 -38.016  14.052  1.00  0.00    -0.362 OA
ATOM     22  H8  UNL     1       0.143 -37.226  13.797  1.00  0.00     0.213 HD
ENDBRANCH  17  21
BRANCH  17  23
HETATM   23  C16 UNL     1      -0.531 -36.589  15.865  1.00  0.00     0.235 C 
BRANCH  23  24
HETATM   24  O9  UNL     1      -0.678 -36.538  17.255  1.00  0.00    -0.395 OA
ATOM     25  H9  UNL     1       0.116 -36.768  17.723  1.00  0.00     0.209 HD
ENDBRANCH  23  24
ENDBRANCH  17  23
BRANCH  18  26
HETATM   26  O10 UNL     1       0.393 -39.837  15.778  1.00  0.00    -0.386 OA
ATOM     27  H10 UNL     1       1.174 -39.302  15.692  1.00  0.00     0.210 HD
ENDBRANCH  18  26
ENDBRANCH   9  14
ENDBRANCH   6   7
BRANCH   1  28
HETATM   28  C1  UNL     1      -5.081 -42.295  20.338  1.00  0.00     0.257 C 
HETATM   29  O1  UNL     1      -5.412 -42.542  19.188  1.00  0.00    -0.267 OA
HETATM   30  N1  UNL     1      -6.049 -41.744  21.242  1.00  0.00    -0.330 N 
ATOM     31  H1  UNL     1      -5.691 -41.555  22.178  1.00  0.00     0.168 HD
BRANCH  30  32
HETATM   32  C2  UNL     1      -7.397 -41.420  21.066  1.00  0.00     0.128 C 
BRANCH  32  33
HETATM   33  C3  UNL     1      -7.911 -40.035  21.066  1.00  0.00     0.113 C 
BRANCH  33  34
HETATM   34  O2  UNL     1      -7.373 -39.190  20.084  1.00  0.00    -0.359 OA
ATOM     35  H2  UNL     1      -7.754 -38.322  20.037  1.00  0.00     0.217 HD
ENDBRANCH  33  34
BRANCH  33  36
HETATM   36  C4  UNL     1      -8.190 -39.337  22.342  1.00  0.00     0.313 C 
BRANCH  36  37
HETATM   37  O3  UNL     1      -9.542 -39.628  22.737  1.00  0.00    -0.365 OA
ATOM     38  H3  UNL     1      -9.614 -39.512  23.677  1.00  0.00     0.213 HD
ENDBRANCH  36  37
BRANCH  36  39
HETATM   39  O4  UNL     1      -8.279 -37.917  22.166  1.00  0.00    -0.365 OA
ATOM     40  H4  UNL     1      -8.698 -37.493  22.906  1.00  0.00     0.213 HD
ENDBRANCH  36  39
ENDBRANCH  33  36
ENDBRANCH  32  33
ENDBRANCH  30  32
ENDBRANCH   1  28
BRANCH   4  41
HETATM   41  O5  UNL     1      -0.137 -43.269  22.851  1.00  0.00    -0.361 OA
ATOM     42  H5  UNL     1       0.112 -42.638  23.517  1.00  0.00     0.217 HD
ENDBRANCH   4  41
TORSDOF 15
ENDMDL
