MODEL 1
REMARK VINA RESULT: -6.947209419      0.000      0.000
REMARK  13 active torsions:
REMARK  status: ('A' for Active; 'I' for Inactive)
REMARK    1  A    between atoms: C4_5  and  O2_6 
REMARK    2  A    between atoms: O2_6  and  C5_7 
REMARK    3  A    between atoms: C5_7  and  C6_9 
REMARK    4  A    between atoms: C6_9  and  N1_10 
REMARK    5  A    between atoms: N1_10  and  O4_11 
REMARK    6  A    between atoms: N1_10  and  C7_13 
REMARK    7  A    between atoms: C8_16  and  N3_17 
REMARK    8  A    between atoms: C9_22  and  C10_23 
REMARK    9  A    between atoms: C10_23  and  O5_24 
REMARK   10  A    between atoms: C10_23  and  O6_26 
REMARK   11  A    between atoms: C11_28  and  C12_29 
REMARK   12  A    between atoms: C12_29  and  N5_30 
REMARK   13  A    between atoms: C12_29  and  N6_34 
ROOT
HETATM    1  C7  UNL     1       2.950 -35.961  12.053  1.00  0.00     0.155 A 
HETATM    2  N2  UNL     1       4.288 -35.661  11.971  1.00  0.00    -0.174 N 
ATOM      3  H2  UNL     1       4.958 -36.235  12.484  1.00  0.00     0.186 HD
HETATM    4  C8  UNL     1       4.737 -34.634  11.235  1.00  0.00     0.677 A 
HETATM    5  N4  UNL     1       3.873 -33.869  10.554  1.00  0.00    -0.190 N 
ATOM      6  H4  UNL     1       4.225 -33.089   9.998  1.00  0.00     0.184 HD
HETATM    7  C9  UNL     1       2.547 -34.111  10.590  1.00  0.00     0.094 A 
HETATM    8  C11 UNL     1       2.068 -35.186  11.362  1.00  0.00     0.073 A 
ENDROOT
BRANCH   1   9
HETATM    9  N1  UNL     1       2.578 -37.050  12.859  1.00  0.00    -0.234 N 
BRANCH   9  10
HETATM   10  C6  UNL     1       2.445 -36.970  14.286  1.00  0.00     0.269 C 
BRANCH  10  11
HETATM   11  C5  UNL     1       2.238 -38.269  14.958  1.00  0.00     0.282 C 
HETATM   12  O3  UNL     1       3.116 -39.154  14.825  1.00  0.00    -0.263 OA
BRANCH  11  13
HETATM   13  O2  UNL     1       1.139 -38.539  15.712  1.00  0.00    -0.272 OA
BRANCH  13  14
HETATM   14  C4  UNL     1      -0.156 -38.796  15.146  1.00  0.00     0.417 C 
HETATM   15  O1  UNL     1      -0.479 -40.094  15.292  1.00  0.00    -0.328 OA
HETATM   16  C2  UNL     1      -1.635 -40.466  15.870  1.00  0.00     0.116 C 
HETATM   17  C1  UNL     1      -1.459 -40.407  17.388  1.00  0.00     0.054 C 
HETATM   18  C3  UNL     1      -1.863 -41.946  15.536  1.00  0.00     0.054 C 
HETATM   19  C13 UNL     1      -2.850 -39.721  15.499  1.00  0.00     0.119 C 
HETATM   20  N7  UNL     1      -2.838 -38.324  15.729  1.00  0.00    -0.267 N 
HETATM   21  N8  UNL     1      -3.909 -40.296  14.977  1.00  0.00    -0.386 N 
HETATM   22  S1  UNL     1      -1.267 -37.626  15.824  1.00  0.00     0.284 S 
ATOM     23  H7  UNL     1      -3.692 -37.774  15.832  1.00  0.00     0.180 HD
HETATM   24  O7  UNL     1      -1.257 -36.384  14.944  1.00  0.00    -0.200 OA
HETATM   25  O8  UNL     1      -0.913 -37.211  17.217  1.00  0.00    -0.200 OA
ATOM     26  H82 UNL     1      -3.917 -41.302  14.810  1.00  0.00     0.157 HD
ATOM     27  H81 UNL     1      -4.750 -39.780  14.720  1.00  0.00     0.157 HD
ENDBRANCH  13  14
ENDBRANCH  11  13
ENDBRANCH  10  11
ENDBRANCH   9  10
BRANCH   9  28
HETATM   28  O4  UNL     1       2.307 -38.163  12.313  1.00  0.00    -0.285 OA
ATOM     29  H4  UNL     1       2.507 -38.949  12.807  1.00  0.00     0.245 HD
ENDBRANCH   9  28
ENDBRANCH   1   9
BRANCH   8  30
HETATM   30  C12 UNL     1       0.626 -35.441  11.392  1.00  0.00     0.417 C 
BRANCH  30  31
HETATM   31  N5  UNL     1      -0.032 -35.170  12.650  1.00  0.00    -0.046 N 
ATOM     32  H53 UNL     1      -0.065 -36.018  13.217  1.00  0.00     0.277 HD
ATOM     33  H52 UNL     1       0.563 -34.583  13.235  1.00  0.00     0.277 HD
ATOM     34  H51 UNL     1      -0.965 -34.761  12.582  1.00  0.00     0.277 HD
ENDBRANCH  30  31
BRANCH  30  35
HETATM   35  N6  UNL     1       0.227 -36.697  10.848  1.00  0.00    -0.046 N 
ATOM     36  H63 UNL     1       0.245 -36.662   9.829  1.00  0.00     0.277 HD
ATOM     37  H62 UNL     1       0.949 -37.399  11.015  1.00  0.00     0.277 HD
ATOM     38  H61 UNL     1      -0.678 -37.039  11.174  1.00  0.00     0.277 HD
ENDBRANCH  30  35
ENDBRANCH   8  30
BRANCH   4  39
HETATM   39  N3  UNL     1       5.990 -34.337  11.148  1.00  0.00    -0.234 N 
ATOM     40  H32 UNL     1       6.662 -35.091  11.288  1.00  0.00     0.174 HD
ATOM     41  H31 UNL     1       6.318 -33.393  10.946  1.00  0.00     0.174 HD
ENDBRANCH   4  39
BRANCH   7  42
HETATM   42  C10 UNL     1       1.648 -33.260   9.778  1.00  0.00     0.306 C 
BRANCH  42  43
HETATM   43  O5  UNL     1       2.481 -32.606   8.819  1.00  0.00    -0.366 OA
ATOM     44  H5  UNL     1       2.089 -32.777   7.970  1.00  0.00     0.213 HD
ENDBRANCH  42  43
BRANCH  42  45
HETATM   45  O6  UNL     1       0.994 -32.332  10.544  1.00  0.00    -0.366 OA
ATOM     46  H6  UNL     1       0.064 -32.304  10.349  1.00  0.00     0.213 HD
ENDBRANCH  42  45
ENDBRANCH   7  42
TORSDOF 13
ENDMDL
MODEL 2
REMARK VINA RESULT: -6.716482620      2.528      7.876
REMARK  13 active torsions:
REMARK  status: ('A' for Active; 'I' for Inactive)
REMARK    1  A    between atoms: C4_5  and  O2_6 
REMARK    2  A    between atoms: O2_6  and  C5_7 
REMARK    3  A    between atoms: C5_7  and  C6_9 
REMARK    4  A    between atoms: C6_9  and  N1_10 
REMARK    5  A    between atoms: N1_10  and  O4_11 
REMARK    6  A    between atoms: N1_10  and  C7_13 
REMARK    7  A    between atoms: C8_16  and  N3_17 
REMARK    8  A    between atoms: C9_22  and  C10_23 
REMARK    9  A    between atoms: C10_23  and  O5_24 
REMARK   10  A    between atoms: C10_23  and  O6_26 
REMARK   11  A    between atoms: C11_28  and  C12_29 
REMARK   12  A    between atoms: C12_29  and  N5_30 
REMARK   13  A    between atoms: C12_29  and  N6_34 
ROOT
HETATM    1  C7  UNL     1      -0.860 -37.992  15.889  1.00  0.00     0.155 A 
HETATM    2  N2  UNL     1      -2.064 -38.375  16.430  1.00  0.00    -0.174 N 
ATOM      3  H2  UNL     1      -2.657 -37.671  16.871  1.00  0.00     0.186 HD
HETATM    4  C8  UNL     1      -2.480 -39.648  16.394  1.00  0.00     0.677 A 
HETATM    5  N4  UNL     1      -1.715 -40.587  15.819  1.00  0.00    -0.190 N 
ATOM      6  H4  UNL     1      -2.040 -41.554  15.798  1.00  0.00     0.184 HD
HETATM    7  C9  UNL     1      -0.525 -40.278  15.268  1.00  0.00     0.094 A 
HETATM    8  C11 UNL     1      -0.080 -38.942  15.303  1.00  0.00     0.073 A 
ENDROOT
BRANCH   1   9
HETATM    9  N1  UNL     1      -0.508 -36.635  15.987  1.00  0.00    -0.234 N 
BRANCH   9  10
HETATM   10  C6  UNL     1      -0.459 -35.746  14.861  1.00  0.00     0.269 C 
BRANCH  10  11
HETATM   11  C5  UNL     1       0.864 -35.136  14.618  1.00  0.00     0.282 C 
HETATM   12  O3  UNL     1       1.329 -34.358  15.483  1.00  0.00    -0.263 OA
BRANCH  11  13
HETATM   13  O2  UNL     1       1.594 -35.388  13.497  1.00  0.00    -0.272 OA
BRANCH  13  14
HETATM   14  C4  UNL     1       1.663 -34.480  12.387  1.00  0.00     0.417 C 
HETATM   15  O1  UNL     1       2.930 -34.374  11.949  1.00  0.00    -0.328 OA
HETATM   16  C2  UNL     1       3.243 -34.584  10.658  1.00  0.00     0.116 C 
HETATM   17  C1  UNL     1       3.358 -36.091  10.424  1.00  0.00     0.054 C 
HETATM   18  C3  UNL     1       4.652 -34.020  10.426  1.00  0.00     0.054 C 
HETATM   19  C13 UNL     1       2.348 -34.008   9.640  1.00  0.00     0.119 C 
HETATM   20  N7  UNL     1       0.990 -34.406   9.685  1.00  0.00    -0.267 N 
HETATM   21  N8  UNL     1       2.759 -33.163   8.723  1.00  0.00    -0.386 N 
HETATM   22  S1  UNL     1       0.464 -34.988  11.218  1.00  0.00     0.284 S 
ATOM     23  H7  UNL     1       0.372 -34.353   8.875  1.00  0.00     0.180 HD
HETATM   24  O7  UNL     1      -0.855 -34.303  11.547  1.00  0.00    -0.200 OA
HETATM   25  O8  UNL     1       0.231 -36.466  11.213  1.00  0.00    -0.200 OA
ATOM     26  H82 UNL     1       3.737 -32.876   8.691  1.00  0.00     0.157 HD
ATOM     27  H81 UNL     1       2.139 -32.764   8.018  1.00  0.00     0.157 HD
ENDBRANCH  13  14
ENDBRANCH  11  13
ENDBRANCH  10  11
ENDBRANCH   9  10
BRANCH   9  28
HETATM   28  O4  UNL     1      -0.251 -36.141  17.127  1.00  0.00    -0.285 OA
ATOM     29  H4  UNL     1      -0.965 -36.097  17.753  1.00  0.00     0.245 HD
ENDBRANCH   9  28
ENDBRANCH   1   9
BRANCH   8  30
HETATM   30  C12 UNL     1       1.213 -38.616  14.699  1.00  0.00     0.417 C 
BRANCH  30  31
HETATM   31  N5  UNL     1       1.211 -38.462  13.261  1.00  0.00    -0.046 N 
ATOM     32  H53 UNL     1       1.607 -39.293  12.821  1.00  0.00     0.277 HD
ATOM     33  H52 UNL     1       0.255 -38.507  12.907  1.00  0.00     0.277 HD
ATOM     34  H51 UNL     1       1.675 -37.625  12.906  1.00  0.00     0.277 HD
ENDBRANCH  30  31
BRANCH  30  35
HETATM   35  N6  UNL     1       2.303 -39.422  15.141  1.00  0.00    -0.046 N 
ATOM     36  H63 UNL     1       2.657 -39.077  16.033  1.00  0.00     0.277 HD
ATOM     37  H62 UNL     1       1.967 -40.342  15.427  1.00  0.00     0.277 HD
ATOM     38  H61 UNL     1       3.066 -39.518  14.471  1.00  0.00     0.277 HD
ENDBRANCH  30  35
ENDBRANCH   8  30
BRANCH   4  39
HETATM   39  N3  UNL     1      -3.606 -40.027  16.898  1.00  0.00    -0.234 N 
ATOM     40  H32 UNL     1      -4.440 -39.505  16.628  1.00  0.00     0.174 HD
ATOM     41  H31 UNL     1      -3.684 -40.814  17.542  1.00  0.00     0.174 HD
ENDBRANCH   4  39
BRANCH   7  42
HETATM   42  C10 UNL     1       0.252 -41.350  14.605  1.00  0.00     0.306 C 
BRANCH  42  43
HETATM   43  O5  UNL     1      -0.688 -42.101  13.834  1.00  0.00    -0.366 OA
ATOM     44  H5  UNL     1      -0.401 -43.006  13.876  1.00  0.00     0.213 HD
ENDBRANCH  42  43
BRANCH  42  45
HETATM   45  O6  UNL     1       0.873 -42.165  15.512  1.00  0.00    -0.366 OA
ATOM     46  H6  UNL     1       1.790 -41.939  15.621  1.00  0.00     0.213 HD
ENDBRANCH  42  45
ENDBRANCH   7  42
TORSDOF 13
ENDMDL
MODEL 3
REMARK VINA RESULT: -6.634281027      2.169      3.378
REMARK  13 active torsions:
REMARK  status: ('A' for Active; 'I' for Inactive)
REMARK    1  A    between atoms: C4_5  and  O2_6 
REMARK    2  A    between atoms: O2_6  and  C5_7 
REMARK    3  A    between atoms: C5_7  and  C6_9 
REMARK    4  A    between atoms: C6_9  and  N1_10 
REMARK    5  A    between atoms: N1_10  and  O4_11 
REMARK    6  A    between atoms: N1_10  and  C7_13 
REMARK    7  A    between atoms: C8_16  and  N3_17 
REMARK    8  A    between atoms: C9_22  and  C10_23 
REMARK    9  A    between atoms: C10_23  and  O5_24 
REMARK   10  A    between atoms: C10_23  and  O6_26 
REMARK   11  A    between atoms: C11_28  and  C12_29 
REMARK   12  A    between atoms: C12_29  and  N5_30 
REMARK   13  A    between atoms: C12_29  and  N6_34 
ROOT
HETATM    1  C7  UNL     1       1.853 -34.940  11.546  1.00  0.00     0.155 A 
HETATM    2  N2  UNL     1       1.563 -34.069  10.524  1.00  0.00    -0.174 N 
ATOM      3  H2  UNL     1       0.586 -33.868  10.305  1.00  0.00     0.186 HD
HETATM    4  C8  UNL     1       2.528 -33.474   9.809  1.00  0.00     0.677 A 
HETATM    5  N4  UNL     1       3.816 -33.725  10.083  1.00  0.00    -0.190 N 
ATOM      6  H4  UNL     1       4.543 -33.268   9.532  1.00  0.00     0.184 HD
HETATM    7  C9  UNL     1       4.168 -34.568  11.074  1.00  0.00     0.094 A 
HETATM    8  C11 UNL     1       3.160 -35.198  11.828  1.00  0.00     0.073 A 
ENDROOT
BRANCH   1   9
HETATM    9  N1  UNL     1       0.771 -35.521  12.229  1.00  0.00    -0.234 N 
BRANCH   9  10
HETATM   10  C6  UNL     1       0.011 -34.836  13.236  1.00  0.00     0.269 C 
BRANCH  10  11
HETATM   11  C5  UNL     1      -0.101 -35.559  14.519  1.00  0.00     0.282 C 
HETATM   12  O3  UNL     1       0.609 -35.178  15.479  1.00  0.00    -0.263 OA
BRANCH  11  13
HETATM   13  O2  UNL     1      -0.941 -36.614  14.697  1.00  0.00    -0.272 OA
BRANCH  13  14
HETATM   14  C4  UNL     1      -0.721 -37.634  15.684  1.00  0.00     0.417 C 
HETATM   15  O1  UNL     1      -1.893 -38.167  16.073  1.00  0.00    -0.328 OA
HETATM   16  C2  UNL     1      -2.106 -39.494  16.031  1.00  0.00     0.116 C 
HETATM   17  C1  UNL     1      -2.481 -39.880  14.599  1.00  0.00     0.054 C 
HETATM   18  C3  UNL     1      -3.349 -39.790  16.880  1.00  0.00     0.054 C 
HETATM   19  C13 UNL     1      -1.017 -40.371  16.494  1.00  0.00     0.119 C 
HETATM   20  N7  UNL     1       0.228 -40.248  15.831  1.00  0.00    -0.267 N 
HETATM   21  N8  UNL     1      -1.163 -41.235  17.473  1.00  0.00    -0.386 N 
HETATM   22  S1  UNL     1       0.472 -38.739  15.039  1.00  0.00     0.284 S 
ATOM     23  H7  UNL     1       0.925 -40.994  15.823  1.00  0.00     0.180 HD
HETATM   24  O7  UNL     1       1.857 -38.233  15.421  1.00  0.00    -0.200 OA
HETATM   25  O8  UNL     1       0.419 -38.866  13.549  1.00  0.00    -0.200 OA
ATOM     26  H82 UNL     1      -2.060 -41.323  17.950  1.00  0.00     0.157 HD
ATOM     27  H81 UNL     1      -0.409 -41.842  17.793  1.00  0.00     0.157 HD
ENDBRANCH  13  14
ENDBRANCH  11  13
ENDBRANCH  10  11
ENDBRANCH   9  10
BRANCH   9  28
HETATM   28  O4  UNL     1       0.408 -36.700  11.931  1.00  0.00    -0.285 OA
ATOM     29  H4  UNL     1       1.080 -37.295  11.620  1.00  0.00     0.245 HD
ENDBRANCH   9  28
ENDBRANCH   1   9
BRANCH   8  30
HETATM   30  C12 UNL     1       3.554 -36.110  12.904  1.00  0.00     0.417 C 
BRANCH  30  31
HETATM   31  N5  UNL     1       3.101 -37.476  12.764  1.00  0.00    -0.046 N 
ATOM     32  H53 UNL     1       2.083 -37.501  12.705  1.00  0.00     0.277 HD
ATOM     33  H52 UNL     1       3.346 -37.831  11.839  1.00  0.00     0.277 HD
ATOM     34  H51 UNL     1       3.424 -38.124  13.483  1.00  0.00     0.277 HD
ENDBRANCH  30  31
BRANCH  30  35
HETATM   35  N6  UNL     1       3.334 -35.614  14.223  1.00  0.00    -0.046 N 
ATOM     36  H63 UNL     1       3.687 -34.660  14.304  1.00  0.00     0.277 HD
ATOM     37  H62 UNL     1       2.340 -35.449  14.376  1.00  0.00     0.277 HD
ATOM     38  H61 UNL     1       3.714 -36.196  14.970  1.00  0.00     0.277 HD
ENDBRANCH  30  35
ENDBRANCH   8  30
BRANCH   4  39
HETATM   39  N3  UNL     1       2.275 -32.655   8.845  1.00  0.00    -0.234 N 
ATOM     40  H32 UNL     1       1.627 -31.890   9.037  1.00  0.00     0.174 HD
ATOM     41  H31 UNL     1       2.694 -32.746   7.920  1.00  0.00     0.174 HD
ENDBRANCH   4  39
BRANCH   7  42
HETATM   42  C10 UNL     1       5.607 -34.767  11.360  1.00  0.00     0.306 C 
BRANCH  42  43
HETATM   43  O5  UNL     1       6.010 -33.651  12.157  1.00  0.00    -0.366 OA
ATOM     44  H5  UNL     1       5.962 -33.942  13.061  1.00  0.00     0.213 HD
ENDBRANCH  42  43
BRANCH  42  45
HETATM   45  O6  UNL     1       6.353 -34.818  10.213  1.00  0.00    -0.366 OA
ATOM     46  H6  UNL     1       6.775 -35.663  10.102  1.00  0.00     0.213 HD
ENDBRANCH  42  45
ENDBRANCH   7  42
TORSDOF 13
ENDMDL
MODEL 4
REMARK VINA RESULT: -6.591385026      1.531      2.573
REMARK  13 active torsions:
REMARK  status: ('A' for Active; 'I' for Inactive)
REMARK    1  A    between atoms: C4_5  and  O2_6 
REMARK    2  A    between atoms: O2_6  and  C5_7 
REMARK    3  A    between atoms: C5_7  and  C6_9 
REMARK    4  A    between atoms: C6_9  and  N1_10 
REMARK    5  A    between atoms: N1_10  and  O4_11 
REMARK    6  A    between atoms: N1_10  and  C7_13 
REMARK    7  A    between atoms: C8_16  and  N3_17 
REMARK    8  A    between atoms: C9_22  and  C10_23 
REMARK    9  A    between atoms: C10_23  and  O5_24 
REMARK   10  A    between atoms: C10_23  and  O6_26 
REMARK   11  A    between atoms: C11_28  and  C12_29 
REMARK   12  A    between atoms: C12_29  and  N5_30 
REMARK   13  A    between atoms: C12_29  and  N6_34 
ROOT
HETATM    1  C7  UNL     1       2.412 -35.661  12.018  1.00  0.00     0.155 A 
HETATM    2  N2  UNL     1       1.538 -34.757  11.466  1.00  0.00    -0.174 N 
ATOM      3  H2  UNL     1       0.538 -34.862  11.642  1.00  0.00     0.186 HD
HETATM    4  C8  UNL     1       1.962 -33.740  10.703  1.00  0.00     0.677 A 
HETATM    5  N4  UNL     1       3.272 -33.585  10.461  1.00  0.00    -0.190 N 
ATOM      6  H4  UNL     1       3.585 -32.808   9.878  1.00  0.00     0.184 HD
HETATM    7  C9  UNL     1       4.182 -34.436  10.974  1.00  0.00     0.094 A 
HETATM    8  C11 UNL     1       3.743 -35.508  11.775  1.00  0.00     0.073 A 
ENDROOT
BRANCH   1   9
HETATM    9  N1  UNL     1       1.868 -36.699  12.794  1.00  0.00    -0.234 N 
BRANCH   9  10
HETATM   10  C6  UNL     1       1.754 -36.642  14.223  1.00  0.00     0.269 C 
BRANCH  10  11
HETATM   11  C5  UNL     1       2.003 -37.926  14.910  1.00  0.00     0.282 C 
HETATM   12  O3  UNL     1       3.142 -38.440  14.815  1.00  0.00    -0.263 OA
BRANCH  11  13
HETATM   13  O2  UNL     1       1.049 -38.567  15.638  1.00  0.00    -0.272 OA
BRANCH  13  14
HETATM   14  C4  UNL     1      -0.263 -38.856  15.130  1.00  0.00     0.417 C 
HETATM   15  O1  UNL     1      -0.548 -40.161  15.289  1.00  0.00    -0.328 OA
HETATM   16  C2  UNL     1      -1.667 -40.560  15.917  1.00  0.00     0.116 C 
HETATM   17  C1  UNL     1      -1.427 -40.496  17.426  1.00  0.00     0.054 C 
HETATM   18  C3  UNL     1      -1.874 -42.046  15.593  1.00  0.00     0.054 C 
HETATM   19  C13 UNL     1      -2.915 -39.845  15.600  1.00  0.00     0.119 C 
HETATM   20  N7  UNL     1      -2.928 -38.448  15.831  1.00  0.00    -0.267 N 
HETATM   21  N8  UNL     1      -3.982 -40.447  15.125  1.00  0.00    -0.386 N 
HETATM   22  S1  UNL     1      -1.371 -37.713  15.856  1.00  0.00     0.284 S 
ATOM     23  H7  UNL     1      -3.789 -37.920  15.971  1.00  0.00     0.180 HD
HETATM   24  O7  UNL     1      -1.430 -36.471  14.977  1.00  0.00    -0.200 OA
HETATM   25  O8  UNL     1      -0.967 -37.288  17.233  1.00  0.00    -0.200 OA
ATOM     26  H82 UNL     1      -3.973 -41.453  14.959  1.00  0.00     0.157 HD
ATOM     27  H81 UNL     1      -4.846 -39.952  14.906  1.00  0.00     0.157 HD
ENDBRANCH  13  14
ENDBRANCH  11  13
ENDBRANCH  10  11
ENDBRANCH   9  10
BRANCH   9  28
HETATM   28  O4  UNL     1       1.415 -37.734  12.216  1.00  0.00    -0.285 OA
ATOM     29  H4  UNL     1       1.836 -38.562  12.416  1.00  0.00     0.245 HD
ENDBRANCH   9  28
ENDBRANCH   1   9
BRANCH   8  30
HETATM   30  C12 UNL     1       4.742 -36.424  12.330  1.00  0.00     0.417 C 
BRANCH  30  31
HETATM   31  N5  UNL     1       4.482 -37.832  12.123  1.00  0.00    -0.046 N 
ATOM     32  H53 UNL     1       3.942 -38.205  12.904  1.00  0.00     0.277 HD
ATOM     33  H52 UNL     1       3.813 -37.954  11.363  1.00  0.00     0.277 HD
ATOM     34  H51 UNL     1       5.305 -38.413  11.959  1.00  0.00     0.277 HD
ENDBRANCH  30  31
BRANCH  30  35
HETATM   35  N6  UNL     1       5.126 -36.151  13.675  1.00  0.00    -0.046 N 
ATOM     36  H63 UNL     1       4.314 -35.871  14.224  1.00  0.00     0.277 HD
ATOM     37  H62 UNL     1       5.374 -37.017  14.154  1.00  0.00     0.277 HD
ATOM     38  H61 UNL     1       5.875 -35.466  13.777  1.00  0.00     0.277 HD
ENDBRANCH  30  35
ENDBRANCH   8  30
BRANCH   4  39
HETATM   39  N3  UNL     1       1.156 -32.882  10.175  1.00  0.00    -0.234 N 
ATOM     40  H32 UNL     1       0.215 -33.202   9.945  1.00  0.00     0.174 HD
ATOM     41  H31 UNL     1       1.425 -31.916   9.988  1.00  0.00     0.174 HD
ENDBRANCH   4  39
BRANCH   7  42
HETATM   42  C10 UNL     1       5.617 -34.184  10.711  1.00  0.00     0.306 C 
BRANCH  42  43
HETATM   43  O5  UNL     1       6.111 -33.477  11.850  1.00  0.00    -0.366 OA
ATOM     44  H5  UNL     1       6.647 -32.770  11.510  1.00  0.00     0.213 HD
ENDBRANCH  42  43
BRANCH  42  45
HETATM   45  O6  UNL     1       5.805 -33.439   9.578  1.00  0.00    -0.366 OA
ATOM     46  H6  UNL     1       5.419 -33.853   8.814  1.00  0.00     0.213 HD
ENDBRANCH  42  45
ENDBRANCH   7  42
TORSDOF 13
ENDMDL
MODEL 5
REMARK VINA RESULT: -6.485010397      2.061      2.896
REMARK  13 active torsions:
REMARK  status: ('A' for Active; 'I' for Inactive)
REMARK    1  A    between atoms: C4_5  and  O2_6 
REMARK    2  A    between atoms: O2_6  and  C5_7 
REMARK    3  A    between atoms: C5_7  and  C6_9 
REMARK    4  A    between atoms: C6_9  and  N1_10 
REMARK    5  A    between atoms: N1_10  and  O4_11 
REMARK    6  A    between atoms: N1_10  and  C7_13 
REMARK    7  A    between atoms: C8_16  and  N3_17 
REMARK    8  A    between atoms: C9_22  and  C10_23 
REMARK    9  A    between atoms: C10_23  and  O5_24 
REMARK   10  A    between atoms: C10_23  and  O6_26 
REMARK   11  A    between atoms: C11_28  and  C12_29 
REMARK   12  A    between atoms: C12_29  and  N5_30 
REMARK   13  A    between atoms: C12_29  and  N6_34 
ROOT
HETATM    1  C7  UNL     1       1.778 -35.191  13.312  1.00  0.00     0.155 A 
HETATM    2  N2  UNL     1       3.021 -35.363  13.873  1.00  0.00    -0.174 N 
ATOM      3  H2  UNL     1       3.097 -35.493  14.882  1.00  0.00     0.186 HD
HETATM    4  C8  UNL     1       4.136 -35.364  13.130  1.00  0.00     0.677 A 
HETATM    5  N4  UNL     1       4.057 -35.194  11.802  1.00  0.00    -0.190 N 
ATOM      6  H4  UNL     1       4.912 -35.196  11.245  1.00  0.00     0.184 HD
HETATM    7  C9  UNL     1       2.869 -35.023  11.189  1.00  0.00     0.094 A 
HETATM    8  C11 UNL     1       1.693 -35.020  11.964  1.00  0.00     0.073 A 
ENDROOT
BRANCH   1   9
HETATM    9  N1  UNL     1       0.671 -35.194  14.178  1.00  0.00    -0.234 N 
BRANCH   9  10
HETATM   10  C6  UNL     1       0.784 -35.229  15.608  1.00  0.00     0.269 C 
BRANCH  10  11
HETATM   11  C5  UNL     1      -0.185 -36.120  16.279  1.00  0.00     0.282 C 
HETATM   12  O3  UNL     1      -0.479 -35.886  17.474  1.00  0.00    -0.263 OA
BRANCH  11  13
HETATM   13  O2  UNL     1      -0.766 -37.178  15.651  1.00  0.00    -0.272 OA
BRANCH  13  14
HETATM   14  C4  UNL     1      -0.233 -38.510  15.704  1.00  0.00     0.417 C 
HETATM   15  O1  UNL     1      -1.173 -39.372  16.133  1.00  0.00    -0.328 OA
HETATM   16  C2  UNL     1      -1.485 -40.474  15.429  1.00  0.00     0.116 C 
HETATM   17  C1  UNL     1      -2.453 -40.078  14.312  1.00  0.00     0.054 C 
HETATM   18  C3  UNL     1      -2.280 -41.405  16.355  1.00  0.00     0.054 C 
HETATM   19  C13 UNL     1      -0.374 -41.246  14.849  1.00  0.00     0.119 C 
HETATM   20  N7  UNL     1       0.486 -40.559  13.959  1.00  0.00    -0.267 N 
HETATM   21  N8  UNL     1      -0.164 -42.513  15.125  1.00  0.00    -0.386 N 
HETATM   22  S1  UNL     1       0.492 -38.847  14.148  1.00  0.00     0.284 S 
ATOM     23  H7  UNL     1       1.056 -41.038  13.261  1.00  0.00     0.180 HD
HETATM   24  O7  UNL     1       1.944 -38.390  14.182  1.00  0.00    -0.200 OA
HETATM   25  O8  UNL     1      -0.188 -38.149  13.013  1.00  0.00    -0.200 OA
ATOM     26  H82 UNL     1      -0.783 -43.008  15.766  1.00  0.00     0.157 HD
ATOM     27  H81 UNL     1       0.606 -43.048  14.723  1.00  0.00     0.157 HD
ENDBRANCH  13  14
ENDBRANCH  11  13
ENDBRANCH  10  11
ENDBRANCH   9  10
BRANCH   9  28
HETATM   28  O4  UNL     1      -0.498 -35.128  13.689  1.00  0.00    -0.285 OA
ATOM     29  H4  UNL     1      -0.571 -34.969  12.755  1.00  0.00     0.245 HD
ENDBRANCH   9  28
ENDBRANCH   1   9
BRANCH   8  30
HETATM   30  C12 UNL     1       0.407 -34.836  11.288  1.00  0.00     0.417 C 
BRANCH  30  31
HETATM   31  N5  UNL     1      -0.140 -36.014  10.653  1.00  0.00    -0.046 N 
ATOM     32  H53 UNL     1       0.610 -36.564  10.234  1.00  0.00     0.277 HD
ATOM     33  H52 UNL     1      -0.472 -36.669  11.361  1.00  0.00     0.277 HD
ATOM     34  H51 UNL     1      -0.874 -35.845   9.964  1.00  0.00     0.277 HD
ENDBRANCH  30  31
BRANCH  30  35
HETATM   35  N6  UNL     1       0.335 -33.696  10.435  1.00  0.00    -0.046 N 
ATOM     36  H63 UNL     1       0.474 -32.842  10.975  1.00  0.00     0.277 HD
ATOM     37  H62 UNL     1       1.153 -33.658   9.827  1.00  0.00     0.277 HD
ATOM     38  H61 UNL     1      -0.519 -33.627   9.880  1.00  0.00     0.277 HD
ENDBRANCH  30  35
ENDBRANCH   8  30
BRANCH   4  39
HETATM   39  N3  UNL     1       5.311 -35.522  13.638  1.00  0.00    -0.234 N 
ATOM     40  H32 UNL     1       5.382 -35.554  14.656  1.00  0.00     0.174 HD
ATOM     41  H31 UNL     1       6.151 -35.614  13.067  1.00  0.00     0.174 HD
ENDBRANCH   4  39
BRANCH   7  42
HETATM   42  C10 UNL     1       2.842 -34.890   9.715  1.00  0.00     0.306 C 
BRANCH  42  43
HETATM   43  O5  UNL     1       3.766 -35.858   9.213  1.00  0.00    -0.366 OA
ATOM     44  H5  UNL     1       3.608 -35.913   8.277  1.00  0.00     0.213 HD
ENDBRANCH  42  43
BRANCH  42  45
HETATM   45  O6  UNL     1       3.209 -33.635   9.309  1.00  0.00    -0.366 OA
ATOM     46  H6  UNL     1       3.215 -33.557   8.362  1.00  0.00     0.213 HD
ENDBRANCH  42  45
ENDBRANCH   7  42
TORSDOF 13
ENDMDL
