MODEL 1
REMARK VINA RESULT: -7.295209450      0.000      0.000
REMARK  11 active torsions:
REMARK  status: ('A' for Active; 'I' for Inactive)
REMARK    1  A    between atoms: N1_1  and  N2_4 
REMARK       I    between atoms: N2_4  and  C1_6 
REMARK    2  A    between atoms: C1_6  and  C2_8 
REMARK    3  A    between atoms: C2_8  and  N3_9 
REMARK       I    between atoms: N3_9  and  C3_11 
REMARK    4  A    between atoms: C3_11  and  C4_13 
REMARK    5  A    between atoms: C4_13  and  O3_14 
REMARK    6  A    between atoms: C4_13  and  N4_16 
REMARK    7  A    between atoms: N4_16  and  C5_18 
REMARK    8  A    between atoms: C13_28  and  O5_29 
REMARK    9  A    between atoms: C15_34  and  O8_35 
REMARK   10  A    between atoms: C16_38  and  C17_39 
REMARK   11  A    between atoms: C17_39  and  O10_40 
ROOT
HETATM    1  C5  UNL     1       1.397 -35.926  13.041  1.00  0.00     0.071 A 
HETATM    2  C6  UNL     1       1.410 -35.033  11.959  1.00  0.00     0.085 A 
HETATM    3  N5  UNL     1       0.225 -34.274  11.770  1.00  0.00    -0.099 NA
HETATM    4  C7  UNL     1       2.497 -34.899  11.132  1.00  0.00     0.034 A 
HETATM    5  C8  UNL     1       3.618 -35.664  11.367  1.00  0.00     0.100 A 
HETATM    6  C9  UNL     1       3.649 -36.561  12.426  1.00  0.00     0.066 A 
HETATM    7  C10 UNL     1       2.529 -36.675  13.247  1.00  0.00     0.060 A 
HETATM    8  C11 UNL     1       2.869 -37.703  14.242  1.00  0.00     0.201 A 
HETATM    9  O4  UNL     1       2.120 -38.092  15.154  1.00  0.00    -0.286 OA
HETATM   10  C12 UNL     1       4.218 -38.208  14.011  1.00  0.00     0.087 A 
HETATM   11  C13 UNL     1       4.804 -39.130  14.735  1.00  0.00     0.150 C 
HETATM   12  C14 UNL     1       4.700 -37.473  12.854  1.00  0.00     0.202 A 
HETATM   13  O6  UNL     1       5.833 -37.625  12.340  1.00  0.00    -0.286 OA
HETATM   14  O7  UNL     1       4.707 -35.518  10.527  1.00  0.00    -0.295 OA
HETATM   15  C15 UNL     1       4.687 -34.499   9.550  1.00  0.00     0.417 C 
HETATM   16  O9  UNL     1       3.783 -33.494   9.790  1.00  0.00    -0.326 OA
HETATM   17  C16 UNL     1       2.495 -33.955   9.999  1.00  0.00     0.188 C 
ENDROOT
BRANCH   1  18
HETATM   18  N4  UNL     1       0.274 -36.050  13.855  1.00  0.00    -0.354 N 
ATOM     19  H4  UNL     1      -0.491 -36.620  13.495  1.00  0.00     0.162 HD
BRANCH  18  20
HETATM   20  C4  UNL     1       0.080 -35.454  15.159  1.00  0.00     0.312 C 
BRANCH  20  21
HETATM   21  C3  UNL     1      -0.518 -36.382  16.127  1.00  0.00     0.266 C 
HETATM   22  N3  UNL     1      -0.993 -37.642  15.730  1.00  0.00    -0.349 N 
ATOM     23  H3  UNL     1      -0.924 -37.904  14.747  1.00  0.00     0.163 HD
HETATM   24  O2  UNL     1      -0.603 -36.039  17.327  1.00  0.00    -0.269 OA
BRANCH  22  25
HETATM   25  C2  UNL     1      -1.575 -38.580  16.655  1.00  0.00     0.227 C 
BRANCH  25  26
HETATM   26  C1  UNL     1      -2.826 -39.214  16.192  1.00  0.00     0.253 C 
HETATM   27  N2  UNL     1      -3.054 -40.581  16.117  1.00  0.00    -0.275 N 
ATOM     28  H2  UNL     1      -2.323 -41.237  16.389  1.00  0.00     0.189 HD
HETATM   29  O1  UNL     1      -3.769 -38.436  15.829  1.00  0.00    -0.270 OA
BRANCH  27  30
HETATM   30  N1  UNL     1      -4.301 -41.059  15.663  1.00  0.00    -0.343 N 
ATOM     31  H12 UNL     1      -4.661 -40.733  14.766  1.00  0.00     0.176 HD
ATOM     32  H11 UNL     1      -4.826 -41.723  16.232  1.00  0.00     0.176 HD
ENDBRANCH  27  30
ENDBRANCH  25  26
ENDBRANCH  22  25
ENDBRANCH  20  21
BRANCH  20  33
HETATM   33  O3  UNL     1       1.287 -35.003  15.642  1.00  0.00    -0.368 OA
ATOM     34  H3  UNL     1       1.620 -34.320  15.073  1.00  0.00     0.212 HD
ENDBRANCH  20  33
ENDBRANCH  18  20
ENDBRANCH   1  18
BRANCH  17  35
HETATM   35  C17 UNL     1       1.970 -34.561   8.721  1.00  0.00     0.201 C 
BRANCH  35  36
HETATM   36  O10 UNL     1       0.574 -34.608   8.722  1.00  0.00    -0.398 OA
ATOM     37  H10 UNL     1       0.204 -33.822   8.340  1.00  0.00     0.209 HD
ENDBRANCH  35  36
ENDBRANCH  17  35
BRANCH  11  38
HETATM   38  O5  UNL     1       6.088 -39.542  14.434  1.00  0.00    -0.372 OA
ATOM     39  H5  UNL     1       6.689 -39.786  15.128  1.00  0.00     0.216 HD
ENDBRANCH  11  38
BRANCH  15  40
HETATM   40  O8  UNL     1       5.963 -33.916   9.543  1.00  0.00    -0.349 OA
ATOM     41  H8  UNL     1       6.592 -34.628   9.509  1.00  0.00     0.215 HD
ENDBRANCH  15  40
TORSDOF 11
ENDMDL
MODEL 2
REMARK VINA RESULT: -7.265112373      2.855      7.504
REMARK  11 active torsions:
REMARK  status: ('A' for Active; 'I' for Inactive)
REMARK    1  A    between atoms: N1_1  and  N2_4 
REMARK       I    between atoms: N2_4  and  C1_6 
REMARK    2  A    between atoms: C1_6  and  C2_8 
REMARK    3  A    between atoms: C2_8  and  N3_9 
REMARK       I    between atoms: N3_9  and  C3_11 
REMARK    4  A    between atoms: C3_11  and  C4_13 
REMARK    5  A    between atoms: C4_13  and  O3_14 
REMARK    6  A    between atoms: C4_13  and  N4_16 
REMARK    7  A    between atoms: N4_16  and  C5_18 
REMARK    8  A    between atoms: C13_28  and  O5_29 
REMARK    9  A    between atoms: C15_34  and  O8_35 
REMARK   10  A    between atoms: C16_38  and  C17_39 
REMARK   11  A    between atoms: C17_39  and  O10_40 
ROOT
HETATM    1  C5  UNL     1       0.416 -37.797  14.744  1.00  0.00     0.071 A 
HETATM    2  C6  UNL     1      -0.731 -37.948  15.537  1.00  0.00     0.085 A 
HETATM    3  N5  UNL     1      -0.793 -37.126  16.693  1.00  0.00    -0.099 NA
HETATM    4  C7  UNL     1      -1.730 -38.834  15.221  1.00  0.00     0.034 A 
HETATM    5  C8  UNL     1      -1.610 -39.603  14.085  1.00  0.00     0.100 A 
HETATM    6  C9  UNL     1      -0.492 -39.488  13.271  1.00  0.00     0.066 A 
HETATM    7  C10 UNL     1       0.506 -38.580  13.619  1.00  0.00     0.060 A 
HETATM    8  C11 UNL     1       1.541 -38.711  12.582  1.00  0.00     0.201 A 
HETATM    9  O4  UNL     1       2.601 -38.064  12.543  1.00  0.00    -0.286 OA
HETATM   10  C12 UNL     1       1.150 -39.712  11.597  1.00  0.00     0.087 A 
HETATM   11  C13 UNL     1       1.866 -40.050  10.552  1.00  0.00     0.150 C 
HETATM   12  C14 UNL     1      -0.143 -40.197  12.047  1.00  0.00     0.202 A 
HETATM   13  O6  UNL     1      -0.815 -41.076  11.459  1.00  0.00    -0.286 OA
HETATM   14  O7  UNL     1      -2.626 -40.492  13.778  1.00  0.00    -0.295 OA
HETATM   15  C15 UNL     1      -3.805 -40.479  14.553  1.00  0.00     0.417 C 
HETATM   16  O9  UNL     1      -4.007 -39.326  15.269  1.00  0.00    -0.326 OA
HETATM   17  C16 UNL     1      -2.930 -38.980  16.066  1.00  0.00     0.188 C 
ENDROOT
BRANCH   1  18
HETATM   18  N4  UNL     1       1.421 -36.899  15.097  1.00  0.00    -0.354 N 
ATOM     19  H4  UNL     1       2.189 -37.270  15.656  1.00  0.00     0.162 HD
BRANCH  18  20
HETATM   20  C4  UNL     1       1.487 -35.495  14.753  1.00  0.00     0.312 C 
BRANCH  20  21
HETATM   21  C3  UNL     1       0.751 -35.173  13.524  1.00  0.00     0.266 C 
HETATM   22  N3  UNL     1       1.381 -35.197  12.270  1.00  0.00    -0.349 N 
ATOM     23  H3  UNL     1       2.372 -35.437  12.225  1.00  0.00     0.163 HD
HETATM   24  O2  UNL     1      -0.461 -34.873  13.602  1.00  0.00    -0.269 OA
BRANCH  22  25
HETATM   25  C2  UNL     1       0.687 -34.898  11.045  1.00  0.00     0.227 C 
BRANCH  25  26
HETATM   26  C1  UNL     1       1.024 -33.592  10.443  1.00  0.00     0.253 C 
HETATM   27  N2  UNL     1       0.645 -33.170   9.177  1.00  0.00    -0.275 N 
ATOM     28  H2  UNL     1       0.092 -33.782   8.577  1.00  0.00     0.189 HD
HETATM   29  O1  UNL     1       1.725 -32.794  11.148  1.00  0.00    -0.270 OA
BRANCH  27  30
HETATM   30  N1  UNL     1       1.027 -31.891   8.721  1.00  0.00    -0.343 N 
ATOM     31  H12 UNL     1       1.955 -31.538   8.954  1.00  0.00     0.176 HD
ATOM     32  H11 UNL     1       0.375 -31.336   8.166  1.00  0.00     0.176 HD
ENDBRANCH  27  30
ENDBRANCH  25  26
ENDBRANCH  22  25
ENDBRANCH  20  21
BRANCH  20  33
HETATM   33  O3  UNL     1       0.993 -34.743  15.794  1.00  0.00    -0.368 OA
ATOM     34  H3  UNL     1       1.471 -34.950  16.589  1.00  0.00     0.212 HD
ENDBRANCH  20  33
ENDBRANCH  18  20
ENDBRANCH   1  18
BRANCH  17  35
HETATM   35  C17 UNL     1      -2.767 -40.010  17.157  1.00  0.00     0.201 C 
BRANCH  35  36
HETATM   36  O10 UNL     1      -2.108 -39.472  18.264  1.00  0.00    -0.398 OA
ATOM     37  H10 UNL     1      -1.829 -38.579  18.098  1.00  0.00     0.209 HD
ENDBRANCH  35  36
ENDBRANCH  17  35
BRANCH  11  38
HETATM   38  O5  UNL     1       1.407 -41.014   9.674  1.00  0.00    -0.372 OA
ATOM     39  H5  UNL     1       1.290 -41.911   9.965  1.00  0.00     0.216 HD
ENDBRANCH  11  38
BRANCH  15  40
HETATM   40  O8  UNL     1      -4.880 -40.609  13.662  1.00  0.00    -0.349 OA
ATOM     41  H8  UNL     1      -5.662 -40.341  14.131  1.00  0.00     0.215 HD
ENDBRANCH  15  40
TORSDOF 11
ENDMDL
MODEL 3
REMARK VINA RESULT: -7.245197168      1.247      1.335
REMARK  11 active torsions:
REMARK  status: ('A' for Active; 'I' for Inactive)
REMARK    1  A    between atoms: N1_1  and  N2_4 
REMARK       I    between atoms: N2_4  and  C1_6 
REMARK    2  A    between atoms: C1_6  and  C2_8 
REMARK    3  A    between atoms: C2_8  and  N3_9 
REMARK       I    between atoms: N3_9  and  C3_11 
REMARK    4  A    between atoms: C3_11  and  C4_13 
REMARK    5  A    between atoms: C4_13  and  O3_14 
REMARK    6  A    between atoms: C4_13  and  N4_16 
REMARK    7  A    between atoms: N4_16  and  C5_18 
REMARK    8  A    between atoms: C13_28  and  O5_29 
REMARK    9  A    between atoms: C15_34  and  O8_35 
REMARK   10  A    between atoms: C16_38  and  C17_39 
REMARK   11  A    between atoms: C17_39  and  O10_40 
ROOT
HETATM    1  C5  UNL     1       1.208 -36.131  13.034  1.00  0.00     0.071 A 
HETATM    2  C6  UNL     1       1.171 -35.233  11.957  1.00  0.00     0.085 A 
HETATM    3  N5  UNL     1      -0.065 -34.567  11.751  1.00  0.00    -0.099 NA
HETATM    4  C7  UNL     1       2.260 -35.011  11.151  1.00  0.00     0.034 A 
HETATM    5  C8  UNL     1       3.431 -35.689  11.402  1.00  0.00     0.100 A 
HETATM    6  C9  UNL     1       3.513 -36.588  12.457  1.00  0.00     0.066 A 
HETATM    7  C10 UNL     1       2.391 -36.793  13.258  1.00  0.00     0.060 A 
HETATM    8  C11 UNL     1       2.792 -37.797  14.254  1.00  0.00     0.201 A 
HETATM    9  O4  UNL     1       2.059 -38.249  15.150  1.00  0.00    -0.286 OA
HETATM   10  C12 UNL     1       4.179 -38.196  14.044  1.00  0.00     0.087 A 
HETATM   11  C13 UNL     1       4.821 -39.075  14.774  1.00  0.00     0.150 C 
HETATM   12  C14 UNL     1       4.624 -37.419  12.900  1.00  0.00     0.202 A 
HETATM   13  O6  UNL     1       5.773 -37.480  12.405  1.00  0.00    -0.286 OA
HETATM   14  O7  UNL     1       4.521 -35.454  10.582  1.00  0.00    -0.295 OA
HETATM   15  C15 UNL     1       4.439 -34.434   9.610  1.00  0.00     0.417 C 
HETATM   16  O9  UNL     1       3.457 -33.503   9.839  1.00  0.00    -0.326 OA
HETATM   17  C16 UNL     1       2.204 -34.063  10.022  1.00  0.00     0.188 C 
ENDROOT
BRANCH   1  18
HETATM   18  N4  UNL     1       0.084 -36.347  13.828  1.00  0.00    -0.354 N 
ATOM     19  H4  UNL     1      -0.592 -37.031  13.487  1.00  0.00     0.162 HD
BRANCH  18  20
HETATM   20  C4  UNL     1      -0.226 -35.700  15.084  1.00  0.00     0.312 C 
BRANCH  20  21
HETATM   21  C3  UNL     1      -0.643 -36.647  16.126  1.00  0.00     0.266 C 
HETATM   22  N3  UNL     1      -1.032 -37.957  15.805  1.00  0.00    -0.349 N 
ATOM     23  H3  UNL     1      -1.029 -38.243  14.826  1.00  0.00     0.163 HD
HETATM   24  O2  UNL     1      -0.650 -36.275  17.320  1.00  0.00    -0.269 OA
BRANCH  22  25
HETATM   25  C2  UNL     1      -1.436 -38.914  16.801  1.00  0.00     0.227 C 
BRANCH  25  26
HETATM   26  C1  UNL     1      -0.897 -40.276  16.610  1.00  0.00     0.253 C 
HETATM   27  N2  UNL     1       0.102 -40.625  15.712  1.00  0.00    -0.275 N 
ATOM     28  H2  UNL     1       0.523 -39.915  15.113  1.00  0.00     0.189 HD
HETATM   29  O1  UNL     1      -1.398 -41.203  17.327  1.00  0.00    -0.270 OA
BRANCH  27  30
HETATM   30  N1  UNL     1       0.534 -41.965  15.631  1.00  0.00    -0.343 N 
ATOM     31  H12 UNL     1       1.135 -42.338  16.366  1.00  0.00     0.176 HD
ATOM     32  H11 UNL     1       0.244 -42.544  14.843  1.00  0.00     0.176 HD
ENDBRANCH  27  30
ENDBRANCH  25  26
ENDBRANCH  22  25
ENDBRANCH  20  21
BRANCH  20  33
HETATM   33  O3  UNL     1       0.872 -34.994  15.520  1.00  0.00    -0.368 OA
ATOM     34  H3  UNL     1       1.648 -35.307  15.072  1.00  0.00     0.212 HD
ENDBRANCH  20  33
ENDBRANCH  18  20
ENDBRANCH   1  18
BRANCH  17  35
HETATM   35  C17 UNL     1       1.750 -34.700   8.732  1.00  0.00     0.201 C 
BRANCH  35  36
HETATM   36  O10 UNL     1       0.365 -34.884   8.721  1.00  0.00    -0.398 OA
ATOM     37  H10 UNL     1       0.030 -34.908   7.833  1.00  0.00     0.209 HD
ENDBRANCH  35  36
ENDBRANCH  17  35
BRANCH  11  38
HETATM   38  O5  UNL     1       6.139 -39.385  14.494  1.00  0.00    -0.372 OA
ATOM     39  H5  UNL     1       6.662 -39.868  15.123  1.00  0.00     0.216 HD
ENDBRANCH  11  38
BRANCH  15  40
HETATM   40  O8  UNL     1       5.667 -33.755   9.629  1.00  0.00    -0.349 OA
ATOM     41  H8  UNL     1       5.495 -32.881   9.962  1.00  0.00     0.215 HD
ENDBRANCH  15  40
TORSDOF 11
ENDMDL
MODEL 4
REMARK VINA RESULT: -6.968070001      2.598      6.064
REMARK  11 active torsions:
REMARK  status: ('A' for Active; 'I' for Inactive)
REMARK    1  A    between atoms: N1_1  and  N2_4 
REMARK       I    between atoms: N2_4  and  C1_6 
REMARK    2  A    between atoms: C1_6  and  C2_8 
REMARK    3  A    between atoms: C2_8  and  N3_9 
REMARK       I    between atoms: N3_9  and  C3_11 
REMARK    4  A    between atoms: C3_11  and  C4_13 
REMARK    5  A    between atoms: C4_13  and  O3_14 
REMARK    6  A    between atoms: C4_13  and  N4_16 
REMARK    7  A    between atoms: N4_16  and  C5_18 
REMARK    8  A    between atoms: C13_28  and  O5_29 
REMARK    9  A    between atoms: C15_34  and  O8_35 
REMARK   10  A    between atoms: C16_38  and  C17_39 
REMARK   11  A    between atoms: C17_39  and  O10_40 
ROOT
HETATM    1  C5  UNL     1       3.264 -36.348  13.849  1.00  0.00     0.071 A 
HETATM    2  C6  UNL     1       2.005 -35.929  14.301  1.00  0.00     0.085 A 
HETATM    3  N5  UNL     1       1.804 -34.524  14.353  1.00  0.00    -0.099 NA
HETATM    4  C7  UNL     1       1.025 -36.816  14.671  1.00  0.00     0.034 A 
HETATM    5  C8  UNL     1       1.281 -38.167  14.598  1.00  0.00     0.100 A 
HETATM    6  C9  UNL     1       2.514 -38.628  14.158  1.00  0.00     0.066 A 
HETATM    7  C10 UNL     1       3.488 -37.703  13.789  1.00  0.00     0.060 A 
HETATM    8  C11 UNL     1       4.661 -38.496  13.395  1.00  0.00     0.201 A 
HETATM    9  O4  UNL     1       5.744 -38.028  13.003  1.00  0.00    -0.286 OA
HETATM   10  C12 UNL     1       4.379 -39.921  13.527  1.00  0.00     0.087 A 
HETATM   11  C13 UNL     1       5.230 -40.879  13.249  1.00  0.00     0.150 C 
HETATM   12  C14 UNL     1       3.012 -39.989  14.013  1.00  0.00     0.202 A 
HETATM   13  O6  UNL     1       2.397 -41.054  14.255  1.00  0.00    -0.286 OA
HETATM   14  O7  UNL     1       0.284 -39.050  14.974  1.00  0.00    -0.295 OA
HETATM   15  C15 UNL     1      -0.997 -38.546  15.283  1.00  0.00     0.417 C 
HETATM   16  O9  UNL     1      -1.253 -37.291  14.789  1.00  0.00    -0.326 OA
HETATM   17  C16 UNL     1      -0.295 -36.358  15.145  1.00  0.00     0.188 C 
ENDROOT
BRANCH   1  18
HETATM   18  N4  UNL     1       4.244 -35.424  13.492  1.00  0.00    -0.354 N 
ATOM     19  H4  UNL     1       4.721 -34.946  14.257  1.00  0.00     0.162 HD
BRANCH  18  20
HETATM   20  C4  UNL     1       4.654 -35.073  12.150  1.00  0.00     0.312 C 
BRANCH  20  21
HETATM   21  C3  UNL     1       3.524 -34.953  11.221  1.00  0.00     0.266 C 
HETATM   22  N3  UNL     1       2.534 -33.975  11.400  1.00  0.00    -0.349 N 
ATOM     23  H3  UNL     1       2.607 -33.346  12.200  1.00  0.00     0.163 HD
HETATM   24  O2  UNL     1       3.447 -35.740  10.251  1.00  0.00    -0.269 OA
BRANCH  22  25
HETATM   25  C2  UNL     1       1.419 -33.822  10.502  1.00  0.00     0.227 C 
BRANCH  25  26
HETATM   26  C1  UNL     1       0.356 -34.836  10.654  1.00  0.00     0.253 C 
HETATM   27  N2  UNL     1       0.355 -36.093  10.065  1.00  0.00    -0.275 N 
ATOM     28  H2  UNL     1       1.130 -36.378   9.467  1.00  0.00     0.189 HD
HETATM   29  O1  UNL     1      -0.641 -34.524  11.384  1.00  0.00    -0.270 OA
BRANCH  27  30
HETATM   30  N1  UNL     1      -0.722 -36.974  10.297  1.00  0.00    -0.343 N 
ATOM     31  H12 UNL     1      -1.641 -36.745   9.920  1.00  0.00     0.176 HD
ATOM     32  H11 UNL     1      -0.571 -37.827  10.836  1.00  0.00     0.176 HD
ENDBRANCH  27  30
ENDBRANCH  25  26
ENDBRANCH  22  25
ENDBRANCH  20  21
BRANCH  20  33
HETATM   33  O3  UNL     1       5.352 -33.887  12.179  1.00  0.00    -0.368 OA
ATOM     34  H3  UNL     1       5.999 -33.884  11.484  1.00  0.00     0.212 HD
ENDBRANCH  20  33
ENDBRANCH  18  20
ENDBRANCH   1  18
BRANCH  17  35
HETATM   35  C17 UNL     1      -0.346 -36.133  16.636  1.00  0.00     0.201 C 
BRANCH  35  36
HETATM   36  O10 UNL     1       0.167 -34.880  16.975  1.00  0.00    -0.398 OA
ATOM     37  H10 UNL     1       1.104 -34.922  17.123  1.00  0.00     0.209 HD
ENDBRANCH  35  36
ENDBRANCH  17  35
BRANCH  11  38
HETATM   38  O5  UNL     1       4.866 -42.203  13.409  1.00  0.00    -0.372 OA
ATOM     39  H5  UNL     1       5.503 -42.895  13.278  1.00  0.00     0.216 HD
ENDBRANCH  11  38
BRANCH  15  40
HETATM   40  O8  UNL     1      -1.929 -39.419  14.702  1.00  0.00    -0.349 OA
ATOM     41  H8  UNL     1      -2.793 -39.080  14.911  1.00  0.00     0.215 HD
ENDBRANCH  15  40
TORSDOF 11
ENDMDL
MODEL 5
REMARK VINA RESULT: -6.885941759      2.704      4.268
REMARK  11 active torsions:
REMARK  status: ('A' for Active; 'I' for Inactive)
REMARK    1  A    between atoms: N1_1  and  N2_4 
REMARK       I    between atoms: N2_4  and  C1_6 
REMARK    2  A    between atoms: C1_6  and  C2_8 
REMARK    3  A    between atoms: C2_8  and  N3_9 
REMARK       I    between atoms: N3_9  and  C3_11 
REMARK    4  A    between atoms: C3_11  and  C4_13 
REMARK    5  A    between atoms: C4_13  and  O3_14 
REMARK    6  A    between atoms: C4_13  and  N4_16 
REMARK    7  A    between atoms: N4_16  and  C5_18 
REMARK    8  A    between atoms: C13_28  and  O5_29 
REMARK    9  A    between atoms: C15_34  and  O8_35 
REMARK   10  A    between atoms: C16_38  and  C17_39 
REMARK   11  A    between atoms: C17_39  and  O10_40 
ROOT
HETATM    1  C5  UNL     1       0.772 -38.378  12.058  1.00  0.00     0.071 A 
HETATM    2  C6  UNL     1       1.224 -37.692  10.922  1.00  0.00     0.085 A 
HETATM    3  N5  UNL     1       1.444 -38.489   9.767  1.00  0.00    -0.099 NA
HETATM    4  C7  UNL     1       1.443 -36.337  10.922  1.00  0.00     0.034 A 
HETATM    5  C8  UNL     1       1.212 -35.620  12.074  1.00  0.00     0.100 A 
HETATM    6  C9  UNL     1       0.765 -36.257  13.223  1.00  0.00     0.066 A 
HETATM    7  C10 UNL     1       0.552 -37.634  13.192  1.00  0.00     0.060 A 
HETATM    8  C11 UNL     1       0.107 -37.998  14.545  1.00  0.00     0.201 A 
HETATM    9  O4  UNL     1      -0.182 -39.147  14.919  1.00  0.00    -0.286 OA
HETATM   10  C12 UNL     1       0.050 -36.815  15.397  1.00  0.00     0.087 A 
HETATM   11  C13 UNL     1      -0.313 -36.820  16.657  1.00  0.00     0.150 C 
HETATM   12  C14 UNL     1       0.471 -35.718  14.543  1.00  0.00     0.202 A 
HETATM   13  O6  UNL     1       0.555 -34.523  14.913  1.00  0.00    -0.286 OA
HETATM   14  O7  UNL     1       1.436 -34.254  12.059  1.00  0.00    -0.295 OA
HETATM   15  C15 UNL     1       1.756 -33.626  10.837  1.00  0.00     0.417 C 
HETATM   16  O9  UNL     1       1.414 -34.342   9.718  1.00  0.00    -0.326 OA
HETATM   17  C16 UNL     1       1.919 -35.631   9.717  1.00  0.00     0.188 C 
ENDROOT
BRANCH   1  18
HETATM   18  N4  UNL     1       0.571 -39.756  12.033  1.00  0.00    -0.354 N 
ATOM     19  H4  UNL     1       1.331 -40.335  12.390  1.00  0.00     0.162 HD
BRANCH  18  20
HETATM   20  C4  UNL     1      -0.603 -40.451  11.552  1.00  0.00     0.312 C 
BRANCH  20  21
HETATM   21  C3  UNL     1      -1.536 -40.807  12.628  1.00  0.00     0.266 C 
HETATM   22  N3  UNL     1      -2.566 -39.937  13.017  1.00  0.00    -0.349 N 
ATOM     23  H3  UNL     1      -2.653 -39.038  12.542  1.00  0.00     0.163 HD
HETATM   24  O2  UNL     1      -1.407 -41.910  13.205  1.00  0.00    -0.269 OA
BRANCH  22  25
HETATM   25  C2  UNL     1      -3.504 -40.259  14.060  1.00  0.00     0.227 C 
BRANCH  25  26
HETATM   26  C1  UNL     1      -3.178 -39.695  15.386  1.00  0.00     0.253 C 
HETATM   27  N2  UNL     1      -2.406 -40.319  16.355  1.00  0.00    -0.275 N 
ATOM     28  H2  UNL     1      -2.016 -41.246  16.182  1.00  0.00     0.189 HD
HETATM   29  O1  UNL     1      -3.650 -38.543  15.657  1.00  0.00    -0.270 OA
BRANCH  27  30
HETATM   30  N1  UNL     1      -2.161 -39.668  17.582  1.00  0.00    -0.343 N 
ATOM     31  H12 UNL     1      -2.604 -38.768  17.764  1.00  0.00     0.176 HD
ATOM     32  H11 UNL     1      -1.546 -40.101  18.272  1.00  0.00     0.176 HD
ENDBRANCH  27  30
ENDBRANCH  25  26
ENDBRANCH  22  25
ENDBRANCH  20  21
BRANCH  20  33
HETATM   33  O3  UNL     1      -1.252 -39.669  10.623  1.00  0.00    -0.368 OA
ATOM     34  H3  UNL     1      -0.716 -39.594   9.843  1.00  0.00     0.212 HD
ENDBRANCH  20  33
ENDBRANCH  18  20
ENDBRANCH   1  18
BRANCH  17  35
HETATM   35  C17 UNL     1       3.423 -35.576   9.616  1.00  0.00     0.201 C 
BRANCH  35  36
HETATM   36  O10 UNL     1       3.923 -36.683   8.926  1.00  0.00    -0.398 OA
ATOM     37  H10 UNL     1       4.746 -36.976   9.299  1.00  0.00     0.209 HD
ENDBRANCH  35  36
ENDBRANCH  17  35
BRANCH  11  38
HETATM   38  O5  UNL     1      -0.333 -35.642  17.381  1.00  0.00    -0.372 OA
ATOM     39  H5  UNL     1      -0.968 -35.518  18.077  1.00  0.00     0.216 HD
ENDBRANCH  11  38
BRANCH  15  40
HETATM   40  O8  UNL     1       1.035 -32.423  10.796  1.00  0.00    -0.349 OA
ATOM     41  H8  UNL     1       0.169 -32.630  10.464  1.00  0.00     0.215 HD
ENDBRANCH  15  40
TORSDOF 11
ENDMDL
