MODEL 1
REMARK VINA RESULT: -6.552314901      0.000      0.000
REMARK  7 active torsions:
REMARK  status: ('A' for Active; 'I' for Inactive)
REMARK    1  A    between atoms: C1_2  and  C2_3 
REMARK    2  A    between atoms: C4_6  and  C5_7 
REMARK    3  A    between atoms: C6_8  and  C7_9 
REMARK    4  A    between atoms: C7_9  and  O3_10 
REMARK    5  A    between atoms: C8_12  and  O4_13 
REMARK    6  A    between atoms: C9_15  and  O5_16 
REMARK    7  A    between atoms: C10_18  and  O6_19 
ROOT
HETATM    1  C2  UNL     1       8.711  98.840  10.637  1.00  0.00     0.169 A 
HETATM    2  O2  UNL     1       7.416  98.202  10.944  1.00  0.00    -0.358 OA
HETATM    3  C3  UNL     1       8.414  98.697  11.952  1.00  0.00     0.177 A 
HETATM    4  C4  UNL     1       8.871  97.547  12.763  1.00  0.00     0.072 C 
HETATM    5  C8  UNL     1       9.997  96.786  12.074  1.00  0.00     0.159 C 
HETATM    6  C9  UNL     1       9.588  96.517  10.652  1.00  0.00     0.179 C 
HETATM    7  C10 UNL     1       9.602  97.856   9.932  1.00  0.00     0.193 C 
ENDROOT
BRANCH   4   8
HETATM    8  C5  UNL     1       9.302  97.872  14.142  1.00  0.00    -0.019 C 
HETATM    9  C6  UNL     1       8.619  98.676  14.923  1.00  0.00    -0.005 C 
BRANCH   9  10
HETATM   10  C7  UNL     1       9.105  98.974  16.328  1.00  0.00     0.191 C 
BRANCH  10  11
HETATM   11  O3  UNL     1      10.328  98.300  16.440  1.00  0.00    -0.397 OA
ATOM     12  H3  UNL     1      10.153  97.569  17.021  1.00  0.00     0.209 HD
ENDBRANCH  10  11
ENDBRANCH   9  10
ENDBRANCH   4   8
BRANCH   5  13
HETATM   13  O4  UNL     1      11.132  97.560  12.178  1.00  0.00    -0.392 OA
ATOM     14  H4  UNL     1      11.717  97.117  12.782  1.00  0.00     0.210 HD
ENDBRANCH   5  13
BRANCH   1  15
HETATM   15  C1  UNL     1       8.504 100.092   9.897  1.00  0.00     0.274 C 
HETATM   16  O1  UNL     1       8.851 100.186   8.744  1.00  0.00    -0.303 OA
ENDBRANCH   1  15
BRANCH   6  17
HETATM   17  O5  UNL     1      10.449  95.632  10.021  1.00  0.00    -0.390 OA
ATOM     18  H5  UNL     1      10.207  95.484   9.114  1.00  0.00     0.210 HD
ENDBRANCH   6  17
BRANCH   7  19
HETATM   19  O6  UNL     1      10.892  98.333   9.940  1.00  0.00    -0.389 OA
ATOM     20  H6  UNL     1      11.494  97.599   9.897  1.00  0.00     0.210 HD
ENDBRANCH   7  19
TORSDOF 7
ENDMDL
MODEL 2
REMARK VINA RESULT: -6.247941367      2.555      5.027
REMARK  7 active torsions:
REMARK  status: ('A' for Active; 'I' for Inactive)
REMARK    1  A    between atoms: C1_2  and  C2_3 
REMARK    2  A    between atoms: C4_6  and  C5_7 
REMARK    3  A    between atoms: C6_8  and  C7_9 
REMARK    4  A    between atoms: C7_9  and  O3_10 
REMARK    5  A    between atoms: C8_12  and  O4_13 
REMARK    6  A    between atoms: C9_15  and  O5_16 
REMARK    7  A    between atoms: C10_18  and  O6_19 
ROOT
HETATM    1  C2  UNL     1      10.334  97.156  10.506  1.00  0.00     0.169 A 
HETATM    2  O2  UNL     1      11.219  98.281  10.863  1.00  0.00    -0.358 OA
HETATM    3  C3  UNL     1       9.926  98.386  10.106  1.00  0.00     0.177 A 
HETATM    4  C4  UNL     1      10.212  98.933   8.762  1.00  0.00     0.072 C 
HETATM    5  C8  UNL     1      10.652  97.843   7.793  1.00  0.00     0.159 C 
HETATM    6  C9  UNL     1      11.726  97.024   8.454  1.00  0.00     0.179 C 
HETATM    7  C10 UNL     1      11.050  96.232   9.562  1.00  0.00     0.193 C 
ENDROOT
BRANCH   4   8
HETATM    8  C5  UNL     1       9.107  99.697   8.138  1.00  0.00    -0.019 C 
HETATM    9  C6  UNL     1       8.334 100.506   8.823  1.00  0.00    -0.005 C 
BRANCH   9  10
HETATM   10  C7  UNL     1       7.217 101.265   8.133  1.00  0.00     0.191 C 
BRANCH  10  11
HETATM   11  O3  UNL     1       6.090 101.064   8.939  1.00  0.00    -0.397 OA
ATOM     12  H3  UNL     1       6.325 100.348   9.517  1.00  0.00     0.209 HD
ENDBRANCH  10  11
ENDBRANCH   9  10
ENDBRANCH   4   8
BRANCH   5  13
HETATM   13  O4  UNL     1       9.529  97.113   7.469  1.00  0.00    -0.392 OA
ATOM     14  H4  UNL     1       9.696  96.702   6.629  1.00  0.00     0.210 HD
ENDBRANCH   5  13
BRANCH   1  15
HETATM   15  C1  UNL     1       9.829  96.496  11.717  1.00  0.00     0.274 C 
HETATM   16  O1  UNL     1       9.072  97.075  12.459  1.00  0.00    -0.303 OA
ENDBRANCH   1  15
BRANCH   6  17
HETATM   17  O5  UNL     1      12.343  96.159   7.564  1.00  0.00    -0.390 OA
ATOM     18  H5  UNL     1      11.871  96.096   6.741  1.00  0.00     0.210 HD
ENDBRANCH   6  17
BRANCH   7  19
HETATM   19  O6  UNL     1      10.136  95.382   8.985  1.00  0.00    -0.389 OA
ATOM     20  H6  UNL     1      10.408  94.485   9.136  1.00  0.00     0.210 HD
ENDBRANCH   7  19
TORSDOF 7
ENDMDL
MODEL 3
REMARK VINA RESULT: -5.521046094      2.562      4.075
REMARK  7 active torsions:
REMARK  status: ('A' for Active; 'I' for Inactive)
REMARK    1  A    between atoms: C1_2  and  C2_3 
REMARK    2  A    between atoms: C4_6  and  C5_7 
REMARK    3  A    between atoms: C6_8  and  C7_9 
REMARK    4  A    between atoms: C7_9  and  O3_10 
REMARK    5  A    between atoms: C8_12  and  O4_13 
REMARK    6  A    between atoms: C9_15  and  O5_16 
REMARK    7  A    between atoms: C10_18  and  O6_19 
ROOT
HETATM    1  C2  UNL     1      10.343  95.967  10.054  1.00  0.00     0.169 A 
HETATM    2  O2  UNL     1      11.199  96.553  11.103  1.00  0.00    -0.358 OA
HETATM    3  C3  UNL     1       9.749  96.871  10.872  1.00  0.00     0.177 A 
HETATM    4  C4  UNL     1       9.631  98.307  10.536  1.00  0.00     0.072 C 
HETATM    5  C8  UNL     1       9.888  98.562   9.057  1.00  0.00     0.159 C 
HETATM    6  C9  UNL     1      11.158  97.858   8.666  1.00  0.00     0.179 C 
HETATM    7  C10 UNL     1      10.860  96.367   8.701  1.00  0.00     0.193 C 
ENDROOT
BRANCH   4   8
HETATM    8  C5  UNL     1       8.346  98.943  10.905  1.00  0.00    -0.019 C 
HETATM    9  C6  UNL     1       7.477  98.367  11.702  1.00  0.00    -0.005 C 
BRANCH   9  10
HETATM   10  C7  UNL     1       6.175  99.064  12.047  1.00  0.00     0.191 C 
BRANCH  10  11
HETATM   11  O3  UNL     1       6.109  99.038  13.446  1.00  0.00    -0.397 OA
ATOM     12  H3  UNL     1       5.853  98.149  13.664  1.00  0.00     0.209 HD
ENDBRANCH  10  11
ENDBRANCH   9  10
ENDBRANCH   4   8
BRANCH   5  13
HETATM   13  O4  UNL     1       8.781  98.112   8.371  1.00  0.00    -0.392 OA
ATOM     14  H4  UNL     1       8.321  98.879   8.049  1.00  0.00     0.210 HD
ENDBRANCH   5  13
BRANCH   1  15
HETATM   15  C1  UNL     1      10.225  94.515  10.240  1.00  0.00     0.274 C 
HETATM   16  O1  UNL     1       9.216  93.935   9.913  1.00  0.00    -0.303 OA
ENDBRANCH   1  15
BRANCH   6  17
HETATM   17  O5  UNL     1      11.589  98.224   7.400  1.00  0.00    -0.390 OA
ATOM     18  H5  UNL     1      12.409  98.704   7.427  1.00  0.00     0.210 HD
ENDBRANCH   6  17
BRANCH   7  19
HETATM   19  O6  UNL     1       9.897  96.102   7.755  1.00  0.00    -0.389 OA
ATOM     20  H6  UNL     1       9.102  95.819   8.193  1.00  0.00     0.210 HD
ENDBRANCH   7  19
TORSDOF 7
ENDMDL
MODEL 4
REMARK VINA RESULT: -5.477511083      1.436      3.097
REMARK  7 active torsions:
REMARK  status: ('A' for Active; 'I' for Inactive)
REMARK    1  A    between atoms: C1_2  and  C2_3 
REMARK    2  A    between atoms: C4_6  and  C5_7 
REMARK    3  A    between atoms: C6_8  and  C7_9 
REMARK    4  A    between atoms: C7_9  and  O3_10 
REMARK    5  A    between atoms: C8_12  and  O4_13 
REMARK    6  A    between atoms: C9_15  and  O5_16 
REMARK    7  A    between atoms: C10_18  and  O6_19 
ROOT
HETATM    1  C2  UNL     1      10.862  97.176  10.594  1.00  0.00     0.169 A 
HETATM    2  O2  UNL     1      11.690  98.102  11.392  1.00  0.00    -0.358 OA
HETATM    3  C3  UNL     1      10.547  97.276  11.909  1.00  0.00     0.177 A 
HETATM    4  C4  UNL     1       9.502  98.191  12.421  1.00  0.00     0.072 C 
HETATM    5  C8  UNL     1       8.593  98.688  11.304  1.00  0.00     0.159 C 
HETATM    6  C9  UNL     1       9.454  99.178  10.172  1.00  0.00     0.179 C 
HETATM    7  C10 UNL     1      10.103  97.949   9.553  1.00  0.00     0.193 C 
ENDROOT
BRANCH   4   8
HETATM    8  C5  UNL     1       8.655  97.645  13.506  1.00  0.00    -0.019 C 
HETATM    9  C6  UNL     1       8.386  98.321  14.598  1.00  0.00    -0.005 C 
BRANCH   9  10
HETATM   10  C7  UNL     1       7.512  97.715  15.679  1.00  0.00     0.191 C 
BRANCH  10  11
HETATM   11  O3  UNL     1       7.616  98.592  16.766  1.00  0.00    -0.397 OA
ATOM     12  H3  UNL     1       7.194  99.393  16.477  1.00  0.00     0.209 HD
ENDBRANCH  10  11
ENDBRANCH   9  10
ENDBRANCH   4   8
BRANCH   5  13
HETATM   13  O4  UNL     1       7.775  97.637  10.951  1.00  0.00    -0.392 OA
ATOM     14  H4  UNL     1       7.560  97.746  10.032  1.00  0.00     0.210 HD
ENDBRANCH   5  13
BRANCH   1  15
HETATM   15  C1  UNL     1      11.688  96.092  10.047  1.00  0.00     0.274 C 
HETATM   16  O1  UNL     1      12.192  96.198   8.954  1.00  0.00    -0.303 OA
ENDBRANCH   1  15
BRANCH   6  17
HETATM   17  O5  UNL     1       8.718  99.857   9.214  1.00  0.00    -0.390 OA
ATOM     18  H5  UNL     1       7.812  99.972   9.475  1.00  0.00     0.210 HD
ENDBRANCH   6  17
BRANCH   7  19
HETATM   19  O6  UNL     1       9.107  97.152   9.040  1.00  0.00    -0.389 OA
ATOM     20  H6  UNL     1       8.648  97.630   8.359  1.00  0.00     0.210 HD
ENDBRANCH   7  19
TORSDOF 7
ENDMDL
MODEL 5
REMARK VINA RESULT: -5.158822218      1.925      2.668
REMARK  7 active torsions:
REMARK  status: ('A' for Active; 'I' for Inactive)
REMARK    1  A    between atoms: C1_2  and  C2_3 
REMARK    2  A    between atoms: C4_6  and  C5_7 
REMARK    3  A    between atoms: C6_8  and  C7_9 
REMARK    4  A    between atoms: C7_9  and  O3_10 
REMARK    5  A    between atoms: C8_12  and  O4_13 
REMARK    6  A    between atoms: C9_15  and  O5_16 
REMARK    7  A    between atoms: C10_18  and  O6_19 
ROOT
HETATM    1  C2  UNL     1      10.337  97.434   8.715  1.00  0.00     0.169 A 
HETATM    2  O2  UNL     1       8.910  97.647   8.405  1.00  0.00    -0.358 OA
HETATM    3  C3  UNL     1       9.617  98.100   9.651  1.00  0.00     0.177 A 
HETATM    4  C4  UNL     1       8.992  97.432  10.814  1.00  0.00     0.072 C 
HETATM    5  C8  UNL     1       9.564  96.038  11.037  1.00  0.00     0.159 C 
HETATM    6  C9  UNL     1       9.554  95.304   9.724  1.00  0.00     0.179 C 
HETATM    7  C10 UNL     1      10.609  95.962   8.848  1.00  0.00     0.193 C 
ENDROOT
BRANCH   4   8
HETATM    8  C5  UNL     1       9.065  98.178  12.091  1.00  0.00    -0.019 C 
HETATM    9  C6  UNL     1       8.278  97.915  13.108  1.00  0.00    -0.005 C 
BRANCH   9  10
HETATM   10  C7  UNL     1       8.396  98.710  14.394  1.00  0.00     0.191 C 
BRANCH  10  11
HETATM   11  O3  UNL     1       7.102  99.181  14.649  1.00  0.00    -0.397 OA
ATOM     12  H3  UNL     1       6.565  98.810  13.959  1.00  0.00     0.209 HD
ENDBRANCH  10  11
ENDBRANCH   9  10
ENDBRANCH   4   8
BRANCH   5  13
HETATM   13  O4  UNL     1      10.828  96.199  11.563  1.00  0.00    -0.392 OA
ATOM     14  H4  UNL     1      10.770  96.004  12.491  1.00  0.00     0.210 HD
ENDBRANCH   5  13
BRANCH   1  15
HETATM   15  C1  UNL     1      11.184  98.109   7.722  1.00  0.00     0.274 C 
HETATM   16  O1  UNL     1      11.858  97.465   6.954  1.00  0.00    -0.303 OA
ENDBRANCH   1  15
BRANCH   6  17
HETATM   17  O5  UNL     1       9.841  93.957   9.878  1.00  0.00    -0.390 OA
ATOM     18  H5  UNL     1       9.056  93.422   9.879  1.00  0.00     0.210 HD
ENDBRANCH   6  17
BRANCH   7  19
HETATM   19  O6  UNL     1      11.834  95.784   9.446  1.00  0.00    -0.389 OA
ATOM     20  H6  UNL     1      11.707  95.639  10.376  1.00  0.00     0.210 HD
ENDBRANCH   7  19
TORSDOF 7
ENDMDL
