MODEL 1
REMARK VINA RESULT: -5.722387751      0.000      0.000
REMARK  5 active torsions:
REMARK  status: ('A' for Active; 'I' for Inactive)
REMARK    1  A    between atoms: O1_1  and  C1_3 
REMARK    2  A    between atoms: C3_6  and  N1_7 
REMARK    3  A    between atoms: N1_7  and  C4_9 
REMARK    4  A    between atoms: C8_15  and  O5_16 
REMARK    5  A    between atoms: C9_18  and  O6_19 
ROOT
HETATM    1  C1  UNL     1      11.093  97.047   8.033  1.00  0.00     0.288 C 
HETATM    2  O2  UNL     1       9.889  97.733   7.935  1.00  0.00    -0.357 OA
HETATM    3  C2  UNL     1       9.587  98.305   9.134  1.00  0.00     0.198 C 
HETATM    4  C3  UNL     1       9.304  97.273  10.181  1.00  0.00     0.134 C 
HETATM    5  C8  UNL     1      10.123  96.036  10.126  1.00  0.00     0.176 C 
HETATM    6  C9  UNL     1      10.978  95.834   8.919  1.00  0.00     0.203 C 
ENDROOT
BRANCH   4   7
HETATM    7  N1  UNL     1       9.408  97.924  11.455  1.00  0.00    -0.386 N 
ATOM      8  H1  UNL     1       9.998  98.745  11.594  1.00  0.00     0.156 HD
BRANCH   7   9
HETATM    9  C4  UNL     1       8.641  97.361  12.514  1.00  0.00     0.240 C 
HETATM   10  C5  UNL     1       9.321  97.295  13.843  1.00  0.00     0.221 C 
HETATM   11  O3  UNL     1       9.473  98.620  14.297  1.00  0.00    -0.385 OA
HETATM   12  C6  UNL     1       8.256  99.020  14.795  1.00  0.00     0.194 C 
HETATM   13  C7  UNL     1       7.164  98.373  13.973  1.00  0.00     0.196 C 
HETATM   14  O4  UNL     1       7.494  98.130  12.665  1.00  0.00    -0.363 OA
ENDBRANCH   7   9
ENDBRANCH   4   7
BRANCH   5  15
HETATM   15  O5  UNL     1       9.256  94.914  10.172  1.00  0.00    -0.391 OA
ATOM     16  H5  UNL     1       9.449  94.350   9.432  1.00  0.00     0.210 HD
ENDBRANCH   5  15
BRANCH   6  17
HETATM   17  O6  UNL     1      12.264  95.511   9.348  1.00  0.00    -0.388 OA
ATOM     18  H6  UNL     1      12.205  94.692   9.825  1.00  0.00     0.210 HD
ENDBRANCH   6  17
BRANCH   1  19
HETATM   19  O1  UNL     1      12.064  97.915   8.516  1.00  0.00    -0.369 OA
ATOM     20  H1  UNL     1      12.503  97.503   9.252  1.00  0.00     0.212 HD
ENDBRANCH   1  19
TORSDOF 5
ENDMDL
MODEL 2
REMARK VINA RESULT: -5.589004309      9.062     10.872
REMARK  5 active torsions:
REMARK  status: ('A' for Active; 'I' for Inactive)
REMARK    1  A    between atoms: O1_1  and  C1_3 
REMARK    2  A    between atoms: C3_6  and  N1_7 
REMARK    3  A    between atoms: N1_7  and  C4_9 
REMARK    4  A    between atoms: C8_15  and  O5_16 
REMARK    5  A    between atoms: C9_18  and  O6_19 
ROOT
HETATM    1  C1  UNL     1       3.041 102.602  15.731  1.00  0.00     0.288 C 
HETATM    2  O2  UNL     1       3.812 102.329  14.607  1.00  0.00    -0.357 OA
HETATM    3  C2  UNL     1       3.149 102.736  13.487  1.00  0.00     0.198 C 
HETATM    4  C3  UNL     1       1.912 101.926  13.254  1.00  0.00     0.134 C 
HETATM    5  C8  UNL     1       1.156 101.515  14.463  1.00  0.00     0.176 C 
HETATM    6  C9  UNL     1       1.806 101.741  15.788  1.00  0.00     0.203 C 
ENDROOT
BRANCH   4   7
HETATM    7  N1  UNL     1       1.091 102.665  12.338  1.00  0.00    -0.386 N 
ATOM      8  H1  UNL     1       0.668 103.558  12.593  1.00  0.00     0.156 HD
BRANCH   7   9
HETATM    9  C4  UNL     1       0.900 102.081  11.054  1.00  0.00     0.240 C 
HETATM   10  C5  UNL     1      -0.020 102.820  10.137  1.00  0.00     0.221 C 
HETATM   11  O3  UNL     1       0.621 104.025   9.791  1.00  0.00    -0.385 OA
HETATM   12  C6  UNL     1       1.552 103.727   8.825  1.00  0.00     0.194 C 
HETATM   13  C7  UNL     1       2.114 102.352   9.109  1.00  0.00     0.196 C 
HETATM   14  O4  UNL     1       2.140 102.001  10.433  1.00  0.00    -0.363 OA
ENDBRANCH   7   9
ENDBRANCH   4   7
BRANCH   5  15
HETATM   15  O5  UNL     1       0.909 100.120  14.393  1.00  0.00    -0.391 OA
ATOM     16  H5  UNL     1       1.623  99.663  14.822  1.00  0.00     0.210 HD
ENDBRANCH   5  15
BRANCH   6  17
HETATM   17  O6  UNL     1       0.890 102.386  16.617  1.00  0.00    -0.388 OA
ATOM     18  H6  UNL     1       0.160 102.658  16.072  1.00  0.00     0.210 HD
ENDBRANCH   6  17
BRANCH   1  19
HETATM   19  O1  UNL     1       2.699 103.948  15.723  1.00  0.00    -0.369 OA
ATOM     20  H1  UNL     1       2.852 104.307  16.590  1.00  0.00     0.212 HD
ENDBRANCH   1  19
TORSDOF 5
ENDMDL
MODEL 3
REMARK VINA RESULT: -5.487663471      1.491      5.321
REMARK  5 active torsions:
REMARK  status: ('A' for Active; 'I' for Inactive)
REMARK    1  A    between atoms: O1_1  and  C1_3 
REMARK    2  A    between atoms: C3_6  and  N1_7 
REMARK    3  A    between atoms: N1_7  and  C4_9 
REMARK    4  A    between atoms: C8_15  and  O5_16 
REMARK    5  A    between atoms: C9_18  and  O6_19 
ROOT
HETATM    1  C1  UNL     1       7.952  99.031  13.078  1.00  0.00     0.288 C 
HETATM    2  O2  UNL     1       8.306  99.535  11.832  1.00  0.00    -0.357 OA
HETATM    3  C2  UNL     1       8.342  98.523  10.920  1.00  0.00     0.198 C 
HETATM    4  C3  UNL     1       9.443  97.553  11.217  1.00  0.00     0.134 C 
HETATM    5  C8  UNL     1       9.711  97.279  12.651  1.00  0.00     0.176 C 
HETATM    6  C9  UNL     1       9.030  98.151  13.654  1.00  0.00     0.203 C 
ENDROOT
BRANCH   4   7
HETATM    7  N1  UNL     1       9.153  96.351  10.490  1.00  0.00    -0.386 N 
ATOM      8  H1  UNL     1       8.251  95.880  10.565  1.00  0.00     0.156 HD
BRANCH   7   9
HETATM    9  C4  UNL     1      10.196  95.852   9.658  1.00  0.00     0.240 C 
HETATM   10  C5  UNL     1       9.882  95.782   8.199  1.00  0.00     0.221 C 
HETATM   11  O3  UNL     1       9.778  97.108   7.734  1.00  0.00    -0.385 OA
HETATM   12  C6  UNL     1      11.058  97.581   7.567  1.00  0.00     0.194 C 
HETATM   13  C7  UNL     1      11.938  96.973   8.636  1.00  0.00     0.196 C 
HETATM   14  O4  UNL     1      11.299  96.683   9.813  1.00  0.00    -0.363 OA
ENDBRANCH   7   9
ENDBRANCH   4   7
BRANCH   5  15
HETATM   15  O5  UNL     1      11.100  97.433  12.893  1.00  0.00    -0.391 OA
ATOM     16  H5  UNL     1      11.216  97.953  13.679  1.00  0.00     0.210 HD
ENDBRANCH   5  15
BRANCH   6  17
HETATM   17  O6  UNL     1       8.428  97.329  14.606  1.00  0.00    -0.388 OA
ATOM     18  H6  UNL     1       9.085  97.132  15.263  1.00  0.00     0.210 HD
ENDBRANCH   6  17
BRANCH   1  19
HETATM   19  O1  UNL     1       6.761  98.327  12.952  1.00  0.00    -0.369 OA
ATOM     20  H1  UNL     1       6.308  98.341  13.788  1.00  0.00     0.212 HD
ENDBRANCH   1  19
TORSDOF 5
ENDMDL
MODEL 4
REMARK VINA RESULT: -5.456195498      9.519     11.238
REMARK  5 active torsions:
REMARK  status: ('A' for Active; 'I' for Inactive)
REMARK    1  A    between atoms: O1_1  and  C1_3 
REMARK    2  A    between atoms: C3_6  and  N1_7 
REMARK    3  A    between atoms: N1_7  and  C4_9 
REMARK    4  A    between atoms: C8_15  and  O5_16 
REMARK    5  A    between atoms: C9_18  and  O6_19 
ROOT
HETATM    1  C1  UNL     1       1.414 102.781  16.127  1.00  0.00     0.288 C 
HETATM    2  O2  UNL     1       0.262 103.189  15.466  1.00  0.00    -0.357 OA
HETATM    3  C2  UNL     1       0.129 102.493  14.302  1.00  0.00     0.198 C 
HETATM    4  C3  UNL     1       1.216 102.834  13.329  1.00  0.00     0.134 C 
HETATM    5  C8  UNL     1       2.562 103.082  13.905  1.00  0.00     0.176 C 
HETATM    6  C9  UNL     1       2.661 103.195  15.391  1.00  0.00     0.203 C 
ENDROOT
BRANCH   4   7
HETATM    7  N1  UNL     1       1.242 101.792  12.344  1.00  0.00    -0.386 N 
ATOM      8  H1  UNL     1       0.886 100.856  12.539  1.00  0.00     0.156 HD
BRANCH   7   9
HETATM    9  C4  UNL     1       1.793 102.138  11.077  1.00  0.00     0.240 C 
HETATM   10  C5  UNL     1       1.404 101.253   9.938  1.00  0.00     0.221 C 
HETATM   11  O3  UNL     1       0.032 101.462   9.700  1.00  0.00    -0.385 OA
HETATM   12  C6  UNL     1      -0.083 102.636   8.995  1.00  0.00     0.194 C 
HETATM   13  C7  UNL     1       0.998 103.585   9.463  1.00  0.00     0.196 C 
HETATM   14  O4  UNL     1       1.377 103.428  10.770  1.00  0.00    -0.363 OA
ENDBRANCH   7   9
ENDBRANCH   4   7
BRANCH   5  15
HETATM   15  O5  UNL     1       3.056 104.309  13.395  1.00  0.00    -0.391 OA
ATOM     16  H5  UNL     1       2.956 104.978  14.062  1.00  0.00     0.210 HD
ENDBRANCH   5  15
BRANCH   6  17
HETATM   17  O6  UNL     1       3.692 102.362  15.821  1.00  0.00    -0.388 OA
ATOM     18  H6  UNL     1       3.852 102.562  16.737  1.00  0.00     0.210 HD
ENDBRANCH   6  17
BRANCH   1  19
HETATM   19  O1  UNL     1       1.375 101.402  16.283  1.00  0.00    -0.369 OA
ATOM     20  H1  UNL     1       0.476 101.138  16.449  1.00  0.00     0.212 HD
ENDBRANCH   1  19
TORSDOF 5
ENDMDL
MODEL 5
REMARK VINA RESULT: -5.450728000      7.319      9.396
REMARK  5 active torsions:
REMARK  status: ('A' for Active; 'I' for Inactive)
REMARK    1  A    between atoms: O1_1  and  C1_3 
REMARK    2  A    between atoms: C3_6  and  N1_7 
REMARK    3  A    between atoms: N1_7  and  C4_9 
REMARK    4  A    between atoms: C8_15  and  O5_16 
REMARK    5  A    between atoms: C9_18  and  O6_19 
ROOT
HETATM    1  C1  UNL     1       2.984 100.675  12.215  1.00  0.00     0.288 C 
HETATM    2  O2  UNL     1       2.110 101.132  11.236  1.00  0.00    -0.357 OA
HETATM    3  C2  UNL     1       2.764 101.986  10.398  1.00  0.00     0.198 C 
HETATM    4  C3  UNL     1       3.172 103.243  11.101  1.00  0.00     0.134 C 
HETATM    5  C8  UNL     1       3.609 103.097  12.513  1.00  0.00     0.176 C 
HETATM    6  C9  UNL     1       3.387 101.772  13.165  1.00  0.00     0.203 C 
ENDROOT
BRANCH   4   7
HETATM    7  N1  UNL     1       4.179 103.870  10.295  1.00  0.00    -0.386 N 
ATOM      8  H1  UNL     1       4.777 104.612  10.659  1.00  0.00     0.156 HD
BRANCH   7   9
HETATM    9  C4  UNL     1       4.297 103.397   8.957  1.00  0.00     0.240 C 
HETATM   10  C5  UNL     1       3.899 104.365   7.891  1.00  0.00     0.221 C 
HETATM   11  O3  UNL     1       4.853 105.401   7.894  1.00  0.00    -0.385 OA
HETATM   12  C6  UNL     1       5.963 104.932   7.233  1.00  0.00     0.194 C 
HETATM   13  C7  UNL     1       6.105 103.454   7.521  1.00  0.00     0.196 C 
HETATM   14  O4  UNL     1       5.627 103.056   8.741  1.00  0.00    -0.363 OA
ENDBRANCH   7   9
ENDBRANCH   4   7
BRANCH   5  15
HETATM   15  O5  UNL     1       2.903 104.036  13.307  1.00  0.00    -0.391 OA
ATOM     16  H5  UNL     1       2.227 104.438  12.775  1.00  0.00     0.210 HD
ENDBRANCH   5  15
BRANCH   6  17
HETATM   17  O6  UNL     1       4.581 101.380  13.768  1.00  0.00    -0.388 OA
ATOM     18  H6  UNL     1       5.207 102.082  13.636  1.00  0.00     0.210 HD
ENDBRANCH   6  17
BRANCH   1  19
HETATM   19  O1  UNL     1       4.102 100.129  11.596  1.00  0.00    -0.369 OA
ATOM     20  H1  UNL     1       3.937  99.209  11.424  1.00  0.00     0.212 HD
ENDBRANCH   1  19
TORSDOF 5
ENDMDL
