MODEL 1
REMARK VINA RESULT: -7.110220198      0.000      0.000
REMARK  6 active torsions:
REMARK  status: ('A' for Active; 'I' for Inactive)
REMARK    1  A    between atoms: O1_1  and  C1_3 
REMARK    2  A    between atoms: C1_3  and  C2_4 
REMARK    3  A    between atoms: C3_6  and  O3_7 
REMARK    4  A    between atoms: C4_9  and  N1_10 
REMARK    5  A    between atoms: C8_14  and  O4_15 
REMARK    6  A    between atoms: C9_17  and  O5_18 
ROOT
HETATM    1  C2  UNL     1      10.527  97.843   9.133  1.00  0.00     0.289 C 
HETATM    2  O2  UNL     1      10.532  96.432   9.239  1.00  0.00    -0.325 OA
HETATM    3  C3  UNL     1      10.130  96.325  10.588  1.00  0.00     0.319 C 
HETATM    4  C4  UNL     1       8.996  97.281  10.651  1.00  0.00     0.420 C 
HETATM    5  O6  UNL     1       9.349  98.260   9.702  1.00  0.00    -0.320 OA
ENDROOT
BRANCH   4   6
HETATM    6  N1  UNL     1       8.853  97.955  11.920  1.00  0.00     0.153 N 
HETATM    7  C5  UNL     1       9.401  97.115  12.959  1.00  0.00     0.279 C 
HETATM    8  C6  UNL     1       9.304  97.741  14.325  1.00  0.00     0.033 C 
HETATM    9  C7  UNL     1       8.116  98.642  14.478  1.00  0.00     0.038 C 
HETATM   10  C8  UNL     1       7.023  98.418  13.499  1.00  0.00     0.177 C 
HETATM   11  C9  UNL     1       7.446  98.203  12.085  1.00  0.00     0.389 C 
BRANCH  10  12
HETATM   12  O4  UNL     1       6.108  99.471  13.626  1.00  0.00    -0.391 OA
ATOM     13  H4  UNL     1       5.527  99.445  12.876  1.00  0.00     0.210 HD
ENDBRANCH  10  12
BRANCH  11  14
HETATM   14  O5  UNL     1       7.098  99.334  11.346  1.00  0.00    -0.366 OA
ATOM     15  H5  UNL     1       6.169  99.500  11.458  1.00  0.00     0.212 HD
ENDBRANCH  11  14
ENDBRANCH   4   6
BRANCH   3  16
HETATM   16  O3  UNL     1       9.780  95.000  10.795  1.00  0.00    -0.367 OA
ATOM     17  H3  UNL     1       8.872  94.999  11.077  1.00  0.00     0.212 HD
ENDBRANCH   3  16
BRANCH   1  18
HETATM   18  C1  UNL     1      10.705  98.238   7.703  1.00  0.00     0.225 C 
BRANCH  18  19
HETATM   19  O1  UNL     1      11.871  97.644   7.206  1.00  0.00    -0.396 OA
ATOM     20  H1  UNL     1      11.935  97.818   6.274  1.00  0.00     0.209 HD
ENDBRANCH  18  19
ENDBRANCH   1  18
TORSDOF 6
ENDMDL
MODEL 2
REMARK VINA RESULT: -6.945390513      1.326      2.424
REMARK  6 active torsions:
REMARK  status: ('A' for Active; 'I' for Inactive)
REMARK    1  A    between atoms: O1_1  and  C1_3 
REMARK    2  A    between atoms: C1_3  and  C2_4 
REMARK    3  A    between atoms: C3_6  and  O3_7 
REMARK    4  A    between atoms: C4_9  and  N1_10 
REMARK    5  A    between atoms: C8_14  and  O4_15 
REMARK    6  A    between atoms: C9_17  and  O5_18 
ROOT
HETATM    1  C2  UNL     1       9.485  95.906  10.142  1.00  0.00     0.289 C 
HETATM    2  O2  UNL     1       9.969  96.892   9.250  1.00  0.00    -0.325 OA
HETATM    3  C3  UNL     1       9.598  98.037   9.987  1.00  0.00     0.319 C 
HETATM    4  C4  UNL     1      10.053  97.686  11.356  1.00  0.00     0.420 C 
HETATM    5  O6  UNL     1       9.913  96.285  11.391  1.00  0.00    -0.320 OA
ENDROOT
BRANCH   4   6
HETATM    6  N1  UNL     1       9.229  98.219  12.415  1.00  0.00     0.153 N 
HETATM    7  C5  UNL     1       9.225  97.287  13.518  1.00  0.00     0.279 C 
HETATM    8  C6  UNL     1       8.394  97.763  14.680  1.00  0.00     0.033 C 
HETATM    9  C7  UNL     1       7.234  98.616  14.265  1.00  0.00     0.038 C 
HETATM   10  C8  UNL     1       6.819  98.472  12.846  1.00  0.00     0.177 C 
HETATM   11  C9  UNL     1       7.923  98.417  11.845  1.00  0.00     0.389 C 
BRANCH  10  12
HETATM   12  O4  UNL     1       5.894  99.485  12.563  1.00  0.00    -0.391 OA
ATOM     13  H4  UNL     1       6.275 100.051  11.903  1.00  0.00     0.210 HD
ENDBRANCH  10  12
BRANCH  11  14
HETATM   14  O5  UNL     1       7.922  99.611  11.124  1.00  0.00    -0.366 OA
ATOM     15  H5  UNL     1       8.217  99.435  10.239  1.00  0.00     0.212 HD
ENDBRANCH  11  14
ENDBRANCH   4   6
BRANCH   3  16
HETATM   16  O3  UNL     1      10.262  99.111   9.416  1.00  0.00    -0.367 OA
ATOM     17  H3  UNL     1      10.609  98.807   8.585  1.00  0.00     0.212 HD
ENDBRANCH   3  16
BRANCH   1  18
HETATM   18  C1  UNL     1       9.958  94.559   9.702  1.00  0.00     0.225 C 
BRANCH  18  19
HETATM   19  O1  UNL     1       9.003  93.599  10.057  1.00  0.00    -0.396 OA
ATOM     20  H1  UNL     1       8.229  93.717   9.520  1.00  0.00     0.209 HD
ENDBRANCH  18  19
ENDBRANCH   1  18
TORSDOF 6
ENDMDL
MODEL 3
REMARK VINA RESULT: -6.877822784      1.731      2.666
REMARK  6 active torsions:
REMARK  status: ('A' for Active; 'I' for Inactive)
REMARK    1  A    between atoms: O1_1  and  C1_3 
REMARK    2  A    between atoms: C1_3  and  C2_4 
REMARK    3  A    between atoms: C3_6  and  O3_7 
REMARK    4  A    between atoms: C4_9  and  N1_10 
REMARK    5  A    between atoms: C8_14  and  O4_15 
REMARK    6  A    between atoms: C9_17  and  O5_18 
ROOT
HETATM    1  C2  UNL     1      10.769  96.607   9.539  1.00  0.00     0.289 C 
HETATM    2  O2  UNL     1      10.736  97.822   8.815  1.00  0.00    -0.325 OA
HETATM    3  C3  UNL     1       9.643  98.426   9.474  1.00  0.00     0.319 C 
HETATM    4  C4  UNL     1       9.965  98.175  10.902  1.00  0.00     0.420 C 
HETATM    5  O6  UNL     1      10.665  96.953  10.863  1.00  0.00    -0.320 OA
ENDROOT
BRANCH   4   6
HETATM    6  N1  UNL     1       8.812  97.975  11.748  1.00  0.00     0.153 N 
HETATM    7  C5  UNL     1       7.821  98.976  11.429  1.00  0.00     0.279 C 
HETATM    8  C6  UNL     1       6.571  98.842  12.260  1.00  0.00     0.033 C 
HETATM    9  C7  UNL     1       6.829  98.284  13.626  1.00  0.00     0.038 C 
HETATM   10  C8  UNL     1       8.231  98.397  14.102  1.00  0.00     0.177 C 
HETATM   11  C9  UNL     1       9.288  98.070  13.102  1.00  0.00     0.389 C 
BRANCH  10  12
HETATM   12  O4  UNL     1       8.352  97.636  15.271  1.00  0.00    -0.391 OA
ATOM     13  H4  UNL     1       8.840  98.149  15.904  1.00  0.00     0.210 HD
ENDBRANCH  10  12
BRANCH  11  14
HETATM   14  O5  UNL     1       9.871  96.855  13.461  1.00  0.00    -0.366 OA
ATOM     15  H5  UNL     1      10.785  96.864  13.200  1.00  0.00     0.212 HD
ENDBRANCH  11  14
ENDBRANCH   4   6
BRANCH   3  16
HETATM   16  O3  UNL     1       9.646  99.762   9.108  1.00  0.00    -0.367 OA
ATOM     17  H3  UNL     1      10.325  99.865   8.452  1.00  0.00     0.212 HD
ENDBRANCH   3  16
BRANCH   1  18
HETATM   18  C1  UNL     1      12.007  95.849   9.187  1.00  0.00     0.225 C 
BRANCH  18  19
HETATM   19  O1  UNL     1      12.493  96.312   7.958  1.00  0.00    -0.396 OA
ATOM     20  H1  UNL     1      13.443  96.314   7.980  1.00  0.00     0.209 HD
ENDBRANCH  18  19
ENDBRANCH   1  18
TORSDOF 6
ENDMDL
MODEL 4
REMARK VINA RESULT: -6.559800741      1.396      2.021
REMARK  6 active torsions:
REMARK  status: ('A' for Active; 'I' for Inactive)
REMARK    1  A    between atoms: O1_1  and  C1_3 
REMARK    2  A    between atoms: C1_3  and  C2_4 
REMARK    3  A    between atoms: C3_6  and  O3_7 
REMARK    4  A    between atoms: C4_9  and  N1_10 
REMARK    5  A    between atoms: C8_14  and  O4_15 
REMARK    6  A    between atoms: C9_17  and  O5_18 
ROOT
HETATM    1  C2  UNL     1      10.967  96.472   9.588  1.00  0.00     0.289 C 
HETATM    2  O2  UNL     1      10.554  97.300   8.517  1.00  0.00    -0.325 OA
HETATM    3  C3  UNL     1       9.623  98.095   9.219  1.00  0.00     0.319 C 
HETATM    4  C4  UNL     1      10.374  98.438  10.453  1.00  0.00     0.420 C 
HETATM    5  O6  UNL     1      11.201  97.314  10.647  1.00  0.00    -0.320 OA
ENDROOT
BRANCH   4   6
HETATM    6  N1  UNL     1       9.555  98.569  11.635  1.00  0.00     0.153 N 
HETATM    7  C5  UNL     1       9.731  97.395  12.457  1.00  0.00     0.279 C 
HETATM    8  C6  UNL     1       8.918  97.445  13.724  1.00  0.00     0.033 C 
HETATM    9  C7  UNL     1       7.639  98.212  13.574  1.00  0.00     0.038 C 
HETATM   10  C8  UNL     1       7.162  98.378  12.178  1.00  0.00     0.177 C 
HETATM   11  C9  UNL     1       8.203  98.728  11.169  1.00  0.00     0.389 C 
BRANCH  10  12
HETATM   12  O4  UNL     1       6.105  99.297  12.191  1.00  0.00    -0.391 OA
ATOM     13  H4  UNL     1       5.299  98.816  12.044  1.00  0.00     0.210 HD
ENDBRANCH  10  12
BRANCH  11  14
HETATM   14  O5  UNL     1       8.013 100.055  10.783  1.00  0.00    -0.366 OA
ATOM     15  H5  UNL     1       7.256 100.402  11.242  1.00  0.00     0.212 HD
ENDBRANCH  11  14
ENDBRANCH   4   6
BRANCH   3  16
HETATM   16  O3  UNL     1       9.328  99.177   8.404  1.00  0.00    -0.367 OA
ATOM     17  H3  UNL     1      10.100  99.731   8.395  1.00  0.00     0.212 HD
ENDBRANCH   3  16
BRANCH   1  18
HETATM   18  C1  UNL     1      12.148  95.660   9.164  1.00  0.00     0.225 C 
BRANCH  18  19
HETATM   19  O1  UNL     1      12.596  96.119   7.920  1.00  0.00    -0.396 OA
ATOM     20  H1  UNL     1      13.475  95.791   7.765  1.00  0.00     0.209 HD
ENDBRANCH  18  19
ENDBRANCH   1  18
TORSDOF 6
ENDMDL
MODEL 5
REMARK VINA RESULT: -6.496892711      1.796      5.466
REMARK  6 active torsions:
REMARK  status: ('A' for Active; 'I' for Inactive)
REMARK    1  A    between atoms: O1_1  and  C1_3 
REMARK    2  A    between atoms: C1_3  and  C2_4 
REMARK    3  A    between atoms: C3_6  and  O3_7 
REMARK    4  A    between atoms: C4_9  and  N1_10 
REMARK    5  A    between atoms: C8_14  and  O4_15 
REMARK    6  A    between atoms: C9_17  and  O5_18 
ROOT
HETATM    1  C2  UNL     1       8.524  98.479  13.930  1.00  0.00     0.289 C 
HETATM    2  O2  UNL     1       7.169  98.626  13.548  1.00  0.00    -0.325 OA
HETATM    3  C3  UNL     1       7.362  98.784  12.158  1.00  0.00     0.319 C 
HETATM    4  C4  UNL     1       8.326  97.696  11.853  1.00  0.00     0.420 C 
HETATM    5  O6  UNL     1       9.071  97.585  13.043  1.00  0.00    -0.320 OA
ENDROOT
BRANCH   4   6
HETATM    6  N1  UNL     1       9.261  98.005  10.797  1.00  0.00     0.153 N 
HETATM    7  C5  UNL     1       8.784  99.162  10.076  1.00  0.00     0.279 C 
HETATM    8  C6  UNL     1       9.704  99.568   8.954  1.00  0.00     0.033 C 
HETATM    9  C7  UNL     1      10.438  98.411   8.346  1.00  0.00     0.038 C 
HETATM   10  C8  UNL     1       9.831  97.078   8.590  1.00  0.00     0.177 C 
HETATM   11  C9  UNL     1       9.341  96.827   9.976  1.00  0.00     0.389 C 
BRANCH  10  12
HETATM   12  O4  UNL     1      10.744  96.105   8.164  1.00  0.00    -0.391 OA
ATOM     13  H4  UNL     1      10.258  95.429   7.707  1.00  0.00     0.210 HD
ENDBRANCH  10  12
BRANCH  11  14
HETATM   14  O5  UNL     1      10.198  95.911  10.585  1.00  0.00    -0.366 OA
ATOM     15  H5  UNL     1      10.832  96.386  11.109  1.00  0.00     0.212 HD
ENDBRANCH  11  14
ENDBRANCH   4   6
BRANCH   3  16
HETATM   16  O3  UNL     1       6.119  98.637  11.564  1.00  0.00    -0.367 OA
ATOM     17  H3  UNL     1       6.161  99.088  10.728  1.00  0.00     0.212 HD
ENDBRANCH   3  16
BRANCH   1  18
HETATM   18  C1  UNL     1       8.596  98.062  15.362  1.00  0.00     0.225 C 
BRANCH  18  19
HETATM   19  O1  UNL     1       9.929  98.112  15.787  1.00  0.00    -0.396 OA
ATOM     20  H1  UNL     1      10.262  97.226  15.871  1.00  0.00     0.209 HD
ENDBRANCH  18  19
ENDBRANCH   1  18
TORSDOF 6
ENDMDL
