MODEL 1
REMARK VINA RESULT: -7.094060173      0.000      0.000
REMARK  7 active torsions:
REMARK  status: ('A' for Active; 'I' for Inactive)
REMARK    1  A    between atoms: O1_1  and  C1_3 
REMARK    2  A    between atoms: C1_3  and  C2_4 
REMARK    3  A    between atoms: C4_8  and  C5_9 
REMARK    4  A    between atoms: C5_9  and  O4_10 
REMARK    5  A    between atoms: C6_12  and  O5_13 
REMARK    6  A    between atoms: C8_17  and  C9_18 
REMARK    7  A    between atoms: C9_18  and  O7_19 
ROOT
HETATM    1  C2  UNL     1      10.751  97.374   9.082  1.00  0.00     0.179 C 
HETATM    2  O2  UNL     1       9.498  97.948   9.286  1.00  0.00    -0.348 OA
HETATM    3  C3  UNL     1       9.457  98.368  10.594  1.00  0.00     0.292 C 
HETATM    4  O3  UNL     1       8.145  98.438  11.085  1.00  0.00    -0.348 OA
HETATM    5  C4  UNL     1       8.317  98.562  12.466  1.00  0.00     0.179 C 
HETATM    6  C6  UNL     1       9.293  97.425  12.734  1.00  0.00     0.183 C 
HETATM    7  C7  UNL     1      10.272  97.627  11.568  1.00  0.00     0.208 C 
HETATM    8  O6  UNL     1      10.785  96.430  11.230  1.00  0.00    -0.368 OA
HETATM    9  C8  UNL     1      10.773  96.110   9.883  1.00  0.00     0.176 C 
ENDROOT
BRANCH   1  10
HETATM   10  C1  UNL     1      11.106  97.238   7.644  1.00  0.00     0.198 C 
BRANCH  10  11
HETATM   11  O1  UNL     1      12.508  97.402   7.543  1.00  0.00    -0.398 OA
ATOM     12  H1  UNL     1      12.784  96.967   6.746  1.00  0.00     0.209 HD
ENDBRANCH  10  11
ENDBRANCH   1  10
BRANCH   9  13
HETATM   13  C9  UNL     1       9.522  95.285   9.661  1.00  0.00     0.198 C 
BRANCH  13  14
HETATM   14  O7  UNL     1       9.722  93.926   9.778  1.00  0.00    -0.398 OA
ATOM     15  H7  UNL     1       9.300  93.538  10.536  1.00  0.00     0.209 HD
ENDBRANCH  13  14
ENDBRANCH   9  13
BRANCH   5  16
HETATM   16  C5  UNL     1       7.011  98.334  13.190  1.00  0.00     0.198 C 
BRANCH  16  17
HETATM   17  O4  UNL     1       7.102  98.916  14.447  1.00  0.00    -0.398 OA
ATOM     18  H4  UNL     1       6.704  98.328  15.077  1.00  0.00     0.209 HD
ENDBRANCH  16  17
ENDBRANCH   5  16
BRANCH   6  19
HETATM   19  O5  UNL     1       9.922  97.532  13.945  1.00  0.00    -0.390 OA
ATOM     20  H5  UNL     1      10.792  97.907  13.881  1.00  0.00     0.210 HD
ENDBRANCH   6  19
TORSDOF 7
ENDMDL
MODEL 2
REMARK VINA RESULT: -5.857671218      1.576      3.099
REMARK  7 active torsions:
REMARK  status: ('A' for Active; 'I' for Inactive)
REMARK    1  A    between atoms: O1_1  and  C1_3 
REMARK    2  A    between atoms: C1_3  and  C2_4 
REMARK    3  A    between atoms: C4_8  and  C5_9 
REMARK    4  A    between atoms: C5_9  and  O4_10 
REMARK    5  A    between atoms: C6_12  and  O5_13 
REMARK    6  A    between atoms: C8_17  and  C9_18 
REMARK    7  A    between atoms: C9_18  and  O7_19 
ROOT
HETATM    1  C2  UNL     1       9.722  96.763  10.827  1.00  0.00     0.179 C 
HETATM    2  O2  UNL     1      10.395  97.160  11.980  1.00  0.00    -0.348 OA
HETATM    3  C3  UNL     1       9.463  97.215  12.989  1.00  0.00     0.292 C 
HETATM    4  O3  UNL     1       9.842  98.099  14.011  1.00  0.00    -0.348 OA
HETATM    5  C4  UNL     1       8.670  98.261  14.755  1.00  0.00     0.179 C 
HETATM    6  C6  UNL     1       7.671  98.576  13.650  1.00  0.00     0.183 C 
HETATM    7  C7  UNL     1       8.074  97.519  12.611  1.00  0.00     0.208 C 
HETATM    8  O6  UNL     1       7.812  98.005  11.384  1.00  0.00    -0.368 OA
HETATM    9  C8  UNL     1       8.825  97.898  10.447  1.00  0.00     0.176 C 
ENDROOT
BRANCH   1  10
HETATM   10  C1  UNL     1      10.633  96.269   9.759  1.00  0.00     0.198 C 
BRANCH  10  11
HETATM   11  O1  UNL     1      11.852  96.975   9.892  1.00  0.00    -0.398 OA
ATOM     12  H1  UNL     1      12.032  97.048  10.822  1.00  0.00     0.209 HD
ENDBRANCH  10  11
ENDBRANCH   1  10
BRANCH   9  13
HETATM   13  C9  UNL     1       9.558  99.224  10.472  1.00  0.00     0.198 C 
BRANCH  13  14
HETATM   14  O7  UNL     1      10.247  99.502   9.311  1.00  0.00    -0.398 OA
ATOM     15  H7  UNL     1      11.132  99.155   9.296  1.00  0.00     0.209 HD
ENDBRANCH  13  14
ENDBRANCH   9  13
BRANCH   5  16
HETATM   16  C5  UNL     1       8.802  99.423  15.710  1.00  0.00     0.198 C 
BRANCH  16  17
HETATM   17  O4  UNL     1       7.591 100.102  15.742  1.00  0.00    -0.398 OA
ATOM     18  H4  UNL     1       7.266 100.173  14.853  1.00  0.00     0.209 HD
ENDBRANCH  16  17
ENDBRANCH   5  16
BRANCH   6  19
HETATM   19  O5  UNL     1       6.369  98.426  14.044  1.00  0.00    -0.390 OA
ATOM     20  H5  UNL     1       5.928  99.254  14.192  1.00  0.00     0.210 HD
ENDBRANCH   6  19
TORSDOF 7
ENDMDL
MODEL 3
REMARK VINA RESULT: -5.749706464      1.417      5.396
REMARK  7 active torsions:
REMARK  status: ('A' for Active; 'I' for Inactive)
REMARK    1  A    between atoms: O1_1  and  C1_3 
REMARK    2  A    between atoms: C1_3  and  C2_4 
REMARK    3  A    between atoms: C4_8  and  C5_9 
REMARK    4  A    between atoms: C5_9  and  O4_10 
REMARK    5  A    between atoms: C6_12  and  O5_13 
REMARK    6  A    between atoms: C8_17  and  C9_18 
REMARK    7  A    between atoms: C9_18  and  O7_19 
ROOT
HETATM    1  C2  UNL     1       8.579  98.242  13.444  1.00  0.00     0.179 C 
HETATM    2  O2  UNL     1       8.738  97.015  12.803  1.00  0.00    -0.348 OA
HETATM    3  C3  UNL     1       9.621  97.215  11.768  1.00  0.00     0.292 C 
HETATM    4  O3  UNL     1       9.452  96.275  10.741  1.00  0.00    -0.348 OA
HETATM    5  C4  UNL     1      10.183  96.815   9.679  1.00  0.00     0.179 C 
HETATM    6  C6  UNL     1       9.647  98.240   9.659  1.00  0.00     0.183 C 
HETATM    7  C7  UNL     1       9.660  98.555  11.162  1.00  0.00     0.208 C 
HETATM    8  O6  UNL     1       8.672  99.430  11.423  1.00  0.00    -0.368 OA
HETATM    9  C8  UNL     1       7.841  99.125  12.488  1.00  0.00     0.176 C 
ENDROOT
BRANCH   1  10
HETATM   10  C1  UNL     1       7.988  98.119  14.804  1.00  0.00     0.198 C 
BRANCH  10  11
HETATM   11  O1  UNL     1       7.219  99.285  15.031  1.00  0.00    -0.398 OA
ATOM     12  H1  UNL     1       6.347  99.001  15.276  1.00  0.00     0.209 HD
ENDBRANCH  10  11
ENDBRANCH   1  10
BRANCH   9  13
HETATM   13  C9  UNL     1       6.638  98.425  11.892  1.00  0.00     0.198 C 
BRANCH  13  14
HETATM   14  O7  UNL     1       5.436  98.805  12.452  1.00  0.00    -0.398 OA
ATOM     15  H7  UNL     1       5.147  99.672  12.191  1.00  0.00     0.209 HD
ENDBRANCH  13  14
ENDBRANCH   9  13
BRANCH   5  16
HETATM   16  C5  UNL     1       9.858  96.099   8.389  1.00  0.00     0.198 C 
BRANCH  16  17
HETATM   17  O4  UNL     1      10.793  96.474   7.435  1.00  0.00    -0.398 OA
ATOM     18  H4  UNL     1      11.292  95.705   7.187  1.00  0.00     0.209 HD
ENDBRANCH  16  17
ENDBRANCH   5  16
BRANCH   6  19
HETATM   19  O5  UNL     1      10.443  99.103   8.956  1.00  0.00    -0.390 OA
ATOM     20  H5  UNL     1      11.370  98.948   9.091  1.00  0.00     0.210 HD
ENDBRANCH   6  19
TORSDOF 7
ENDMDL
MODEL 4
REMARK VINA RESULT: -5.643672810      1.484      3.074
REMARK  7 active torsions:
REMARK  status: ('A' for Active; 'I' for Inactive)
REMARK    1  A    between atoms: O1_1  and  C1_3 
REMARK    2  A    between atoms: C1_3  and  C2_4 
REMARK    3  A    between atoms: C4_8  and  C5_9 
REMARK    4  A    between atoms: C5_9  and  O4_10 
REMARK    5  A    between atoms: C6_12  and  O5_13 
REMARK    6  A    between atoms: C8_17  and  C9_18 
REMARK    7  A    between atoms: C9_18  and  O7_19 
ROOT
HETATM    1  C2  UNL     1       9.880  97.006   9.918  1.00  0.00     0.179 C 
HETATM    2  O2  UNL     1      10.669  97.186  11.053  1.00  0.00    -0.348 OA
HETATM    3  C3  UNL     1       9.840  97.057  12.142  1.00  0.00     0.292 C 
HETATM    4  O3  UNL     1      10.333  97.739  13.264  1.00  0.00    -0.348 OA
HETATM    5  C4  UNL     1       9.242  97.766  14.137  1.00  0.00     0.179 C 
HETATM    6  C6  UNL     1       8.148  98.279  13.212  1.00  0.00     0.183 C 
HETATM    7  C7  UNL     1       8.428  97.427  11.964  1.00  0.00     0.208 C 
HETATM    8  O6  UNL     1       8.058  98.129  10.877  1.00  0.00    -0.368 OA
HETATM    9  C8  UNL     1       8.974  98.194   9.841  1.00  0.00     0.176 C 
ENDROOT
BRANCH   1  10
HETATM   10  C1  UNL     1      10.674  96.714   8.695  1.00  0.00     0.198 C 
BRANCH  10  11
HETATM   11  O1  UNL     1      12.034  96.942   9.015  1.00  0.00    -0.398 OA
ATOM     12  H1  UNL     1      12.532  96.824   8.216  1.00  0.00     0.209 HD
ENDBRANCH  10  11
ENDBRANCH   1  10
BRANCH   9  13
HETATM   13  C9  UNL     1       9.732  99.491  10.034  1.00  0.00     0.198 C 
BRANCH  13  14
HETATM   14  O7  UNL     1       8.944 100.618   9.928  1.00  0.00    -0.398 OA
ATOM     15  H7  UNL     1       8.479 100.839  10.726  1.00  0.00     0.209 HD
ENDBRANCH  13  14
ENDBRANCH   9  13
BRANCH   5  16
HETATM   16  C5  UNL     1       9.489  98.734  15.270  1.00  0.00     0.198 C 
BRANCH  16  17
HETATM   17  O4  UNL     1      10.422  98.171  16.130  1.00  0.00    -0.398 OA
ATOM     18  H4  UNL     1      11.290  98.379  15.806  1.00  0.00     0.209 HD
ENDBRANCH  16  17
ENDBRANCH   5  16
BRANCH   6  19
HETATM   19  O5  UNL     1       6.888  98.062  13.699  1.00  0.00    -0.390 OA
ATOM     20  H5  UNL     1       6.450  97.327  13.285  1.00  0.00     0.210 HD
ENDBRANCH   6  19
TORSDOF 7
ENDMDL
MODEL 5
REMARK VINA RESULT: -5.625337380      1.233      4.952
REMARK  7 active torsions:
REMARK  status: ('A' for Active; 'I' for Inactive)
REMARK    1  A    between atoms: O1_1  and  C1_3 
REMARK    2  A    between atoms: C1_3  and  C2_4 
REMARK    3  A    between atoms: C4_8  and  C5_9 
REMARK    4  A    between atoms: C5_9  and  O4_10 
REMARK    5  A    between atoms: C6_12  and  O5_13 
REMARK    6  A    between atoms: C8_17  and  C9_18 
REMARK    7  A    between atoms: C9_18  and  O7_19 
ROOT
HETATM    1  C2  UNL     1       8.551  97.981  12.287  1.00  0.00     0.179 C 
HETATM    2  O2  UNL     1       8.970  98.808  11.246  1.00  0.00    -0.348 OA
HETATM    3  C3  UNL     1       8.963  98.046  10.102  1.00  0.00     0.292 C 
HETATM    4  O3  UNL     1       9.854  98.538   9.135  1.00  0.00    -0.348 OA
HETATM    5  C4  UNL     1       9.946  97.493   8.213  1.00  0.00     0.179 C 
HETATM    6  C6  UNL     1      10.222  96.317   9.140  1.00  0.00     0.183 C 
HETATM    7  C7  UNL     1       9.199  96.602  10.250  1.00  0.00     0.208 C 
HETATM    8  O6  UNL     1       9.685  96.124  11.410  1.00  0.00    -0.368 OA
HETATM    9  C8  UNL     1       9.643  96.980  12.497  1.00  0.00     0.176 C 
ENDROOT
BRANCH   1  10
HETATM   10  C1  UNL     1       8.118  98.734  13.494  1.00  0.00     0.198 C 
BRANCH  10  11
HETATM   11  O1  UNL     1       6.703  98.748  13.492  1.00  0.00    -0.398 OA
ATOM     12  H1  UNL     1       6.424  98.603  12.597  1.00  0.00     0.209 HD
ENDBRANCH  10  11
ENDBRANCH   1  10
BRANCH   9  13
HETATM   13  C9  UNL     1      11.005  97.641  12.561  1.00  0.00     0.198 C 
BRANCH  13  14
HETATM   14  O7  UNL     1      11.599  97.814  11.330  1.00  0.00    -0.398 OA
ATOM     15  H7  UNL     1      11.054  98.272  10.700  1.00  0.00     0.209 HD
ENDBRANCH  13  14
ENDBRANCH   9  13
BRANCH   5  16
HETATM   16  C5  UNL     1      11.102  97.717   7.267  1.00  0.00     0.198 C 
BRANCH  16  17
HETATM   17  O4  UNL     1      12.250  97.200   7.851  1.00  0.00    -0.398 OA
ATOM     18  H4  UNL     1      12.051  96.335   8.187  1.00  0.00     0.209 HD
ENDBRANCH  16  17
ENDBRANCH   5  16
BRANCH   6  19
HETATM   19  O5  UNL     1      10.000  95.103   8.547  1.00  0.00    -0.390 OA
ATOM     20  H5  UNL     1       9.415  94.546   9.048  1.00  0.00     0.210 HD
ENDBRANCH   6  19
TORSDOF 7
ENDMDL
