MODEL 1
REMARK VINA RESULT: -5.431520253      0.000      0.000
REMARK  7 active torsions:
REMARK  status: ('A' for Active; 'I' for Inactive)
REMARK    1  A    between atoms: C2_2  and  O1_5 
REMARK    2  A    between atoms: O1_5  and  C5_6 
REMARK    3  A    between atoms: C6_8  and  C7_9 
REMARK    4  A    between atoms: C7_9  and  O3_10 
REMARK    5  A    between atoms: C8_12  and  O4_13 
REMARK    6  A    between atoms: C9_15  and  O5_16 
REMARK    7  A    between atoms: C10_18  and  O6_19 
ROOT
HETATM    1  C5  UNL     1       8.049  98.307  13.927  1.00  0.00     0.292 C 
HETATM    2  O2  UNL     1       8.844  97.227  13.561  1.00  0.00    -0.348 OA
HETATM    3  C6  UNL     1       9.390  97.563  12.303  1.00  0.00     0.179 C 
HETATM    4  C8  UNL     1       8.324  97.605  11.261  1.00  0.00     0.180 C 
HETATM    5  C9  UNL     1       7.330  98.701  11.624  1.00  0.00     0.183 C 
HETATM    6  C10 UNL     1       6.838  98.367  13.023  1.00  0.00     0.204 C 
ENDROOT
BRANCH   1   7
HETATM    7  O1  UNL     1       7.752  98.393  15.238  1.00  0.00    -0.349 OA
BRANCH   7   8
HETATM    8  C2  UNL     1       8.491  99.182  16.046  1.00  0.00     0.053 C 
HETATM    9  C1  UNL     1       7.928  99.032  17.470  1.00  0.00     0.045 C 
HETATM   10  C3  UNL     1       8.443 100.666  15.750  1.00  0.00     0.045 C 
HETATM   11  C4  UNL     1       9.947  98.800  16.146  1.00  0.00     0.045 C 
ENDBRANCH   7   8
ENDBRANCH   1   7
BRANCH   6  12
HETATM   12  O6  UNL     1       5.947  99.284  13.526  1.00  0.00    -0.388 OA
ATOM     13  H6  UNL     1       6.333 100.151  13.477  1.00  0.00     0.210 HD
ENDBRANCH   6  12
BRANCH   3  14
HETATM   14  C7  UNL     1      10.456  96.568  11.901  1.00  0.00     0.198 C 
BRANCH  14  15
HETATM   15  O3  UNL     1       9.951  95.614  11.030  1.00  0.00    -0.398 OA
ATOM     16  H3  UNL     1       9.341  96.000  10.412  1.00  0.00     0.209 HD
ENDBRANCH  14  15
ENDBRANCH   3  14
BRANCH   5  17
HETATM   17  O5  UNL     1       8.049  99.888  11.700  1.00  0.00    -0.390 OA
ATOM     18  H5  UNL     1       8.608  99.823  12.465  1.00  0.00     0.210 HD
ENDBRANCH   5  17
BRANCH   4  19
HETATM   19  O4  UNL     1       8.898  97.891  10.034  1.00  0.00    -0.390 OA
ATOM     20  H4  UNL     1       8.466  98.647   9.656  1.00  0.00     0.210 HD
ENDBRANCH   4  19
TORSDOF 7
ENDMDL
MODEL 2
REMARK VINA RESULT: -5.212224008      1.892      5.110
REMARK  7 active torsions:
REMARK  status: ('A' for Active; 'I' for Inactive)
REMARK    1  A    between atoms: C2_2  and  O1_5 
REMARK    2  A    between atoms: O1_5  and  C5_6 
REMARK    3  A    between atoms: C6_8  and  C7_9 
REMARK    4  A    between atoms: C7_9  and  O3_10 
REMARK    5  A    between atoms: C8_12  and  O4_13 
REMARK    6  A    between atoms: C9_15  and  O5_16 
REMARK    7  A    between atoms: C10_18  and  O6_19 
ROOT
HETATM    1  C5  UNL     1       8.547  97.572  11.656  1.00  0.00     0.292 C 
HETATM    2  O2  UNL     1       7.195  97.674  11.345  1.00  0.00    -0.348 OA
HETATM    3  C6  UNL     1       6.720  98.792  12.066  1.00  0.00     0.179 C 
HETATM    4  C8  UNL     1       6.741  98.520  13.533  1.00  0.00     0.180 C 
HETATM    5  C9  UNL     1       8.184  98.289  13.964  1.00  0.00     0.183 C 
HETATM    6  C10 UNL     1       8.698  97.150  13.100  1.00  0.00     0.204 C 
ENDROOT
BRANCH   1   7
HETATM    7  O1  UNL     1       9.287  96.846  10.797  1.00  0.00    -0.349 OA
BRANCH   7   8
HETATM    8  C2  UNL     1      10.047  97.468   9.870  1.00  0.00     0.053 C 
HETATM    9  C1  UNL     1      11.518  97.190  10.226  1.00  0.00     0.045 C 
HETATM   10  C3  UNL     1       9.925  98.976   9.815  1.00  0.00     0.045 C 
HETATM   11  C4  UNL     1       9.870  96.959   8.461  1.00  0.00     0.045 C 
ENDBRANCH   7   8
ENDBRANCH   1   7
BRANCH   6  12
HETATM   12  O6  UNL     1      10.013  96.829  13.337  1.00  0.00    -0.388 OA
ATOM     13  H6  UNL     1      10.564  97.306  12.728  1.00  0.00     0.210 HD
ENDBRANCH   6  12
BRANCH   3  14
HETATM   14  C7  UNL     1       5.314  99.147  11.635  1.00  0.00     0.198 C 
BRANCH  14  15
HETATM   15  O3  UNL     1       5.085 100.510  11.740  1.00  0.00    -0.398 OA
ATOM     16  H3  UNL     1       5.253 100.952  10.916  1.00  0.00     0.209 HD
ENDBRANCH  14  15
ENDBRANCH   3  14
BRANCH   5  17
HETATM   17  O5  UNL     1       8.895  99.433  13.624  1.00  0.00    -0.390 OA
ATOM     18  H5  UNL     1       9.577  99.540  14.277  1.00  0.00     0.210 HD
ENDBRANCH   5  17
BRANCH   4  19
HETATM   19  O4  UNL     1       6.228  99.615  14.206  1.00  0.00    -0.390 OA
ATOM     20  H4  UNL     1       6.003  99.359  15.093  1.00  0.00     0.210 HD
ENDBRANCH   4  19
TORSDOF 7
ENDMDL
MODEL 3
REMARK VINA RESULT: -5.133337971      2.033      5.163
REMARK  7 active torsions:
REMARK  status: ('A' for Active; 'I' for Inactive)
REMARK    1  A    between atoms: C2_2  and  O1_5 
REMARK    2  A    between atoms: O1_5  and  C5_6 
REMARK    3  A    between atoms: C6_8  and  C7_9 
REMARK    4  A    between atoms: C7_9  and  O3_10 
REMARK    5  A    between atoms: C8_12  and  O4_13 
REMARK    6  A    between atoms: C9_15  and  O5_16 
REMARK    7  A    between atoms: C10_18  and  O6_19 
ROOT
HETATM    1  C5  UNL     1       9.523  98.010  10.945  1.00  0.00     0.292 C 
HETATM    2  O2  UNL     1       9.930  97.925  12.272  1.00  0.00    -0.348 OA
HETATM    3  C6  UNL     1       8.750  97.714  13.020  1.00  0.00     0.179 C 
HETATM    4  C8  UNL     1       7.878  98.924  12.979  1.00  0.00     0.180 C 
HETATM    5  C9  UNL     1       7.455  99.170  11.536  1.00  0.00     0.183 C 
HETATM    6  C10 UNL     1       8.745  99.290  10.740  1.00  0.00     0.204 C 
ENDROOT
BRANCH   1   7
HETATM    7  O1  UNL     1      10.489  97.810  10.027  1.00  0.00    -0.349 OA
BRANCH   7   8
HETATM    8  C2  UNL     1      10.498  96.675   9.296  1.00  0.00     0.053 C 
HETATM    9  C1  UNL     1      11.926  96.104   9.358  1.00  0.00     0.045 C 
HETATM   10  C3  UNL     1      10.194  96.834   7.821  1.00  0.00     0.045 C 
HETATM   11  C4  UNL     1       9.602  95.578   9.815  1.00  0.00     0.045 C 
ENDBRANCH   7   8
ENDBRANCH   1   7
BRANCH   6  12
HETATM   12  O6  UNL     1       8.545  99.483   9.394  1.00  0.00    -0.388 OA
ATOM     13  H6  UNL     1       8.877  98.730   8.920  1.00  0.00     0.210 HD
ENDBRANCH   6  12
BRANCH   3  14
HETATM   14  C7  UNL     1       9.083  97.376  14.456  1.00  0.00     0.198 C 
BRANCH  14  15
HETATM   15  O3  UNL     1       9.259  98.523  15.215  1.00  0.00    -0.398 OA
ATOM     16  H3  UNL     1       8.877  99.281  14.789  1.00  0.00     0.209 HD
ENDBRANCH  14  15
ENDBRANCH   3  14
BRANCH   5  17
HETATM   17  O5  UNL     1       6.797  98.023  11.107  1.00  0.00    -0.390 OA
ATOM     18  H5  UNL     1       6.409  97.624  11.876  1.00  0.00     0.210 HD
ENDBRANCH   5  17
BRANCH   4  19
HETATM   19  O4  UNL     1       6.755  98.702  13.757  1.00  0.00    -0.390 OA
ATOM     20  H4  UNL     1       7.019  98.592  14.662  1.00  0.00     0.210 HD
ENDBRANCH   4  19
TORSDOF 7
ENDMDL
MODEL 4
REMARK VINA RESULT: -5.124379289      6.217      8.018
REMARK  7 active torsions:
REMARK  status: ('A' for Active; 'I' for Inactive)
REMARK    1  A    between atoms: C2_2  and  O1_5 
REMARK    2  A    between atoms: O1_5  and  C5_6 
REMARK    3  A    between atoms: C6_8  and  C7_9 
REMARK    4  A    between atoms: C7_9  and  O3_10 
REMARK    5  A    between atoms: C8_12  and  O4_13 
REMARK    6  A    between atoms: C9_15  and  O5_16 
REMARK    7  A    between atoms: C10_18  and  O6_19 
ROOT
HETATM    1  C5  UNL     1       2.464 102.592  13.415  1.00  0.00     0.292 C 
HETATM    2  O2  UNL     1       2.053 103.335  12.314  1.00  0.00    -0.348 OA
HETATM    3  C6  UNL     1       2.061 102.437  11.223  1.00  0.00     0.179 C 
HETATM    4  C8  UNL     1       3.456 102.027  10.890  1.00  0.00     0.180 C 
HETATM    5  C9  UNL     1       4.044 101.285  12.084  1.00  0.00     0.183 C 
HETATM    6  C10 UNL     1       3.927 102.238  13.263  1.00  0.00     0.204 C 
ENDROOT
BRANCH   1   7
HETATM    7  O1  UNL     1       2.155 103.115  14.617  1.00  0.00    -0.349 OA
BRANCH   7   8
HETATM    8  C2  UNL     1       0.999 102.771  15.224  1.00  0.00     0.053 C 
HETATM    9  C1  UNL     1       1.081 101.268  15.541  1.00  0.00     0.045 C 
HETATM   10  C3  UNL     1      -0.259 102.939  14.399  1.00  0.00     0.045 C 
HETATM   11  C4  UNL     1       0.753 103.449  16.549  1.00  0.00     0.045 C 
ENDBRANCH   7   8
ENDBRANCH   1   7
BRANCH   6  12
HETATM   12  O6  UNL     1       4.386 101.710  14.445  1.00  0.00    -0.388 OA
ATOM     13  H6  UNL     1       3.705 101.170  14.829  1.00  0.00     0.210 HD
ENDBRANCH   6  12
BRANCH   3  14
HETATM   14  C7  UNL     1       1.413 103.066  10.010  1.00  0.00     0.198 C 
BRANCH  14  15
HETATM   15  O3  UNL     1       0.357 103.888  10.372  1.00  0.00    -0.398 OA
ATOM     16  H3  UNL     1       0.654 104.618  10.903  1.00  0.00     0.209 HD
ENDBRANCH  14  15
ENDBRANCH   3  14
BRANCH   5  17
HETATM   17  O5  UNL     1       3.213 100.199  12.333  1.00  0.00    -0.390 OA
ATOM     18  H5  UNL     1       2.619 100.460  13.028  1.00  0.00     0.210 HD
ENDBRANCH   5  17
BRANCH   4  19
HETATM   19  O4  UNL     1       3.433 101.186   9.791  1.00  0.00    -0.390 OA
ATOM     20  H4  UNL     1       4.154 101.407   9.214  1.00  0.00     0.210 HD
ENDBRANCH   4  19
TORSDOF 7
ENDMDL
MODEL 5
REMARK VINA RESULT: -5.091017388      7.242      9.195
REMARK  7 active torsions:
REMARK  status: ('A' for Active; 'I' for Inactive)
REMARK    1  A    between atoms: C2_2  and  O1_5 
REMARK    2  A    between atoms: O1_5  and  C5_6 
REMARK    3  A    between atoms: C6_8  and  C7_9 
REMARK    4  A    between atoms: C7_9  and  O3_10 
REMARK    5  A    between atoms: C8_12  and  O4_13 
REMARK    6  A    between atoms: C9_15  and  O5_16 
REMARK    7  A    between atoms: C10_18  and  O6_19 
ROOT
HETATM    1  C5  UNL     1       1.548 102.646  12.307  1.00  0.00     0.292 C 
HETATM    2  O2  UNL     1       1.904 103.444  13.389  1.00  0.00    -0.348 OA
HETATM    3  C6  UNL     1       2.134 102.554  14.461  1.00  0.00     0.179 C 
HETATM    4  C8  UNL     1       0.861 101.904  14.887  1.00  0.00     0.180 C 
HETATM    5  C9  UNL     1       0.325 101.075  13.726  1.00  0.00     0.183 C 
HETATM    6  C10 UNL     1       0.185 102.039  12.559  1.00  0.00     0.204 C 
ENDROOT
BRANCH   1   7
HETATM    7  O1  UNL     1       1.670 103.220  11.095  1.00  0.00    -0.349 OA
BRANCH   7   8
HETATM    8  C2  UNL     1       2.731 102.926  10.315  1.00  0.00     0.053 C 
HETATM    9  C1  UNL     1       2.233 102.899   8.859  1.00  0.00     0.045 C 
HETATM   10  C3  UNL     1       3.370 101.573  10.545  1.00  0.00     0.045 C 
HETATM   11  C4  UNL     1       3.841 103.948  10.341  1.00  0.00     0.045 C 
ENDBRANCH   7   8
ENDBRANCH   1   7
BRANCH   6  12
HETATM   12  O6  UNL     1      -0.261 101.444  11.404  1.00  0.00    -0.388 OA
ATOM     13  H6  UNL     1      -0.938 100.814  11.622  1.00  0.00     0.210 HD
ENDBRANCH   6  12
BRANCH   3  14
HETATM   14  C7  UNL     1       2.751 103.282  15.635  1.00  0.00     0.198 C 
BRANCH  14  15
HETATM   15  O3  UNL     1       1.806 104.037  16.312  1.00  0.00    -0.398 OA
ATOM     16  H3  UNL     1       1.539 104.793  15.803  1.00  0.00     0.209 HD
ENDBRANCH  14  15
ENDBRANCH   3  14
BRANCH   5  17
HETATM   17  O5  UNL     1       1.312 100.153  13.398  1.00  0.00    -0.390 OA
ATOM     18  H5  UNL     1       1.197  99.409  13.977  1.00  0.00     0.210 HD
ENDBRANCH   5  17
BRANCH   4  19
HETATM   19  O4  UNL     1       1.113 101.075  15.967  1.00  0.00    -0.390 OA
ATOM     20  H4  UNL     1       1.461 100.249  15.653  1.00  0.00     0.210 HD
ENDBRANCH   4  19
TORSDOF 7
ENDMDL
