MODEL 1
REMARK VINA RESULT: -5.032833277      0.000      0.000
REMARK  6 active torsions:
REMARK  status: ('A' for Active; 'I' for Inactive)
REMARK    1  A    between atoms: N1_2  and  C3_4 
REMARK    2  A    between atoms: C5_7  and  C6_8 
REMARK    3  A    between atoms: C6_8  and  O2_9 
REMARK    4  A    between atoms: C8_12  and  O3_13 
REMARK    5  A    between atoms: C9_15  and  O4_16 
REMARK    6  A    between atoms: C10_18  and  O5_19 
ROOT
HETATM    1  C3  UNL     1       1.935 101.165  13.425  1.00  0.00     0.262 C 
HETATM    2  C4  UNL     1       0.737 101.241  12.539  1.00  0.00     0.187 C 
HETATM    3  O1  UNL     1      -0.259 100.684  13.358  1.00  0.00    -0.373 OA
HETATM    4  C5  UNL     1       0.031 100.958  14.658  1.00  0.00     0.154 C 
HETATM    5  C7  UNL     1       1.354 101.735  14.694  1.00  0.00     0.084 C 
HETATM    6  C8  UNL     1       0.979 103.192  14.540  1.00  0.00     0.158 C 
HETATM    7  C9  UNL     1      -0.086 103.355  13.494  1.00  0.00     0.178 C 
HETATM    8  C10 UNL     1       0.295 102.640  12.231  1.00  0.00     0.180 C 
ENDROOT
BRANCH   1   9
HETATM    9  N1  UNL     1       3.101 101.818  12.958  1.00  0.00     0.087 N 
HETATM   10  C1  UNL     1       3.999 101.973  14.117  1.00  0.00     0.310 C 
HETATM   11  C2  UNL     1       3.806 100.868  12.082  1.00  0.00     0.310 C 
ENDBRANCH   1   9
BRANCH   8  12
HETATM   12  O5  UNL     1       1.181 103.367  11.474  1.00  0.00    -0.390 OA
ATOM     13  H5  UNL     1       1.171 104.303  11.641  1.00  0.00     0.210 HD
ENDBRANCH   8  12
BRANCH   4  14
HETATM   14  C6  UNL     1       0.254  99.661  15.406  1.00  0.00     0.196 C 
BRANCH  14  15
HETATM   15  O2  UNL     1       0.497  99.923  16.749  1.00  0.00    -0.398 OA
ATOM     16  H2  UNL     1       0.928  99.178  17.152  1.00  0.00     0.209 HD
ENDBRANCH  14  15
ENDBRANCH   4  14
BRANCH   6  17
HETATM   17  O3  UNL     1       0.400 103.584  15.766  1.00  0.00    -0.392 OA
ATOM     18  H3  UNL     1       0.712 104.465  15.939  1.00  0.00     0.210 HD
ENDBRANCH   6  17
BRANCH   7  19
HETATM   19  O4  UNL     1      -0.261 104.718  13.193  1.00  0.00    -0.390 OA
ATOM     20  H4  UNL     1      -1.154 104.980  13.382  1.00  0.00     0.210 HD
ENDBRANCH   7  19
TORSDOF 6
ENDMDL
MODEL 2
REMARK VINA RESULT: -5.030702246      2.664      4.456
REMARK  6 active torsions:
REMARK  status: ('A' for Active; 'I' for Inactive)
REMARK    1  A    between atoms: N1_2  and  C3_4 
REMARK    2  A    between atoms: C5_7  and  C6_8 
REMARK    3  A    between atoms: C6_8  and  O2_9 
REMARK    4  A    between atoms: C8_12  and  O3_13 
REMARK    5  A    between atoms: C9_15  and  O4_16 
REMARK    6  A    between atoms: C10_18  and  O5_19 
ROOT
HETATM    1  C3  UNL     1       2.291 101.208  12.383  1.00  0.00     0.262 C 
HETATM    2  C4  UNL     1       3.123 101.813  13.463  1.00  0.00     0.187 C 
HETATM    3  O1  UNL     1       4.367 101.197  13.243  1.00  0.00    -0.373 OA
HETATM    4  C5  UNL     1       4.503 100.935  11.915  1.00  0.00     0.154 C 
HETATM    5  C7  UNL     1       3.219 101.391  11.209  1.00  0.00     0.084 C 
HETATM    6  C8  UNL     1       3.429 102.851  10.875  1.00  0.00     0.158 C 
HETATM    7  C9  UNL     1       4.078 103.566  12.024  1.00  0.00     0.178 C 
HETATM    8  C10 UNL     1       3.349 103.286  13.306  1.00  0.00     0.180 C 
ENDROOT
BRANCH   1   9
HETATM    9  N1  UNL     1       0.997 101.756  12.211  1.00  0.00     0.087 N 
HETATM   10  C1  UNL     1       0.397 101.082  11.045  1.00  0.00     0.310 C 
HETATM   11  C2  UNL     1       0.180 101.300  13.348  1.00  0.00     0.310 C 
ENDBRANCH   1   9
BRANCH   8  12
HETATM   12  O5  UNL     1       2.219 104.056  13.436  1.00  0.00    -0.390 OA
ATOM     13  H5  UNL     1       2.342 104.977  13.237  1.00  0.00     0.210 HD
ENDBRANCH   8  12
BRANCH   4  14
HETATM   14  C6  UNL     1       4.622  99.440  11.708  1.00  0.00     0.196 C 
BRANCH  14  15
HETATM   15  O2  UNL     1       5.381  98.879  12.728  1.00  0.00    -0.398 OA
ATOM     16  H2  UNL     1       5.803  98.086  12.419  1.00  0.00     0.209 HD
ENDBRANCH  14  15
ENDBRANCH   4  14
BRANCH   6  17
HETATM   17  O3  UNL     1       4.352 102.885   9.808  1.00  0.00    -0.392 OA
ATOM     18  H3  UNL     1       4.100 103.619   9.261  1.00  0.00     0.210 HD
ENDBRANCH   6  17
BRANCH   7  19
HETATM   19  O4  UNL     1       4.057 104.955  11.800  1.00  0.00    -0.390 OA
ATOM     20  H4  UNL     1       4.711 105.381  12.342  1.00  0.00     0.210 HD
ENDBRANCH   7  19
TORSDOF 6
ENDMDL
MODEL 3
REMARK VINA RESULT: -5.022201401      2.011      3.817
REMARK  6 active torsions:
REMARK  status: ('A' for Active; 'I' for Inactive)
REMARK    1  A    between atoms: N1_2  and  C3_4 
REMARK    2  A    between atoms: C5_7  and  C6_8 
REMARK    3  A    between atoms: C6_8  and  O2_9 
REMARK    4  A    between atoms: C8_12  and  O3_13 
REMARK    5  A    between atoms: C9_15  and  O4_16 
REMARK    6  A    between atoms: C10_18  and  O5_19 
ROOT
HETATM    1  C3  UNL     1       2.273 101.000  11.717  1.00  0.00     0.262 C 
HETATM    2  C4  UNL     1       3.145 102.176  12.003  1.00  0.00     0.187 C 
HETATM    3  O1  UNL     1       2.232 103.239  11.907  1.00  0.00    -0.373 OA
HETATM    4  C5  UNL     1       1.001 102.801  12.287  1.00  0.00     0.154 C 
HETATM    5  C7  UNL     1       1.114 101.310  12.630  1.00  0.00     0.084 C 
HETATM    6  C8  UNL     1       1.511 101.253  14.089  1.00  0.00     0.158 C 
HETATM    7  C9  UNL     1       2.558 102.287  14.391  1.00  0.00     0.178 C 
HETATM    8  C10 UNL     1       3.684 102.209  13.402  1.00  0.00     0.180 C 
ENDROOT
BRANCH   1   9
HETATM    9  N1  UNL     1       2.859  99.726  11.910  1.00  0.00     0.087 N 
HETATM   10  C1  UNL     1       1.797  98.727  11.690  1.00  0.00     0.310 C 
HETATM   11  C2  UNL     1       3.793  99.507  10.792  1.00  0.00     0.310 C 
ENDBRANCH   1   9
BRANCH   8  12
HETATM   12  O5  UNL     1       4.564 101.199  13.701  1.00  0.00    -0.390 OA
ATOM     13  H5  UNL     1       5.419 101.492  13.994  1.00  0.00     0.210 HD
ENDBRANCH   8  12
BRANCH   4  14
HETATM   14  C6  UNL     1       0.044 102.920  11.120  1.00  0.00     0.196 C 
BRANCH  14  15
HETATM   15  O2  UNL     1       0.428 103.972  10.297  1.00  0.00    -0.398 OA
ATOM     16  H2  UNL     1       0.575 104.754  10.818  1.00  0.00     0.209 HD
ENDBRANCH  14  15
ENDBRANCH   4  14
BRANCH   6  17
HETATM   17  O3  UNL     1       0.365 101.615  14.826  1.00  0.00    -0.392 OA
ATOM     18  H3  UNL     1       0.430 102.550  14.979  1.00  0.00     0.210 HD
ENDBRANCH   6  17
BRANCH   7  19
HETATM   19  O4  UNL     1       3.086 102.075  15.677  1.00  0.00    -0.390 OA
ATOM     20  H4  UNL     1       2.419 101.711  16.247  1.00  0.00     0.210 HD
ENDBRANCH   7  19
TORSDOF 6
ENDMDL
MODEL 4
REMARK VINA RESULT: -4.784493667      3.053      5.261
REMARK  6 active torsions:
REMARK  status: ('A' for Active; 'I' for Inactive)
REMARK    1  A    between atoms: N1_2  and  C3_4 
REMARK    2  A    between atoms: C5_7  and  C6_8 
REMARK    3  A    between atoms: C6_8  and  O2_9 
REMARK    4  A    between atoms: C8_12  and  O3_13 
REMARK    5  A    between atoms: C9_15  and  O4_16 
REMARK    6  A    between atoms: C10_18  and  O5_19 
ROOT
HETATM    1  C3  UNL     1       2.568 101.425  10.258  1.00  0.00     0.262 C 
HETATM    2  C4  UNL     1       3.998 101.093  10.526  1.00  0.00     0.187 C 
HETATM    3  O1  UNL     1       4.630 102.319  10.261  1.00  0.00    -0.373 OA
HETATM    4  C5  UNL     1       3.774 103.333  10.562  1.00  0.00     0.154 C 
HETATM    5  C7  UNL     1       2.453 102.712  11.034  1.00  0.00     0.084 C 
HETATM    6  C8  UNL     1       2.610 102.493  12.522  1.00  0.00     0.158 C 
HETATM    7  C9  UNL     1       3.975 101.950  12.834  1.00  0.00     0.178 C 
HETATM    8  C10 UNL     1       4.290 100.771  11.961  1.00  0.00     0.180 C 
ENDROOT
BRANCH   1   9
HETATM    9  N1  UNL     1       1.621 100.432  10.607  1.00  0.00     0.087 N 
HETATM   10  C1  UNL     1       0.286 101.005  10.350  1.00  0.00     0.310 C 
HETATM   11  C2  UNL     1       1.744  99.351   9.615  1.00  0.00     0.310 C 
ENDBRANCH   1   9
BRANCH   8  12
HETATM   12  O5  UNL     1       3.702  99.617  12.420  1.00  0.00    -0.390 OA
ATOM     13  H5  UNL     1       4.296  98.882  12.519  1.00  0.00     0.210 HD
ENDBRANCH   8  12
BRANCH   4  14
HETATM   14  C6  UNL     1       3.473 104.125   9.306  1.00  0.00     0.196 C 
BRANCH  14  15
HETATM   15  O2  UNL     1       4.622 104.770   8.866  1.00  0.00    -0.398 OA
ATOM     16  H2  UNL     1       4.439 105.249   8.067  1.00  0.00     0.209 HD
ENDBRANCH  14  15
ENDBRANCH   4  14
BRANCH   6  17
HETATM   17  O3  UNL     1       2.540 103.769  13.121  1.00  0.00    -0.392 OA
ATOM     18  H3  UNL     1       2.664 103.633  14.053  1.00  0.00     0.210 HD
ENDBRANCH   6  17
BRANCH   7  19
HETATM   19  O4  UNL     1       4.033 101.533  14.176  1.00  0.00    -0.390 OA
ATOM     20  H4  UNL     1       4.712 102.011  14.636  1.00  0.00     0.210 HD
ENDBRANCH   7  19
TORSDOF 6
ENDMDL
MODEL 5
REMARK VINA RESULT: -4.770680103      2.382      4.722
REMARK  6 active torsions:
REMARK  status: ('A' for Active; 'I' for Inactive)
REMARK    1  A    between atoms: N1_2  and  C3_4 
REMARK    2  A    between atoms: C5_7  and  C6_8 
REMARK    3  A    between atoms: C6_8  and  O2_9 
REMARK    4  A    between atoms: C8_12  and  O3_13 
REMARK    5  A    between atoms: C9_15  and  O4_16 
REMARK    6  A    between atoms: C10_18  and  O5_19 
ROOT
HETATM    1  C3  UNL     1       2.414 102.604  13.150  1.00  0.00     0.262 C 
HETATM    2  C4  UNL     1       1.489 101.997  12.149  1.00  0.00     0.187 C 
HETATM    3  O1  UNL     1       2.026 102.471  10.941  1.00  0.00    -0.373 OA
HETATM    4  C5  UNL     1       3.370 102.626  11.083  1.00  0.00     0.154 C 
HETATM    5  C7  UNL     1       3.740 102.251  12.525  1.00  0.00     0.084 C 
HETATM    6  C8  UNL     1       3.980 100.757  12.512  1.00  0.00     0.158 C 
HETATM    7  C9  UNL     1       2.938 100.063  11.683  1.00  0.00     0.178 C 
HETATM    8  C10 UNL     1       1.560 100.501  12.083  1.00  0.00     0.180 C 
ENDROOT
BRANCH   1   9
HETATM    9  N1  UNL     1       2.254 102.174  14.490  1.00  0.00     0.087 N 
HETATM   10  C1  UNL     1       3.318 102.823  15.278  1.00  0.00     0.310 C 
HETATM   11  C2  UNL     1       1.013 102.784  14.994  1.00  0.00     0.310 C 
ENDBRANCH   1   9
BRANCH   8  12
HETATM   12  O5  UNL     1       1.122  99.856  13.213  1.00  0.00    -0.390 OA
ATOM     13  H5  UNL     1       1.540 100.138  14.019  1.00  0.00     0.210 HD
ENDBRANCH   8  12
BRANCH   4  14
HETATM   14  C6  UNL     1       3.730 104.085  10.894  1.00  0.00     0.196 C 
BRANCH  14  15
HETATM   15  O2  UNL     1       4.735 104.444  11.784  1.00  0.00    -0.398 OA
ATOM     16  H2  UNL     1       4.711 103.878  12.546  1.00  0.00     0.209 HD
ENDBRANCH  14  15
ENDBRANCH   4  14
BRANCH   6  17
HETATM   17  O3  UNL     1       5.213 100.560  11.855  1.00  0.00    -0.392 OA
ATOM     18  H3  UNL     1       5.675  99.893  12.350  1.00  0.00     0.210 HD
ENDBRANCH   6  17
BRANCH   7  19
HETATM   19  O4  UNL     1       3.028  98.671  11.864  1.00  0.00    -0.390 OA
ATOM     20  H4  UNL     1       3.128  98.469  12.787  1.00  0.00     0.210 HD
ENDBRANCH   7  19
TORSDOF 6
ENDMDL
