MODEL 1
REMARK VINA RESULT: -7.603473552      0.000      0.000
REMARK  6 active torsions:
REMARK  status: ('A' for Active; 'I' for Inactive)
REMARK    1  A    between atoms: O1_1  and  C1_3 
REMARK    2  A    between atoms: C1_3  and  C2_4 
REMARK    3  A    between atoms: C3_6  and  N1_7 
REMARK    4  A    between atoms: C7_13  and  O3_14 
REMARK    5  A    between atoms: C8_16  and  O4_17 
REMARK    6  A    between atoms: C9_19  and  O5_20 
ROOT
HETATM    1  C2  UNL     1       9.753  95.388   9.982  1.00  0.00     0.179 C 
HETATM    2  O2  UNL     1       9.624  95.811  11.238  1.00  0.00    -0.352 OA
HETATM    3  C3  UNL     1      10.020  97.037  11.618  1.00  0.00     0.275 C 
HETATM    4  C7  UNL     1      10.161  98.091  10.591  1.00  0.00     0.200 C 
HETATM    5  C8  UNL     1       9.955  97.626   9.175  1.00  0.00     0.182 C 
HETATM    6  C9  UNL     1      10.623  96.246   9.112  1.00  0.00     0.180 C 
ENDROOT
BRANCH   3   7
HETATM    7  N1  UNL     1       9.129  97.469  12.709  1.00  0.00    -0.272 N 
HETATM    8  C4  UNL     1       7.925  98.062  12.601  1.00  0.00     0.114 A 
HETATM    9  C5  UNL     1       7.416  98.303  13.880  1.00  0.00     0.037 A 
HETATM   10  C6  UNL     1       8.365  97.831  14.735  1.00  0.00     0.108 A 
HETATM   11  N2  UNL     1       9.381  97.336  14.011  1.00  0.00    -0.308 N 
ATOM     12  H2  UNL     1      10.225  96.918  14.402  1.00  0.00     0.186 HD
ENDBRANCH   3   7
BRANCH   4  13
HETATM   13  O3  UNL     1      11.454  98.671  10.588  1.00  0.00    -0.388 OA
ATOM     14  H3  UNL     1      11.676  99.054   9.747  1.00  0.00     0.210 HD
ENDBRANCH   4  13
BRANCH   1  15
HETATM   15  C1  UNL     1      10.244  93.935   9.990  1.00  0.00     0.198 C 
BRANCH  15  16
HETATM   16  O1  UNL     1       9.160  93.075  10.141  1.00  0.00    -0.398 OA
ATOM     17  H1  UNL     1       9.472  92.185  10.250  1.00  0.00     0.209 HD
ENDBRANCH  15  16
ENDBRANCH   1  15
BRANCH   5  18
HETATM   18  O4  UNL     1      10.457  98.494   8.246  1.00  0.00    -0.390 OA
ATOM     19  H4  UNL     1      11.401  98.435   8.150  1.00  0.00     0.210 HD
ENDBRANCH   5  18
BRANCH   6  20
HETATM   20  O5  UNL     1      11.873  96.357   9.751  1.00  0.00    -0.390 OA
ATOM     21  H5  UNL     1      12.538  96.143   9.107  1.00  0.00     0.210 HD
ENDBRANCH   6  20
TORSDOF 6
ENDMDL
MODEL 2
REMARK VINA RESULT: -7.386075713      0.667      1.005
REMARK  6 active torsions:
REMARK  status: ('A' for Active; 'I' for Inactive)
REMARK    1  A    between atoms: O1_1  and  C1_3 
REMARK    2  A    between atoms: C1_3  and  C2_4 
REMARK    3  A    between atoms: C3_6  and  N1_7 
REMARK    4  A    between atoms: C7_13  and  O3_14 
REMARK    5  A    between atoms: C8_16  and  O4_17 
REMARK    6  A    between atoms: C9_19  and  O5_20 
ROOT
HETATM    1  C2  UNL     1       9.706  95.453   9.933  1.00  0.00     0.179 C 
HETATM    2  O2  UNL     1       9.471  95.954  11.144  1.00  0.00    -0.352 OA
HETATM    3  C3  UNL     1       9.722  97.239  11.442  1.00  0.00     0.275 C 
HETATM    4  C7  UNL     1       9.810  98.222  10.342  1.00  0.00     0.200 C 
HETATM    5  C8  UNL     1       9.725  97.634   8.960  1.00  0.00     0.182 C 
HETATM    6  C9  UNL     1      10.530  96.329   9.036  1.00  0.00     0.180 C 
ENDROOT
BRANCH   3   7
HETATM    7  N1  UNL     1       8.737  97.656  12.455  1.00  0.00    -0.272 N 
HETATM    8  C4  UNL     1       8.853  97.582  13.794  1.00  0.00     0.114 A 
HETATM    9  C5  UNL     1       7.691  98.085  14.385  1.00  0.00     0.037 A 
HETATM   10  C6  UNL     1       6.894  98.454  13.342  1.00  0.00     0.108 A 
HETATM   11  N2  UNL     1       7.542  98.189  12.198  1.00  0.00    -0.308 N 
ATOM     12  H2  UNL     1       7.173  98.368  11.264  1.00  0.00     0.186 HD
ENDBRANCH   3   7
BRANCH   4  13
HETATM   13  O3  UNL     1      11.037  98.931  10.349  1.00  0.00    -0.388 OA
ATOM     14  H3  UNL     1      11.461  98.929   9.498  1.00  0.00     0.210 HD
ENDBRANCH   4  13
BRANCH   1  15
HETATM   15  C1  UNL     1      10.339  94.064  10.078  1.00  0.00     0.198 C 
BRANCH  15  16
HETATM   16  O1  UNL     1       9.339  93.097  10.133  1.00  0.00    -0.398 OA
ATOM     17  H1  UNL     1       9.518  92.416   9.496  1.00  0.00     0.209 HD
ENDBRANCH  15  16
ENDBRANCH   1  15
BRANCH   5  18
HETATM   18  O4  UNL     1      10.185  98.477   7.987  1.00  0.00    -0.390 OA
ATOM     19  H4  UNL     1       9.564  98.608   7.281  1.00  0.00     0.210 HD
ENDBRANCH   5  18
BRANCH   6  20
HETATM   20  O5  UNL     1      11.728  96.616   9.718  1.00  0.00    -0.390 OA
ATOM     21  H5  UNL     1      11.789  96.010  10.447  1.00  0.00     0.210 HD
ENDBRANCH   6  20
TORSDOF 6
ENDMDL
MODEL 3
REMARK VINA RESULT: -7.291931103      1.421      3.145
REMARK  6 active torsions:
REMARK  status: ('A' for Active; 'I' for Inactive)
REMARK    1  A    between atoms: O1_1  and  C1_3 
REMARK    2  A    between atoms: C1_3  and  C2_4 
REMARK    3  A    between atoms: C3_6  and  N1_7 
REMARK    4  A    between atoms: C7_13  and  O3_14 
REMARK    5  A    between atoms: C8_16  and  O4_17 
REMARK    6  A    between atoms: C9_19  and  O5_20 
ROOT
HETATM    1  C2  UNL     1      10.115  98.749   9.224  1.00  0.00     0.179 C 
HETATM    2  O2  UNL     1       9.269  98.548  10.233  1.00  0.00    -0.352 OA
HETATM    3  C3  UNL     1       9.142  97.349  10.824  1.00  0.00     0.275 C 
HETATM    4  C7  UNL     1      10.242  96.370  10.697  1.00  0.00     0.200 C 
HETATM    5  C8  UNL     1      11.366  96.797   9.792  1.00  0.00     0.182 C 
HETATM    6  C9  UNL     1      10.679  97.500   8.614  1.00  0.00     0.180 C 
ENDROOT
BRANCH   3   7
HETATM    7  N1  UNL     1       8.799  97.588  12.236  1.00  0.00    -0.272 N 
HETATM    8  C4  UNL     1       7.693  98.182  12.724  1.00  0.00     0.114 A 
HETATM    9  C5  UNL     1       7.763  98.206  14.119  1.00  0.00     0.037 A 
HETATM   10  C6  UNL     1       8.948  97.608  14.426  1.00  0.00     0.108 A 
HETATM   11  N2  UNL     1       9.549  97.246  13.282  1.00  0.00    -0.308 N 
ATOM     12  H2  UNL     1      10.453  96.776  13.223  1.00  0.00     0.186 HD
ENDBRANCH   3   7
BRANCH   4  13
HETATM   13  O3  UNL     1       9.806  95.134  10.159  1.00  0.00    -0.388 OA
ATOM     14  H3  UNL     1      10.175  94.389  10.620  1.00  0.00     0.210 HD
ENDBRANCH   4  13
BRANCH   1  15
HETATM   15  C1  UNL     1       9.431  99.619   8.162  1.00  0.00     0.198 C 
BRANCH  15  16
HETATM   16  O1  UNL     1       8.408 100.358   8.750  1.00  0.00    -0.398 OA
ATOM     17  H1  UNL     1       7.777  99.768   9.147  1.00  0.00     0.209 HD
ENDBRANCH  15  16
ENDBRANCH   1  15
BRANCH   5  18
HETATM   18  O4  UNL     1      12.157  95.756   9.391  1.00  0.00    -0.390 OA
ATOM     19  H4  UNL     1      12.888  95.595   9.977  1.00  0.00     0.210 HD
ENDBRANCH   5  18
BRANCH   6  20
HETATM   20  O5  UNL     1       9.590  96.696   8.224  1.00  0.00    -0.390 OA
ATOM     21  H5  UNL     1       8.828  97.261   8.171  1.00  0.00     0.210 HD
ENDBRANCH   6  20
TORSDOF 6
ENDMDL
MODEL 4
REMARK VINA RESULT: -5.630316768      2.340      3.789
REMARK  6 active torsions:
REMARK  status: ('A' for Active; 'I' for Inactive)
REMARK    1  A    between atoms: O1_1  and  C1_3 
REMARK    2  A    between atoms: C1_3  and  C2_4 
REMARK    3  A    between atoms: C3_6  and  N1_7 
REMARK    4  A    between atoms: C7_13  and  O3_14 
REMARK    5  A    between atoms: C8_16  and  O4_17 
REMARK    6  A    between atoms: C9_19  and  O5_20 
ROOT
HETATM    1  C2  UNL     1       8.247  99.094  11.388  1.00  0.00     0.179 C 
HETATM    2  O2  UNL     1       8.071  98.922  12.697  1.00  0.00    -0.352 OA
HETATM    3  C3  UNL     1       8.746  97.987  13.386  1.00  0.00     0.275 C 
HETATM    4  C7  UNL     1      10.011  97.463  12.828  1.00  0.00     0.200 C 
HETATM    5  C8  UNL     1      10.349  97.964  11.450  1.00  0.00     0.182 C 
HETATM    6  C9  UNL     1       9.010  97.999  10.703  1.00  0.00     0.180 C 
ENDROOT
BRANCH   3   7
HETATM    7  N1  UNL     1       8.936  98.501  14.753  1.00  0.00    -0.272 N 
HETATM    8  C4  UNL     1       8.065  99.213  15.493  1.00  0.00     0.114 A 
HETATM    9  C5  UNL     1       8.642  99.499  16.733  1.00  0.00     0.037 A 
HETATM   10  C6  UNL     1       9.880  98.930  16.689  1.00  0.00     0.108 A 
HETATM   11  N2  UNL     1      10.032  98.338  15.494  1.00  0.00    -0.308 N 
ATOM     12  H2  UNL     1      10.868  97.836  15.196  1.00  0.00     0.186 HD
ENDBRANCH   3   7
BRANCH   4  13
HETATM   13  O3  UNL     1       9.999  96.052  12.698  1.00  0.00    -0.388 OA
ATOM     14  H3  UNL     1       9.225  95.737  12.246  1.00  0.00     0.210 HD
ENDBRANCH   4  13
BRANCH   1  15
HETATM   15  C1  UNL     1       6.882  99.313  10.723  1.00  0.00     0.198 C 
BRANCH  15  16
HETATM   16  O1  UNL     1       6.000  99.876  11.640  1.00  0.00    -0.398 OA
ATOM     17  H1  UNL     1       5.973 100.818  11.520  1.00  0.00     0.209 HD
ENDBRANCH  15  16
ENDBRANCH   1  15
BRANCH   5  18
HETATM   18  O4  UNL     1      11.284  97.196  10.814  1.00  0.00    -0.390 OA
ATOM     19  H4  UNL     1      12.015  97.700  10.476  1.00  0.00     0.210 HD
ENDBRANCH   5  18
BRANCH   6  20
HETATM   20  O5  UNL     1       8.344  96.789  10.980  1.00  0.00    -0.390 OA
ATOM     21  H5  UNL     1       9.010  96.137  11.164  1.00  0.00     0.210 HD
ENDBRANCH   6  20
TORSDOF 6
ENDMDL
MODEL 5
REMARK VINA RESULT: -5.567425105      1.288      1.418
REMARK  6 active torsions:
REMARK  status: ('A' for Active; 'I' for Inactive)
REMARK    1  A    between atoms: O1_1  and  C1_3 
REMARK    2  A    between atoms: C1_3  and  C2_4 
REMARK    3  A    between atoms: C3_6  and  N1_7 
REMARK    4  A    between atoms: C7_13  and  O3_14 
REMARK    5  A    between atoms: C8_16  and  O4_17 
REMARK    6  A    between atoms: C9_19  and  O5_20 
ROOT
HETATM    1  C2  UNL     1      10.562  95.730   9.944  1.00  0.00     0.179 C 
HETATM    2  O2  UNL     1      10.325  96.328  11.110  1.00  0.00    -0.352 OA
HETATM    3  C3  UNL     1      10.025  97.635  11.189  1.00  0.00     0.275 C 
HETATM    4  C7  UNL     1       9.493  98.318   9.991  1.00  0.00     0.200 C 
HETATM    5  C8  UNL     1       9.460  97.476   8.745  1.00  0.00     0.182 C 
HETATM    6  C9  UNL     1      10.760  96.661   8.784  1.00  0.00     0.180 C 
ENDROOT
BRANCH   3   7
HETATM    7  N1  UNL     1       9.131  97.812  12.347  1.00  0.00    -0.272 N 
HETATM    8  C4  UNL     1       7.881  98.312  12.352  1.00  0.00     0.114 A 
HETATM    9  C5  UNL     1       7.388  98.304  13.659  1.00  0.00     0.037 A 
HETATM   10  C6  UNL     1       8.395  97.782  14.415  1.00  0.00     0.108 A 
HETATM   11  N2  UNL     1       9.427  97.494  13.607  1.00  0.00    -0.308 N 
ATOM     12  H2  UNL     1      10.312  97.091  13.914  1.00  0.00     0.186 HD
ENDBRANCH   3   7
BRANCH   4  13
HETATM   13  O3  UNL     1      10.264  99.452   9.630  1.00  0.00    -0.388 OA
ATOM     14  H3  UNL     1      11.012  99.577  10.202  1.00  0.00     0.210 HD
ENDBRANCH   4  13
BRANCH   1  15
HETATM   15  C1  UNL     1      11.760  94.784  10.100  1.00  0.00     0.198 C 
BRANCH  15  16
HETATM   16  O1  UNL     1      12.770  95.160   9.219  1.00  0.00    -0.398 OA
ATOM     17  H1  UNL     1      12.445  95.125   8.327  1.00  0.00     0.209 HD
ENDBRANCH  15  16
ENDBRANCH   1  15
BRANCH   5  18
HETATM   18  O4  UNL     1       9.339  98.214   7.600  1.00  0.00    -0.390 OA
ATOM     19  H4  UNL     1      10.061  98.087   6.996  1.00  0.00     0.210 HD
ENDBRANCH   5  18
BRANCH   6  20
HETATM   20  O5  UNL     1      11.798  97.547   9.132  1.00  0.00    -0.390 OA
ATOM     21  H5  UNL     1      12.409  97.565   8.405  1.00  0.00     0.210 HD
ENDBRANCH   6  20
TORSDOF 6
ENDMDL
