MODEL 1
REMARK VINA RESULT: -5.475621915      0.000      0.000
REMARK  2 active torsions:
REMARK  status: ('A' for Active; 'I' for Inactive)
REMARK    1  A    between atoms: C3_4  and  C4_5 
REMARK    2  A    between atoms: C8_9  and  N2_10 
REMARK       I    between atoms: N2_10  and  C9_12 
ROOT
HETATM    1  C1  UNL     1      10.722  -8.125   3.832  1.00  0.00     0.221 C 
HETATM    2  N1  UNL     1       9.917  -7.456   3.331  1.00  0.00    -0.465 NA
HETATM    3  C2  UNL     1       8.947  -6.634   2.709  1.00  0.00     0.178 A 
HETATM    4  C3  UNL     1       8.310  -7.092   1.480  1.00  0.00     0.042 A 
HETATM    5  C4  UNL     1       7.677  -6.268   0.427  1.00  0.00     0.003 C 
HETATM    6  C5  UNL     1       8.438  -6.373  -0.892  1.00  0.00    -0.003 C 
HETATM    7  C6  UNL     1       9.360  -7.536  -1.022  1.00  0.00     0.008 C 
HETATM    8  C7  UNL     1      10.555  -7.284  -0.132  1.00  0.00     0.033 C 
HETATM    9  C8  UNL     1      10.328  -5.963   0.554  1.00  0.00     0.050 C 
HETATM   10  C10 UNL     1       9.352  -5.294  -0.396  1.00  0.00     0.024 C 
HETATM   11  C11 UNL     1       8.460  -5.050   0.715  1.00  0.00     0.012 C 
HETATM   12  C12 UNL     1       9.312  -5.885   1.589  1.00  0.00     0.029 A 
ENDROOT
BRANCH   9  13
HETATM   13  N2  UNL     1      11.506  -5.171   0.832  1.00  0.00    -0.335 N 
HETATM   14  C9  UNL     1      12.226  -4.475  -0.165  1.00  0.00     0.329 C 
HETATM   15  N3  UNL     1      13.370  -3.724   0.203  1.00  0.00    -0.040 NA
HETATM   16  O1  UNL     1      11.885  -4.500  -1.371  1.00  0.00    -0.251 OA
ATOM     17  H2  UNL     1      11.834  -5.112   1.796  1.00  0.00     0.164 HD
ENDBRANCH   9  13
TORSDOF 2
ENDMDL
MODEL 2
REMARK VINA RESULT: -5.307498065      5.216      7.107
REMARK  2 active torsions:
REMARK  status: ('A' for Active; 'I' for Inactive)
REMARK    1  A    between atoms: C3_4  and  C4_5 
REMARK    2  A    between atoms: C8_9  and  N2_10 
REMARK       I    between atoms: N2_10  and  C9_12 
ROOT
HETATM    1  C1  UNL     1       8.164  -6.937  -1.777  1.00  0.00     0.221 C 
HETATM    2  N1  UNL     1       7.801  -7.682  -2.589  1.00  0.00    -0.465 NA
HETATM    3  C2  UNL     1       7.351  -8.600  -3.567  1.00  0.00     0.178 A 
HETATM    4  C3  UNL     1       6.024  -8.427  -4.148  1.00  0.00     0.042 A 
HETATM    5  C4  UNL     1       5.168  -9.457  -4.776  1.00  0.00     0.003 C 
HETATM    6  C5  UNL     1       3.892  -9.684  -3.970  1.00  0.00    -0.003 C 
HETATM    7  C6  UNL     1       3.531  -8.610  -3.003  1.00  0.00     0.008 C 
HETATM    8  C7  UNL     1       4.501  -8.679  -1.847  1.00  0.00     0.033 C 
HETATM    9  C8  UNL     1       5.467  -9.795  -2.143  1.00  0.00     0.050 C 
HETATM   10  C10 UNL     1       4.662 -10.642  -3.111  1.00  0.00     0.024 C 
HETATM   11  C11 UNL     1       5.763 -10.594  -4.047  1.00  0.00     0.012 C 
HETATM   12  C12 UNL     1       6.451  -9.601  -3.193  1.00  0.00     0.029 A 
ENDROOT
BRANCH   9  13
HETATM   13  N2  UNL     1       5.968 -10.532  -1.003  1.00  0.00    -0.335 N 
HETATM   14  C9  UNL     1       6.378  -9.916   0.200  1.00  0.00     0.329 C 
HETATM   15  N3  UNL     1       6.857 -10.721   1.263  1.00  0.00    -0.040 NA
HETATM   16  O1  UNL     1       6.333  -8.673   0.359  1.00  0.00    -0.251 OA
ATOM     17  H2  UNL     1       6.029 -11.548  -1.072  1.00  0.00     0.164 HD
ENDBRANCH   9  13
TORSDOF 2
ENDMDL
MODEL 3
REMARK VINA RESULT: -5.160587932      2.343      4.097
REMARK  2 active torsions:
REMARK  status: ('A' for Active; 'I' for Inactive)
REMARK    1  A    between atoms: C3_4  and  C4_5 
REMARK    2  A    between atoms: C8_9  and  N2_10 
REMARK       I    between atoms: N2_10  and  C9_12 
ROOT
HETATM    1  C1  UNL     1      12.006  -6.294   3.357  1.00  0.00     0.221 C 
HETATM    2  N1  UNL     1      11.843  -6.238   2.210  1.00  0.00    -0.465 NA
HETATM    3  C2  UNL     1      11.630  -6.174   0.812  1.00  0.00     0.178 A 
HETATM    4  C3  UNL     1      10.941  -5.018   0.249  1.00  0.00     0.042 A 
HETATM    5  C4  UNL     1      10.194  -4.941  -1.025  1.00  0.00     0.003 C 
HETATM    6  C5  UNL     1       8.709  -4.682  -0.783  1.00  0.00    -0.003 C 
HETATM    7  C6  UNL     1       8.351  -4.151   0.562  1.00  0.00     0.008 C 
HETATM    8  C7  UNL     1       8.515  -5.271   1.563  1.00  0.00     0.033 C 
HETATM    9  C8  UNL     1       9.000  -6.478   0.806  1.00  0.00     0.050 C 
HETATM   10  C10 UNL     1       8.530  -6.159  -0.602  1.00  0.00     0.024 C 
HETATM   11  C11 UNL     1       9.874  -6.380  -1.086  1.00  0.00     0.012 C 
HETATM   12  C12 UNL     1      10.365  -6.480   0.306  1.00  0.00     0.029 A 
ENDROOT
BRANCH   9  13
HETATM   13  N2  UNL     1       8.554  -7.765   1.291  1.00  0.00    -0.335 N 
HETATM   14  C9  UNL     1       7.192  -8.103   1.454  1.00  0.00     0.329 C 
HETATM   15  N3  UNL     1       6.851  -9.391   1.937  1.00  0.00    -0.040 NA
HETATM   16  O1  UNL     1       6.271  -7.297   1.186  1.00  0.00    -0.251 OA
ATOM     17  H2  UNL     1       9.259  -8.464   1.527  1.00  0.00     0.164 HD
ENDBRANCH   9  13
TORSDOF 2
ENDMDL
MODEL 4
REMARK VINA RESULT: -5.090080879      2.099      2.973
REMARK  2 active torsions:
REMARK  status: ('A' for Active; 'I' for Inactive)
REMARK    1  A    between atoms: C3_4  and  C4_5 
REMARK    2  A    between atoms: C8_9  and  N2_10 
REMARK       I    between atoms: N2_10  and  C9_12 
ROOT
HETATM    1  C1  UNL     1      11.626  -6.305   1.884  1.00  0.00     0.221 C 
HETATM    2  N1  UNL     1      10.625  -6.733   2.285  1.00  0.00    -0.465 NA
HETATM    3  C2  UNL     1       9.395  -7.249   2.760  1.00  0.00     0.178 A 
HETATM    4  C3  UNL     1       8.949  -8.559   2.300  1.00  0.00     0.042 A 
HETATM    5  C4  UNL     1       7.565  -9.078   2.251  1.00  0.00     0.003 C 
HETATM    6  C5  UNL     1       7.116  -9.325   0.812  1.00  0.00    -0.003 C 
HETATM    7  C6  UNL     1       8.203  -9.418  -0.202  1.00  0.00     0.008 C 
HETATM    8  C7  UNL     1       8.763  -8.031  -0.414  1.00  0.00     0.033 C 
HETATM    9  C8  UNL     1       8.015  -7.104   0.507  1.00  0.00     0.050 C 
HETATM   10  C10 UNL     1       6.729  -7.878   0.735  1.00  0.00     0.024 C 
HETATM   11  C11 UNL     1       6.923  -7.752   2.162  1.00  0.00     0.012 C 
HETATM   12  C12 UNL     1       8.271  -7.188   1.935  1.00  0.00     0.029 A 
ENDROOT
BRANCH   9  13
HETATM   13  N2  UNL     1       7.804  -5.755   0.031  1.00  0.00    -0.335 N 
HETATM   14  C9  UNL     1       8.791  -5.011  -0.654  1.00  0.00     0.329 C 
HETATM   15  N3  UNL     1       8.493  -3.694  -1.083  1.00  0.00    -0.040 NA
HETATM   16  O1  UNL     1       9.929  -5.479  -0.895  1.00  0.00    -0.251 OA
ATOM     17  H2  UNL     1       6.897  -5.318   0.197  1.00  0.00     0.164 HD
ENDBRANCH   9  13
TORSDOF 2
ENDMDL
MODEL 5
REMARK VINA RESULT: -5.064068070      2.071      3.259
REMARK  2 active torsions:
REMARK  status: ('A' for Active; 'I' for Inactive)
REMARK    1  A    between atoms: C3_4  and  C4_5 
REMARK    2  A    between atoms: C8_9  and  N2_10 
REMARK       I    between atoms: N2_10  and  C9_12 
ROOT
HETATM    1  C1  UNL     1       9.602  -9.349  -0.424  1.00  0.00     0.221 C 
HETATM    2  N1  UNL     1       8.969  -8.389  -0.578  1.00  0.00    -0.465 NA
HETATM    3  C2  UNL     1       8.204  -7.211  -0.754  1.00  0.00     0.178 A 
HETATM    4  C3  UNL     1       8.731  -6.140  -1.591  1.00  0.00     0.042 A 
HETATM    5  C4  UNL     1       8.392  -4.701  -1.541  1.00  0.00     0.003 C 
HETATM    6  C5  UNL     1       9.597  -3.861  -1.124  1.00  0.00    -0.003 C 
HETATM    7  C6  UNL     1      10.926  -4.520  -1.253  1.00  0.00     0.008 C 
HETATM    8  C7  UNL     1      11.037  -5.563  -0.166  1.00  0.00     0.033 C 
HETATM    9  C8  UNL     1       9.744  -5.541   0.605  1.00  0.00     0.050 C 
HETATM   10  C10 UNL     1       9.238  -4.142   0.304  1.00  0.00     0.024 C 
HETATM   11  C11 UNL     1       7.978  -4.706  -0.125  1.00  0.00     0.012 C 
HETATM   12  C12 UNL     1       8.548  -6.067  -0.031  1.00  0.00     0.029 A 
ENDROOT
BRANCH   9  13
HETATM   13  N2  UNL     1       9.831  -5.838   2.017  1.00  0.00    -0.335 N 
HETATM   14  C9  UNL     1      10.651  -6.860   2.546  1.00  0.00     0.329 C 
HETATM   15  N3  UNL     1      10.671  -7.077   3.947  1.00  0.00    -0.040 NA
HETATM   16  O1  UNL     1      11.364  -7.586   1.814  1.00  0.00    -0.251 OA
ATOM     17  H2  UNL     1       9.274  -5.281   2.665  1.00  0.00     0.164 HD
ENDBRANCH   9  13
TORSDOF 2
ENDMDL
