MODEL 1
REMARK VINA RESULT: -5.749109434      0.000      0.000
REMARK  2 active torsions:
REMARK  status: ('A' for Active; 'I' for Inactive)
REMARK    1  A    between atoms: C1_2  and  C2_4 
REMARK       I    between atoms: C2_4  and  N2_6 
REMARK    2  A    between atoms: N2_6  and  C3_8 
ROOT
HETATM    1  C3  UNL     1       8.352  -6.603  -0.328  1.00  0.00     0.089 C 
HETATM    2  C4  UNL     1       8.546  -6.529   1.142  1.00  0.00     0.030 C 
HETATM    3  C5  UNL     1       7.717  -7.480   1.936  1.00  0.00    -0.012 C 
HETATM    4  C6  UNL     1       8.459  -8.759   2.204  1.00  0.00     0.009 C 
HETATM    5  C7  UNL     1       8.472  -9.669   0.997  1.00  0.00    -0.013 C 
HETATM    6  C8  UNL     1       7.035 -10.066   0.728  1.00  0.00     0.009 C 
HETATM    7  C9  UNL     1       6.307  -8.798   0.324  1.00  0.00    -0.013 C 
HETATM    8  C10 UNL     1       6.355  -7.739   1.366  1.00  0.00     0.009 C 
HETATM    9  C11 UNL     1       6.838  -8.382  -1.011  1.00  0.00     0.011 C 
HETATM   10  C12 UNL     1       8.290  -8.003  -0.877  1.00  0.00     0.009 C 
HETATM   11  C13 UNL     1       9.121  -8.991  -0.150  1.00  0.00     0.011 C 
ENDROOT
BRANCH   1  12
HETATM   12  N2  UNL     1       9.456  -5.888  -0.975  1.00  0.00    -0.348 N 
HETATM   13  C2  UNL     1       9.341  -4.542  -1.369  1.00  0.00     0.306 C 
HETATM   14  O2  UNL     1       8.279  -3.922  -1.171  1.00  0.00    -0.263 OA
ATOM     15  H2  UNL     1      10.333  -6.380  -1.145  1.00  0.00     0.163 HD
BRANCH  13  16
HETATM   16  C1  UNL     1      10.448  -3.868  -2.004  1.00  0.00     0.322 C 
HETATM   17  N1  UNL     1      11.802  -4.161  -1.712  1.00  0.00    -0.053 NA
HETATM   18  O1  UNL     1      10.238  -2.969  -2.865  1.00  0.00    -0.266 OA
ENDBRANCH  13  16
ENDBRANCH   1  12
TORSDOF 2
ENDMDL
MODEL 2
REMARK VINA RESULT: -5.678711626      2.626      4.242
REMARK  2 active torsions:
REMARK  status: ('A' for Active; 'I' for Inactive)
REMARK    1  A    between atoms: C1_2  and  C2_4 
REMARK       I    between atoms: C2_4  and  N2_6 
REMARK    2  A    between atoms: N2_6  and  C3_8 
ROOT
HETATM    1  C3  UNL     1      11.071  -4.600  -1.184  1.00  0.00     0.089 C 
HETATM    2  C4  UNL     1      10.020  -3.589  -1.469  1.00  0.00     0.030 C 
HETATM    3  C5  UNL     1       8.628  -4.121  -1.502  1.00  0.00    -0.012 C 
HETATM    4  C6  UNL     1       7.965  -3.993  -0.160  1.00  0.00     0.009 C 
HETATM    5  C7  UNL     1       8.425  -5.064   0.804  1.00  0.00    -0.013 C 
HETATM    6  C8  UNL     1       7.972  -6.393   0.235  1.00  0.00     0.009 C 
HETATM    7  C9  UNL     1       8.741  -6.593  -1.057  1.00  0.00    -0.013 C 
HETATM    8  C10 UNL     1       8.509  -5.511  -2.049  1.00  0.00     0.009 C 
HETATM    9  C11 UNL     1      10.176  -6.809  -0.695  1.00  0.00     0.011 C 
HETATM   10  C12 UNL     1      10.730  -5.554  -0.073  1.00  0.00     0.009 C 
HETATM   11  C13 UNL     1       9.891  -4.977   1.004  1.00  0.00     0.011 C 
ENDROOT
BRANCH   1  12
HETATM   12  N2  UNL     1      12.309  -3.892  -0.840  1.00  0.00    -0.348 N 
HETATM   13  C2  UNL     1      13.146  -3.336  -1.824  1.00  0.00     0.306 C 
HETATM   14  O2  UNL     1      12.845  -3.435  -3.029  1.00  0.00    -0.263 OA
ATOM     15  H2  UNL     1      12.570  -3.802   0.142  1.00  0.00     0.163 HD
BRANCH  13  16
HETATM   16  C1  UNL     1      14.357  -2.646  -1.450  1.00  0.00     0.322 C 
HETATM   17  N1  UNL     1      14.674  -2.309  -0.112  1.00  0.00    -0.053 NA
HETATM   18  O1  UNL     1      15.197  -2.311  -2.330  1.00  0.00    -0.266 OA
ENDBRANCH  13  16
ENDBRANCH   1  12
TORSDOF 2
ENDMDL
MODEL 3
REMARK VINA RESULT: -5.525443094      1.034      1.034
REMARK  2 active torsions:
REMARK  status: ('A' for Active; 'I' for Inactive)
REMARK    1  A    between atoms: C1_2  and  C2_4 
REMARK       I    between atoms: C2_4  and  N2_6 
REMARK    2  A    between atoms: N2_6  and  C3_8 
ROOT
HETATM    1  C3  UNL     1       8.624  -6.649  -0.106  1.00  0.00     0.089 C 
HETATM    2  C4  UNL     1       8.372  -6.690   1.357  1.00  0.00     0.030 C 
HETATM    3  C5  UNL     1       7.284  -7.615   1.785  1.00  0.00    -0.012 C 
HETATM    4  C6  UNL     1       7.829  -8.968   2.144  1.00  0.00     0.009 C 
HETATM    5  C7  UNL     1       8.146  -9.795   0.918  1.00  0.00    -0.013 C 
HETATM    6  C8  UNL     1       6.833 -10.046   0.205  1.00  0.00     0.009 C 
HETATM    7  C9  UNL     1       6.342  -8.696  -0.281  1.00  0.00    -0.013 C 
HETATM    8  C10 UNL     1       6.143  -7.716   0.819  1.00  0.00     0.009 C 
HETATM    9  C11 UNL     1       7.274  -8.240  -1.358  1.00  0.00     0.011 C 
HETATM   10  C12 UNL     1       8.640  -7.999  -0.771  1.00  0.00     0.009 C 
HETATM   11  C13 UNL     1       9.150  -9.101   0.078  1.00  0.00     0.011 C 
ENDROOT
BRANCH   1  12
HETATM   12  N2  UNL     1       9.914  -5.992  -0.334  1.00  0.00    -0.348 N 
HETATM   13  C2  UNL     1      10.010  -4.741  -0.971  1.00  0.00     0.306 C 
HETATM   14  O2  UNL     1       8.979  -4.158  -1.359  1.00  0.00    -0.263 OA
ATOM     15  H2  UNL     1      10.768  -6.455  -0.022  1.00  0.00     0.163 HD
BRANCH  13  16
HETATM   16  C1  UNL     1      11.296  -4.121  -1.179  1.00  0.00     0.322 C 
HETATM   17  N1  UNL     1      11.735  -3.657  -2.443  1.00  0.00    -0.053 NA
HETATM   18  O1  UNL     1      12.094  -3.970  -0.214  1.00  0.00    -0.266 OA
ENDBRANCH  13  16
ENDBRANCH   1  12
TORSDOF 2
ENDMDL
MODEL 4
REMARK VINA RESULT: -5.495983510      1.357      2.543
REMARK  2 active torsions:
REMARK  status: ('A' for Active; 'I' for Inactive)
REMARK    1  A    between atoms: C1_2  and  C2_4 
REMARK       I    between atoms: C2_4  and  N2_6 
REMARK    2  A    between atoms: N2_6  and  C3_8 
ROOT
HETATM    1  C3  UNL     1       9.721  -6.310   0.042  1.00  0.00     0.089 C 
HETATM    2  C4  UNL     1       9.818  -7.609  -0.673  1.00  0.00     0.030 C 
HETATM    3  C5  UNL     1       9.473  -8.806   0.145  1.00  0.00    -0.012 C 
HETATM    4  C6  UNL     1       8.024  -9.172  -0.007  1.00  0.00     0.009 C 
HETATM    5  C7  UNL     1       7.124  -8.270   0.808  1.00  0.00    -0.013 C 
HETATM    6  C8  UNL     1       7.467  -8.505   2.265  1.00  0.00     0.009 C 
HETATM    7  C9  UNL     1       8.888  -8.011   2.458  1.00  0.00    -0.013 C 
HETATM    8  C10 UNL     1       9.872  -8.706   1.587  1.00  0.00     0.009 C 
HETATM    9  C11 UNL     1       8.870  -6.523   2.312  1.00  0.00     0.011 C 
HETATM   10  C12 UNL     1       8.493  -6.163   0.898  1.00  0.00     0.009 C 
HETATM   11  C13 UNL     1       7.291  -6.860   0.383  1.00  0.00     0.011 C 
ENDROOT
BRANCH   1  12
HETATM   12  N2  UNL     1       9.739  -5.234  -0.953  1.00  0.00    -0.348 N 
HETATM   13  C2  UNL     1      10.905  -4.498  -1.232  1.00  0.00     0.306 C 
HETATM   14  O2  UNL     1      11.964  -4.753  -0.627  1.00  0.00    -0.263 OA
ATOM     15  H2  UNL     1       8.881  -5.012  -1.458  1.00  0.00     0.163 HD
BRANCH  13  16
HETATM   16  C1  UNL     1      10.888  -3.444  -2.218  1.00  0.00     0.322 C 
HETATM   17  N1  UNL     1      12.050  -2.745  -2.623  1.00  0.00    -0.053 NA
HETATM   18  O1  UNL     1       9.804  -3.102  -2.766  1.00  0.00    -0.266 OA
ENDBRANCH  13  16
ENDBRANCH   1  12
TORSDOF 2
ENDMDL
MODEL 5
REMARK VINA RESULT: -5.473349352      2.411      3.469
REMARK  2 active torsions:
REMARK  status: ('A' for Active; 'I' for Inactive)
REMARK    1  A    between atoms: C1_2  and  C2_4 
REMARK       I    between atoms: C2_4  and  N2_6 
REMARK    2  A    between atoms: N2_6  and  C3_8 
ROOT
HETATM    1  C3  UNL     1      10.806  -4.969  -0.063  1.00  0.00     0.089 C 
HETATM    2  C4  UNL     1      11.324  -6.357   0.048  1.00  0.00     0.030 C 
HETATM    3  C5  UNL     1      10.441  -7.302   0.790  1.00  0.00    -0.012 C 
HETATM    4  C6  UNL     1       9.523  -8.038  -0.144  1.00  0.00     0.009 C 
HETATM    5  C7  UNL     1       8.356  -7.182  -0.581  1.00  0.00    -0.013 C 
HETATM    6  C8  UNL     1       7.540  -6.880   0.659  1.00  0.00     0.009 C 
HETATM    7  C9  UNL     1       8.416  -6.021   1.551  1.00  0.00    -0.013 C 
HETATM    8  C10 UNL     1       9.692  -6.682   1.930  1.00  0.00     0.009 C 
HETATM    9  C11 UNL     1       8.578  -4.695   0.876  1.00  0.00     0.011 C 
HETATM   10  C12 UNL     1       9.345  -4.877  -0.407  1.00  0.00     0.009 C 
HETATM   11  C13 UNL     1       8.843  -5.968  -1.277  1.00  0.00     0.011 C 
ENDROOT
BRANCH   1  12
HETATM   12  N2  UNL     1      11.582  -4.268  -1.090  1.00  0.00    -0.348 N 
HETATM   13  C2  UNL     1      12.822  -3.668  -0.807  1.00  0.00     0.306 C 
HETATM   14  O2  UNL     1      13.293  -3.723   0.346  1.00  0.00    -0.263 OA
ATOM     15  H2  UNL     1      11.212  -4.215  -2.040  1.00  0.00     0.163 HD
BRANCH  13  16
HETATM   16  C1  UNL     1      13.560  -2.986  -1.843  1.00  0.00     0.322 C 
HETATM   17  N1  UNL     1      13.381  -3.250  -3.222  1.00  0.00    -0.053 NA
HETATM   18  O1  UNL     1      14.413  -2.107  -1.543  1.00  0.00    -0.266 OA
ENDBRANCH  13  16
ENDBRANCH   1  12
TORSDOF 2
ENDMDL
