MODEL 1
REMARK VINA RESULT: -5.868705020      0.000      0.000
REMARK  2 active torsions:
REMARK  status: ('A' for Active; 'I' for Inactive)
REMARK       I    between atoms: C1_2  and  N4_13 
REMARK       I    between atoms: N2_3  and  C2_5 
REMARK       I    between atoms: C2_5  and  N3_7 
REMARK    1  A    between atoms: N4_13  and  C8_15 
REMARK    2  A    between atoms: C8_15  and  C9_16 
ROOT
HETATM    1  N1  UNL     1      11.140  -7.134   0.487  1.00  0.00    -0.063 NA
HETATM    2  C1  UNL     1      10.769  -5.886   1.059  1.00  0.00     0.192 C 
HETATM    3  N2  UNL     1       9.889  -5.906   2.024  1.00  0.00    -0.283 N 
ATOM      4  H2  UNL     1       9.603  -5.027   2.455  1.00  0.00     0.173 HD
HETATM    5  C2  UNL     1       9.320  -7.125   2.489  1.00  0.00     0.324 C 
HETATM    6  O1  UNL     1       9.871  -7.733   3.460  1.00  0.00    -0.247 OA
HETATM    7  N3  UNL     1       8.167  -7.705   1.932  1.00  0.00    -0.334 N 
HETATM    8  C3  UNL     1       7.639  -8.934   2.441  1.00  0.00     0.127 C 
HETATM    9  C4  UNL     1       7.244  -9.908   1.364  1.00  0.00     0.020 C 
HETATM   10  C5  UNL     1       6.444  -9.268   0.264  1.00  0.00     0.003 C 
HETATM   11  C6  UNL     1       7.053  -7.990  -0.244  1.00  0.00     0.020 C 
HETATM   12  C7  UNL     1       7.502  -7.061   0.833  1.00  0.00     0.127 C 
HETATM   13  N4  UNL     1      11.315  -4.650   0.623  1.00  0.00    -0.364 N 
ATOM     14  H4  UNL     1      11.613  -3.950   1.302  1.00  0.00     0.162 HD
ENDROOT
BRANCH  13  15
HETATM   15  C8  UNL     1      11.442  -4.398  -0.777  1.00  0.00     0.127 C 
BRANCH  15  16
HETATM   16  C9  UNL     1      10.182  -4.609  -1.551  1.00  0.00     0.003 A 
HETATM   17  C10 UNL     1       8.955  -3.849  -1.277  1.00  0.00     0.007 A 
HETATM   18  C11 UNL     1       9.809  -3.458  -2.466  1.00  0.00     0.007 A 
ENDBRANCH  15  16
ENDBRANCH  13  15
TORSDOF 2
ENDMDL
MODEL 2
REMARK VINA RESULT: -5.523053272      1.898      2.279
REMARK  2 active torsions:
REMARK  status: ('A' for Active; 'I' for Inactive)
REMARK       I    between atoms: C1_2  and  N4_13 
REMARK       I    between atoms: N2_3  and  C2_5 
REMARK       I    between atoms: C2_5  and  N3_7 
REMARK    1  A    between atoms: N4_13  and  C8_15 
REMARK    2  A    between atoms: C8_15  and  C9_16 
ROOT
HETATM    1  N1  UNL     1      10.006  -6.897   0.962  1.00  0.00    -0.063 NA
HETATM    2  C1  UNL     1       9.288  -5.713   0.637  1.00  0.00     0.192 C 
HETATM    3  N2  UNL     1       7.997  -5.822   0.472  1.00  0.00    -0.283 N 
ATOM      4  H2  UNL     1       7.454  -4.991   0.238  1.00  0.00     0.173 HD
HETATM    5  C2  UNL     1       7.330  -7.072   0.611  1.00  0.00     0.324 C 
HETATM    6  O1  UNL     1       6.853  -7.394   1.744  1.00  0.00    -0.247 OA
HETATM    7  N3  UNL     1       7.162  -7.982  -0.446  1.00  0.00    -0.334 N 
HETATM    8  C3  UNL     1       6.482  -9.226  -0.248  1.00  0.00     0.127 C 
HETATM    9  C4  UNL     1       7.181 -10.399  -0.879  1.00  0.00     0.020 C 
HETATM   10  C5  UNL     1       7.625 -10.124  -2.289  1.00  0.00     0.003 C 
HETATM   11  C6  UNL     1       8.349  -8.814  -2.436  1.00  0.00     0.020 C 
HETATM   12  C7  UNL     1       7.681  -7.671  -1.749  1.00  0.00     0.127 C 
HETATM   13  N4  UNL     1       9.918  -4.450   0.491  1.00  0.00    -0.364 N 
ATOM     14  H4  UNL     1       9.501  -3.615   0.904  1.00  0.00     0.162 HD
ENDROOT
BRANCH  13  15
HETATM   15  C8  UNL     1      11.141  -4.360  -0.241  1.00  0.00     0.127 C 
BRANCH  15  16
HETATM   16  C9  UNL     1      10.962  -4.327  -1.724  1.00  0.00     0.003 A 
HETATM   17  C10 UNL     1      10.199  -3.271  -2.400  1.00  0.00     0.007 A 
HETATM   18  C11 UNL     1      11.712  -3.208  -2.421  1.00  0.00     0.007 A 
ENDBRANCH  15  16
ENDBRANCH  13  15
TORSDOF 2
ENDMDL
MODEL 3
REMARK VINA RESULT: -5.485149151      2.116      3.543
REMARK  2 active torsions:
REMARK  status: ('A' for Active; 'I' for Inactive)
REMARK       I    between atoms: C1_2  and  N4_13 
REMARK       I    between atoms: N2_3  and  C2_5 
REMARK       I    between atoms: C2_5  and  N3_7 
REMARK    1  A    between atoms: N4_13  and  C8_15 
REMARK    2  A    between atoms: C8_15  and  C9_16 
ROOT
HETATM    1  N1  UNL     1       8.767  -3.998   0.294  1.00  0.00    -0.063 NA
HETATM    2  C1  UNL     1       8.719  -4.718  -0.931  1.00  0.00     0.192 C 
HETATM    3  N2  UNL     1       8.500  -6.004  -0.862  1.00  0.00    -0.283 N 
ATOM      4  H2  UNL     1       8.460  -6.549  -1.723  1.00  0.00     0.173 HD
HETATM    5  C2  UNL     1       8.316  -6.663   0.386  1.00  0.00     0.324 C 
HETATM    6  O1  UNL     1       7.138  -6.799   0.844  1.00  0.00    -0.247 OA
HETATM    7  N3  UNL     1       9.374  -7.183   1.151  1.00  0.00    -0.334 N 
HETATM    8  C3  UNL     1       9.129  -7.837   2.401  1.00  0.00     0.127 C 
HETATM    9  C4  UNL     1      10.075  -7.417   3.493  1.00  0.00     0.020 C 
HETATM   10  C5  UNL     1      11.510  -7.398   3.045  1.00  0.00     0.003 C 
HETATM   11  C6  UNL     1      11.712  -6.684   1.736  1.00  0.00     0.020 C 
HETATM   12  C7  UNL     1      10.726  -7.058   0.682  1.00  0.00     0.127 C 
HETATM   13  N4  UNL     1       8.897  -4.096  -2.195  1.00  0.00    -0.364 N 
ATOM     14  H4  UNL     1       8.282  -4.328  -2.975  1.00  0.00     0.162 HD
ENDROOT
BRANCH  13  15
HETATM   15  C8  UNL     1       9.946  -3.142  -2.362  1.00  0.00     0.127 C 
BRANCH  15  16
HETATM   16  C9  UNL     1      11.305  -3.749  -2.503  1.00  0.00     0.003 A 
HETATM   17  C10 UNL     1      12.528  -2.937  -2.529  1.00  0.00     0.007 A 
HETATM   18  C11 UNL     1      12.160  -3.667  -1.254  1.00  0.00     0.007 A 
ENDBRANCH  15  16
ENDBRANCH  13  15
TORSDOF 2
ENDMDL
MODEL 4
REMARK VINA RESULT: -5.410108816      0.953      1.340
REMARK  2 active torsions:
REMARK  status: ('A' for Active; 'I' for Inactive)
REMARK       I    between atoms: C1_2  and  N4_13 
REMARK       I    between atoms: N2_3  and  C2_5 
REMARK       I    between atoms: C2_5  and  N3_7 
REMARK    1  A    between atoms: N4_13  and  C8_15 
REMARK    2  A    between atoms: C8_15  and  C9_16 
ROOT
HETATM    1  N1  UNL     1      11.116  -7.104   0.392  1.00  0.00    -0.063 NA
HETATM    2  C1  UNL     1      10.747  -5.816   0.869  1.00  0.00     0.192 C 
HETATM    3  N2  UNL     1       9.864  -5.764   1.830  1.00  0.00    -0.283 N 
ATOM      4  H2  UNL     1       9.577  -4.855   2.193  1.00  0.00     0.173 HD
HETATM    5  C2  UNL     1       9.291  -6.944   2.382  1.00  0.00     0.324 C 
HETATM    6  O1  UNL     1       9.839  -7.479   3.398  1.00  0.00    -0.247 OA
HETATM    7  N3  UNL     1       8.139  -7.562   1.867  1.00  0.00    -0.334 N 
HETATM    8  C3  UNL     1       7.608  -8.749   2.465  1.00  0.00     0.127 C 
HETATM    9  C4  UNL     1       7.214  -9.800   1.463  1.00  0.00     0.020 C 
HETATM   10  C5  UNL     1       6.418  -9.243   0.316  1.00  0.00     0.003 C 
HETATM   11  C6  UNL     1       7.031  -8.007  -0.284  1.00  0.00     0.020 C 
HETATM   12  C7  UNL     1       7.478  -7.001   0.721  1.00  0.00     0.127 C 
HETATM   13  N4  UNL     1      11.295  -4.617   0.344  1.00  0.00    -0.364 N 
ATOM     14  H4  UNL     1      11.592  -3.869   0.970  1.00  0.00     0.162 HD
ENDROOT
BRANCH  13  15
HETATM   15  C8  UNL     1      11.427  -4.471  -1.071  1.00  0.00     0.127 C 
BRANCH  15  16
HETATM   16  C9  UNL     1      12.189  -3.256  -1.489  1.00  0.00     0.003 A 
HETATM   17  C10 UNL     1      12.910  -3.182  -2.767  1.00  0.00     0.007 A 
HETATM   18  C11 UNL     1      11.567  -2.493  -2.643  1.00  0.00     0.007 A 
ENDBRANCH  15  16
ENDBRANCH  13  15
TORSDOF 2
ENDMDL
MODEL 5
REMARK VINA RESULT: -5.187332972      1.721      2.421
REMARK  2 active torsions:
REMARK  status: ('A' for Active; 'I' for Inactive)
REMARK       I    between atoms: C1_2  and  N4_13 
REMARK       I    between atoms: N2_3  and  C2_5 
REMARK       I    between atoms: C2_5  and  N3_7 
REMARK    1  A    between atoms: N4_13  and  C8_15 
REMARK    2  A    between atoms: C8_15  and  C9_16 
ROOT
HETATM    1  N1  UNL     1       9.623  -7.837   1.067  1.00  0.00    -0.063 NA
HETATM    2  C1  UNL     1       8.672  -6.942   1.629  1.00  0.00     0.192 C 
HETATM    3  N2  UNL     1       7.529  -7.445   2.013  1.00  0.00    -0.283 N 
ATOM      4  H2  UNL     1       6.826  -6.828   2.420  1.00  0.00     0.173 HD
HETATM    5  C2  UNL     1       7.241  -8.832   1.877  1.00  0.00     0.324 C 
HETATM    6  O1  UNL     1       7.504  -9.615   2.844  1.00  0.00    -0.247 OA
HETATM    7  N3  UNL     1       6.673  -9.396   0.722  1.00  0.00    -0.334 N 
HETATM    8  C3  UNL     1       6.406 -10.800   0.642  1.00  0.00     0.127 C 
HETATM    9  C4  UNL     1       6.825 -11.416  -0.666  1.00  0.00     0.020 C 
HETATM   10  C5  UNL     1       6.393 -10.607  -1.857  1.00  0.00     0.003 C 
HETATM   11  C6  UNL     1       6.714  -9.144  -1.726  1.00  0.00     0.020 C 
HETATM   12  C7  UNL     1       6.355  -8.559  -0.401  1.00  0.00     0.127 C 
HETATM   13  N4  UNL     1       8.922  -5.553   1.782  1.00  0.00    -0.364 N 
ATOM     14  H4  UNL     1       8.671  -5.076   2.648  1.00  0.00     0.162 HD
ENDROOT
BRANCH  13  15
HETATM   15  C8  UNL     1       9.528  -4.831   0.709  1.00  0.00     0.127 C 
BRANCH  15  16
HETATM   16  C9  UNL     1       8.595  -4.504  -0.411  1.00  0.00     0.003 A 
HETATM   17  C10 UNL     1       9.052  -3.878  -1.657  1.00  0.00     0.007 A 
HETATM   18  C11 UNL     1       8.772  -5.367  -1.646  1.00  0.00     0.007 A 
ENDBRANCH  15  16
ENDBRANCH  13  15
TORSDOF 2
ENDMDL
