MODEL 1
REMARK VINA RESULT: -5.534755147      0.000      0.000
REMARK  1 active torsions:
REMARK  status: ('A' for Active; 'I' for Inactive)
REMARK       I    between atoms: N1_2  and  C2_4 
REMARK       I    between atoms: C2_4  and  N2_6 
REMARK    1  A    between atoms: C9_13  and  N3_14 
REMARK       I    between atoms: N3_14  and  C10_16 
ROOT
HETATM    1  C1  UNL     1       8.512  -4.580  -1.476  1.00  0.00     0.151 C 
HETATM    2  N1  UNL     1       7.946  -5.550  -2.365  1.00  0.00    -0.347 N 
ATOM      3  H1  UNL     1       7.417  -5.241  -3.181  1.00  0.00     0.163 HD
HETATM    4  C2  UNL     1       8.115  -6.928  -2.120  1.00  0.00     0.318 C 
HETATM    5  O1  UNL     1       8.776  -7.266  -1.100  1.00  0.00    -0.247 OA
HETATM    6  N2  UNL     1       7.569  -7.928  -2.981  1.00  0.00    -0.324 N 
HETATM    7  C3  UNL     1       6.806  -7.776  -4.175  1.00  0.00     0.091 C 
HETATM    8  C4  UNL     1       7.551  -8.701  -5.135  1.00  0.00     0.027 C 
HETATM    9  C5  UNL     1       8.015  -9.805  -4.209  1.00  0.00     0.028 C 
HETATM   10  C6  UNL     1       7.700  -9.358  -2.796  1.00  0.00     0.095 C 
HETATM   11  C7  UNL     1       6.343  -9.855  -2.346  1.00  0.00     0.027 C 
HETATM   12  C8  UNL     1       5.901  -9.000  -1.186  1.00  0.00     0.014 C 
HETATM   13  C9  UNL     1       5.344  -9.689  -3.471  1.00  0.00     0.095 C 
HETATM   14  C11 UNL     1       5.396  -8.311  -4.078  1.00  0.00     0.051 C 
ENDROOT
BRANCH  13  15
HETATM   15  N3  UNL     1       4.043  -9.993  -2.936  1.00  0.00    -0.330 N 
HETATM   16  C10 UNL     1       3.197 -10.892  -3.623  1.00  0.00     0.283 C 
HETATM   17  O2  UNL     1       3.600 -11.408  -4.693  1.00  0.00    -0.630 OA
HETATM   18  O3  UNL     1       1.928 -11.247  -3.189  1.00  0.00    -0.630 OA
ATOM     19  H3  UNL     1       3.733  -9.562  -2.065  1.00  0.00     0.165 HD
ENDBRANCH  13  15
TORSDOF 1
ENDMDL
MODEL 2
REMARK VINA RESULT: -5.406230971      3.494      5.061
REMARK  1 active torsions:
REMARK  status: ('A' for Active; 'I' for Inactive)
REMARK       I    between atoms: N1_2  and  C2_4 
REMARK       I    between atoms: C2_4  and  N2_6 
REMARK    1  A    between atoms: C9_13  and  N3_14 
REMARK       I    between atoms: N3_14  and  C10_16 
ROOT
HETATM    1  C1  UNL     1      12.412  -6.250   3.630  1.00  0.00     0.151 C 
HETATM    2  N1  UNL     1      11.181  -6.090   2.915  1.00  0.00    -0.347 N 
ATOM      3  H1  UNL     1      10.328  -5.853   3.422  1.00  0.00     0.163 HD
HETATM    4  C2  UNL     1      11.140  -6.260   1.515  1.00  0.00     0.318 C 
HETATM    5  O1  UNL     1      12.217  -6.554   0.928  1.00  0.00    -0.247 OA
HETATM    6  N2  UNL     1       9.935  -6.109   0.764  1.00  0.00    -0.324 N 
HETATM    7  C3  UNL     1       8.624  -5.778   1.214  1.00  0.00     0.091 C 
HETATM    8  C4  UNL     1       8.247  -4.650   0.254  1.00  0.00     0.027 C 
HETATM    9  C5  UNL     1       8.945  -5.077  -1.020  1.00  0.00     0.028 C 
HETATM   10  C6  UNL     1       9.815  -6.267  -0.669  1.00  0.00     0.095 C 
HETATM   11  C7  UNL     1       9.085  -7.573  -0.895  1.00  0.00     0.027 C 
HETATM   12  C8  UNL     1       9.790  -8.639  -0.094  1.00  0.00     0.014 C 
HETATM   13  C9  UNL     1       7.664  -7.455  -0.387  1.00  0.00     0.095 C 
HETATM   14  C11 UNL     1       7.604  -6.873   1.002  1.00  0.00     0.051 C 
ENDROOT
BRANCH  13  15
HETATM   15  N3  UNL     1       7.077  -8.767  -0.446  1.00  0.00    -0.330 N 
HETATM   16  C10 UNL     1       6.351  -9.157  -1.594  1.00  0.00     0.283 C 
HETATM   17  O2  UNL     1       6.232  -8.346  -2.542  1.00  0.00    -0.630 OA
HETATM   18  O3  UNL     1       5.748 -10.398  -1.745  1.00  0.00    -0.630 OA
ATOM     19  H3  UNL     1       7.184  -9.412   0.336  1.00  0.00     0.165 HD
ENDBRANCH  13  15
TORSDOF 1
ENDMDL
MODEL 3
REMARK VINA RESULT: -5.283722994      2.413      6.217
REMARK  1 active torsions:
REMARK  status: ('A' for Active; 'I' for Inactive)
REMARK       I    between atoms: N1_2  and  C2_4 
REMARK       I    between atoms: C2_4  and  N2_6 
REMARK    1  A    between atoms: C9_13  and  N3_14 
REMARK       I    between atoms: N3_14  and  C10_16 
ROOT
HETATM    1  C1  UNL     1       3.235  -9.069  -2.815  1.00  0.00     0.151 C 
HETATM    2  N1  UNL     1       4.205  -8.814  -1.793  1.00  0.00    -0.347 N 
ATOM      3  H1  UNL     1       3.912  -8.395  -0.910  1.00  0.00     0.163 HD
HETATM    4  C2  UNL     1       5.563  -9.136  -1.999  1.00  0.00     0.318 C 
HETATM    5  O1  UNL     1       5.882  -9.652  -3.106  1.00  0.00    -0.247 OA
HETATM    6  N2  UNL     1       6.562  -8.898  -1.007  1.00  0.00    -0.324 N 
HETATM    7  C3  UNL     1       6.427  -8.341   0.297  1.00  0.00     0.091 C 
HETATM    8  C4  UNL     1       7.172  -9.368   1.148  1.00  0.00     0.027 C 
HETATM    9  C5  UNL     1       8.267  -9.820   0.206  1.00  0.00     0.028 C 
HETATM   10  C6  UNL     1       7.970  -9.202  -1.145  1.00  0.00     0.095 C 
HETATM   11  C7  UNL     1       8.677  -7.875  -1.316  1.00  0.00     0.027 C 
HETATM   12  C8  UNL     1       7.976  -7.118  -2.416  1.00  0.00     0.014 C 
HETATM   13  C9  UNL     1       8.566  -7.073  -0.038  1.00  0.00     0.095 C 
HETATM   14  C11 UNL     1       7.153  -7.028   0.484  1.00  0.00     0.051 C 
ENDROOT
BRANCH  13  15
HETATM   15  N3  UNL     1       9.080  -5.757  -0.311  1.00  0.00    -0.330 N 
HETATM   16  C10 UNL     1      10.465  -5.507  -0.189  1.00  0.00     0.283 C 
HETATM   17  O2  UNL     1      11.222  -6.445   0.159  1.00  0.00    -0.630 OA
HETATM   18  O3  UNL     1      11.055  -4.275  -0.430  1.00  0.00    -0.630 OA
ATOM     19  H3  UNL     1       8.448  -5.008  -0.592  1.00  0.00     0.165 HD
ENDBRANCH  13  15
TORSDOF 1
ENDMDL
MODEL 4
REMARK VINA RESULT: -5.148295761      4.163      6.257
REMARK  1 active torsions:
REMARK  status: ('A' for Active; 'I' for Inactive)
REMARK       I    between atoms: N1_2  and  C2_4 
REMARK       I    between atoms: C2_4  and  N2_6 
REMARK    1  A    between atoms: C9_13  and  N3_14 
REMARK       I    between atoms: N3_14  and  C10_16 
ROOT
HETATM    1  C1  UNL     1      10.040 -11.542   3.373  1.00  0.00     0.151 C 
HETATM    2  N1  UNL     1       9.534 -10.875   2.211  1.00  0.00    -0.347 N 
ATOM      3  H1  UNL     1       9.955 -11.055   1.299  1.00  0.00     0.163 HD
HETATM    4  C2  UNL     1       8.457  -9.969   2.318  1.00  0.00     0.318 C 
HETATM    5  O1  UNL     1       7.966  -9.775   3.464  1.00  0.00    -0.247 OA
HETATM    6  N2  UNL     1       7.922  -9.284   1.185  1.00  0.00    -0.324 N 
HETATM    7  C3  UNL     1       8.311  -9.357  -0.183  1.00  0.00     0.091 C 
HETATM    8  C4  UNL     1       6.967  -9.585  -0.873  1.00  0.00     0.027 C 
HETATM    9  C5  UNL     1       6.025  -8.790   0.007  1.00  0.00     0.028 C 
HETATM   10  C6  UNL     1       6.822  -8.344   1.217  1.00  0.00     0.095 C 
HETATM   11  C7  UNL     1       7.428  -6.973   1.007  1.00  0.00     0.027 C 
HETATM   12  C8  UNL     1       8.559  -6.814   1.991  1.00  0.00     0.014 C 
HETATM   13  C9  UNL     1       7.994  -6.877  -0.392  1.00  0.00     0.095 C 
HETATM   14  C11 UNL     1       8.858  -8.062  -0.738  1.00  0.00     0.051 C 
ENDROOT
BRANCH  13  15
HETATM   15  N3  UNL     1       8.721  -5.638  -0.477  1.00  0.00    -0.330 N 
HETATM   16  C10 UNL     1       8.752  -4.926  -1.696  1.00  0.00     0.283 C 
HETATM   17  O2  UNL     1       8.142  -5.393  -2.687  1.00  0.00    -0.630 OA
HETATM   18  O3  UNL     1       9.424  -3.726  -1.877  1.00  0.00    -0.630 OA
ATOM     19  H3  UNL     1       9.211  -5.275   0.341  1.00  0.00     0.165 HD
ENDBRANCH  13  15
TORSDOF 1
ENDMDL
MODEL 5
REMARK VINA RESULT: -5.139794222      3.585      5.131
REMARK  1 active torsions:
REMARK  status: ('A' for Active; 'I' for Inactive)
REMARK       I    between atoms: N1_2  and  C2_4 
REMARK       I    between atoms: C2_4  and  N2_6 
REMARK    1  A    between atoms: C9_13  and  N3_14 
REMARK       I    between atoms: N3_14  and  C10_16 
ROOT
HETATM    1  C1  UNL     1      11.580  -3.095  -2.441  1.00  0.00     0.151 C 
HETATM    2  N1  UNL     1      11.302  -4.195  -1.566  1.00  0.00    -0.347 N 
ATOM      3  H1  UNL     1      12.063  -4.798  -1.253  1.00  0.00     0.163 HD
HETATM    4  C2  UNL     1       9.984  -4.449  -1.133  1.00  0.00     0.318 C 
HETATM    5  O1  UNL     1       9.073  -3.678  -1.544  1.00  0.00    -0.247 OA
HETATM    6  N2  UNL     1       9.664  -5.533  -0.261  1.00  0.00    -0.324 N 
HETATM    7  C3  UNL     1      10.522  -6.509   0.323  1.00  0.00     0.091 C 
HETATM    8  C4  UNL     1      10.106  -6.444   1.791  1.00  0.00     0.027 C 
HETATM    9  C5  UNL     1       8.627  -6.142   1.684  1.00  0.00     0.028 C 
HETATM   10  C6  UNL     1       8.339  -5.856   0.224  1.00  0.00     0.095 C 
HETATM   11  C7  UNL     1       7.909  -7.107  -0.511  1.00  0.00     0.027 C 
HETATM   12  C8  UNL     1       8.114  -6.867  -1.986  1.00  0.00     0.014 C 
HETATM   13  C9  UNL     1       8.782  -8.268  -0.089  1.00  0.00     0.095 C 
HETATM   14  C11 UNL     1      10.248  -7.923  -0.134  1.00  0.00     0.051 C 
ENDROOT
BRANCH  13  15
HETATM   15  N3  UNL     1       8.463  -9.378  -0.949  1.00  0.00    -0.330 N 
HETATM   16  C10 UNL     1       7.569 -10.376  -0.501  1.00  0.00     0.283 C 
HETATM   17  O2  UNL     1       7.069 -10.274   0.644  1.00  0.00    -0.630 OA
HETATM   18  O3  UNL     1       7.201 -11.482  -1.254  1.00  0.00    -0.630 OA
ATOM     19  H3  UNL     1       8.881  -9.444  -1.877  1.00  0.00     0.165 HD
ENDBRANCH  13  15
TORSDOF 1
ENDMDL
