MODEL 1
REMARK VINA RESULT: -5.227047096      0.000      0.000
REMARK  5 active torsions:
REMARK  status: ('A' for Active; 'I' for Inactive)
REMARK    1  A    between atoms: N1_2  and  N2_3 
REMARK    2  A    between atoms: N2_3  and  C2_5 
REMARK    3  A    between atoms: C2_5  and  C3_9 
REMARK    4  A    between atoms: C3_9  and  C4_10 
REMARK    5  A    between atoms: C5_11  and  N4_12 
ROOT
HETATM    1  C3  UNL     1       9.516  -5.569  -0.677  1.00  0.00     0.084 C 
HETATM    2  C9  UNL     1       8.597  -5.018   0.383  1.00  0.00     0.031 C 
HETATM    3  C10 UNL     1       8.210  -6.071   1.379  1.00  0.00     0.002 C 
HETATM    4  C11 UNL     1       9.462  -6.613   2.043  1.00  0.00     0.000 C 
HETATM    5  C12 UNL     1      10.375  -7.222   1.008  1.00  0.00     0.002 C 
HETATM    6  C13 UNL     1      10.710  -6.281  -0.096  1.00  0.00     0.031 C 
ENDROOT
BRANCH   1   7
HETATM    7  C2  UNL     1      10.023  -4.468  -1.519  1.00  0.00     0.107 C 
HETATM    8  N3  UNL     1       9.252  -3.786  -2.300  1.00  0.00    -0.387 N 
ATOM      9  H32 UNL     1       9.602  -3.026  -2.882  1.00  0.00     0.157 HD
ATOM     10  H31 UNL     1       8.264  -4.040  -2.315  1.00  0.00     0.157 HD
BRANCH   7  11
HETATM   11  N2  UNL     1      11.390  -4.117  -1.498  1.00  0.00    -0.292 N 
ATOM     12  H2  UNL     1      11.958  -4.277  -0.666  1.00  0.00     0.183 HD
BRANCH  11  13
HETATM   13  N1  UNL     1      11.946  -3.544  -2.643  1.00  0.00    -0.145 NA
HETATM   14  C1  UNL     1      13.104  -2.793  -2.253  1.00  0.00     0.159 C 
ENDBRANCH  11  13
ENDBRANCH   7  11
ENDBRANCH   1   7
BRANCH   1  15
HETATM   15  C4  UNL     1       8.691  -6.507  -1.475  1.00  0.00    -0.058 C 
HETATM   16  C5  UNL     1       8.028  -7.263  -2.142  1.00  0.00     0.116 C 
BRANCH  16  17
HETATM   17  N4  UNL     1       7.270  -8.139  -2.935  1.00  0.00    -0.014 N 
HETATM   18  C6  UNL     1       8.084  -9.237  -3.437  1.00  0.00     0.289 C 
HETATM   19  C7  UNL     1       6.171  -8.711  -2.177  1.00  0.00     0.289 C 
HETATM   20  C8  UNL     1       6.804  -7.401  -4.093  1.00  0.00     0.289 C 
ENDBRANCH  16  17
ENDBRANCH   1  15
TORSDOF 5
ENDMDL
MODEL 2
REMARK VINA RESULT: -5.182815172      1.356      1.799
REMARK  5 active torsions:
REMARK  status: ('A' for Active; 'I' for Inactive)
REMARK    1  A    between atoms: N1_2  and  N2_3 
REMARK    2  A    between atoms: N2_3  and  C2_5 
REMARK    3  A    between atoms: C2_5  and  C3_9 
REMARK    4  A    between atoms: C3_9  and  C4_10 
REMARK    5  A    between atoms: C5_11  and  N4_12 
ROOT
HETATM    1  C3  UNL     1       8.966  -5.736  -0.198  1.00  0.00     0.084 C 
HETATM    2  C9  UNL     1       8.505  -5.555   1.226  1.00  0.00     0.031 C 
HETATM    3  C10 UNL     1       8.956  -6.688   2.100  1.00  0.00     0.002 C 
HETATM    4  C11 UNL     1      10.471  -6.764   2.076  1.00  0.00     0.000 C 
HETATM    5  C12 UNL     1      10.956  -7.001   0.668  1.00  0.00     0.002 C 
HETATM    6  C13 UNL     1      10.448  -5.990  -0.300  1.00  0.00     0.031 C 
ENDROOT
BRANCH   1   7
HETATM    7  C2  UNL     1       8.671  -4.517  -0.977  1.00  0.00     0.107 C 
HETATM    8  N3  UNL     1       7.911  -3.576  -0.522  1.00  0.00    -0.387 N 
ATOM      9  H32 UNL     1       7.708  -2.734  -1.060  1.00  0.00     0.157 HD
ATOM     10  H31 UNL     1       7.515  -3.708   0.409  1.00  0.00     0.157 HD
BRANCH   7  11
HETATM   11  N2  UNL     1       9.220  -4.335  -2.264  1.00  0.00    -0.292 N 
ATOM     12  H2  UNL     1       9.203  -5.089  -2.951  1.00  0.00     0.183 HD
BRANCH  11  13
HETATM   13  N1  UNL     1       9.788  -3.099  -2.575  1.00  0.00    -0.145 NA
HETATM   14  C1  UNL     1      11.215  -3.240  -2.548  1.00  0.00     0.159 C 
ENDBRANCH  11  13
ENDBRANCH   7  11
ENDBRANCH   1   7
BRANCH   1  15
HETATM   15  C4  UNL     1       8.204  -6.894  -0.722  1.00  0.00    -0.058 C 
HETATM   16  C5  UNL     1       7.568  -7.830  -1.140  1.00  0.00     0.116 C 
BRANCH  16  17
HETATM   17  N4  UNL     1       6.809  -8.907  -1.622  1.00  0.00    -0.014 N 
HETATM   18  C6  UNL     1       6.218  -8.602  -2.918  1.00  0.00     0.289 C 
HETATM   19  C7  UNL     1       7.628 -10.096  -1.778  1.00  0.00     0.289 C 
HETATM   20  C8  UNL     1       5.709  -9.125  -0.702  1.00  0.00     0.289 C 
ENDBRANCH  16  17
ENDBRANCH   1  15
TORSDOF 5
ENDMDL
MODEL 3
REMARK VINA RESULT: -5.074888959      1.159      1.624
REMARK  5 active torsions:
REMARK  status: ('A' for Active; 'I' for Inactive)
REMARK    1  A    between atoms: N1_2  and  N2_3 
REMARK    2  A    between atoms: N2_3  and  C2_5 
REMARK    3  A    between atoms: C2_5  and  C3_9 
REMARK    4  A    between atoms: C3_9  and  C4_10 
REMARK    5  A    between atoms: C5_11  and  N4_12 
ROOT
HETATM    1  C3  UNL     1       8.772  -5.916  -0.773  1.00  0.00     0.084 C 
HETATM    2  C9  UNL     1       7.945  -6.050   0.480  1.00  0.00     0.031 C 
HETATM    3  C10 UNL     1       8.132  -7.391   1.126  1.00  0.00     0.002 C 
HETATM    4  C11 UNL     1       9.596  -7.574   1.479  1.00  0.00     0.000 C 
HETATM    5  C12 UNL     1      10.443  -7.501   0.232  1.00  0.00     0.002 C 
HETATM    6  C13 UNL     1      10.225  -6.251  -0.546  1.00  0.00     0.031 C 
ENDROOT
BRANCH   1   7
HETATM    7  C2  UNL     1       8.710  -4.527  -1.268  1.00  0.00     0.107 C 
HETATM    8  N3  UNL     1       8.204  -3.568  -0.565  1.00  0.00    -0.387 N 
ATOM      9  H32 UNL     1       8.161  -2.608  -0.907  1.00  0.00     0.157 HD
ATOM     10  H31 UNL     1       7.842  -3.809   0.357  1.00  0.00     0.157 HD
BRANCH   7  11
HETATM   11  N2  UNL     1       9.212  -4.194  -2.544  1.00  0.00    -0.292 N 
ATOM     12  H2  UNL     1       9.051  -4.805  -3.345  1.00  0.00     0.183 HD
BRANCH  11  13
HETATM   13  N1  UNL     1       9.934  -3.009  -2.685  1.00  0.00    -0.145 NA
HETATM   14  C1  UNL     1      11.327  -3.307  -2.519  1.00  0.00     0.159 C 
ENDBRANCH  11  13
ENDBRANCH   7  11
ENDBRANCH   1   7
BRANCH   1  15
HETATM   15  C4  UNL     1       8.172  -6.853  -1.752  1.00  0.00    -0.058 C 
HETATM   16  C5  UNL     1       7.674  -7.600  -2.558  1.00  0.00     0.116 C 
BRANCH  16  17
HETATM   17  N4  UNL     1       7.089  -8.451  -3.508  1.00  0.00    -0.014 N 
HETATM   18  C6  UNL     1       6.708  -7.722  -4.710  1.00  0.00     0.289 C 
HETATM   19  C7  UNL     1       8.008  -9.506  -3.901  1.00  0.00     0.289 C 
HETATM   20  C8  UNL     1       5.866  -8.984  -2.937  1.00  0.00     0.289 C 
ENDBRANCH  16  17
ENDBRANCH   1  15
TORSDOF 5
ENDMDL
MODEL 4
REMARK VINA RESULT: -4.834882765      2.670      4.455
REMARK  5 active torsions:
REMARK  status: ('A' for Active; 'I' for Inactive)
REMARK    1  A    between atoms: N1_2  and  N2_3 
REMARK    2  A    between atoms: N2_3  and  C2_5 
REMARK    3  A    between atoms: C2_5  and  C3_9 
REMARK    4  A    between atoms: C3_9  and  C4_10 
REMARK    5  A    between atoms: C5_11  and  N4_12 
ROOT
HETATM    1  C3  UNL     1       9.147  -5.947   0.443  1.00  0.00     0.084 C 
HETATM    2  C9  UNL     1      10.336  -5.736  -0.458  1.00  0.00     0.031 C 
HETATM    3  C10 UNL     1       9.941  -5.092  -1.753  1.00  0.00     0.002 C 
HETATM    4  C11 UNL     1       9.294  -3.750  -1.466  1.00  0.00     0.000 C 
HETATM    5  C12 UNL     1       8.066  -3.938  -0.611  1.00  0.00     0.002 C 
HETATM    6  C13 UNL     1       8.343  -4.688   0.646  1.00  0.00     0.031 C 
ENDROOT
BRANCH   1   7
HETATM    7  C2  UNL     1       9.600  -6.401   1.772  1.00  0.00     0.107 C 
HETATM    8  N3  UNL     1      10.753  -6.072   2.256  1.00  0.00    -0.387 N 
ATOM      9  H32 UNL     1      11.067  -6.386   3.174  1.00  0.00     0.157 HD
ATOM     10  H31 UNL     1      11.348  -5.480   1.677  1.00  0.00     0.157 HD
BRANCH   7  11
HETATM   11  N2  UNL     1       8.776  -7.220   2.574  1.00  0.00    -0.292 N 
ATOM     12  H2  UNL     1       7.874  -6.885   2.909  1.00  0.00     0.183 HD
BRANCH  11  13
HETATM   13  N1  UNL     1       9.227  -8.501   2.896  1.00  0.00    -0.145 NA
HETATM   14  C1  UNL     1       8.153  -9.425   2.673  1.00  0.00     0.159 C 
ENDBRANCH  11  13
ENDBRANCH   7  11
ENDBRANCH   1   7
BRANCH   1  15
HETATM   15  C4  UNL     1       8.322  -6.987  -0.217  1.00  0.00    -0.058 C 
HETATM   16  C5  UNL     1       7.647  -7.841  -0.736  1.00  0.00     0.116 C 
BRANCH  16  17
HETATM   17  N4  UNL     1       6.849  -8.837  -1.321  1.00  0.00    -0.014 N 
HETATM   18  C6  UNL     1       5.597  -9.008  -0.596  1.00  0.00     0.289 C 
HETATM   19  C7  UNL     1       6.524  -8.506  -2.697  1.00  0.00     0.289 C 
HETATM   20  C8  UNL     1       7.564 -10.096  -1.221  1.00  0.00     0.289 C 
ENDBRANCH  16  17
ENDBRANCH   1  15
TORSDOF 5
ENDMDL
MODEL 5
REMARK VINA RESULT: -4.812763809      2.622      3.897
REMARK  5 active torsions:
REMARK  status: ('A' for Active; 'I' for Inactive)
REMARK    1  A    between atoms: N1_2  and  N2_3 
REMARK    2  A    between atoms: N2_3  and  C2_5 
REMARK    3  A    between atoms: C2_5  and  C3_9 
REMARK    4  A    between atoms: C3_9  and  C4_10 
REMARK    5  A    between atoms: C5_11  and  N4_12 
ROOT
HETATM    1  C3  UNL     1       9.111  -5.856   0.477  1.00  0.00     0.084 C 
HETATM    2  C9  UNL     1      10.360  -5.724  -0.356  1.00  0.00     0.031 C 
HETATM    3  C10 UNL     1      10.060  -5.173  -1.718  1.00  0.00     0.002 C 
HETATM    4  C11 UNL     1       9.416  -3.807  -1.573  1.00  0.00     0.000 C 
HETATM    5  C12 UNL     1       8.131  -3.920  -0.790  1.00  0.00     0.002 C 
HETATM    6  C13 UNL     1       8.314  -4.578   0.533  1.00  0.00     0.031 C 
ENDROOT
BRANCH   1   7
HETATM    7  C2  UNL     1       9.469  -6.215   1.863  1.00  0.00     0.107 C 
HETATM    8  N3  UNL     1       8.589  -6.615   2.721  1.00  0.00    -0.387 N 
ATOM      9  H32 UNL     1       8.836  -6.863   3.678  1.00  0.00     0.157 HD
ATOM     10  H31 UNL     1       7.622  -6.673   2.401  1.00  0.00     0.157 HD
BRANCH   7  11
HETATM   11  N2  UNL     1      10.808  -6.134   2.305  1.00  0.00    -0.292 N 
ATOM     12  H2  UNL     1      11.480  -5.533   1.829  1.00  0.00     0.183 HD
BRANCH  11  13
HETATM   13  N1  UNL     1      11.189  -6.897   3.409  1.00  0.00    -0.145 NA
HETATM   14  C1  UNL     1      11.984  -6.073   4.272  1.00  0.00     0.159 C 
ENDBRANCH  11  13
ENDBRANCH   7  11
ENDBRANCH   1   7
BRANCH   1  15
HETATM   15  C4  UNL     1       8.316  -6.934  -0.159  1.00  0.00    -0.058 C 
HETATM   16  C5  UNL     1       7.656  -7.798  -0.682  1.00  0.00     0.116 C 
BRANCH  16  17
HETATM   17  N4  UNL     1       6.877  -8.787  -1.302  1.00  0.00    -0.014 N 
HETATM   18  C6  UNL     1       7.562 -10.072  -1.314  1.00  0.00     0.289 C 
HETATM   19  C7  UNL     1       5.612  -8.964  -0.613  1.00  0.00     0.289 C 
HETATM   20  C8  UNL     1       6.689  -8.401  -2.688  1.00  0.00     0.289 C 
ENDBRANCH  16  17
ENDBRANCH   1  15
TORSDOF 5
ENDMDL
