MODEL 1
REMARK VINA RESULT: -5.358150987      0.000      0.000
REMARK  7 active torsions:
REMARK  status: ('A' for Active; 'I' for Inactive)
REMARK    1  A    between atoms: C2_2  and  N1_3 
REMARK    2  A    between atoms: N1_3  and  C3_5 
REMARK    3  A    between atoms: C3_5  and  N2_7 
REMARK    4  A    between atoms: N2_7  and  N3_9 
REMARK       I    between atoms: N3_9  and  C4_11 
REMARK    5  A    between atoms: C4_11  and  C5_13 
REMARK    6  A    between atoms: C6_14  and  C7_15 
REMARK    7  A    between atoms: C7_15  and  C8_16 
ROOT
HETATM    1  N3  UNL     1      14.555  -1.538  -1.177  1.00  0.00    -0.257 N 
ATOM      2  H3  UNL     1      13.859  -1.082  -0.588  1.00  0.00     0.191 HD
HETATM    3  C4  UNL     1      14.110  -2.506  -2.110  1.00  0.00     0.315 C 
HETATM    4  O1  UNL     1      14.967  -3.067  -2.831  1.00  0.00    -0.256 OA
ENDROOT
BRANCH   1   5
HETATM    5  N2  UNL     1      15.875  -1.177  -1.021  1.00  0.00    -0.273 N 
ATOM      6  H2  UNL     1      16.605  -1.674  -1.532  1.00  0.00     0.189 HD
BRANCH   5   7
HETATM    7  C3  UNL     1      16.215  -0.115  -0.151  1.00  0.00     0.186 C 
HETATM    8  S1  UNL     1      17.760   0.386  -0.032  1.00  0.00    -0.040 SA
BRANCH   7   9
HETATM    9  N1  UNL     1      15.227   0.530   0.625  1.00  0.00    -0.366 N 
ATOM     10  H1  UNL     1      14.440   0.979   0.156  1.00  0.00     0.161 HD
BRANCH   9  11
HETATM   11  C2  UNL     1      15.302   0.570   2.079  1.00  0.00     0.117 C 
HETATM   12  C1  UNL     1      15.537  -0.811   2.601  1.00  0.00     0.026 C 
ENDBRANCH   9  11
ENDBRANCH   7   9
ENDBRANCH   5   7
ENDBRANCH   1   5
BRANCH   3  13
HETATM   13  C5  UNL     1      12.727  -2.857  -2.254  1.00  0.00    -0.004 C 
HETATM   14  C6  UNL     1      11.543  -3.143  -2.356  1.00  0.00    -0.096 C 
BRANCH  14  15
HETATM   15  C7  UNL     1      10.110  -3.467  -2.488  1.00  0.00     0.099 C 
BRANCH  15  16
HETATM   16  C8  UNL     1       9.897  -4.749  -1.743  1.00  0.00     0.001 A 
HETATM   17  C9  UNL     1       8.588  -5.438  -2.039  1.00  0.00     0.010 A 
HETATM   18  C10 UNL     1       8.910  -4.925  -0.677  1.00  0.00    -0.013 A 
HETATM   19  C11 UNL     1       8.037  -3.831  -0.145  1.00  0.00     0.010 C 
ENDBRANCH  15  16
ENDBRANCH  14  15
ENDBRANCH   3  13
TORSDOF 7
ENDMDL
MODEL 2
REMARK VINA RESULT: -5.086861639      6.826      8.824
REMARK  7 active torsions:
REMARK  status: ('A' for Active; 'I' for Inactive)
REMARK    1  A    between atoms: C2_2  and  N1_3 
REMARK    2  A    between atoms: N1_3  and  C3_5 
REMARK    3  A    between atoms: C3_5  and  N2_7 
REMARK    4  A    between atoms: N2_7  and  N3_9 
REMARK       I    between atoms: N3_9  and  C4_11 
REMARK    5  A    between atoms: C4_11  and  C5_13 
REMARK    6  A    between atoms: C6_14  and  C7_15 
REMARK    7  A    between atoms: C7_15  and  C8_16 
ROOT
HETATM    1  N3  UNL     1       8.025  -8.470   1.332  1.00  0.00    -0.257 N 
ATOM      2  H3  UNL     1       8.544  -9.247   0.925  1.00  0.00     0.191 HD
HETATM    3  C4  UNL     1       6.761  -8.148   0.779  1.00  0.00     0.315 C 
HETATM    4  O1  UNL     1       6.125  -7.190   1.279  1.00  0.00    -0.256 OA
ENDROOT
BRANCH   1   5
HETATM    5  N2  UNL     1       8.592  -7.791   2.388  1.00  0.00    -0.273 N 
ATOM      6  H2  UNL     1       8.424  -8.101   3.345  1.00  0.00     0.189 HD
BRANCH   5   7
HETATM    7  C3  UNL     1       9.407  -6.661   2.140  1.00  0.00     0.186 C 
HETATM    8  S1  UNL     1      11.013  -6.734   2.407  1.00  0.00    -0.040 SA
BRANCH   7   9
HETATM    9  N1  UNL     1       8.850  -5.457   1.657  1.00  0.00    -0.366 N 
ATOM     10  H1  UNL     1       8.356  -4.842   2.304  1.00  0.00     0.161 HD
BRANCH   9  11
HETATM   11  C2  UNL     1       8.962  -5.070   0.258  1.00  0.00     0.117 C 
HETATM   12  C1  UNL     1       8.038  -3.926  -0.015  1.00  0.00     0.026 C 
ENDBRANCH   9  11
ENDBRANCH   7   9
ENDBRANCH   5   7
ENDBRANCH   1   5
BRANCH   3  13
HETATM   13  C5  UNL     1       6.193  -8.877  -0.318  1.00  0.00    -0.004 C 
HETATM   14  C6  UNL     1       5.720  -9.482  -1.268  1.00  0.00    -0.096 C 
BRANCH  14  15
HETATM   15  C7  UNL     1       5.171 -10.223  -2.420  1.00  0.00     0.099 C 
BRANCH  15  16
HETATM   16  C8  UNL     1       4.185  -9.308  -3.079  1.00  0.00     0.001 A 
HETATM   17  C9  UNL     1       3.938  -9.597  -4.538  1.00  0.00     0.010 A 
HETATM   18  C10 UNL     1       4.540  -8.310  -4.088  1.00  0.00    -0.013 A 
HETATM   19  C11 UNL     1       5.938  -8.024  -4.540  1.00  0.00     0.010 C 
ENDBRANCH  15  16
ENDBRANCH  14  15
ENDBRANCH   3  13
TORSDOF 7
ENDMDL
MODEL 3
REMARK VINA RESULT: -4.994778934      8.614     11.397
REMARK  7 active torsions:
REMARK  status: ('A' for Active; 'I' for Inactive)
REMARK    1  A    between atoms: C2_2  and  N1_3 
REMARK    2  A    between atoms: N1_3  and  C3_5 
REMARK    3  A    between atoms: C3_5  and  N2_7 
REMARK    4  A    between atoms: N2_7  and  N3_9 
REMARK       I    between atoms: N3_9  and  C4_11 
REMARK    5  A    between atoms: C4_11  and  C5_13 
REMARK    6  A    between atoms: C6_14  and  C7_15 
REMARK    7  A    between atoms: C7_15  and  C8_16 
ROOT
HETATM    1  N3  UNL     1       6.799  -9.467  -4.790  1.00  0.00    -0.257 N 
ATOM      2  H3  UNL     1       7.490 -10.034  -4.299  1.00  0.00     0.191 HD
HETATM    3  C4  UNL     1       6.616  -8.127  -4.372  1.00  0.00     0.315 C 
HETATM    4  O1  UNL     1       5.763  -7.432  -4.974  1.00  0.00    -0.256 OA
ENDROOT
BRANCH   1   5
HETATM    5  N2  UNL     1       6.095 -10.048  -5.822  1.00  0.00    -0.273 N 
ATOM      6  H2  UNL     1       6.452  -9.998  -6.776  1.00  0.00     0.189 HD
BRANCH   5   7
HETATM    7  C3  UNL     1       4.877 -10.716  -5.553  1.00  0.00     0.186 C 
HETATM    8  S1  UNL     1       4.716 -12.300  -5.898  1.00  0.00    -0.040 SA
BRANCH   7   9
HETATM    9  N1  UNL     1       3.784 -10.027  -4.982  1.00  0.00    -0.366 N 
ATOM     10  H1  UNL     1       3.255  -9.370  -5.556  1.00  0.00     0.161 HD
BRANCH   9  11
HETATM   11  C2  UNL     1       3.393 -10.230  -3.594  1.00  0.00     0.117 C 
HETATM   12  C1  UNL     1       3.358  -8.911  -2.891  1.00  0.00     0.026 C 
ENDBRANCH   9  11
ENDBRANCH   7   9
ENDBRANCH   5   7
ENDBRANCH   1   5
BRANCH   3  13
HETATM   13  C5  UNL     1       7.367  -7.547  -3.296  1.00  0.00    -0.004 C 
HETATM   14  C6  UNL     1       8.008  -7.075  -2.369  1.00  0.00    -0.096 C 
BRANCH  14  15
HETATM   15  C7  UNL     1       8.802  -6.514  -1.259  1.00  0.00     0.099 C 
BRANCH  15  16
HETATM   16  C8  UNL     1       9.224  -5.144  -1.692  1.00  0.00     0.001 A 
HETATM   17  C9  UNL     1      10.239  -4.485  -0.793  1.00  0.00     0.010 A 
HETATM   18  C10 UNL     1       8.875  -3.914  -0.980  1.00  0.00    -0.013 A 
HETATM   19  C11 UNL     1       7.996  -3.858   0.230  1.00  0.00     0.010 C 
ENDBRANCH  15  16
ENDBRANCH  14  15
ENDBRANCH   3  13
TORSDOF 7
ENDMDL
MODEL 4
REMARK VINA RESULT: -4.940203189      9.029     12.083
REMARK  7 active torsions:
REMARK  status: ('A' for Active; 'I' for Inactive)
REMARK    1  A    between atoms: C2_2  and  N1_3 
REMARK    2  A    between atoms: N1_3  and  C3_5 
REMARK    3  A    between atoms: C3_5  and  N2_7 
REMARK    4  A    between atoms: N2_7  and  N3_9 
REMARK       I    between atoms: N3_9  and  C4_11 
REMARK    5  A    between atoms: C4_11  and  C5_13 
REMARK    6  A    between atoms: C6_14  and  C7_15 
REMARK    7  A    between atoms: C7_15  and  C8_16 
ROOT
HETATM    1  N3  UNL     1       4.665  -8.753  -2.245  1.00  0.00    -0.257 N 
ATOM      2  H3  UNL     1       4.688  -7.842  -2.702  1.00  0.00     0.191 HD
HETATM    3  C4  UNL     1       5.794  -9.150  -1.487  1.00  0.00     0.315 C 
HETATM    4  O1  UNL     1       5.765 -10.272  -0.929  1.00  0.00    -0.256 OA
ENDROOT
BRANCH   1   5
HETATM    5  N2  UNL     1       3.538  -9.530  -2.400  1.00  0.00    -0.273 N 
ATOM      6  H2  UNL     1       2.801  -9.509  -1.694  1.00  0.00     0.189 HD
BRANCH   5   7
HETATM    7  C3  UNL     1       3.405 -10.357  -3.540  1.00  0.00     0.186 C 
HETATM    8  S1  UNL     1       4.238 -10.019  -4.899  1.00  0.00    -0.040 SA
BRANCH   7   9
HETATM    9  N1  UNL     1       2.556 -11.486  -3.523  1.00  0.00    -0.366 N 
ATOM     10  H1  UNL     1       1.561 -11.357  -3.338  1.00  0.00     0.161 HD
BRANCH   9  11
HETATM   11  C2  UNL     1       3.065 -12.829  -3.761  1.00  0.00     0.117 C 
HETATM   12  C1  UNL     1       4.214 -13.094  -2.842  1.00  0.00     0.026 C 
ENDBRANCH   9  11
ENDBRANCH   7   9
ENDBRANCH   5   7
ENDBRANCH   1   5
BRANCH   3  13
HETATM   13  C5  UNL     1       6.952  -8.318  -1.340  1.00  0.00    -0.004 C 
HETATM   14  C6  UNL     1       7.928  -7.591  -1.228  1.00  0.00    -0.096 C 
BRANCH  14  15
HETATM   15  C7  UNL     1       9.095  -6.700  -1.076  1.00  0.00     0.099 C 
BRANCH  15  16
HETATM   16  C8  UNL     1       8.759  -5.436  -1.807  1.00  0.00     0.001 A 
HETATM   17  C9  UNL     1       9.777  -4.334  -1.656  1.00  0.00     0.010 A 
HETATM   18  C10 UNL     1       8.383  -4.184  -1.150  1.00  0.00    -0.013 A 
HETATM   19  C11 UNL     1       8.216  -4.022   0.329  1.00  0.00     0.010 C 
ENDBRANCH  15  16
ENDBRANCH  14  15
ENDBRANCH   3  13
TORSDOF 7
ENDMDL
MODEL 5
REMARK VINA RESULT: -4.916881293      9.067     11.786
REMARK  7 active torsions:
REMARK  status: ('A' for Active; 'I' for Inactive)
REMARK    1  A    between atoms: C2_2  and  N1_3 
REMARK    2  A    between atoms: N1_3  and  C3_5 
REMARK    3  A    between atoms: C3_5  and  N2_7 
REMARK    4  A    between atoms: N2_7  and  N3_9 
REMARK       I    between atoms: N3_9  and  C4_11 
REMARK    5  A    between atoms: C4_11  and  C5_13 
REMARK    6  A    between atoms: C6_14  and  C7_15 
REMARK    7  A    between atoms: C7_15  and  C8_16 
ROOT
HETATM    1  N3  UNL     1       4.658  -8.852  -2.474  1.00  0.00    -0.257 N 
ATOM      2  H3  UNL     1       4.629  -7.902  -2.842  1.00  0.00     0.191 HD
HETATM    3  C4  UNL     1       5.819  -9.264  -1.774  1.00  0.00     0.315 C 
HETATM    4  O1  UNL     1       5.853 -10.433  -1.326  1.00  0.00    -0.256 OA
ENDROOT
BRANCH   1   5
HETATM    5  N2  UNL     1       3.565  -9.665  -2.684  1.00  0.00    -0.273 N 
ATOM      6  H2  UNL     1       2.775  -9.638  -2.039  1.00  0.00     0.189 HD
BRANCH   5   7
HETATM    7  C3  UNL     1       3.542 -10.536  -3.799  1.00  0.00     0.186 C 
HETATM    8  S1  UNL     1       3.104 -12.094  -3.614  1.00  0.00    -0.040 SA
BRANCH   7   9
HETATM    9  N1  UNL     1       3.894 -10.074  -5.087  1.00  0.00    -0.366 N 
ATOM     10  H1  UNL     1       3.370  -9.302  -5.499  1.00  0.00     0.161 HD
BRANCH   9  11
HETATM   11  C2  UNL     1       4.986 -10.672  -5.842  1.00  0.00     0.117 C 
HETATM   12  C1  UNL     1       6.261  -9.963  -5.514  1.00  0.00     0.026 C 
ENDBRANCH   9  11
ENDBRANCH   7   9
ENDBRANCH   5   7
ENDBRANCH   1   5
BRANCH   3  13
HETATM   13  C5  UNL     1       6.940  -8.394  -1.566  1.00  0.00    -0.004 C 
HETATM   14  C6  UNL     1       7.884  -7.635  -1.402  1.00  0.00    -0.096 C 
BRANCH  14  15
HETATM   15  C7  UNL     1       9.011  -6.708  -1.189  1.00  0.00     0.099 C 
BRANCH  15  16
HETATM   16  C8  UNL     1       8.638  -5.427  -1.871  1.00  0.00     0.001 A 
HETATM   17  C9  UNL     1       9.683  -4.343  -1.788  1.00  0.00     0.010 A 
HETATM   18  C10 UNL     1       8.338  -4.180  -1.167  1.00  0.00    -0.013 A 
HETATM   19  C11 UNL     1       8.296  -4.039   0.323  1.00  0.00     0.010 C 
ENDBRANCH  15  16
ENDBRANCH  14  15
ENDBRANCH   3  13
TORSDOF 7
ENDMDL
