MODEL 1
REMARK VINA RESULT: -5.763937177      0.000      0.000
REMARK  2 active torsions:
REMARK  status: ('A' for Active; 'I' for Inactive)
REMARK    1  A    between atoms: C4_4  and  N1_5 
REMARK       I    between atoms: N1_5  and  C5_7 
REMARK       I    between atoms: C5_7  and  N2_9 
REMARK       I    between atoms: N2_9  and  C6_11 
REMARK       I    between atoms: C6_11  and  N3_13 
REMARK    2  A    between atoms: N3_13  and  C7_15 
ROOT
HETATM    1  N1  UNL     1       8.171  -6.677  -0.122  1.00  0.00    -0.338 N 
ATOM      2  H1  UNL     1       7.969  -6.891  -1.098  1.00  0.00     0.164 HD
HETATM    3  C5  UNL     1       7.545  -7.244   0.881  1.00  0.00     0.324 C 
HETATM    4  O1  UNL     1       7.741  -6.992   2.068  1.00  0.00    -0.247 OA
HETATM    5  N2  UNL     1       6.351  -8.426   0.805  1.00  0.00    -0.261 N 
ATOM      6  H2  UNL     1       5.830  -8.897   1.544  1.00  0.00     0.175 HD
HETATM    7  C6  UNL     1       6.295  -8.557  -0.545  1.00  0.00     0.324 C 
HETATM    8  O2  UNL     1       6.829  -8.021  -1.481  1.00  0.00    -0.247 OA
HETATM    9  N3  UNL     1       5.343  -9.625  -1.047  1.00  0.00    -0.336 N 
ATOM     10  H3  UNL     1       4.767 -10.169  -0.405  1.00  0.00     0.164 HD
ENDROOT
BRANCH   1  11
HETATM   11  C4  UNL     1       9.236  -5.661   0.307  1.00  0.00     0.090 A 
HETATM   12  C2  UNL     1       9.923  -5.026  -0.793  1.00  0.00     0.006 A 
HETATM   13  C1  UNL     1      11.298  -4.433  -0.674  1.00  0.00     0.012 C 
HETATM   14  C3  UNL     1       8.826  -4.258  -0.074  1.00  0.00     0.032 A 
ENDBRANCH   1  11
BRANCH   9  15
HETATM   15  C7  UNL     1       5.288  -9.832  -2.443  1.00  0.00     0.116 C 
HETATM   16  C8  UNL     1       3.960  -9.226  -2.935  1.00  0.00     0.057 C 
HETATM   17  C9  UNL     1       3.838  -9.970  -4.264  1.00  0.00     0.274 C 
HETATM   18  N4  UNL     1       4.200 -11.335  -3.936  1.00  0.00     0.086 N 
HETATM   19  C10 UNL     1       2.972 -12.041  -3.621  1.00  0.00     0.310 C 
HETATM   20  C11 UNL     1       5.100 -11.276  -2.826  1.00  0.00     0.296 C 
ENDBRANCH   9  15
TORSDOF 2
ENDMDL
MODEL 2
REMARK VINA RESULT: -5.534686727      5.659     10.451
REMARK  2 active torsions:
REMARK  status: ('A' for Active; 'I' for Inactive)
REMARK    1  A    between atoms: C4_4  and  N1_5 
REMARK       I    between atoms: N1_5  and  C5_7 
REMARK       I    between atoms: C5_7  and  N2_9 
REMARK       I    between atoms: N2_9  and  C6_11 
REMARK       I    between atoms: C6_11  and  N3_13 
REMARK    2  A    between atoms: N3_13  and  C7_15 
ROOT
HETATM    1  N1  UNL     1      10.480  -4.242  -0.993  1.00  0.00    -0.338 N 
ATOM      2  H1  UNL     1      11.234  -4.227  -0.305  1.00  0.00     0.164 HD
HETATM    3  C5  UNL     1      10.582  -3.696  -2.180  1.00  0.00     0.324 C 
HETATM    4  O1  UNL     1       9.688  -3.669  -3.023  1.00  0.00    -0.247 OA
HETATM    5  N2  UNL     1      11.920  -2.915  -2.835  1.00  0.00    -0.261 N 
ATOM      6  H2  UNL     1      12.056  -2.471  -3.744  1.00  0.00     0.175 HD
HETATM    7  C6  UNL     1      12.763  -3.059  -1.781  1.00  0.00     0.324 C 
HETATM    8  O2  UNL     1      12.678  -3.519  -0.672  1.00  0.00    -0.247 OA
HETATM    9  N3  UNL     1      14.165  -2.525  -2.002  1.00  0.00    -0.336 N 
ATOM     10  H3  UNL     1      14.427  -2.062  -2.872  1.00  0.00     0.164 HD
ENDROOT
BRANCH   1  11
HETATM   11  C4  UNL     1       9.124  -4.907  -0.731  1.00  0.00     0.090 A 
HETATM   12  C2  UNL     1       8.916  -5.305   0.641  1.00  0.00     0.006 A 
HETATM   13  C1  UNL     1       7.969  -6.397   1.048  1.00  0.00     0.012 C 
HETATM   14  C3  UNL     1       8.254  -4.032   0.140  1.00  0.00     0.032 A 
ENDBRANCH   1  11
BRANCH   9  15
HETATM   15  C7  UNL     1      15.091  -2.697  -0.951  1.00  0.00     0.116 C 
HETATM   16  C8  UNL     1      15.413  -1.294  -0.402  1.00  0.00     0.057 C 
HETATM   17  C9  UNL     1      16.733  -1.611   0.301  1.00  0.00     0.274 C 
HETATM   18  N4  UNL     1      17.440  -2.450  -0.646  1.00  0.00     0.086 N 
HETATM   19  C10 UNL     1      18.274  -1.579  -1.453  1.00  0.00     0.310 C 
HETATM   20  C11 UNL     1      16.452  -3.138  -1.420  1.00  0.00     0.296 C 
ENDBRANCH   9  15
TORSDOF 2
ENDMDL
MODEL 3
REMARK VINA RESULT: -5.443465226      4.763      6.821
REMARK  2 active torsions:
REMARK  status: ('A' for Active; 'I' for Inactive)
REMARK    1  A    between atoms: C4_4  and  N1_5 
REMARK       I    between atoms: N1_5  and  C5_7 
REMARK       I    between atoms: C5_7  and  N2_9 
REMARK       I    between atoms: N2_9  and  C6_11 
REMARK       I    between atoms: C6_11  and  N3_13 
REMARK    2  A    between atoms: N3_13  and  C7_15 
ROOT
HETATM    1  N1  UNL     1      13.154  -3.444  -1.330  1.00  0.00    -0.338 N 
ATOM      2  H1  UNL     1      13.106  -4.155  -0.600  1.00  0.00     0.164 HD
HETATM    3  C5  UNL     1      12.141  -3.148  -2.108  1.00  0.00     0.324 C 
HETATM    4  O1  UNL     1      12.169  -2.319  -3.016  1.00  0.00    -0.247 OA
HETATM    5  N2  UNL     1      10.593  -3.804  -2.067  1.00  0.00    -0.261 N 
ATOM      6  H2  UNL     1       9.773  -3.616  -2.645  1.00  0.00     0.175 HD
HETATM    7  C6  UNL     1      10.773  -4.658  -1.028  1.00  0.00     0.324 C 
HETATM    8  O2  UNL     1      11.700  -4.974  -0.329  1.00  0.00    -0.247 OA
HETATM    9  N3  UNL     1       9.536  -5.427  -0.608  1.00  0.00    -0.336 N 
ATOM     10  H3  UNL     1       8.651  -5.324  -1.105  1.00  0.00     0.164 HD
ENDROOT
BRANCH   1  11
HETATM   11  C4  UNL     1      14.418  -2.626  -1.617  1.00  0.00     0.090 A 
HETATM   12  C2  UNL     1      14.949  -1.936  -0.466  1.00  0.00     0.006 A 
HETATM   13  C1  UNL     1      15.804  -0.705  -0.564  1.00  0.00     0.012 C 
HETATM   14  C3  UNL     1      15.617  -3.223  -0.920  1.00  0.00     0.032 A 
ENDBRANCH   1  11
BRANCH   9  15
HETATM   15  C7  UNL     1       9.662  -6.292   0.501  1.00  0.00     0.116 C 
HETATM   16  C8  UNL     1       9.290  -7.705   0.012  1.00  0.00     0.057 C 
HETATM   17  C9  UNL     1       8.981  -8.350   1.363  1.00  0.00     0.274 C 
HETATM   18  N4  UNL     1       8.202  -7.346   2.060  1.00  0.00     0.086 N 
HETATM   19  C10 UNL     1       6.803  -7.628   1.795  1.00  0.00     0.310 C 
HETATM   20  C11 UNL     1       8.610  -6.070   1.555  1.00  0.00     0.296 C 
ENDBRANCH   9  15
TORSDOF 2
ENDMDL
MODEL 4
REMARK VINA RESULT: -5.224594293      3.372      8.652
REMARK  2 active torsions:
REMARK  status: ('A' for Active; 'I' for Inactive)
REMARK    1  A    between atoms: C4_4  and  N1_5 
REMARK       I    between atoms: N1_5  and  C5_7 
REMARK       I    between atoms: C5_7  and  N2_9 
REMARK       I    between atoms: N2_9  and  C6_11 
REMARK       I    between atoms: C6_11  and  N3_13 
REMARK    2  A    between atoms: N3_13  and  C7_15 
ROOT
HETATM    1  N1  UNL     1       8.900  -6.827  -0.985  1.00  0.00    -0.338 N 
ATOM      2  H1  UNL     1       9.848  -6.881  -1.359  1.00  0.00     0.164 HD
HETATM    3  C5  UNL     1       8.536  -5.947  -0.084  1.00  0.00     0.324 C 
HETATM    4  O1  UNL     1       7.413  -5.868   0.411  1.00  0.00    -0.247 OA
HETATM    5  N2  UNL     1       9.479  -4.737   0.606  1.00  0.00    -0.261 N 
ATOM      6  H2  UNL     1       9.253  -4.032   1.308  1.00  0.00     0.175 HD
HETATM    7  C6  UNL     1      10.634  -4.989  -0.061  1.00  0.00     0.324 C 
HETATM    8  O2  UNL     1      11.001  -5.813  -0.858  1.00  0.00    -0.247 OA
HETATM    9  N3  UNL     1      11.770  -4.031   0.237  1.00  0.00    -0.336 N 
ATOM     10  H3  UNL     1      11.667  -3.279   0.918  1.00  0.00     0.164 HD
ENDROOT
BRANCH   1  11
HETATM   11  C4  UNL     1       7.773  -7.767  -1.425  1.00  0.00     0.090 A 
HETATM   12  C2  UNL     1       7.568  -7.815  -2.853  1.00  0.00     0.006 A 
HETATM   13  C1  UNL     1       6.262  -8.205  -3.486  1.00  0.00     0.012 C 
HETATM   14  C3  UNL     1       8.325  -8.951  -2.185  1.00  0.00     0.032 A 
ENDBRANCH   1  11
BRANCH   9  15
HETATM   15  C7  UNL     1      12.977  -4.224  -0.471  1.00  0.00     0.116 C 
HETATM   16  C8  UNL     1      14.120  -4.123   0.557  1.00  0.00     0.057 C 
HETATM   17  C9  UNL     1      15.276  -3.835  -0.402  1.00  0.00     0.274 C 
HETATM   18  N4  UNL     1      14.731  -2.856  -1.322  1.00  0.00     0.086 N 
HETATM   19  C10 UNL     1      15.062  -1.544  -0.797  1.00  0.00     0.310 C 
HETATM   20  C11 UNL     1      13.320  -3.082  -1.390  1.00  0.00     0.296 C 
ENDBRANCH   9  15
TORSDOF 2
ENDMDL
MODEL 5
REMARK VINA RESULT: -5.115339249      4.713      9.819
REMARK  2 active torsions:
REMARK  status: ('A' for Active; 'I' for Inactive)
REMARK    1  A    between atoms: C4_4  and  N1_5 
REMARK       I    between atoms: N1_5  and  C5_7 
REMARK       I    between atoms: C5_7  and  N2_9 
REMARK       I    between atoms: N2_9  and  C6_11 
REMARK       I    between atoms: C6_11  and  N3_13 
REMARK    2  A    between atoms: N3_13  and  C7_15 
ROOT
HETATM    1  N1  UNL     1       9.925  -4.746  -0.134  1.00  0.00    -0.338 N 
ATOM      2  H1  UNL     1      10.667  -4.528   0.531  1.00  0.00     0.164 HD
HETATM    3  C5  UNL     1      10.020  -4.498  -1.418  1.00  0.00     0.324 C 
HETATM    4  O1  UNL     1       9.137  -4.720  -2.246  1.00  0.00    -0.247 OA
HETATM    5  N2  UNL     1      11.329  -3.836  -2.239  1.00  0.00    -0.261 N 
ATOM      6  H2  UNL     1      11.457  -3.619  -3.228  1.00  0.00     0.175 HD
HETATM    7  C6  UNL     1      12.163  -3.679  -1.180  1.00  0.00     0.324 C 
HETATM    8  O2  UNL     1      12.083  -3.861   0.007  1.00  0.00    -0.247 OA
HETATM    9  N3  UNL     1      13.541  -3.148  -1.520  1.00  0.00    -0.336 N 
ATOM     10  H3  UNL     1      13.794  -2.897  -2.476  1.00  0.00     0.164 HD
ENDROOT
BRANCH   1  11
HETATM   11  C4  UNL     1       8.597  -5.392   0.278  1.00  0.00     0.090 A 
HETATM   12  C2  UNL     1       8.630  -6.834   0.318  1.00  0.00     0.006 A 
HETATM   13  C1  UNL     1       7.405  -7.691   0.166  1.00  0.00     0.012 C 
HETATM   14  C3  UNL     1       8.720  -6.064   1.624  1.00  0.00     0.032 A 
ENDBRANCH   1  11
BRANCH   9  15
HETATM   15  C7  UNL     1      14.459  -3.016  -0.455  1.00  0.00     0.116 C 
HETATM   16  C8  UNL     1      15.164  -1.658  -0.638  1.00  0.00     0.057 C 
HETATM   17  C9  UNL     1      16.402  -1.916   0.221  1.00  0.00     0.274 C 
HETATM   18  N4  UNL     1      16.808  -3.258  -0.145  1.00  0.00     0.086 N 
HETATM   19  C10 UNL     1      17.783  -3.135  -1.214  1.00  0.00     0.310 C 
HETATM   20  C11 UNL     1      15.629  -3.958  -0.555  1.00  0.00     0.296 C 
ENDBRANCH   9  15
TORSDOF 2
ENDMDL
