MODEL 1
REMARK VINA RESULT: -6.439482231      0.000      0.000
REMARK  12 active torsions:
REMARK  status: ('A' for Active; 'I' for Inactive)
REMARK    1  A    between atoms: C3_9  and  O2_10 
REMARK    2  A    between atoms: O2_10  and  N3_11 
REMARK    3  A    between atoms: N3_11  and  C4_13 
REMARK    4  A    between atoms: C5_16  and  N5_17 
REMARK    5  A    between atoms: C6_21  and  O3_22 
REMARK    6  A    between atoms: C6_21  and  C7_24 
REMARK    7  A    between atoms: C8_29  and  O6_30 
REMARK    8  A    between atoms: C9_32  and  N7_33 
REMARK    9  A    between atoms: N7_33  and  O7_35 
REMARK   10  A    between atoms: C11_42  and  O8_43 
REMARK   11  A    between atoms: C11_42  and  C12_45 
REMARK   12  A    between atoms: C12_45  and  O9_46 
ROOT
HETATM    1  C4  UNL     1      15.385   3.000  43.204  1.00  0.00     0.156 C 
HETATM    2  N4  UNL     1      14.918   2.103  42.408  1.00  0.00    -0.341 N 
ATOM      3  H4  UNL     1      15.642   1.529  41.977  1.00  0.00     0.163 HD
HETATM    4  C5  UNL     1      13.584   1.742  42.001  1.00  0.00     0.350 C 
HETATM    5  C6  UNL     1      12.700   2.939  41.749  1.00  0.00     0.271 C 
HETATM    6  N6  UNL     1      12.387   3.676  42.953  1.00  0.00    -0.325 N 
ATOM      7  H6  UNL     1      11.400   3.794  43.178  1.00  0.00     0.165 HD
HETATM    8  C8  UNL     1      13.327   4.249  43.853  1.00  0.00     0.172 C 
HETATM    9  C9  UNL     1      14.610   3.951  43.951  1.00  0.00     0.150 C 
ENDROOT
BRANCH   1  10
HETATM   10  N3  UNL     1      16.790   3.071  43.369  1.00  0.00    -0.244 N 
ATOM     11  H3  UNL     1      17.284   2.277  43.776  1.00  0.00     0.196 HD
BRANCH  10  12
HETATM   12  O2  UNL     1      17.491   4.165  42.999  1.00  0.00    -0.224 OA
BRANCH  12  13
HETATM   13  C3  UNL     1      18.545   4.413  43.865  1.00  0.00     0.413 C 
HETATM   14  O1  UNL     1      18.269   5.387  44.807  1.00  0.00    -0.314 OA
HETATM   15  C2  UNL     1      18.053   6.623  44.251  1.00  0.00     0.255 C 
HETATM   16  N2  UNL     1      18.267   7.709  45.184  1.00  0.00    -0.349 N 
HETATM   17  C10 UNL     1      18.928   6.910  43.071  1.00  0.00     0.192 C 
HETATM   18  C1  UNL     1      18.989   8.769  44.577  1.00  0.00     0.112 C 
ATOM     19  H2  UNL     1      17.941   7.711  46.151  1.00  0.00     0.163 HD
HETATM   20  N1  UNL     1      19.229   9.920  45.067  1.00  0.00    -0.386 N 
HETATM   21  C11 UNL     1      19.441   8.318  43.238  1.00  0.00     0.162 C 
ATOM     22  H12 UNL     1      18.919  10.230  45.988  1.00  0.00     0.157 HD
ATOM     23  H11 UNL     1      19.748  10.682  44.631  1.00  0.00     0.157 HD
HETATM   24  N9  UNL     1      20.028   6.011  42.938  1.00  0.00    -0.324 N 
HETATM   25  N8  UNL     1      19.714   4.677  43.078  1.00  0.00    -0.287 N 
ATOM     26  H9  UNL     1      20.977   6.332  42.752  1.00  0.00     0.180 HD
ATOM     27  H8  UNL     1      20.271   3.935  42.655  1.00  0.00     0.185 HD
BRANCH  21  28
HETATM   28  O8  UNL     1      18.928   9.167  42.268  1.00  0.00    -0.377 OA
ATOM     29  H8  UNL     1      18.629   8.654  41.526  1.00  0.00     0.211 HD
ENDBRANCH  21  28
BRANCH  21  30
HETATM   30  C12 UNL     1      20.944   8.394  43.218  1.00  0.00     0.212 C 
BRANCH  30  31
HETATM   31  O9  UNL     1      21.400   8.037  44.486  1.00  0.00    -0.397 OA
ATOM     32  H9  UNL     1      21.754   8.818  44.894  1.00  0.00     0.209 HD
ENDBRANCH  30  31
ENDBRANCH  21  30
ENDBRANCH  12  13
ENDBRANCH  10  12
ENDBRANCH   1  10
BRANCH   9  33
HETATM   33  N7  UNL     1      15.318   4.682  44.942  1.00  0.00    -0.261 N 
ATOM     34  H7  UNL     1      15.571   5.663  44.817  1.00  0.00     0.194 HD
BRANCH  33  35
HETATM   35  O7  UNL     1      15.614   4.040  45.989  1.00  0.00    -0.289 OA
ATOM     36  H7  UNL     1      15.203   4.345  46.789  1.00  0.00     0.244 HD
ENDBRANCH  33  35
ENDBRANCH   9  33
BRANCH   4  37
HETATM   37  N5  UNL     1      12.982   0.812  42.938  1.00  0.00    -0.053 N 
ATOM     38  H53 UNL     1      13.311  -0.141  42.783  1.00  0.00     0.277 HD
ATOM     39  H52 UNL     1      13.338   0.949  43.883  1.00  0.00     0.277 HD
ATOM     40  H51 UNL     1      11.964   0.866  42.910  1.00  0.00     0.277 HD
ENDBRANCH   4  37
BRANCH   8  41
HETATM   41  O6  UNL     1      12.859   5.225  44.724  1.00  0.00    -0.344 OA
ATOM     42  H6  UNL     1      12.713   4.967  45.627  1.00  0.00     0.219 HD
ENDBRANCH   8  41
BRANCH   5  43
HETATM   43  O3  UNL     1      13.403   3.806  40.913  1.00  0.00    -0.359 OA
ATOM     44  H3  UNL     1      13.560   3.346  40.096  1.00  0.00     0.213 HD
ENDBRANCH   5  43
BRANCH   5  45
HETATM   45  C7  UNL     1      11.489   2.472  41.068  1.00  0.00     0.235 C 
HETATM   46  O4  UNL     1      11.550   1.517  40.266  1.00  0.00    -0.644 OA
HETATM   47  O5  UNL     1      10.274   3.078  41.305  1.00  0.00    -0.644 OA
ENDBRANCH   5  45
TORSDOF 12
ENDMDL
MODEL 2
REMARK VINA RESULT: -5.630365067      5.754      9.784
REMARK  12 active torsions:
REMARK  status: ('A' for Active; 'I' for Inactive)
REMARK    1  A    between atoms: C3_9  and  O2_10 
REMARK    2  A    between atoms: O2_10  and  N3_11 
REMARK    3  A    between atoms: N3_11  and  C4_13 
REMARK    4  A    between atoms: C5_16  and  N5_17 
REMARK    5  A    between atoms: C6_21  and  O3_22 
REMARK    6  A    between atoms: C6_21  and  C7_24 
REMARK    7  A    between atoms: C8_29  and  O6_30 
REMARK    8  A    between atoms: C9_32  and  N7_33 
REMARK    9  A    between atoms: N7_33  and  O7_35 
REMARK   10  A    between atoms: C11_42  and  O8_43 
REMARK   11  A    between atoms: C11_42  and  C12_45 
REMARK   12  A    between atoms: C12_45  and  O9_46 
ROOT
HETATM    1  C4  UNL     1       6.765   1.101  39.364  1.00  0.00     0.156 C 
HETATM    2  N4  UNL     1       5.567   1.265  39.803  1.00  0.00    -0.341 N 
ATOM      3  H4  UNL     1       5.299   0.584  40.513  1.00  0.00     0.163 HD
HETATM    4  C5  UNL     1       4.526   2.214  39.500  1.00  0.00     0.350 C 
HETATM    5  C6  UNL     1       4.411   2.512  38.025  1.00  0.00     0.271 C 
HETATM    6  N6  UNL     1       5.549   3.236  37.503  1.00  0.00    -0.325 N 
ATOM      7  H6  UNL     1       5.359   4.128  37.048  1.00  0.00     0.165 HD
HETATM    8  C8  UNL     1       6.907   2.821  37.565  1.00  0.00     0.172 C 
HETATM    9  C9  UNL     1       7.417   1.903  38.367  1.00  0.00     0.150 C 
ENDROOT
BRANCH   1  10
HETATM   10  N3  UNL     1       7.525   0.034  39.902  1.00  0.00    -0.244 N 
ATOM     11  H3  UNL     1       7.163  -0.918  39.838  1.00  0.00     0.196 HD
BRANCH  10  12
HETATM   12  O2  UNL     1       8.720   0.246  40.498  1.00  0.00    -0.224 OA
BRANCH  12  13
HETATM   13  C3  UNL     1       8.615   1.146  41.546  1.00  0.00     0.413 C 
HETATM   14  O1  UNL     1       9.303   2.327  41.332  1.00  0.00    -0.314 OA
HETATM   15  C2  UNL     1      10.661   2.144  41.241  1.00  0.00     0.255 C 
HETATM   16  N2  UNL     1      11.414   3.347  41.525  1.00  0.00    -0.349 N 
HETATM   17  C10 UNL     1      11.189   1.095  42.168  1.00  0.00     0.192 C 
HETATM   18  C1  UNL     1      12.532   3.066  42.353  1.00  0.00     0.112 C 
ATOM     19  H2  UNL     1      11.173   4.275  41.176  1.00  0.00     0.163 HD
HETATM   20  N1  UNL     1      13.470   3.864  42.680  1.00  0.00    -0.386 N 
HETATM   21  C11 UNL     1      12.438   1.654  42.798  1.00  0.00     0.162 C 
ATOM     22  H12 UNL     1      13.534   4.834  42.375  1.00  0.00     0.157 HD
ATOM     23  H11 UNL     1      14.273   3.661  43.276  1.00  0.00     0.157 HD
HETATM   24  N9  UNL     1      10.267   0.711  43.187  1.00  0.00    -0.324 N 
HETATM   25  N8  UNL     1       8.982   0.467  42.754  1.00  0.00    -0.287 N 
ATOM     26  H9  UNL     1      10.539   0.624  44.166  1.00  0.00     0.180 HD
ATOM     27  H8  UNL     1       8.342  -0.150  43.254  1.00  0.00     0.185 HD
BRANCH  21  28
HETATM   28  O8  UNL     1      13.570   0.966  42.387  1.00  0.00    -0.377 OA
ATOM     29  H8  UNL     1      13.942   0.500  43.127  1.00  0.00     0.211 HD
ENDBRANCH  21  28
BRANCH  21  30
HETATM   30  C12 UNL     1      12.379   1.656  44.302  1.00  0.00     0.212 C 
BRANCH  30  31
HETATM   31  O9  UNL     1      11.759   2.841  44.697  1.00  0.00    -0.397 OA
ATOM     32  H9  UNL     1      12.068   3.531  44.121  1.00  0.00     0.209 HD
ENDBRANCH  30  31
ENDBRANCH  21  30
ENDBRANCH  12  13
ENDBRANCH  10  12
ENDBRANCH   1  10
BRANCH   9  33
HETATM   33  N7  UNL     1       8.813   1.687  38.215  1.00  0.00    -0.261 N 
ATOM     34  H7  UNL     1       9.506   2.357  38.550  1.00  0.00     0.194 HD
BRANCH  33  35
HETATM   35  O7  UNL     1       9.140   0.613  37.637  1.00  0.00    -0.289 OA
ATOM     36  H7  UNL     1       9.274   0.674  36.699  1.00  0.00     0.244 HD
ENDBRANCH  33  35
ENDBRANCH   9  33
BRANCH   4  37
HETATM   37  N5  UNL     1       4.672   3.424  40.286  1.00  0.00    -0.053 N 
ATOM     38  H53 UNL     1       3.793   3.691  40.730  1.00  0.00     0.277 HD
ATOM     39  H52 UNL     1       5.227   3.261  41.126  1.00  0.00     0.277 HD
ATOM     40  H51 UNL     1       5.055   4.186  39.727  1.00  0.00     0.277 HD
ENDBRANCH   4  37
BRANCH   8  41
HETATM   41  O6  UNL     1       7.799   3.435  36.696  1.00  0.00    -0.344 OA
ATOM     42  H6  UNL     1       7.949   4.366  36.814  1.00  0.00     0.219 HD
ENDBRANCH   8  41
BRANCH   5  43
HETATM   43  O3  UNL     1       4.366   1.289  37.357  1.00  0.00    -0.359 OA
ATOM     44  H3  UNL     1       4.292   1.476  36.428  1.00  0.00     0.213 HD
ENDBRANCH   5  43
BRANCH   5  45
HETATM   45  C7  UNL     1       3.158   3.240  37.807  1.00  0.00     0.235 C 
HETATM   46  O4  UNL     1       2.335   3.363  38.738  1.00  0.00    -0.644 OA
HETATM   47  O5  UNL     1       2.874   3.793  36.577  1.00  0.00    -0.644 OA
ENDBRANCH   5  45
TORSDOF 12
ENDMDL
MODEL 3
REMARK VINA RESULT: -5.627610599      5.549     10.537
REMARK  12 active torsions:
REMARK  status: ('A' for Active; 'I' for Inactive)
REMARK    1  A    between atoms: C3_9  and  O2_10 
REMARK    2  A    between atoms: O2_10  and  N3_11 
REMARK    3  A    between atoms: N3_11  and  C4_13 
REMARK    4  A    between atoms: C5_16  and  N5_17 
REMARK    5  A    between atoms: C6_21  and  O3_22 
REMARK    6  A    between atoms: C6_21  and  C7_24 
REMARK    7  A    between atoms: C8_29  and  O6_30 
REMARK    8  A    between atoms: C9_32  and  N7_33 
REMARK    9  A    between atoms: N7_33  and  O7_35 
REMARK   10  A    between atoms: C11_42  and  O8_43 
REMARK   11  A    between atoms: C11_42  and  C12_45 
REMARK   12  A    between atoms: C12_45  and  O9_46 
ROOT
HETATM    1  C4  UNL     1      11.622   0.731  39.638  1.00  0.00     0.156 C 
HETATM    2  N4  UNL     1      11.439   0.615  40.906  1.00  0.00    -0.341 N 
ATOM      3  H4  UNL     1      10.726  -0.072  41.152  1.00  0.00     0.163 HD
HETATM    4  C5  UNL     1      12.032   1.256  42.052  1.00  0.00     0.350 C 
HETATM    5  C6  UNL     1      12.247   2.737  41.854  1.00  0.00     0.271 C 
HETATM    6  N6  UNL     1      13.259   3.035  40.867  1.00  0.00    -0.325 N 
ATOM      7  H6  UNL     1      14.045   3.609  41.171  1.00  0.00     0.165 HD
HETATM    8  C8  UNL     1      13.263   2.603  39.512  1.00  0.00     0.172 C 
HETATM    9  C9  UNL     1      12.556   1.613  38.997  1.00  0.00     0.150 C 
ENDROOT
BRANCH   1  10
HETATM   10  N3  UNL     1      10.838  -0.080  38.781  1.00  0.00    -0.244 N 
ATOM     11  H3  UNL     1      10.885  -1.095  38.875  1.00  0.00     0.196 HD
BRANCH  10  12
HETATM   12  O2  UNL     1      10.031   0.458  37.841  1.00  0.00    -0.224 OA
BRANCH  12  13
HETATM   13  C3  UNL     1       8.779  -0.138  37.840  1.00  0.00     0.413 C 
HETATM   14  O1  UNL     1       7.758   0.719  37.472  1.00  0.00    -0.314 OA
HETATM   15  C2  UNL     1       7.585   1.754  38.356  1.00  0.00     0.255 C 
HETATM   16  N2  UNL     1       6.264   2.342  38.289  1.00  0.00    -0.349 N 
HETATM   17  C10 UNL     1       7.794   1.363  39.787  1.00  0.00     0.192 C 
HETATM   18  C1  UNL     1       5.747   2.587  39.588  1.00  0.00     0.112 C 
ATOM     19  H2  UNL     1       5.770   2.551  37.422  1.00  0.00     0.163 HD
HETATM   20  N1  UNL     1       4.679   3.213  39.888  1.00  0.00    -0.386 N 
HETATM   21  C11 UNL     1       6.671   1.982  40.579  1.00  0.00     0.162 C 
ATOM     22  H12 UNL     1       4.044   3.629  39.208  1.00  0.00     0.157 HD
ATOM     23  H11 UNL     1       4.309   3.390  40.822  1.00  0.00     0.157 HD
HETATM   24  N9  UNL     1       7.811  -0.048  40.000  1.00  0.00    -0.324 N 
HETATM   25  N8  UNL     1       8.585  -0.765  39.115  1.00  0.00    -0.287 N 
ATOM     26  H9  UNL     1       7.288  -0.493  40.753  1.00  0.00     0.180 HD
ATOM     27  H8  UNL     1       8.989  -1.672  39.349  1.00  0.00     0.185 HD
BRANCH  21  28
HETATM   28  O8  UNL     1       7.136   2.968  41.438  1.00  0.00    -0.377 OA
ATOM     29  H8  UNL     1       7.596   2.562  42.164  1.00  0.00     0.211 HD
ENDBRANCH  21  28
BRANCH  21  30
HETATM   30  C12 UNL     1       5.888   0.967  41.367  1.00  0.00     0.212 C 
BRANCH  30  31
HETATM   31  O9  UNL     1       4.984   0.364  40.494  1.00  0.00    -0.397 OA
ATOM     32  H9  UNL     1       4.776  -0.495  40.844  1.00  0.00     0.209 HD
ENDBRANCH  30  31
ENDBRANCH  21  30
ENDBRANCH  12  13
ENDBRANCH  10  12
ENDBRANCH   1  10
BRANCH   9  33
HETATM   33  N7  UNL     1      12.755   1.399  37.607  1.00  0.00    -0.261 N 
ATOM     34  H7  UNL     1      13.413   0.704  37.253  1.00  0.00     0.194 HD
BRANCH  33  35
HETATM   35  O7  UNL     1      12.065   2.124  36.837  1.00  0.00    -0.289 OA
ATOM     36  H7  UNL     1      11.535   1.661  36.199  1.00  0.00     0.244 HD
ENDBRANCH  33  35
ENDBRANCH   9  33
BRANCH   4  37
HETATM   37  N5  UNL     1      13.251   0.582  42.459  1.00  0.00    -0.053 N 
ATOM     38  H53 UNL     1      13.233  -0.407  42.212  1.00  0.00     0.277 HD
ATOM     39  H52 UNL     1      14.046   0.871  41.890  1.00  0.00     0.277 HD
ATOM     40  H51 UNL     1      13.433   0.716  43.453  1.00  0.00     0.277 HD
ENDBRANCH   4  37
BRANCH   8  41
HETATM   41  O6  UNL     1      14.091   3.286  38.630  1.00  0.00    -0.344 OA
ATOM     42  H6  UNL     1      15.021   3.289  38.822  1.00  0.00     0.219 HD
ENDBRANCH   8  41
BRANCH   5  43
HETATM   43  O3  UNL     1      11.048   3.270  41.382  1.00  0.00    -0.359 OA
ATOM     44  H3  UNL     1      10.678   3.797  42.081  1.00  0.00     0.213 HD
ENDBRANCH   5  43
BRANCH   5  45
HETATM   45  C7  UNL     1      12.569   3.325  43.158  1.00  0.00     0.235 C 
HETATM   46  O4  UNL     1      12.077   2.845  44.200  1.00  0.00    -0.644 OA
HETATM   47  O5  UNL     1      13.414   4.409  43.247  1.00  0.00    -0.644 OA
ENDBRANCH   5  45
TORSDOF 12
ENDMDL
MODEL 4
REMARK VINA RESULT: -5.592992137      5.531     10.485
REMARK  12 active torsions:
REMARK  status: ('A' for Active; 'I' for Inactive)
REMARK    1  A    between atoms: C3_9  and  O2_10 
REMARK    2  A    between atoms: O2_10  and  N3_11 
REMARK    3  A    between atoms: N3_11  and  C4_13 
REMARK    4  A    between atoms: C5_16  and  N5_17 
REMARK    5  A    between atoms: C6_21  and  O3_22 
REMARK    6  A    between atoms: C6_21  and  C7_24 
REMARK    7  A    between atoms: C8_29  and  O6_30 
REMARK    8  A    between atoms: C9_32  and  N7_33 
REMARK    9  A    between atoms: N7_33  and  O7_35 
REMARK   10  A    between atoms: C11_42  and  O8_43 
REMARK   11  A    between atoms: C11_42  and  C12_45 
REMARK   12  A    between atoms: C12_45  and  O9_46 
ROOT
HETATM    1  C4  UNL     1      11.490   0.726  39.741  1.00  0.00     0.156 C 
HETATM    2  N4  UNL     1      11.323   0.661  41.015  1.00  0.00    -0.341 N 
ATOM      3  H4  UNL     1      10.578   0.023  41.295  1.00  0.00     0.163 HD
HETATM    4  C5  UNL     1      11.972   1.304  42.130  1.00  0.00     0.350 C 
HETATM    5  C6  UNL     1      12.264   2.764  41.879  1.00  0.00     0.271 C 
HETATM    6  N6  UNL     1      13.274   2.973  40.867  1.00  0.00    -0.325 N 
ATOM      7  H6  UNL     1      14.096   3.512  41.139  1.00  0.00     0.165 HD
HETATM    8  C8  UNL     1      13.229   2.499  39.527  1.00  0.00     0.172 C 
HETATM    9  C9  UNL     1      12.460   1.534  39.056  1.00  0.00     0.150 C 
ENDROOT
BRANCH   1  10
HETATM   10  N3  UNL     1      10.648  -0.067  38.924  1.00  0.00    -0.244 N 
ATOM     11  H3  UNL     1      11.051  -0.846  38.401  1.00  0.00     0.196 HD
BRANCH  10  12
HETATM   12  O2  UNL     1       9.324   0.182  38.820  1.00  0.00    -0.224 OA
BRANCH  12  13
HETATM   13  C3  UNL     1       9.063   1.543  38.766  1.00  0.00     0.413 C 
HETATM   14  O1  UNL     1       8.833   2.111  40.005  1.00  0.00    -0.314 OA
HETATM   15  C2  UNL     1       7.704   1.624  40.615  1.00  0.00     0.255 C 
HETATM   16  N2  UNL     1       7.172   2.519  41.620  1.00  0.00    -0.349 N 
HETATM   17  C10 UNL     1       6.580   1.350  39.665  1.00  0.00     0.192 C 
HETATM   18  C1  UNL     1       5.758   2.611  41.525  1.00  0.00     0.112 C 
ATOM     19  H2  UNL     1       7.738   3.018  42.306  1.00  0.00     0.163 HD
HETATM   20  N1  UNL     1       4.967   3.199  42.332  1.00  0.00    -0.386 N 
HETATM   21  C11 UNL     1       5.326   1.894  40.300  1.00  0.00     0.162 C 
ATOM     22  H12 UNL     1       5.264   3.692  43.174  1.00  0.00     0.157 HD
ATOM     23  H11 UNL     1       3.952   3.265  42.264  1.00  0.00     0.157 HD
HETATM   24  N9  UNL     1       6.760   1.935  38.377  1.00  0.00    -0.324 N 
HETATM   25  N8  UNL     1       8.006   1.755  37.820  1.00  0.00    -0.287 N 
ATOM     26  H9  UNL     1       6.019   2.450  37.902  1.00  0.00     0.180 HD
ATOM     27  H8  UNL     1       8.166   1.772  36.813  1.00  0.00     0.185 HD
BRANCH  21  28
HETATM   28  O8  UNL     1       4.446   0.880  40.646  1.00  0.00    -0.377 OA
ATOM     29  H8  UNL     1       3.836   0.734  39.933  1.00  0.00     0.211 HD
ENDBRANCH  21  28
BRANCH  21  30
HETATM   30  C12 UNL     1       4.615   2.888  39.422  1.00  0.00     0.212 C 
BRANCH  30  31
HETATM   31  O9  UNL     1       5.316   4.091  39.496  1.00  0.00    -0.397 OA
ATOM     32  H9  UNL     1       4.690   4.796  39.373  1.00  0.00     0.209 HD
ENDBRANCH  30  31
ENDBRANCH  21  30
ENDBRANCH  12  13
ENDBRANCH  10  12
ENDBRANCH   1  10
BRANCH   9  33
HETATM   33  N7  UNL     1      12.622   1.264  37.671  1.00  0.00    -0.261 N 
ATOM     34  H7  UNL     1      13.220   0.511  37.331  1.00  0.00     0.194 HD
BRANCH  33  35
HETATM   35  O7  UNL     1      11.978   2.017  36.888  1.00  0.00    -0.289 OA
ATOM     36  H7  UNL     1      11.696   1.619  36.073  1.00  0.00     0.244 HD
ENDBRANCH  33  35
ENDBRANCH   9  33
BRANCH   4  37
HETATM   37  N5  UNL     1      13.158   0.577  42.539  1.00  0.00    -0.053 N 
ATOM     38  H53 UNL     1      12.939  -0.385  42.795  1.00  0.00     0.277 HD
ATOM     39  H52 UNL     1      13.775   0.392  41.748  1.00  0.00     0.277 HD
ATOM     40  H51 UNL     1      13.649   1.062  43.291  1.00  0.00     0.277 HD
ENDBRANCH   4  37
BRANCH   8  41
HETATM   41  O6  UNL     1      14.078   3.105  38.610  1.00  0.00    -0.344 OA
ATOM     42  H6  UNL     1      14.434   3.955  38.843  1.00  0.00     0.219 HD
ENDBRANCH   8  41
BRANCH   5  43
HETATM   43  O3  UNL     1      11.089   3.348  41.410  1.00  0.00    -0.359 OA
ATOM     44  H3  UNL     1      11.334   3.990  40.753  1.00  0.00     0.213 HD
ENDBRANCH   5  43
BRANCH   5  45
HETATM   45  C7  UNL     1      12.642   3.375  43.158  1.00  0.00     0.235 C 
HETATM   46  O4  UNL     1      13.431   4.342  43.181  1.00  0.00    -0.644 OA
HETATM   47  O5  UNL     1      12.132   2.891  44.343  1.00  0.00    -0.644 OA
ENDBRANCH   5  45
TORSDOF 12
ENDMDL
MODEL 5
REMARK VINA RESULT: -5.519914071      3.584      5.769
REMARK  12 active torsions:
REMARK  status: ('A' for Active; 'I' for Inactive)
REMARK    1  A    between atoms: C3_9  and  O2_10 
REMARK    2  A    between atoms: O2_10  and  N3_11 
REMARK    3  A    between atoms: N3_11  and  C4_13 
REMARK    4  A    between atoms: C5_16  and  N5_17 
REMARK    5  A    between atoms: C6_21  and  O3_22 
REMARK    6  A    between atoms: C6_21  and  C7_24 
REMARK    7  A    between atoms: C8_29  and  O6_30 
REMARK    8  A    between atoms: C9_32  and  N7_33 
REMARK    9  A    between atoms: N7_33  and  O7_35 
REMARK   10  A    between atoms: C11_42  and  O8_43 
REMARK   11  A    between atoms: C11_42  and  C12_45 
REMARK   12  A    between atoms: C12_45  and  O9_46 
ROOT
HETATM    1  C4  UNL     1      13.063   2.717  40.912  1.00  0.00     0.156 C 
HETATM    2  N4  UNL     1      14.280   2.672  40.496  1.00  0.00    -0.341 N 
ATOM      3  H4  UNL     1      14.911   3.273  41.026  1.00  0.00     0.163 HD
HETATM    4  C5  UNL     1      14.935   1.949  39.437  1.00  0.00     0.350 C 
HETATM    5  C6  UNL     1      14.120   1.895  38.167  1.00  0.00     0.271 C 
HETATM    6  N6  UNL     1      12.924   1.093  38.296  1.00  0.00    -0.325 N 
ATOM      7  H6  UNL     1      12.816   0.317  37.642  1.00  0.00     0.165 HD
HETATM    8  C8  UNL     1      11.885   1.283  39.247  1.00  0.00     0.172 C 
HETATM    9  C9  UNL     1      11.956   1.982  40.366  1.00  0.00     0.150 C 
ENDROOT
BRANCH   1  10
HETATM   10  N3  UNL     1      12.770   3.564  42.009  1.00  0.00    -0.244 N 
ATOM     11  H3  UNL     1      11.829   3.561  42.402  1.00  0.00     0.196 HD
BRANCH  10  12
HETATM   12  O2  UNL     1      13.707   4.375  42.546  1.00  0.00    -0.224 OA
BRANCH  12  13
HETATM   13  C3  UNL     1      13.586   4.453  43.925  1.00  0.00     0.413 C 
HETATM   14  O1  UNL     1      14.695   4.994  44.549  1.00  0.00    -0.314 OA
HETATM   15  C2  UNL     1      15.820   4.223  44.401  1.00  0.00     0.255 C 
HETATM   16  N2  UNL     1      16.817   4.474  45.420  1.00  0.00    -0.349 N 
HETATM   17  C10 UNL     1      15.549   2.751  44.440  1.00  0.00     0.192 C 
HETATM   18  C1  UNL     1      17.375   3.260  45.900  1.00  0.00     0.112 C 
ATOM     19  H2  UNL     1      17.084   5.402  45.749  1.00  0.00     0.163 HD
HETATM   20  N1  UNL     1      18.362   3.125  46.693  1.00  0.00    -0.386 N 
HETATM   21  C11 UNL     1      16.605   2.133  45.318  1.00  0.00     0.162 C 
ATOM     22  H12 UNL     1      18.891   3.900  47.093  1.00  0.00     0.157 HD
ATOM     23  H11 UNL     1      18.762   2.252  47.038  1.00  0.00     0.157 HD
HETATM   24  N9  UNL     1      14.254   2.418  44.938  1.00  0.00    -0.324 N 
HETATM   25  N8  UNL     1      13.216   3.156  44.413  1.00  0.00    -0.287 N 
ATOM     26  H9  UNL     1      14.107   1.687  45.634  1.00  0.00     0.180 HD
ATOM     27  H8  UNL     1      12.259   2.806  44.374  1.00  0.00     0.185 HD
BRANCH  21  28
HETATM   28  O8  UNL     1      17.461   1.318  44.592  1.00  0.00    -0.377 OA
ATOM     29  H8  UNL     1      18.234   1.813  44.344  1.00  0.00     0.211 HD
ENDBRANCH  21  28
BRANCH  21  30
HETATM   30  C12 UNL     1      16.023   1.346  46.461  1.00  0.00     0.212 C 
BRANCH  30  31
HETATM   31  O9  UNL     1      15.634   2.256  47.443  1.00  0.00    -0.397 OA
ATOM     32  H9  UNL     1      15.229   1.762  48.147  1.00  0.00     0.209 HD
ENDBRANCH  30  31
ENDBRANCH  21  30
ENDBRANCH  12  13
ENDBRANCH  10  12
ENDBRANCH   1  10
BRANCH   9  33
HETATM   33  N7  UNL     1      10.761   2.004  41.133  1.00  0.00    -0.261 N 
ATOM     34  H7  UNL     1      10.423   1.183  41.636  1.00  0.00     0.194 HD
BRANCH  33  35
HETATM   35  O7  UNL     1      10.143   3.105  41.151  1.00  0.00    -0.289 OA
ATOM     36  H7  UNL     1       9.938   3.448  42.013  1.00  0.00     0.244 HD
ENDBRANCH  33  35
ENDBRANCH   9  33
BRANCH   4  37
HETATM   37  N5  UNL     1      15.341   0.627  39.875  1.00  0.00    -0.053 N 
ATOM     38  H53 UNL     1      15.948   0.175  39.191  1.00  0.00     0.277 HD
ATOM     39  H52 UNL     1      15.995   0.676  40.656  1.00  0.00     0.277 HD
ATOM     40  H51 UNL     1      14.533   0.046  40.099  1.00  0.00     0.277 HD
ENDBRANCH   4  37
BRANCH   8  41
HETATM   41  O6  UNL     1      10.663   0.676  38.984  1.00  0.00    -0.344 OA
ATOM     42  H6  UNL     1       9.894   1.233  38.980  1.00  0.00     0.219 HD
ENDBRANCH   8  41
BRANCH   5  43
HETATM   43  O3  UNL     1      13.708   3.196  37.883  1.00  0.00    -0.359 OA
ATOM     44  H3  UNL     1      13.685   3.672  38.705  1.00  0.00     0.213 HD
ENDBRANCH   5  43
BRANCH   5  45
HETATM   45  C7  UNL     1      14.989   1.407  37.092  1.00  0.00     0.235 C 
HETATM   46  O4  UNL     1      15.263   0.192  37.012  1.00  0.00    -0.644 OA
HETATM   47  O5  UNL     1      15.510   2.280  36.163  1.00  0.00    -0.644 OA
ENDBRANCH   5  45
TORSDOF 12
ENDMDL
