MODEL 1
REMARK VINA RESULT: -4.703863259      0.000      0.000
REMARK  16 active torsions:
REMARK  status: ('A' for Active; 'I' for Inactive)
REMARK    1  A    between atoms: C2_2  and  N1_3 
REMARK    2  A    between atoms: C2_2  and  C3_7 
REMARK    3  A    between atoms: C3_7  and  O1_8 
REMARK    4  A    between atoms: C3_7  and  C4_10 
REMARK    5  A    between atoms: C5_12  and  O3_13 
REMARK    6  A    between atoms: C5_12  and  C6_15 
REMARK    7  A    between atoms: C6_15  and  O4_16 
REMARK    8  A    between atoms: C6_15  and  C7_18 
REMARK    9  A    between atoms: C7_18  and  O5_19 
REMARK   10  A    between atoms: C7_18  and  O6_21 
REMARK   11  A    between atoms: C8_23  and  O7_24 
REMARK   12  A    between atoms: C9_26  and  N2_27 
REMARK   13  A    between atoms: C11_31  and  N4_32 
REMARK   14  A    between atoms: C12_37  and  N6_38 
REMARK   15  A    between atoms: N8_44  and  N9_45 
REMARK   16  A    between atoms: N9_45  and  N10_47 
ROOT
HETATM    1  C4  UNL     1      11.519   0.456  41.991  1.00  0.00     0.183 C 
HETATM    2  O2  UNL     1      12.595   1.080  42.695  1.00  0.00    -0.340 OA
HETATM    3  C5  UNL     1      12.596   2.421  42.388  1.00  0.00     0.222 C 
HETATM    4  C8  UNL     1      12.034   2.439  40.993  1.00  0.00     0.210 C 
HETATM    5  C9  UNL     1      10.829   1.575  41.284  1.00  0.00     0.179 C 
ENDROOT
BRANCH   5   6
HETATM    6  N2  UNL     1       9.909   1.354  40.265  1.00  0.00    -0.226 N 
HETATM    7  C10 UNL     1       8.572   1.619  40.420  1.00  0.00     0.173 A 
HETATM    8  N3  UNL     1       7.823   2.087  41.450  1.00  0.00    -0.173 N 
HETATM    9  C13 UNL     1       7.919   1.294  39.168  1.00  0.00     0.141 A 
HETATM   10  C11 UNL     1       6.501   2.235  41.277  1.00  0.00     0.679 A 
ATOM     11  H3  UNL     1       8.258   2.323  42.343  1.00  0.00     0.186 HD
HETATM   12  N5  UNL     1       5.870   1.941  40.126  1.00  0.00    -0.175 N 
HETATM   13  C12 UNL     1       6.550   1.468  39.050  1.00  0.00     0.147 A 
ATOM     14  H5  UNL     1       4.861   2.076  40.060  1.00  0.00     0.186 HD
HETATM   15  N7  UNL     1       8.891   0.866  38.371  1.00  0.00    -0.256 N 
HETATM   16  N8  UNL     1      10.061   0.906  39.035  1.00  0.00    -0.112 N 
ATOM     17  H7  UNL     1       8.771   0.556  37.407  1.00  0.00     0.191 HD
BRANCH  10  18
HETATM   18  N4  UNL     1       5.784   2.684  42.267  1.00  0.00    -0.234 N 
ATOM     19  H42 UNL     1       5.983   2.326  43.201  1.00  0.00     0.174 HD
ATOM     20  H41 UNL     1       5.056   3.372  42.076  1.00  0.00     0.174 HD
ENDBRANCH  10  18
BRANCH  13  21
HETATM   21  N6  UNL     1       6.012   1.179  37.933  1.00  0.00    -0.383 N 
ATOM     22  H62 UNL     1       5.456   0.326  37.882  1.00  0.00     0.157 HD
ATOM     23  H61 UNL     1       6.106   1.743  37.087  1.00  0.00     0.157 HD
ENDBRANCH  13  21
BRANCH  16  24
HETATM   24  N9  UNL     1      11.224   0.504  38.344  1.00  0.00    -0.212 N 
ATOM     25  H9  UNL     1      11.539  -0.458  38.465  1.00  0.00     0.211 HD
BRANCH  24  26
HETATM   26  N10 UNL     1      11.969   1.330  37.510  1.00  0.00    -0.328 N 
ATOM     27 2H10 UNL     1      12.190   2.261  37.865  1.00  0.00     0.178 HD
ATOM     28 1H10 UNL     1      12.302   1.066  36.583  1.00  0.00     0.178 HD
ENDBRANCH  24  26
ENDBRANCH  16  24
ENDBRANCH   5   6
BRANCH   1  29
HETATM   29  C3  UNL     1      10.694  -0.146  43.139  1.00  0.00     0.179 C 
BRANCH  29  30
HETATM   30  C2  UNL     1      11.503  -0.365  44.383  1.00  0.00     0.210 C 
HETATM   31  C1  UNL     1      11.104  -1.636  45.101  1.00  0.00     0.042 C 
BRANCH  30  32
HETATM   32  N1  UNL     1      11.353   0.705  45.341  1.00  0.00    -0.073 N 
ATOM     33  H13 UNL     1      10.707   0.483  46.099  1.00  0.00     0.274 HD
ATOM     34  H12 UNL     1      12.180   0.850  45.919  1.00  0.00     0.274 HD
ATOM     35  H11 UNL     1      11.081   1.531  44.807  1.00  0.00     0.274 HD
ENDBRANCH  30  32
ENDBRANCH  29  30
BRANCH  29  36
HETATM   36  O1  UNL     1       9.723   0.823  43.534  1.00  0.00    -0.391 OA
ATOM     37  H1  UNL     1      10.071   1.640  43.195  1.00  0.00     0.210 HD
ENDBRANCH  29  36
ENDBRANCH   1  29
BRANCH   4  38
HETATM   38  O7  UNL     1      12.982   1.855  40.181  1.00  0.00    -0.388 OA
ATOM     39  H7  UNL     1      13.344   2.551  39.645  1.00  0.00     0.210 HD
ENDBRANCH   4  38
BRANCH   3  40
HETATM   40  O3  UNL     1      11.655   3.106  43.195  1.00  0.00    -0.361 OA
ATOM     41  H3  UNL     1      11.564   4.004  42.901  1.00  0.00     0.213 HD
ENDBRANCH   3  40
BRANCH   3  42
HETATM   42  C6  UNL     1      13.896   3.104  42.586  1.00  0.00     0.237 C 
BRANCH  42  43
HETATM   43  O4  UNL     1      13.780   4.388  41.990  1.00  0.00    -0.385 OA
ATOM     44  H4  UNL     1      13.882   5.025  42.687  1.00  0.00     0.210 HD
ENDBRANCH  42  43
BRANCH  42  45
HETATM   45  C7  UNL     1      14.333   3.365  43.985  1.00  0.00     0.287 C 
BRANCH  45  46
HETATM   46  O5  UNL     1      13.674   2.489  44.881  1.00  0.00    -0.369 OA
ATOM     47  H5  UNL     1      14.246   2.265  45.606  1.00  0.00     0.212 HD
ENDBRANCH  45  46
BRANCH  45  48
HETATM   48  O6  UNL     1      13.798   4.638  44.328  1.00  0.00    -0.369 OA
ATOM     49  H6  UNL     1      14.439   5.043  44.901  1.00  0.00     0.212 HD
ENDBRANCH  45  48
ENDBRANCH  42  45
ENDBRANCH   3  42
TORSDOF 16
ENDMDL
MODEL 2
REMARK VINA RESULT: -4.693039506      3.939      7.100
REMARK  16 active torsions:
REMARK  status: ('A' for Active; 'I' for Inactive)
REMARK    1  A    between atoms: C2_2  and  N1_3 
REMARK    2  A    between atoms: C2_2  and  C3_7 
REMARK    3  A    between atoms: C3_7  and  O1_8 
REMARK    4  A    between atoms: C3_7  and  C4_10 
REMARK    5  A    between atoms: C5_12  and  O3_13 
REMARK    6  A    between atoms: C5_12  and  C6_15 
REMARK    7  A    between atoms: C6_15  and  O4_16 
REMARK    8  A    between atoms: C6_15  and  C7_18 
REMARK    9  A    between atoms: C7_18  and  O5_19 
REMARK   10  A    between atoms: C7_18  and  O6_21 
REMARK   11  A    between atoms: C8_23  and  O7_24 
REMARK   12  A    between atoms: C9_26  and  N2_27 
REMARK   13  A    between atoms: C11_31  and  N4_32 
REMARK   14  A    between atoms: C12_37  and  N6_38 
REMARK   15  A    between atoms: N8_44  and  N9_45 
REMARK   16  A    between atoms: N9_45  and  N10_47 
ROOT
HETATM    1  C4  UNL     1      13.118   2.485  39.529  1.00  0.00     0.183 C 
HETATM    2  O2  UNL     1      11.898   2.064  40.145  1.00  0.00    -0.340 OA
HETATM    3  C5  UNL     1      11.543   0.844  39.619  1.00  0.00     0.222 C 
HETATM    4  C8  UNL     1      12.109   0.910  38.226  1.00  0.00     0.210 C 
HETATM    5  C9  UNL     1      13.495   1.357  38.628  1.00  0.00     0.179 C 
ENDROOT
BRANCH   5   6
HETATM    6  N2  UNL     1      14.463   1.491  37.637  1.00  0.00    -0.226 N 
HETATM    7  C10 UNL     1      15.596   0.720  37.617  1.00  0.00     0.173 A 
HETATM    8  N3  UNL     1      16.083  -0.253  38.429  1.00  0.00    -0.173 N 
HETATM    9  C13 UNL     1      16.362   1.108  36.449  1.00  0.00     0.141 A 
HETATM   10  C11 UNL     1      17.258  -0.825  38.125  1.00  0.00     0.679 A 
ATOM     11  H3  UNL     1      15.564  -0.544  39.258  1.00  0.00     0.186 HD
HETATM   12  N5  UNL     1      17.988  -0.484  37.047  1.00  0.00    -0.175 N 
HETATM   13  C12 UNL     1      17.569   0.480  36.188  1.00  0.00     0.147 A 
ATOM     14  H5  UNL     1      18.874  -0.958  36.873  1.00  0.00     0.186 HD
HETATM   15  N7  UNL     1      15.647   2.063  35.867  1.00  0.00    -0.256 N 
HETATM   16  N8  UNL     1      14.528   2.279  36.583  1.00  0.00    -0.112 N 
ATOM     17  H7  UNL     1      15.904   2.556  35.012  1.00  0.00     0.191 HD
BRANCH  10  18
HETATM   18  N4  UNL     1      17.724  -1.757  38.906  1.00  0.00    -0.234 N 
ATOM     19  H42 UNL     1      17.070  -2.223  39.535  1.00  0.00     0.174 HD
ATOM     20  H41 UNL     1      18.716  -1.987  38.860  1.00  0.00     0.174 HD
ENDBRANCH  10  18
BRANCH  13  21
HETATM   21  N6  UNL     1      18.210   0.841  35.149  1.00  0.00    -0.383 N 
ATOM     22  H62 UNL     1      19.125   0.420  34.987  1.00  0.00     0.157 HD
ATOM     23  H61 UNL     1      17.870   1.527  34.474  1.00  0.00     0.157 HD
ENDBRANCH  13  21
BRANCH  16  24
HETATM   24  N9  UNL     1      13.622   3.253  36.110  1.00  0.00    -0.212 N 
ATOM     25  H9  UNL     1      13.618   4.162  36.574  1.00  0.00     0.211 HD
BRANCH  24  26
HETATM   26  N10 UNL     1      12.736   3.059  35.057  1.00  0.00    -0.328 N 
ATOM     27 2H10 UNL     1      11.742   3.069  35.286  1.00  0.00     0.178 HD
ATOM     28 1H10 UNL     1      13.016   2.911  34.087  1.00  0.00     0.178 HD
ENDBRANCH  24  26
ENDBRANCH  16  24
ENDBRANCH   5   6
BRANCH   1  29
HETATM   29  C3  UNL     1      14.050   2.641  40.740  1.00  0.00     0.179 C 
BRANCH  29  30
HETATM   30  C2  UNL     1      13.303   2.822  42.029  1.00  0.00     0.210 C 
HETATM   31  C1  UNL     1      14.025   3.757  42.975  1.00  0.00     0.042 C 
BRANCH  30  32
HETATM   32  N1  UNL     1      13.120   1.582  42.745  1.00  0.00    -0.073 N 
ATOM     33  H13 UNL     1      13.871   0.909  42.589  1.00  0.00     0.274 HD
ATOM     34  H12 UNL     1      13.243   1.675  43.754  1.00  0.00     0.274 HD
ATOM     35  H11 UNL     1      12.200   1.231  42.479  1.00  0.00     0.274 HD
ENDBRANCH  30  32
ENDBRANCH  29  30
BRANCH  29  36
HETATM   36  O1  UNL     1      14.741   1.406  40.921  1.00  0.00    -0.391 OA
ATOM     37  H1  UNL     1      15.632   1.608  40.661  1.00  0.00     0.210 HD
ENDBRANCH  29  36
ENDBRANCH   1  29
BRANCH   4  38
HETATM   38  O7  UNL     1      11.370   1.855  37.548  1.00  0.00    -0.388 OA
ATOM     39  H7  UNL     1      10.580   1.418  37.253  1.00  0.00     0.210 HD
ENDBRANCH   4  38
BRANCH   3  40
HETATM   40  O3  UNL     1      12.249  -0.194  40.275  1.00  0.00    -0.361 OA
ATOM     41  H3  UNL     1      11.649  -0.884  40.535  1.00  0.00     0.213 HD
ENDBRANCH   3  40
BRANCH   3  42
HETATM   42  C6  UNL     1      10.104   0.512  39.733  1.00  0.00     0.237 C 
BRANCH  42  43
HETATM   43  O4  UNL     1      10.007  -0.905  39.716  1.00  0.00    -0.385 OA
ATOM     44  H4  UNL     1      10.726  -1.236  40.239  1.00  0.00     0.210 HD
ENDBRANCH  42  43
BRANCH  42  45
HETATM   45  C7  UNL     1       9.393   0.933  40.971  1.00  0.00     0.287 C 
BRANCH  45  46
HETATM   46  O5  UNL     1       9.298   2.344  41.031  1.00  0.00    -0.369 OA
ATOM     47  H5  UNL     1      10.092   2.715  41.399  1.00  0.00     0.212 HD
ENDBRANCH  45  46
BRANCH  45  48
HETATM   48  O6  UNL     1      10.271   0.624  42.047  1.00  0.00    -0.369 OA
ATOM     49  H6  UNL     1      10.074   1.252  42.732  1.00  0.00     0.212 HD
ENDBRANCH  45  48
ENDBRANCH  42  45
ENDBRANCH   3  42
TORSDOF 16
ENDMDL
MODEL 3
REMARK VINA RESULT: -4.686119488      3.912      6.781
REMARK  16 active torsions:
REMARK  status: ('A' for Active; 'I' for Inactive)
REMARK    1  A    between atoms: C2_2  and  N1_3 
REMARK    2  A    between atoms: C2_2  and  C3_7 
REMARK    3  A    between atoms: C3_7  and  O1_8 
REMARK    4  A    between atoms: C3_7  and  C4_10 
REMARK    5  A    between atoms: C5_12  and  O3_13 
REMARK    6  A    between atoms: C5_12  and  C6_15 
REMARK    7  A    between atoms: C6_15  and  O4_16 
REMARK    8  A    between atoms: C6_15  and  C7_18 
REMARK    9  A    between atoms: C7_18  and  O5_19 
REMARK   10  A    between atoms: C7_18  and  O6_21 
REMARK   11  A    between atoms: C8_23  and  O7_24 
REMARK   12  A    between atoms: C9_26  and  N2_27 
REMARK   13  A    between atoms: C11_31  and  N4_32 
REMARK   14  A    between atoms: C12_37  and  N6_38 
REMARK   15  A    between atoms: N8_44  and  N9_45 
REMARK   16  A    between atoms: N9_45  and  N10_47 
ROOT
HETATM    1  C4  UNL     1      13.443   0.789  39.580  1.00  0.00     0.183 C 
HETATM    2  O2  UNL     1      13.021   1.225  40.874  1.00  0.00    -0.340 OA
HETATM    3  C5  UNL     1      13.451   2.518  41.059  1.00  0.00     0.222 C 
HETATM    4  C8  UNL     1      14.710   2.567  40.236  1.00  0.00     0.210 C 
HETATM    5  C9  UNL     1      14.112   1.980  38.978  1.00  0.00     0.179 C 
ENDROOT
BRANCH   5   6
HETATM    6  N2  UNL     1      14.912   1.888  37.844  1.00  0.00    -0.226 N 
HETATM    7  C10 UNL     1      16.041   1.110  37.809  1.00  0.00     0.173 A 
HETATM    8  N3  UNL     1      16.662   0.319  38.721  1.00  0.00    -0.173 N 
HETATM    9  C13 UNL     1      16.610   1.233  36.482  1.00  0.00     0.141 A 
HETATM   10  C11 UNL     1      17.784  -0.325  38.364  1.00  0.00     0.679 A 
ATOM     11  H3  UNL     1      16.283   0.216  39.662  1.00  0.00     0.186 HD
HETATM   12  N5  UNL     1      18.334  -0.228  37.140  1.00  0.00    -0.175 N 
HETATM   13  C12 UNL     1      17.771   0.543  36.174  1.00  0.00     0.147 A 
ATOM     14  H5  UNL     1      19.189  -0.743  36.934  1.00  0.00     0.186 HD
HETATM   15  N7  UNL     1      15.799   2.058  35.832  1.00  0.00    -0.256 N 
HETATM   16  N8  UNL     1      14.801   2.437  36.652  1.00  0.00    -0.112 N 
ATOM     17  H7  UNL     1      15.913   2.358  34.864  1.00  0.00     0.191 HD
BRANCH  10  18
HETATM   18  N4  UNL     1      18.380  -1.082  39.241  1.00  0.00    -0.234 N 
ATOM     19  H42 UNL     1      18.257  -0.856  40.228  1.00  0.00     0.174 HD
ATOM     20  H41 UNL     1      18.941  -1.867  38.913  1.00  0.00     0.174 HD
ENDBRANCH  10  18
BRANCH  13  21
HETATM   21  N6  UNL     1      18.238   0.669  34.996  1.00  0.00    -0.383 N 
ATOM     22  H62 UNL     1      18.717   1.540  34.768  1.00  0.00     0.157 HD
ATOM     23  H61 UNL     1      18.160  -0.042  34.268  1.00  0.00     0.157 HD
ENDBRANCH  13  21
BRANCH  16  24
HETATM   24  N9  UNL     1      13.818   3.308  36.132  1.00  0.00    -0.212 N 
ATOM     25  H9  UNL     1      13.866   4.291  36.400  1.00  0.00     0.211 HD
BRANCH  24  26
HETATM   26  N10 UNL     1      12.791   2.917  35.281  1.00  0.00    -0.328 N 
ATOM     27 2H10 UNL     1      11.894   3.389  35.399  1.00  0.00     0.178 HD
ATOM     28 1H10 UNL     1      12.879   2.201  34.560  1.00  0.00     0.178 HD
ENDBRANCH  24  26
ENDBRANCH  16  24
ENDBRANCH   5   6
BRANCH   1  29
HETATM   29  C3  UNL     1      12.107   0.432  38.911  1.00  0.00     0.179 C 
BRANCH  29  30
HETATM   30  C2  UNL     1      10.980   0.308  39.893  1.00  0.00     0.210 C 
HETATM   31  C1  UNL     1      10.043  -0.826  39.540  1.00  0.00     0.042 C 
BRANCH  30  32
HETATM   32  N1  UNL     1      10.167   1.500  39.961  1.00  0.00    -0.073 N 
ATOM     33  H13 UNL     1       9.273   1.408  39.480  1.00  0.00     0.274 HD
ATOM     34  H12 UNL     1       9.791   1.681  40.892  1.00  0.00     0.274 HD
ATOM     35  H11 UNL     1      10.744   2.261  39.602  1.00  0.00     0.274 HD
ENDBRANCH  30  32
ENDBRANCH  29  30
BRANCH  29  36
HETATM   36  O1  UNL     1      11.721   1.535  38.091  1.00  0.00    -0.391 OA
ATOM     37  H1  UNL     1      11.821   1.203  37.207  1.00  0.00     0.210 HD
ENDBRANCH  29  36
ENDBRANCH   1  29
BRANCH   4  38
HETATM   38  O7  UNL     1      15.626   1.759  40.873  1.00  0.00    -0.388 OA
ATOM     39  H7  UNL     1      15.835   2.185  41.696  1.00  0.00     0.210 HD
ENDBRANCH   4  38
BRANCH   3  40
HETATM   40  O3  UNL     1      12.551   3.424  40.445  1.00  0.00    -0.361 OA
ATOM     41  H3  UNL     1      11.823   2.950  40.058  1.00  0.00     0.213 HD
ENDBRANCH   3  40
BRANCH   3  42
HETATM   42  C6  UNL     1      13.570   2.938  42.474  1.00  0.00     0.237 C 
BRANCH  42  43
HETATM   43  O4  UNL     1      13.664   4.356  42.476  1.00  0.00    -0.385 OA
ATOM     44  H4  UNL     1      13.516   4.640  43.370  1.00  0.00     0.210 HD
ENDBRANCH  42  43
BRANCH  42  45
HETATM   45  C7  UNL     1      12.435   2.625  43.386  1.00  0.00     0.287 C 
BRANCH  45  46
HETATM   46  O5  UNL     1      11.236   2.478  42.649  1.00  0.00    -0.369 OA
ATOM     47  H5  UNL     1      10.898   1.595  42.739  1.00  0.00     0.212 HD
ENDBRANCH  45  46
BRANCH  45  48
HETATM   48  O6  UNL     1      12.206   3.808  44.142  1.00  0.00    -0.369 OA
ATOM     49  H6  UNL     1      11.263   3.924  44.163  1.00  0.00     0.212 HD
ENDBRANCH  45  48
ENDBRANCH  42  45
ENDBRANCH   3  42
TORSDOF 16
ENDMDL
MODEL 4
REMARK VINA RESULT: -4.684867782      1.244      1.431
REMARK  16 active torsions:
REMARK  status: ('A' for Active; 'I' for Inactive)
REMARK    1  A    between atoms: C2_2  and  N1_3 
REMARK    2  A    between atoms: C2_2  and  C3_7 
REMARK    3  A    between atoms: C3_7  and  O1_8 
REMARK    4  A    between atoms: C3_7  and  C4_10 
REMARK    5  A    between atoms: C5_12  and  O3_13 
REMARK    6  A    between atoms: C5_12  and  C6_15 
REMARK    7  A    between atoms: C6_15  and  O4_16 
REMARK    8  A    between atoms: C6_15  and  C7_18 
REMARK    9  A    between atoms: C7_18  and  O5_19 
REMARK   10  A    between atoms: C7_18  and  O6_21 
REMARK   11  A    between atoms: C8_23  and  O7_24 
REMARK   12  A    between atoms: C9_26  and  N2_27 
REMARK   13  A    between atoms: C11_31  and  N4_32 
REMARK   14  A    between atoms: C12_37  and  N6_38 
REMARK   15  A    between atoms: N8_44  and  N9_45 
REMARK   16  A    between atoms: N9_45  and  N10_47 
ROOT
HETATM    1  C4  UNL     1      12.629   1.231  42.443  1.00  0.00     0.183 C 
HETATM    2  O2  UNL     1      13.411   2.065  43.301  1.00  0.00    -0.340 OA
HETATM    3  C5  UNL     1      13.085   3.377  43.047  1.00  0.00     0.222 C 
HETATM    4  C8  UNL     1      12.700   3.345  41.593  1.00  0.00     0.210 C 
HETATM    5  C9  UNL     1      11.748   2.176  41.696  1.00  0.00     0.179 C 
ENDROOT
BRANCH   5   6
HETATM    6  N2  UNL     1      11.043   1.793  40.560  1.00  0.00    -0.226 N 
HETATM    7  C10 UNL     1       9.672   1.770  40.526  1.00  0.00     0.173 A 
HETATM    8  N3  UNL     1       8.708   2.048  41.440  1.00  0.00    -0.173 N 
HETATM    9  C13 UNL     1       9.280   1.346  39.198  1.00  0.00     0.141 A 
HETATM   10  C11 UNL     1       7.420   1.921  41.084  1.00  0.00     0.679 A 
ATOM     11  H3  UNL     1       8.957   2.348  42.383  1.00  0.00     0.186 HD
HETATM   12  N5  UNL     1       7.028   1.530  39.858  1.00  0.00    -0.175 N 
HETATM   13  C12 UNL     1       7.933   1.235  38.890  1.00  0.00     0.147 A 
ATOM     14  H5  UNL     1       6.033   1.453  39.652  1.00  0.00     0.186 HD
HETATM   15  N7  UNL     1      10.419   1.149  38.546  1.00  0.00    -0.256 N 
HETATM   16  N8  UNL     1      11.452   1.416  39.366  1.00  0.00    -0.112 N 
ATOM     17  H7  UNL     1      10.500   0.844  37.576  1.00  0.00     0.191 HD
BRANCH  10  18
HETATM   18  N4  UNL     1       6.496   2.187  41.963  1.00  0.00    -0.234 N 
ATOM     19  H42 UNL     1       6.289   3.167  42.155  1.00  0.00     0.174 HD
ATOM     20  H41 UNL     1       6.016   1.413  42.421  1.00  0.00     0.174 HD
ENDBRANCH  10  18
BRANCH  13  21
HETATM   21  N6  UNL     1       7.626   0.867  37.710  1.00  0.00    -0.383 N 
ATOM     22  H62 UNL     1       6.852   1.347  37.251  1.00  0.00     0.157 HD
ATOM     23  H61 UNL     1       8.099   0.121  37.200  1.00  0.00     0.157 HD
ENDBRANCH  13  21
BRANCH  16  24
HETATM   24  N9  UNL     1      12.757   1.281  38.845  1.00  0.00    -0.212 N 
ATOM     25  H9  UNL     1      13.270   0.427  39.064  1.00  0.00     0.211 HD
BRANCH  24  26
HETATM   26  N10 UNL     1      13.391   2.233  38.054  1.00  0.00    -0.328 N 
ATOM     27 2H10 UNL     1      14.233   1.931  37.561  1.00  0.00     0.178 HD
ATOM     28 1H10 UNL     1      13.072   3.194  37.940  1.00  0.00     0.178 HD
ENDBRANCH  24  26
ENDBRANCH  16  24
ENDBRANCH   5   6
BRANCH   1  29
HETATM   29  C3  UNL     1      11.872   0.355  43.453  1.00  0.00     0.179 C 
BRANCH  29  30
HETATM   30  C2  UNL     1      12.587   0.232  44.766  1.00  0.00     0.210 C 
HETATM   31  C1  UNL     1      12.296  -1.086  45.449  1.00  0.00     0.042 C 
BRANCH  30  32
HETATM   32  N1  UNL     1      12.213   1.265  45.703  1.00  0.00    -0.073 N 
ATOM     33  H13 UNL     1      12.086   2.179  45.269  1.00  0.00     0.274 HD
ATOM     34  H12 UNL     1      11.263   1.163  46.060  1.00  0.00     0.274 HD
ATOM     35  H11 UNL     1      12.923   1.259  46.435  1.00  0.00     0.274 HD
ENDBRANCH  30  32
ENDBRANCH  29  30
BRANCH  29  36
HETATM   36  O1  UNL     1      10.659   1.027  43.791  1.00  0.00    -0.391 OA
ATOM     37  H1  UNL     1      10.732   1.860  43.341  1.00  0.00     0.210 HD
ENDBRANCH  29  36
ENDBRANCH   1  29
BRANCH   4  38
HETATM   38  O7  UNL     1      13.857   3.089  40.888  1.00  0.00    -0.388 OA
ATOM     39  H7  UNL     1      13.954   2.144  40.864  1.00  0.00     0.210 HD
ENDBRANCH   4  38
BRANCH   3  40
HETATM   40  O3  UNL     1      11.909   3.733  43.752  1.00  0.00    -0.361 OA
ATOM     41  H3  UNL     1      11.820   3.196  44.531  1.00  0.00     0.213 HD
ENDBRANCH   3  40
BRANCH   3  42
HETATM   42  C6  UNL     1      14.122   4.363  43.435  1.00  0.00     0.237 C 
BRANCH  42  43
HETATM   43  O4  UNL     1      13.501   5.287  44.316  1.00  0.00    -0.385 OA
ATOM     44  H4  UNL     1      14.169   5.579  44.925  1.00  0.00     0.210 HD
ENDBRANCH  42  43
BRANCH  42  45
HETATM   45  C7  UNL     1      15.310   3.859  44.177  1.00  0.00     0.287 C 
BRANCH  45  46
HETATM   46  O5  UNL     1      14.907   3.182  45.353  1.00  0.00    -0.369 OA
ATOM     47  H5  UNL     1      14.502   3.788  45.963  1.00  0.00     0.212 HD
ENDBRANCH  45  46
BRANCH  45  48
HETATM   48  O6  UNL     1      15.971   5.014  44.682  1.00  0.00    -0.369 OA
ATOM     49  H6  UNL     1      16.171   4.822  45.590  1.00  0.00     0.212 HD
ENDBRANCH  45  48
ENDBRANCH  42  45
ENDBRANCH   3  42
TORSDOF 16
ENDMDL
MODEL 5
REMARK VINA RESULT: -4.604397247      3.678      6.205
REMARK  16 active torsions:
REMARK  status: ('A' for Active; 'I' for Inactive)
REMARK    1  A    between atoms: C2_2  and  N1_3 
REMARK    2  A    between atoms: C2_2  and  C3_7 
REMARK    3  A    between atoms: C3_7  and  O1_8 
REMARK    4  A    between atoms: C3_7  and  C4_10 
REMARK    5  A    between atoms: C5_12  and  O3_13 
REMARK    6  A    between atoms: C5_12  and  C6_15 
REMARK    7  A    between atoms: C6_15  and  O4_16 
REMARK    8  A    between atoms: C6_15  and  C7_18 
REMARK    9  A    between atoms: C7_18  and  O5_19 
REMARK   10  A    between atoms: C7_18  and  O6_21 
REMARK   11  A    between atoms: C8_23  and  O7_24 
REMARK   12  A    between atoms: C9_26  and  N2_27 
REMARK   13  A    between atoms: C11_31  and  N4_32 
REMARK   14  A    between atoms: C12_37  and  N6_38 
REMARK   15  A    between atoms: N8_44  and  N9_45 
REMARK   16  A    between atoms: N9_45  and  N10_47 
ROOT
HETATM    1  C4  UNL     1      13.967   1.354  41.547  1.00  0.00     0.183 C 
HETATM    2  O2  UNL     1      13.577   2.068  42.722  1.00  0.00    -0.340 OA
HETATM    3  C5  UNL     1      14.307   3.233  42.786  1.00  0.00     0.222 C 
HETATM    4  C8  UNL     1      15.593   2.853  42.103  1.00  0.00     0.210 C 
HETATM    5  C9  UNL     1      14.957   2.245  40.874  1.00  0.00     0.179 C 
ENDROOT
BRANCH   5   6
HETATM    6  N2  UNL     1      15.787   1.794  39.852  1.00  0.00    -0.226 N 
HETATM    7  C10 UNL     1      15.499   2.012  38.529  1.00  0.00     0.173 A 
HETATM    8  N3  UNL     1      14.472   2.621  37.882  1.00  0.00    -0.173 N 
HETATM    9  C13 UNL     1      16.574   1.432  37.751  1.00  0.00     0.141 A 
HETATM   10  C11 UNL     1      14.486   2.665  36.541  1.00  0.00     0.679 A 
ATOM     11  H3  UNL     1      13.702   3.037  38.406  1.00  0.00     0.186 HD
HETATM   12  N5  UNL     1      15.471   2.134  35.795  1.00  0.00    -0.175 N 
HETATM   13  C12 UNL     1      16.532   1.510  36.368  1.00  0.00     0.147 A 
ATOM     14  H5  UNL     1      15.421   2.201  34.778  1.00  0.00     0.186 HD
HETATM   15  N7  UNL     1      17.410   0.918  38.645  1.00  0.00    -0.256 N 
HETATM   16  N8  UNL     1      16.930   1.139  39.882  1.00  0.00    -0.112 N 
ATOM     17  H7  UNL     1      18.281   0.432  38.428  1.00  0.00     0.191 HD
BRANCH  10  18
HETATM   18  N4  UNL     1      13.499   3.247  35.922  1.00  0.00    -0.234 N 
ATOM     19  H42 UNL     1      12.725   2.665  35.603  1.00  0.00     0.174 HD
ATOM     20  H41 UNL     1      13.534   4.257  35.780  1.00  0.00     0.174 HD
ENDBRANCH  10  18
BRANCH  13  21
HETATM   21  N6  UNL     1      17.497   0.994  35.718  1.00  0.00    -0.383 N 
ATOM     22  H62 UNL     1      17.700   0.007  35.874  1.00  0.00     0.157 HD
ATOM     23  H61 UNL     1      18.082   1.506  35.056  1.00  0.00     0.157 HD
ENDBRANCH  13  21
BRANCH  16  24
HETATM   24  N9  UNL     1      17.694   0.680  40.976  1.00  0.00    -0.212 N 
ATOM     25  H9  UNL     1      18.483   1.252  41.278  1.00  0.00     0.211 HD
BRANCH  24  26
HETATM   26  N10 UNL     1      17.444  -0.497  41.672  1.00  0.00    -0.328 N 
ATOM     27 2H10 UNL     1      17.468  -1.363  41.131  1.00  0.00     0.178 HD
ATOM     28 1H10 UNL     1      17.243  -0.547  42.670  1.00  0.00     0.178 HD
ENDBRANCH  24  26
ENDBRANCH  16  24
ENDBRANCH   5   6
BRANCH   1  29
HETATM   29  C3  UNL     1      12.636   1.235  40.790  1.00  0.00     0.179 C 
BRANCH  29  30
HETATM   30  C2  UNL     1      11.442   1.414  41.681  1.00  0.00     0.210 C 
HETATM   31  C1  UNL     1      10.306   0.491  41.299  1.00  0.00     0.042 C 
BRANCH  30  32
HETATM   32  N1  UNL     1      10.908   2.755  41.634  1.00  0.00    -0.073 N 
ATOM     33  H13 UNL     1      10.164   2.870  40.946  1.00  0.00     0.274 HD
ATOM     34  H12 UNL     1      10.358   3.001  42.456  1.00  0.00     0.274 HD
ATOM     35  H11 UNL     1      11.704   3.374  41.478  1.00  0.00     0.274 HD
ENDBRANCH  30  32
ENDBRANCH  29  30
BRANCH  29  36
HETATM   36  O1  UNL     1      12.548   2.334  39.884  1.00  0.00    -0.391 OA
ATOM     37  H1  UNL     1      11.615   2.502  39.825  1.00  0.00     0.210 HD
ENDBRANCH  29  36
ENDBRANCH   1  29
BRANCH   4  38
HETATM   38  O7  UNL     1      16.225   1.952  42.932  1.00  0.00    -0.388 OA
ATOM     39  H7  UNL     1      16.300   1.141  42.442  1.00  0.00     0.210 HD
ENDBRANCH   4  38
BRANCH   3  40
HETATM   40  O3  UNL     1      13.713   4.226  41.970  1.00  0.00    -0.361 OA
ATOM     41  H3  UNL     1      14.373   4.643  41.429  1.00  0.00     0.213 HD
ENDBRANCH   3  40
BRANCH   3  42
HETATM   42  C6  UNL     1      14.427   3.818  44.142  1.00  0.00     0.237 C 
BRANCH  42  43
HETATM   43  O4  UNL     1      15.431   4.821  44.069  1.00  0.00    -0.385 OA
ATOM     44  H4  UNL     1      15.922   4.778  44.880  1.00  0.00     0.210 HD
ENDBRANCH  42  43
BRANCH  42  45
HETATM   45  C7  UNL     1      13.234   4.507  44.705  1.00  0.00     0.287 C 
BRANCH  45  46
HETATM   46  O5  UNL     1      12.045   3.936  44.191  1.00  0.00    -0.369 OA
ATOM     47  H5  UNL     1      11.284   4.317  44.615  1.00  0.00     0.212 HD
ENDBRANCH  45  46
BRANCH  45  48
HETATM   48  O6  UNL     1      13.235   5.812  44.139  1.00  0.00    -0.369 OA
ATOM     49  H6  UNL     1      13.430   5.695  43.216  1.00  0.00     0.212 HD
ENDBRANCH  45  48
ENDBRANCH  42  45
ENDBRANCH   3  42
TORSDOF 16
ENDMDL
