MODEL 1
REMARK VINA RESULT: -6.222004067      0.000      0.000
REMARK  0 active torsions:
REMARK  status: ('A' for Active; 'I' for Inactive)
ROOT
HETATM    1  C1  UNL     1      72.640  38.654   1.344  1.00  0.00     0.067 C 
HETATM    2  C2  UNL     1      71.457  38.460   0.471  1.00  0.00     0.027 C 
HETATM    3  N1  UNL     1      71.159  37.349  -0.109  1.00  0.00    -0.273 N 
ATOM      4  H1  UNL     1      71.705  36.491  -0.028  1.00  0.00     0.193 HD
HETATM    5  O1  UNL     1      70.000  37.472  -0.858  1.00  0.00    -0.267 OA
HETATM    6  C3  UNL     1      69.321  38.591  -0.346  1.00  0.00     0.120 A 
HETATM    7  C4  UNL     1      68.317  38.218   0.752  1.00  0.00     0.058 A 
HETATM    8  C5  UNL     1      67.931  38.869  -0.522  1.00  0.00     0.019 A 
HETATM    9  C6  UNL     1      67.203  37.968  -1.534  1.00  0.00     0.015 C 
HETATM   10  C7  UNL     1      65.809  37.669  -1.107  1.00  0.00     0.001 C 
HETATM   11  C8  UNL     1      65.358  38.669  -0.077  1.00  0.00     0.002 C 
HETATM   12  C9  UNL     1      65.772  40.044  -0.551  1.00  0.00     0.026 C 
HETATM   13  C10 UNL     1      67.288  40.198  -0.582  1.00  0.00     0.044 C 
HETATM   14  C11 UNL     1      67.676  41.165   0.477  1.00  0.00     0.033 C 
HETATM   15 CL1  UNL     1      67.661  40.960  -2.168  1.00  0.00    -0.119 Cl
HETATM   16  C12 UNL     1      70.412  39.466   0.098  1.00  0.00     0.177 C 
HETATM   17  C13 UNL     1      70.991  40.257  -0.994  1.00  0.00     0.073 C 
HETATM   18  N2  UNL     1      71.465  40.884  -1.847  1.00  0.00    -0.196 NA
ENDROOT
TORSDOF 0
ENDMDL
MODEL 2
REMARK VINA RESULT: -6.067108034      2.689      4.026
REMARK  0 active torsions:
REMARK  status: ('A' for Active; 'I' for Inactive)
ROOT
HETATM    1  C1  UNL     1      72.454  36.022   4.591  1.00  0.00     0.067 C 
HETATM    2  C2  UNL     1      71.510  36.430   3.521  1.00  0.00     0.027 C 
HETATM    3  N1  UNL     1      70.237  36.235   3.565  1.00  0.00    -0.273 N 
ATOM      4  H1  UNL     1      69.750  35.781   4.337  1.00  0.00     0.193 HD
HETATM    5  O1  UNL     1      69.618  36.722   2.426  1.00  0.00    -0.267 OA
HETATM    6  C3  UNL     1      70.507  37.657   1.869  1.00  0.00     0.120 A 
HETATM    7  C4  UNL     1      70.244  39.085   2.362  1.00  0.00     0.058 A 
HETATM    8  C5  UNL     1      70.154  38.683   0.939  1.00  0.00     0.019 A 
HETATM    9  C6  UNL     1      68.731  38.590   0.364  1.00  0.00     0.015 C 
HETATM   10  C7  UNL     1      68.125  39.934   0.164  1.00  0.00     0.001 C 
HETATM   11  C8  UNL     1      69.199  40.987   0.140  1.00  0.00     0.002 C 
HETATM   12  C9  UNL     1      70.328  40.480  -0.729  1.00  0.00     0.026 C 
HETATM   13  C10 UNL     1      71.011  39.264  -0.115  1.00  0.00     0.044 C 
HETATM   14  C11 UNL     1      72.382  39.662   0.296  1.00  0.00     0.033 C 
HETATM   15 CL1  UNL     1      71.176  38.078  -1.458  1.00  0.00    -0.119 Cl
HETATM   16  C12 UNL     1      71.824  37.119   2.230  1.00  0.00     0.177 C 
HETATM   17  C13 UNL     1      72.281  36.067   1.316  1.00  0.00     0.073 C 
HETATM   18  N2  UNL     1      72.655  35.228   0.607  1.00  0.00    -0.196 NA
ENDROOT
TORSDOF 0
ENDMDL
MODEL 3
REMARK VINA RESULT: -5.740810674      2.392      3.466
REMARK  0 active torsions:
REMARK  status: ('A' for Active; 'I' for Inactive)
ROOT
HETATM    1  C1  UNL     1      72.888  37.807   2.309  1.00  0.00     0.067 C 
HETATM    2  C2  UNL     1      71.622  38.552   2.104  1.00  0.00     0.027 C 
HETATM    3  N1  UNL     1      71.365  39.702   2.625  1.00  0.00    -0.273 N 
ATOM      4  H1  UNL     1      72.004  40.217   3.230  1.00  0.00     0.193 HD
HETATM    5  O1  UNL     1      70.107  40.147   2.255  1.00  0.00    -0.267 OA
HETATM    6  C3  UNL     1      69.766  39.434   1.093  1.00  0.00     0.120 A 
HETATM    7  C4  UNL     1      70.168  40.172  -0.189  1.00  0.00     0.058 A 
HETATM    8  C5  UNL     1      68.769  39.821   0.146  1.00  0.00     0.019 A 
HETATM    9  C6  UNL     1      67.874  40.996   0.576  1.00  0.00     0.015 C 
HETATM   10  C7  UNL     1      67.522  41.873  -0.574  1.00  0.00     0.001 C 
HETATM   11  C8  UNL     1      67.742  41.141  -1.870  1.00  0.00     0.002 C 
HETATM   12  C9  UNL     1      67.171  39.749  -1.720  1.00  0.00     0.026 C 
HETATM   13  C10 UNL     1      67.941  38.929  -0.692  1.00  0.00     0.044 C 
HETATM   14  C11 UNL     1      68.661  37.846  -1.410  1.00  0.00     0.033 C 
HETATM   15 CL1  UNL     1      66.688  38.150   0.337  1.00  0.00    -0.119 Cl
HETATM   16  C12 UNL     1      70.434  38.142   1.289  1.00  0.00     0.177 C 
HETATM   17  C13 UNL     1      69.666  37.224   2.136  1.00  0.00     0.073 C 
HETATM   18  N2  UNL     1      69.075  36.488   2.811  1.00  0.00    -0.196 NA
ENDROOT
TORSDOF 0
ENDMDL
MODEL 4
REMARK VINA RESULT: -5.702035054      2.548      5.357
REMARK  0 active torsions:
REMARK  status: ('A' for Active; 'I' for Inactive)
ROOT
HETATM    1  C1  UNL     1      67.271  41.363   0.402  1.00  0.00     0.067 C 
HETATM    2  C2  UNL     1      68.597  40.698   0.382  1.00  0.00     0.027 C 
HETATM    3  N1  UNL     1      69.694  41.279   0.039  1.00  0.00    -0.273 N 
ATOM      4  H1  UNL     1      69.764  42.254  -0.253  1.00  0.00     0.193 HD
HETATM    5  O1  UNL     1      70.767  40.407   0.119  1.00  0.00    -0.267 OA
HETATM    6  C3  UNL     1      70.365  39.372   0.980  1.00  0.00     0.120 A 
HETATM    7  C4  UNL     1      70.750  39.639   2.440  1.00  0.00     0.058 A 
HETATM    8  C5  UNL     1      71.243  38.477   1.665  1.00  0.00     0.019 A 
HETATM    9  C6  UNL     1      72.718  38.543   1.234  1.00  0.00     0.015 C 
HETATM   10  C7  UNL     1      73.640  38.339   2.384  1.00  0.00     0.001 C 
HETATM   11  C8  UNL     1      72.909  37.686   3.525  1.00  0.00     0.002 C 
HETATM   12  C9  UNL     1      72.075  36.559   2.958  1.00  0.00     0.026 C 
HETATM   13  C10 UNL     1      70.966  37.078   2.051  1.00  0.00     0.044 C 
HETATM   14  C11 UNL     1      69.664  36.826   2.722  1.00  0.00     0.033 C 
HETATM   15 CL1  UNL     1      71.023  36.040   0.583  1.00  0.00    -0.119 Cl
HETATM   16  C12 UNL     1      68.921  39.280   0.737  1.00  0.00     0.177 C 
HETATM   17  C13 UNL     1      68.591  38.485  -0.451  1.00  0.00     0.073 C 
HETATM   18  N2  UNL     1      68.313  37.866  -1.392  1.00  0.00    -0.196 NA
ENDROOT
TORSDOF 0
ENDMDL
MODEL 5
REMARK VINA RESULT: -5.612922096      1.565      2.107
REMARK  0 active torsions:
REMARK  status: ('A' for Active; 'I' for Inactive)
ROOT
HETATM    1  C1  UNL     1      72.720  36.847   0.709  1.00  0.00     0.067 C 
HETATM    2  C2  UNL     1      71.518  37.409   0.045  1.00  0.00     0.027 C 
HETATM    3  N1  UNL     1      70.447  36.737  -0.204  1.00  0.00    -0.273 N 
ATOM      4  H1  UNL     1      70.317  35.752   0.030  1.00  0.00     0.193 HD
HETATM    5  O1  UNL     1      69.497  37.526  -0.830  1.00  0.00    -0.267 OA
HETATM    6  C3  UNL     1      69.845  38.857  -0.543  1.00  0.00     0.120 A 
HETATM    7  C4  UNL     1      69.147  39.390   0.715  1.00  0.00     0.058 A 
HETATM    8  C5  UNL     1      68.966  39.980  -0.632  1.00  0.00     0.019 A 
HETATM    9  C6  UNL     1      67.610  39.704  -1.302  1.00  0.00     0.015 C 
HETATM   10  C7  UNL     1      66.510  40.478  -0.666  1.00  0.00     0.001 C 
HETATM   11  C8  UNL     1      67.075  41.627   0.124  1.00  0.00     0.002 C 
HETATM   12  C9  UNL     1      68.138  42.293  -0.720  1.00  0.00     0.026 C 
HETATM   13  C10 UNL     1      69.333  41.375  -0.952  1.00  0.00     0.044 C 
HETATM   14  C11 UNL     1      70.496  41.936  -0.217  1.00  0.00     0.033 C 
HETATM   15 CL1  UNL     1      69.699  41.498  -2.709  1.00  0.00    -0.119 Cl
HETATM   16  C12 UNL     1      71.309  38.805  -0.452  1.00  0.00     0.177 C 
HETATM   17  C13 UNL     1      71.964  38.865  -1.763  1.00  0.00     0.073 C 
HETATM   18  N2  UNL     1      72.499  38.904  -2.792  1.00  0.00    -0.196 NA
ENDROOT
TORSDOF 0
ENDMDL
