MODEL 1
REMARK VINA RESULT: -6.747459719      0.000      0.000
REMARK  7 active torsions:
REMARK  status: ('A' for Active; 'I' for Inactive)
REMARK    1  A    between atoms: C2_2  and  C3_3 
REMARK    2  A    between atoms: C4_4  and  O1_5 
REMARK    3  A    between atoms: C6_7  and  O2_8 
REMARK    4  A    between atoms: C8_10  and  O3_11 
REMARK    5  A    between atoms: C17_21  and  C18_22 
REMARK    6  A    between atoms: C21_25  and  O4_26 
REMARK    7  A    between atoms: C22_28  and  O5_29 
ROOT
HETATM    1  C3  UNL     1     -17.250   5.796  -4.615  1.00  0.00     0.014 A 
HETATM    2  C4  UNL     1     -17.104   4.913  -5.701  1.00  0.00     0.115 A 
HETATM    3  C6  UNL     1     -16.592   5.429  -6.844  1.00  0.00     0.137 A 
HETATM    4  C8  UNL     1     -16.227   6.770  -6.948  1.00  0.00     0.116 A 
HETATM    5  C10 UNL     1     -16.369   7.633  -5.896  1.00  0.00     0.026 A 
HETATM    6  C11 UNL     1     -16.893   7.122  -4.704  1.00  0.00     0.033 A 
HETATM    7  C12 UNL     1     -16.964   8.204  -3.688  1.00  0.00     0.131 A 
HETATM    8  N1  UNL     1     -17.310   8.065  -2.557  1.00  0.00    -0.427 NA
HETATM    9  C13 UNL     1     -17.696   7.896  -1.304  1.00  0.00     0.229 C 
HETATM   10  C14 UNL     1     -16.430   9.412  -4.398  1.00  0.00     0.053 A 
HETATM   11  C15 UNL     1     -16.094   9.048  -5.668  1.00  0.00    -0.005 A 
HETATM   12  C16 UNL     1     -15.557   9.960  -6.536  1.00  0.00     0.028 A 
HETATM   13  C17 UNL     1     -15.331  11.296  -6.160  1.00  0.00     0.002 A 
HETATM   14  C21 UNL     1     -15.686  11.615  -4.880  1.00  0.00     0.110 A 
HETATM   15  C22 UNL     1     -16.240  10.691  -3.972  1.00  0.00     0.114 A 
ENDROOT
BRANCH   1  16
HETATM   16  C2  UNL     1     -17.786   5.264  -3.356  1.00  0.00     0.005 C 
HETATM   17  C1  UNL     1     -16.893   4.655  -2.575  1.00  0.00     0.012 C 
ENDBRANCH   1  16
BRANCH  15  18
HETATM   18  O5  UNL     1     -16.563  11.112  -2.711  1.00  0.00    -0.357 OA
ATOM     19  H5  UNL     1     -17.328  11.643  -2.523  1.00  0.00     0.217 HD
ENDBRANCH  15  18
BRANCH   2  20
HETATM   20  O1  UNL     1     -17.489   3.611  -5.514  1.00  0.00    -0.352 OA
HETATM   21  C5  UNL     1     -16.605   2.518  -5.501  1.00  0.00     0.210 C 
ENDBRANCH   2  20
BRANCH   4  22
HETATM   22  O3  UNL     1     -15.721   7.176  -8.154  1.00  0.00    -0.352 OA
HETATM   23  C9  UNL     1     -16.557   7.777  -9.152  1.00  0.00     0.210 C 
ENDBRANCH   4  22
BRANCH  14  24
HETATM   24  O4  UNL     1     -15.511  12.897  -4.414  1.00  0.00    -0.357 OA
ATOM     25  H4  UNL     1     -15.563  13.077  -3.483  1.00  0.00     0.217 HD
ENDBRANCH  14  24
BRANCH   3  26
HETATM   26  O2  UNL     1     -16.414   4.630  -7.962  1.00  0.00    -0.351 OA
HETATM   27  C7  UNL     1     -17.549   4.273  -8.726  1.00  0.00     0.210 C 
ENDBRANCH   3  26
BRANCH  13  28
HETATM   28  C18 UNL     1     -14.642  12.183  -7.099  1.00  0.00    -0.074 C 
HETATM   29  C19 UNL     1     -13.680  11.593  -8.041  1.00  0.00     0.044 C 
HETATM   30  C20 UNL     1     -15.391  13.356  -7.628  1.00  0.00     0.044 C 
ENDBRANCH  13  28
TORSDOF 7
ENDMDL
MODEL 2
REMARK VINA RESULT: -6.643634396      0.970      1.246
REMARK  7 active torsions:
REMARK  status: ('A' for Active; 'I' for Inactive)
REMARK    1  A    between atoms: C2_2  and  C3_3 
REMARK    2  A    between atoms: C4_4  and  O1_5 
REMARK    3  A    between atoms: C6_7  and  O2_8 
REMARK    4  A    between atoms: C8_10  and  O3_11 
REMARK    5  A    between atoms: C17_21  and  C18_22 
REMARK    6  A    between atoms: C21_25  and  O4_26 
REMARK    7  A    between atoms: C22_28  and  O5_29 
ROOT
HETATM    1  C3  UNL     1     -17.194   6.763  -4.543  1.00  0.00     0.014 A 
HETATM    2  C4  UNL     1     -17.006   5.686  -5.429  1.00  0.00     0.115 A 
HETATM    3  C6  UNL     1     -16.388   5.962  -6.603  1.00  0.00     0.137 A 
HETATM    4  C8  UNL     1     -15.957   7.247  -6.924  1.00  0.00     0.116 A 
HETATM    5  C10 UNL     1     -16.140   8.297  -6.067  1.00  0.00     0.026 A 
HETATM    6  C11 UNL     1     -16.774   8.038  -4.848  1.00  0.00     0.033 A 
HETATM    7  C12 UNL     1     -16.874   9.294  -4.061  1.00  0.00     0.131 A 
HETATM    8  N1  UNL     1     -17.309   9.382  -2.956  1.00  0.00    -0.427 NA
HETATM    9  C13 UNL     1     -17.795   9.465  -1.730  1.00  0.00     0.229 C 
HETATM   10  C14 UNL     1     -16.235  10.330  -4.938  1.00  0.00     0.053 A 
HETATM   11  C15 UNL     1     -15.821   9.722  -6.086  1.00  0.00    -0.005 A 
HETATM   12  C16 UNL     1     -15.181  10.437  -7.062  1.00  0.00     0.028 A 
HETATM   13  C17 UNL     1     -14.926  11.813  -6.925  1.00  0.00     0.002 A 
HETATM   14  C21 UNL     1     -15.362  12.379  -5.760  1.00  0.00     0.110 A 
HETATM   15  C22 UNL     1     -16.022  11.661  -4.745  1.00  0.00     0.114 A 
ENDROOT
BRANCH   1  16
HETATM   16  C2  UNL     1     -17.845   6.495  -3.254  1.00  0.00     0.005 C 
HETATM   17  C1  UNL     1     -17.048   5.987  -2.314  1.00  0.00     0.012 C 
ENDBRANCH   1  16
BRANCH  15  18
HETATM   18  O5  UNL     1     -16.420  12.321  -3.614  1.00  0.00    -0.357 OA
ATOM     19  H5  UNL     1     -16.193  13.227  -3.438  1.00  0.00     0.217 HD
ENDBRANCH  15  18
BRANCH   2  20
HETATM   20  O1  UNL     1     -17.460   4.456  -5.034  1.00  0.00    -0.352 OA
HETATM   21  C5  UNL     1     -16.627   3.363  -4.734  1.00  0.00     0.210 C 
ENDBRANCH   2  20
BRANCH   4  22
HETATM   22  O3  UNL     1     -15.345   7.403  -8.140  1.00  0.00    -0.352 OA
HETATM   23  C9  UNL     1     -16.066   7.873  -9.286  1.00  0.00     0.210 C 
ENDBRANCH   4  22
BRANCH  14  24
HETATM   24  O4  UNL     1     -15.166  13.721  -5.529  1.00  0.00    -0.357 OA
ATOM     25  H4  UNL     1     -15.347  14.088  -4.672  1.00  0.00     0.217 HD
ENDBRANCH  14  24
BRANCH   3  26
HETATM   26  O2  UNL     1     -16.161   4.960  -7.533  1.00  0.00    -0.351 OA
HETATM   27  C7  UNL     1     -17.258   4.467  -8.277  1.00  0.00     0.210 C 
ENDBRANCH   3  26
BRANCH  13  28
HETATM   28  C18 UNL     1     -14.131  12.486  -7.953  1.00  0.00    -0.074 C 
HETATM   29  C19 UNL     1     -14.184  13.953  -8.029  1.00  0.00     0.044 C 
HETATM   30  C20 UNL     1     -12.816  11.892  -8.320  1.00  0.00     0.044 C 
ENDBRANCH  13  28
TORSDOF 7
ENDMDL
MODEL 3
REMARK VINA RESULT: -6.583343867      2.596      5.011
REMARK  7 active torsions:
REMARK  status: ('A' for Active; 'I' for Inactive)
REMARK    1  A    between atoms: C2_2  and  C3_3 
REMARK    2  A    between atoms: C4_4  and  O1_5 
REMARK    3  A    between atoms: C6_7  and  O2_8 
REMARK    4  A    between atoms: C8_10  and  O3_11 
REMARK    5  A    between atoms: C17_21  and  C18_22 
REMARK    6  A    between atoms: C21_25  and  O4_26 
REMARK    7  A    between atoms: C22_28  and  O5_29 
ROOT
HETATM    1  C3  UNL     1     -16.990  11.098  -4.331  1.00  0.00     0.014 A 
HETATM    2  C4  UNL     1     -17.065   9.700  -4.188  1.00  0.00     0.115 A 
HETATM    3  C6  UNL     1     -16.298   8.958  -5.023  1.00  0.00     0.137 A 
HETATM    4  C8  UNL     1     -15.472   9.544  -5.980  1.00  0.00     0.116 A 
HETATM    5  C10 UNL     1     -15.396  10.902  -6.124  1.00  0.00     0.026 A 
HETATM    6  C11 UNL     1     -16.178  11.689  -5.272  1.00  0.00     0.033 A 
HETATM    7  C12 UNL     1     -15.956  13.126  -5.578  1.00  0.00     0.131 A 
HETATM    8  N1  UNL     1     -16.434  14.040  -4.981  1.00  0.00    -0.427 NA
HETATM    9  C13 UNL     1     -16.971  15.044  -4.311  1.00  0.00     0.229 C 
HETATM   10  C14 UNL     1     -14.963  13.114  -6.702  1.00  0.00     0.053 A 
HETATM   11  C15 UNL     1     -14.660  11.817  -6.991  1.00  0.00    -0.005 A 
HETATM   12  C16 UNL     1     -13.754  11.514  -7.972  1.00  0.00     0.028 A 
HETATM   13  C17 UNL     1     -13.105  12.515  -8.715  1.00  0.00     0.002 A 
HETATM   14  C21 UNL     1     -13.443  13.799  -8.392  1.00  0.00     0.110 A 
HETATM   15  C22 UNL     1     -14.372  14.131  -7.388  1.00  0.00     0.114 A 
ENDROOT
BRANCH   1  16
HETATM   16  C2  UNL     1     -17.796  11.931  -3.430  1.00  0.00     0.005 C 
HETATM   17  C1  UNL     1     -19.076  12.065  -3.779  1.00  0.00     0.012 C 
ENDBRANCH   1  16
BRANCH  15  18
HETATM   18  O5  UNL     1     -14.643  15.450  -7.142  1.00  0.00    -0.357 OA
ATOM     19  H5  UNL     1     -15.127  15.745  -6.380  1.00  0.00     0.217 HD
ENDBRANCH  15  18
BRANCH   2  20
HETATM   20  O1  UNL     1     -17.902   9.207  -3.223  1.00  0.00    -0.352 OA
HETATM   21  C5  UNL     1     -17.469   8.664  -2.000  1.00  0.00     0.210 C 
ENDBRANCH   2  20
BRANCH   4  22
HETATM   22  O3  UNL     1     -14.744   8.692  -6.766  1.00  0.00    -0.352 OA
HETATM   23  C9  UNL     1     -15.260   8.191  -8.006  1.00  0.00     0.210 C 
ENDBRANCH   4  22
BRANCH  14  24
HETATM   24  O4  UNL     1     -12.869  14.854  -9.064  1.00  0.00    -0.357 OA
ATOM     25  H4  UNL     1     -12.893  15.726  -8.690  1.00  0.00     0.217 HD
ENDBRANCH  14  24
BRANCH   3  26
HETATM   26  O2  UNL     1     -16.310   7.574  -4.950  1.00  0.00    -0.351 OA
HETATM   27  C7  UNL     1     -17.399   6.877  -5.522  1.00  0.00     0.210 C 
ENDBRANCH   3  26
BRANCH  13  28
HETATM   28  C18 UNL     1     -12.061  12.122  -9.662  1.00  0.00    -0.074 C 
HETATM   29  C19 UNL     1     -12.307  10.962 -10.532  1.00  0.00     0.044 C 
HETATM   30  C20 UNL     1     -11.236  13.197 -10.278  1.00  0.00     0.044 C 
ENDBRANCH  13  28
TORSDOF 7
ENDMDL
MODEL 4
REMARK VINA RESULT: -6.552659907      2.203      7.243
REMARK  7 active torsions:
REMARK  status: ('A' for Active; 'I' for Inactive)
REMARK    1  A    between atoms: C2_2  and  C3_3 
REMARK    2  A    between atoms: C4_4  and  O1_5 
REMARK    3  A    between atoms: C6_7  and  O2_8 
REMARK    4  A    between atoms: C8_10  and  O3_11 
REMARK    5  A    between atoms: C17_21  and  C18_22 
REMARK    6  A    between atoms: C21_25  and  O4_26 
REMARK    7  A    between atoms: C22_28  and  O5_29 
ROOT
HETATM    1  C3  UNL     1     -15.617  12.454  -3.864  1.00  0.00     0.014 A 
HETATM    2  C4  UNL     1     -15.895  12.392  -2.485  1.00  0.00     0.115 A 
HETATM    3  C6  UNL     1     -16.252  11.183  -1.988  1.00  0.00     0.137 A 
HETATM    4  C8  UNL     1     -16.343  10.052  -2.796  1.00  0.00     0.116 A 
HETATM    5  C10 UNL     1     -16.076  10.107  -4.136  1.00  0.00     0.026 A 
HETATM    6  C11 UNL     1     -15.703  11.344  -4.673  1.00  0.00     0.033 A 
HETATM    7  C12 UNL     1     -15.452  11.199  -6.130  1.00  0.00     0.131 A 
HETATM    8  N1  UNL     1     -15.061  12.062  -6.851  1.00  0.00    -0.427 NA
HETATM    9  C13 UNL     1     -14.627  13.029  -7.640  1.00  0.00     0.229 C 
HETATM   10  C14 UNL     1     -15.716   9.748  -6.407  1.00  0.00     0.053 A 
HETATM   11  C15 UNL     1     -16.071   9.147  -5.236  1.00  0.00    -0.005 A 
HETATM   12  C16 UNL     1     -16.350   7.808  -5.196  1.00  0.00     0.028 A 
HETATM   13  C17 UNL     1     -16.283   7.003  -6.346  1.00  0.00     0.002 A 
HETATM   14  C21 UNL     1     -15.926   7.650  -7.496  1.00  0.00     0.110 A 
HETATM   15  C22 UNL     1     -15.636   9.026  -7.558  1.00  0.00     0.114 A 
ENDROOT
BRANCH   1  16
HETATM   16  C2  UNL     1     -15.210  13.745  -4.432  1.00  0.00     0.005 C 
HETATM   17  C1  UNL     1     -16.215  14.560  -4.758  1.00  0.00     0.012 C 
ENDBRANCH   1  16
BRANCH  15  18
HETATM   18  O5  UNL     1     -15.289   9.579  -8.761  1.00  0.00    -0.357 OA
ATOM     19  H5  UNL     1     -14.726   9.140  -9.388  1.00  0.00     0.217 HD
ENDBRANCH  15  18
BRANCH   2  20
HETATM   20  O1  UNL     1     -15.781  13.551  -1.765  1.00  0.00    -0.352 OA
HETATM   21  C5  UNL     1     -14.686  13.869  -0.943  1.00  0.00     0.210 C 
ENDBRANCH   2  20
BRANCH   4  22
HETATM   22  O3  UNL     1     -16.714   8.886  -2.179  1.00  0.00    -0.352 OA
HETATM   23  C9  UNL     1     -18.078   8.446  -2.169  1.00  0.00     0.210 C 
ENDBRANCH   4  22
BRANCH  14  24
HETATM   24  O4  UNL     1     -15.836   6.954  -8.680  1.00  0.00    -0.357 OA
ATOM     25  H4  UNL     1     -15.781   7.422  -9.504  1.00  0.00     0.217 HD
ENDBRANCH  14  24
BRANCH   3  26
HETATM   26  O2  UNL     1     -16.542  11.033  -0.641  1.00  0.00    -0.351 OA
HETATM   27  C7  UNL     1     -17.785  11.504  -0.160  1.00  0.00     0.210 C 
ENDBRANCH   3  26
BRANCH  13  28
HETATM   28  C18 UNL     1     -16.475   5.559  -6.206  1.00  0.00    -0.074 C 
HETATM   29  C19 UNL     1     -15.315   4.677  -6.400  1.00  0.00     0.044 C 
HETATM   30  C20 UNL     1     -17.458   5.080  -5.196  1.00  0.00     0.044 C 
ENDBRANCH  13  28
TORSDOF 7
ENDMDL
MODEL 5
REMARK VINA RESULT: -6.453120355      2.368      4.453
REMARK  7 active torsions:
REMARK  status: ('A' for Active; 'I' for Inactive)
REMARK    1  A    between atoms: C2_2  and  C3_3 
REMARK    2  A    between atoms: C4_4  and  O1_5 
REMARK    3  A    between atoms: C6_7  and  O2_8 
REMARK    4  A    between atoms: C8_10  and  O3_11 
REMARK    5  A    between atoms: C17_21  and  C18_22 
REMARK    6  A    between atoms: C21_25  and  O4_26 
REMARK    7  A    between atoms: C22_28  and  O5_29 
ROOT
HETATM    1  C3  UNL     1     -17.155  10.510  -3.950  1.00  0.00     0.014 A 
HETATM    2  C4  UNL     1     -17.154   9.105  -4.033  1.00  0.00     0.115 A 
HETATM    3  C6  UNL     1     -16.406   8.552  -5.019  1.00  0.00     0.137 A 
HETATM    4  C8  UNL     1     -15.672   9.330  -5.910  1.00  0.00     0.116 A 
HETATM    5  C10 UNL     1     -15.671  10.696  -5.835  1.00  0.00     0.026 A 
HETATM    6  C11 UNL     1     -16.434  11.290  -4.824  1.00  0.00     0.033 A 
HETATM    7  C12 UNL     1     -16.301  12.768  -4.903  1.00  0.00     0.131 A 
HETATM    8  N1  UNL     1     -16.783  13.545  -4.140  1.00  0.00    -0.427 NA
HETATM    9  C13 UNL     1     -17.324  14.396  -3.287  1.00  0.00     0.229 C 
HETATM   10  C14 UNL     1     -15.381  12.993  -6.067  1.00  0.00     0.053 A 
HETATM   11  C15 UNL     1     -15.035  11.778  -6.579  1.00  0.00    -0.005 A 
HETATM   12  C16 UNL     1     -14.180  11.689  -7.645  1.00  0.00     0.028 A 
HETATM   13  C17 UNL     1     -13.628  12.832  -8.249  1.00  0.00     0.002 A 
HETATM   14  C21 UNL     1     -14.006  14.026  -7.703  1.00  0.00     0.110 A 
HETATM   15  C22 UNL     1     -14.884  14.139  -6.608  1.00  0.00     0.114 A 
ENDROOT
BRANCH   1  16
HETATM   16  C2  UNL     1     -17.941  11.140  -2.882  1.00  0.00     0.005 C 
HETATM   17  C1  UNL     1     -19.232  11.324  -3.165  1.00  0.00     0.012 C 
ENDBRANCH   1  16
BRANCH  15  18
HETATM   18  O5  UNL     1     -15.201  15.384  -6.136  1.00  0.00    -0.357 OA
ATOM     19  H5  UNL     1     -15.859  15.530  -5.466  1.00  0.00     0.217 HD
ENDBRANCH  15  18
BRANCH   2  20
HETATM   20  O1  UNL     1     -17.904   8.416  -3.117  1.00  0.00    -0.352 OA
HETATM   21  C5  UNL     1     -17.370   7.717  -2.020  1.00  0.00     0.210 C 
ENDBRANCH   2  20
BRANCH   4  22
HETATM   22  O3  UNL     1     -14.954   8.658  -6.864  1.00  0.00    -0.352 OA
HETATM   23  C9  UNL     1     -15.503   8.386  -8.161  1.00  0.00     0.210 C 
ENDBRANCH   4  22
BRANCH  14  24
HETATM   24  O4  UNL     1     -13.526  15.206  -8.224  1.00  0.00    -0.357 OA
ATOM     25  H4  UNL     1     -12.967  15.766  -7.699  1.00  0.00     0.217 HD
ENDBRANCH  14  24
BRANCH   3  26
HETATM   26  O2  UNL     1     -16.348   7.176  -5.172  1.00  0.00    -0.351 OA
HETATM   27  C7  UNL     1     -17.449   6.514  -5.764  1.00  0.00     0.210 C 
ENDBRANCH   3  26
BRANCH  13  28
HETATM   28  C18 UNL     1     -12.628  12.656  -9.303  1.00  0.00    -0.074 C 
HETATM   29  C19 UNL     1     -11.523  13.622  -9.387  1.00  0.00     0.044 C 
HETATM   30  C20 UNL     1     -12.272  11.267  -9.703  1.00  0.00     0.044 C 
ENDBRANCH  13  28
TORSDOF 7
ENDMDL
