MODEL 1
REMARK VINA RESULT: -6.374636475      0.000      0.000
REMARK  8 active torsions:
REMARK  status: ('A' for Active; 'I' for Inactive)
REMARK    1  A    between atoms: C8_9  and  O2_10 
REMARK    2  A    between atoms: C12_15  and  O3_16 
REMARK    3  A    between atoms: O3_16  and  C13_17 
REMARK    4  A    between atoms: C13_17  and  C14_19 
REMARK    5  A    between atoms: C14_19  and  C16_21 
REMARK    6  A    between atoms: C16_21  and  C17_22 
REMARK    7  A    between atoms: C20_25  and  O5_26 
REMARK    8  A    between atoms: O5_26  and  O6_27 
ROOT
HETATM    1  C1  UNL     1     -15.021  13.249  -1.717  1.00  0.00     0.043 C 
HETATM    2  C2  UNL     1     -15.853  13.344  -2.987  1.00  0.00    -0.085 C 
HETATM    3  C3  UNL     1     -15.271  13.997  -3.972  1.00  0.00    -0.020 C 
HETATM    4  C4  UNL     1     -15.808  14.262  -5.322  1.00  0.00     0.057 C 
HETATM    5  C5  UNL     1     -14.772  14.198  -6.386  1.00  0.00     0.009 C 
HETATM    6  C6  UNL     1     -14.748  13.293  -7.379  1.00  0.00     0.042 C 
HETATM    7  C7  UNL     1     -13.563  13.479  -8.322  1.00  0.00     0.076 C 
HETATM    8  O1  UNL     1     -15.643  12.306  -7.577  1.00  0.00    -0.322 OA
HETATM    9  C8  UNL     1     -15.900  11.084  -6.960  1.00  0.00     0.287 C 
HETATM   10  C9  UNL     1     -15.007  10.722  -5.845  1.00  0.00     0.038 C 
HETATM   11  C10 UNL     1     -15.236  10.474  -4.588  1.00  0.00    -0.051 C 
HETATM   12  C11 UNL     1     -13.991  10.132  -3.760  1.00  0.00     0.046 C 
HETATM   13  C12 UNL     1     -16.469  10.444  -3.811  1.00  0.00     0.192 C 
HETATM   14  C20 UNL     1     -17.432  11.570  -3.874  1.00  0.00     0.197 C 
HETATM   15  C21 UNL     1     -17.168  12.732  -2.953  1.00  0.00     0.071 C 
ENDROOT
BRANCH  13  16
HETATM   16  O3  UNL     1     -17.172   9.220  -4.153  1.00  0.00    -0.308 OA
BRANCH  16  17
HETATM   17  C13 UNL     1     -17.120   8.090  -3.366  1.00  0.00     0.263 C 
HETATM   18  O4  UNL     1     -16.701   8.209  -2.198  1.00  0.00    -0.265 OA
BRANCH  17  19
HETATM   19  C14 UNL     1     -17.551   6.795  -3.900  1.00  0.00     0.082 C 
HETATM   20  C15 UNL     1     -17.774   5.873  -2.714  1.00  0.00     0.020 C 
BRANCH  19  21
HETATM   21  C16 UNL     1     -16.811   6.205  -5.006  1.00  0.00     0.018 C 
BRANCH  21  22
HETATM   22  C17 UNL     1     -16.691   6.893  -6.303  1.00  0.00    -0.022 C 
HETATM   23  C18 UNL     1     -15.340   6.941  -6.927  1.00  0.00     0.009 C 
HETATM   24  C19 UNL     1     -17.766   6.476  -7.305  1.00  0.00     0.009 C 
ENDBRANCH  21  22
ENDBRANCH  19  21
ENDBRANCH  17  19
ENDBRANCH  16  17
ENDBRANCH  13  16
BRANCH  14  25
HETATM   25  O5  UNL     1     -18.625  11.007  -3.292  1.00  0.00    -0.235 OA
BRANCH  25  26
HETATM   26  O6  UNL     1     -18.460  10.868  -2.002  1.00  0.00    -0.250 OA
ATOM     27  H6  UNL     1     -19.291  10.653  -1.596  1.00  0.00     0.253 HD
ENDBRANCH  25  26
ENDBRANCH  14  25
BRANCH   9  28
HETATM   28  O2  UNL     1     -15.662  10.124  -8.010  1.00  0.00    -0.367 OA
ATOM     29  H2  UNL     1     -15.431   9.334  -7.537  1.00  0.00     0.213 HD
ENDBRANCH   9  28
TORSDOF 8
ENDMDL
MODEL 2
REMARK VINA RESULT: -6.266772405      1.186      2.327
REMARK  8 active torsions:
REMARK  status: ('A' for Active; 'I' for Inactive)
REMARK    1  A    between atoms: C8_9  and  O2_10 
REMARK    2  A    between atoms: C12_15  and  O3_16 
REMARK    3  A    between atoms: O3_16  and  C13_17 
REMARK    4  A    between atoms: C13_17  and  C14_19 
REMARK    5  A    between atoms: C14_19  and  C16_21 
REMARK    6  A    between atoms: C16_21  and  C17_22 
REMARK    7  A    between atoms: C20_25  and  O5_26 
REMARK    8  A    between atoms: O5_26  and  O6_27 
ROOT
HETATM    1  C1  UNL     1     -15.161  14.103  -2.783  1.00  0.00     0.043 C 
HETATM    2  C2  UNL     1     -15.760  13.763  -4.139  1.00  0.00    -0.085 C 
HETATM    3  C3  UNL     1     -14.954  13.975  -5.159  1.00  0.00    -0.020 C 
HETATM    4  C4  UNL     1     -15.231  13.748  -6.592  1.00  0.00     0.057 C 
HETATM    5  C5  UNL     1     -14.051  13.243  -7.342  1.00  0.00     0.009 C 
HETATM    6  C6  UNL     1     -13.974  12.034  -7.926  1.00  0.00     0.042 C 
HETATM    7  C7  UNL     1     -12.639  11.798  -8.625  1.00  0.00     0.076 C 
HETATM    8  O1  UNL     1     -14.935  11.091  -7.930  1.00  0.00    -0.322 OA
HETATM    9  C8  UNL     1     -15.431  10.198  -6.982  1.00  0.00     0.287 C 
HETATM   10  C9  UNL     1     -14.778  10.231  -5.661  1.00  0.00     0.038 C 
HETATM   11  C10 UNL     1     -15.234  10.477  -4.467  1.00  0.00    -0.051 C 
HETATM   12  C11 UNL     1     -14.189  10.403  -3.348  1.00  0.00     0.046 C 
HETATM   13  C12 UNL     1     -16.572  10.799  -3.984  1.00  0.00     0.192 C 
HETATM   14  C20 UNL     1     -17.373  11.869  -4.627  1.00  0.00     0.197 C 
HETATM   15  C21 UNL     1     -17.126  13.275  -4.145  1.00  0.00     0.071 C 
ENDROOT
BRANCH  13  16
HETATM   16  O3  UNL     1     -17.350   9.572  -3.999  1.00  0.00    -0.308 OA
BRANCH  16  17
HETATM   17  C13 UNL     1     -17.309   8.656  -2.971  1.00  0.00     0.263 C 
HETATM   18  O4  UNL     1     -17.502   9.068  -1.810  1.00  0.00    -0.265 OA
BRANCH  17  19
HETATM   19  C14 UNL     1     -17.049   7.241  -3.250  1.00  0.00     0.082 C 
HETATM   20  C15 UNL     1     -16.992   7.086  -4.760  1.00  0.00     0.020 C 
BRANCH  19  21
HETATM   21  C16 UNL     1     -17.833   6.229  -2.557  1.00  0.00     0.018 C 
BRANCH  21  22
HETATM   22  C17 UNL     1     -17.199   5.243  -1.665  1.00  0.00    -0.022 C 
HETATM   23  C18 UNL     1     -16.403   4.159  -2.304  1.00  0.00     0.009 C 
HETATM   24  C19 UNL     1     -16.453   5.884  -0.496  1.00  0.00     0.009 C 
ENDBRANCH  21  22
ENDBRANCH  19  21
ENDBRANCH  17  19
ENDBRANCH  16  17
ENDBRANCH  13  16
BRANCH  14  25
HETATM   25  O5  UNL     1     -18.702  11.622  -4.125  1.00  0.00    -0.235 OA
BRANCH  25  26
HETATM   26  O6  UNL     1     -18.717  11.780  -2.827  1.00  0.00    -0.250 OA
ATOM     27  H6  UNL     1     -19.299  11.139  -2.435  1.00  0.00     0.253 HD
ENDBRANCH  25  26
ENDBRANCH  14  25
BRANCH   9  28
HETATM   28  O2  UNL     1     -15.141   8.908  -7.556  1.00  0.00    -0.367 OA
ATOM     29  H2  UNL     1     -14.851   9.119  -8.435  1.00  0.00     0.213 HD
ENDBRANCH   9  28
TORSDOF 8
ENDMDL
MODEL 3
REMARK VINA RESULT: -6.025045099      1.984      5.727
REMARK  8 active torsions:
REMARK  status: ('A' for Active; 'I' for Inactive)
REMARK    1  A    between atoms: C8_9  and  O2_10 
REMARK    2  A    between atoms: C12_15  and  O3_16 
REMARK    3  A    between atoms: O3_16  and  C13_17 
REMARK    4  A    between atoms: C13_17  and  C14_19 
REMARK    5  A    between atoms: C14_19  and  C16_21 
REMARK    6  A    between atoms: C16_21  and  C17_22 
REMARK    7  A    between atoms: C20_25  and  O5_26 
REMARK    8  A    between atoms: O5_26  and  O6_27 
ROOT
HETATM    1  C1  UNL     1     -19.118   9.256  -1.260  1.00  0.00     0.043 C 
HETATM    2  C2  UNL     1     -17.804   8.685  -1.769  1.00  0.00    -0.085 C 
HETATM    3  C3  UNL     1     -17.934   7.779  -2.716  1.00  0.00    -0.020 C 
HETATM    4  C4  UNL     1     -16.862   7.041  -3.414  1.00  0.00     0.057 C 
HETATM    5  C5  UNL     1     -17.152   6.813  -4.855  1.00  0.00     0.009 C 
HETATM    6  C6  UNL     1     -16.441   7.331  -5.871  1.00  0.00     0.042 C 
HETATM    7  C7  UNL     1     -16.976   6.918  -7.239  1.00  0.00     0.076 C 
HETATM    8  O1  UNL     1     -15.364   8.132  -5.761  1.00  0.00    -0.322 OA
HETATM    9  C8  UNL     1     -15.174   9.471  -5.425  1.00  0.00     0.287 C 
HETATM   10  C9  UNL     1     -16.395  10.244  -5.137  1.00  0.00     0.038 C 
HETATM   11  C10 UNL     1     -16.793  10.885  -4.076  1.00  0.00    -0.051 C 
HETATM   12  C11 UNL     1     -18.160  11.567  -4.208  1.00  0.00     0.046 C 
HETATM   13  C12 UNL     1     -16.171  11.092  -2.773  1.00  0.00     0.192 C 
HETATM   14  C20 UNL     1     -15.619   9.949  -2.007  1.00  0.00     0.197 C 
HETATM   15  C21 UNL     1     -16.591   9.183  -1.148  1.00  0.00     0.071 C 
ENDROOT
BRANCH  13  16
HETATM   16  O3  UNL     1     -15.121  12.080  -2.943  1.00  0.00    -0.308 OA
BRANCH  16  17
HETATM   17  C13 UNL     1     -15.354  13.435  -2.843  1.00  0.00     0.263 C 
HETATM   18  O4  UNL     1     -15.539  13.915  -1.708  1.00  0.00    -0.265 OA
BRANCH  17  19
HETATM   19  C14 UNL     1     -15.375  14.273  -4.045  1.00  0.00     0.082 C 
HETATM   20  C15 UNL     1     -16.768  14.869  -4.152  1.00  0.00     0.020 C 
BRANCH  19  21
HETATM   21  C16 UNL     1     -14.839  13.737  -5.289  1.00  0.00     0.018 C 
BRANCH  21  22
HETATM   22  C17 UNL     1     -15.372  14.153  -6.597  1.00  0.00    -0.022 C 
HETATM   23  C18 UNL     1     -14.421  14.793  -7.548  1.00  0.00     0.009 C 
HETATM   24  C19 UNL     1     -16.214  13.074  -7.275  1.00  0.00     0.009 C 
ENDBRANCH  21  22
ENDBRANCH  19  21
ENDBRANCH  17  19
ENDBRANCH  16  17
ENDBRANCH  13  16
BRANCH  14  25
HETATM   25  O5  UNL     1     -14.801  10.594  -1.011  1.00  0.00    -0.235 OA
BRANCH  25  26
HETATM   26  O6  UNL     1     -15.563  11.256  -0.179  1.00  0.00    -0.250 OA
ATOM     27  H6  UNL     1     -15.358  11.000   0.713  1.00  0.00     0.253 HD
ENDBRANCH  25  26
ENDBRANCH  14  25
BRANCH   9  28
HETATM   28  O2  UNL     1     -14.598  10.036  -6.620  1.00  0.00    -0.367 OA
ATOM     29  H2  UNL     1     -13.985  10.679  -6.285  1.00  0.00     0.213 HD
ENDBRANCH   9  28
TORSDOF 8
ENDMDL
MODEL 4
REMARK VINA RESULT: -5.947071118      2.296      4.945
REMARK  8 active torsions:
REMARK  status: ('A' for Active; 'I' for Inactive)
REMARK    1  A    between atoms: C8_9  and  O2_10 
REMARK    2  A    between atoms: C12_15  and  O3_16 
REMARK    3  A    between atoms: O3_16  and  C13_17 
REMARK    4  A    between atoms: C13_17  and  C14_19 
REMARK    5  A    between atoms: C14_19  and  C16_21 
REMARK    6  A    between atoms: C16_21  and  C17_22 
REMARK    7  A    between atoms: C20_25  and  O5_26 
REMARK    8  A    between atoms: O5_26  and  O6_27 
ROOT
HETATM    1  C1  UNL     1     -19.441  13.265  -2.738  1.00  0.00     0.043 C 
HETATM    2  C2  UNL     1     -18.016  13.699  -2.435  1.00  0.00    -0.085 C 
HETATM    3  C3  UNL     1     -17.648  13.526  -1.182  1.00  0.00    -0.020 C 
HETATM    4  C4  UNL     1     -16.341  13.843  -0.572  1.00  0.00     0.057 C 
HETATM    5  C5  UNL     1     -15.919  12.851   0.452  1.00  0.00     0.009 C 
HETATM    6  C6  UNL     1     -14.843  12.051   0.347  1.00  0.00     0.042 C 
HETATM    7  C7  UNL     1     -14.663  11.139   1.557  1.00  0.00     0.076 C 
HETATM    8  O1  UNL     1     -13.980  12.012  -0.685  1.00  0.00    -0.322 OA
HETATM    9  C8  UNL     1     -14.031  11.504  -1.981  1.00  0.00     0.287 C 
HETATM   10  C9  UNL     1     -15.281  10.822  -2.359  1.00  0.00     0.038 C 
HETATM   11  C10 UNL     1     -16.156  11.055  -3.294  1.00  0.00    -0.051 C 
HETATM   12  C11 UNL     1     -17.336  10.077  -3.333  1.00  0.00     0.046 C 
HETATM   13  C12 UNL     1     -16.219  12.075  -4.335  1.00  0.00     0.192 C 
HETATM   14  C20 UNL     1     -16.032  13.508  -4.003  1.00  0.00     0.197 C 
HETATM   15  C21 UNL     1     -17.254  14.256  -3.537  1.00  0.00     0.071 C 
ENDROOT
BRANCH  13  16
HETATM   16  O3  UNL     1     -15.258  11.712  -5.361  1.00  0.00    -0.308 OA
BRANCH  16  17
HETATM   17  C13 UNL     1     -15.630  11.121  -6.549  1.00  0.00     0.263 C 
HETATM   18  O4  UNL     1     -16.404  11.748  -7.298  1.00  0.00    -0.265 OA
BRANCH  17  19
HETATM   19  C14 UNL     1     -15.116   9.796  -6.908  1.00  0.00     0.082 C 
HETATM   20  C15 UNL     1     -15.651   9.468  -8.291  1.00  0.00     0.020 C 
BRANCH  19  21
HETATM   21  C16 UNL     1     -15.215   8.714  -5.939  1.00  0.00     0.018 C 
BRANCH  21  22
HETATM   22  C17 UNL     1     -15.984   7.492  -6.228  1.00  0.00    -0.022 C 
HETATM   23  C18 UNL     1     -15.222   6.305  -6.709  1.00  0.00     0.009 C 
HETATM   24  C19 UNL     1     -16.969   7.125  -5.120  1.00  0.00     0.009 C 
ENDBRANCH  21  22
ENDBRANCH  19  21
ENDBRANCH  17  19
ENDBRANCH  16  17
ENDBRANCH  13  16
BRANCH  14  25
HETATM   25  O5  UNL     1     -15.800  14.110  -5.293  1.00  0.00    -0.235 OA
BRANCH  25  26
HETATM   26  O6  UNL     1     -14.545  14.464  -5.391  1.00  0.00    -0.250 OA
ATOM     27  H6  UNL     1     -14.047  14.070  -4.685  1.00  0.00     0.253 HD
ENDBRANCH  25  26
ENDBRANCH  14  25
BRANCH   9  28
HETATM   28  O2  UNL     1     -12.994  10.502  -1.987  1.00  0.00    -0.367 OA
ATOM     29  H2  UNL     1     -12.907  10.282  -2.907  1.00  0.00     0.213 HD
ENDBRANCH   9  28
TORSDOF 8
ENDMDL
MODEL 5
REMARK VINA RESULT: -5.945131268      3.213      5.572
REMARK  8 active torsions:
REMARK  status: ('A' for Active; 'I' for Inactive)
REMARK    1  A    between atoms: C8_9  and  O2_10 
REMARK    2  A    between atoms: C12_15  and  O3_16 
REMARK    3  A    between atoms: O3_16  and  C13_17 
REMARK    4  A    between atoms: C13_17  and  C14_19 
REMARK    5  A    between atoms: C14_19  and  C16_21 
REMARK    6  A    between atoms: C16_21  and  C17_22 
REMARK    7  A    between atoms: C20_25  and  O5_26 
REMARK    8  A    between atoms: O5_26  and  O6_27 
ROOT
HETATM    1  C1  UNL     1     -19.471  14.168  -2.156  1.00  0.00     0.043 C 
HETATM    2  C2  UNL     1     -18.191  14.982  -2.256  1.00  0.00    -0.085 C 
HETATM    3  C3  UNL     1     -17.971  15.779  -1.230  1.00  0.00    -0.020 C 
HETATM    4  C4  UNL     1     -16.828  16.691  -1.023  1.00  0.00     0.057 C 
HETATM    5  C5  UNL     1     -16.387  16.763   0.396  1.00  0.00     0.009 C 
HETATM    6  C6  UNL     1     -15.190  16.353   0.848  1.00  0.00     0.042 C 
HETATM    7  C7  UNL     1     -15.024  16.555   2.351  1.00  0.00     0.076 C 
HETATM    8  O1  UNL     1     -14.201  15.816   0.107  1.00  0.00    -0.322 OA
HETATM    9  C8  UNL     1     -13.994  14.575  -0.490  1.00  0.00     0.287 C 
HETATM   10  C9  UNL     1     -15.051  13.571  -0.278  1.00  0.00     0.038 C 
HETATM   11  C10 UNL     1     -15.820  12.924  -1.105  1.00  0.00    -0.051 C 
HETATM   12  C11 UNL     1     -16.805  11.951  -0.446  1.00  0.00     0.046 C 
HETATM   13  C12 UNL     1     -15.912  12.937  -2.561  1.00  0.00     0.192 C 
HETATM   14  C20 UNL     1     -16.012  14.217  -3.302  1.00  0.00     0.197 C 
HETATM   15  C21 UNL     1     -17.393  14.801  -3.453  1.00  0.00     0.071 C 
ENDROOT
BRANCH  13  16
HETATM   16  O3  UNL     1     -14.776  12.195  -3.078  1.00  0.00    -0.308 OA
BRANCH  16  17
HETATM   17  C13 UNL     1     -14.790  10.825  -3.226  1.00  0.00     0.263 C 
HETATM   18  O4  UNL     1     -14.153  10.141  -2.401  1.00  0.00    -0.265 OA
BRANCH  17  19
HETATM   19  C14 UNL     1     -15.541  10.206  -4.322  1.00  0.00     0.082 C 
HETATM   20  C15 UNL     1     -16.726   9.487  -3.703  1.00  0.00     0.020 C 
BRANCH  19  21
HETATM   21  C16 UNL     1     -14.818   9.444  -5.330  1.00  0.00     0.018 C 
BRANCH  21  22
HETATM   22  C17 UNL     1     -14.904   9.787  -6.760  1.00  0.00    -0.022 C 
HETATM   23  C18 UNL     1     -15.587   8.812  -7.655  1.00  0.00     0.009 C 
HETATM   24  C19 UNL     1     -15.382  11.217  -7.007  1.00  0.00     0.009 C 
ENDBRANCH  21  22
ENDBRANCH  19  21
ENDBRANCH  17  19
ENDBRANCH  16  17
ENDBRANCH  13  16
BRANCH  14  25
HETATM   25  O5  UNL     1     -15.713  13.829  -4.658  1.00  0.00    -0.235 OA
BRANCH  25  26
HETATM   26  O6  UNL     1     -14.651  14.469  -5.073  1.00  0.00    -0.250 OA
ATOM     27  H6  UNL     1     -14.032  13.851  -5.444  1.00  0.00     0.253 HD
ENDBRANCH  25  26
ENDBRANCH  14  25
BRANCH   9  28
HETATM   28  O2  UNL     1     -12.813  14.080   0.173  1.00  0.00    -0.367 OA
ATOM     29  H2  UNL     1     -12.552  13.342  -0.365  1.00  0.00     0.213 HD
ENDBRANCH   9  28
TORSDOF 8
ENDMDL
