MODEL 1
REMARK VINA RESULT: -7.435383141      0.000      0.000
REMARK  7 active torsions:
REMARK  status: ('A' for Active; 'I' for Inactive)
REMARK    1  A    between atoms: C2_2  and  C3_3 
REMARK    2  A    between atoms: C3_3  and  C4_4 
REMARK    3  A    between atoms: C4_4  and  C5_5 
REMARK    4  A    between atoms: C5_5  and  C6_6 
REMARK    5  A    between atoms: C6_6  and  C7_7 
REMARK    6  A    between atoms: C7_7  and  O1_8 
REMARK    7  A    between atoms: N1_12  and  O2_14 
ROOT
HETATM    1  C7  UNL     1     -15.034  13.543  -7.276  1.00  0.00     0.065 C 
HETATM    2  C8  UNL     1     -15.065  12.026  -7.493  1.00  0.00     0.092 C 
HETATM    3  C9  UNL     1     -15.357  11.404  -6.136  1.00  0.00     0.019 C 
HETATM    4  N1  UNL     1     -14.748  10.392  -5.738  1.00  0.00    -0.277 N 
ATOM      5  H1  UNL     1     -14.052  10.026  -6.389  1.00  0.00     0.193 HD
HETATM    6  C10 UNL     1     -16.384  12.122  -5.374  1.00  0.00     0.063 C 
HETATM    7  C11 UNL     1     -17.035  11.408  -4.251  1.00  0.00     0.018 C 
HETATM    8  C12 UNL     1     -18.512  11.844  -4.156  1.00  0.00     0.045 C 
HETATM    9  C13 UNL     1     -18.551  13.138  -3.445  1.00  0.00     0.012 A 
HETATM   10  C14 UNL     1     -17.709  14.232  -3.618  1.00  0.00     0.078 A 
HETATM   11  C15 UNL     1     -17.961  15.339  -2.834  1.00  0.00     0.040 A 
HETATM   12  C16 UNL     1     -18.996  15.358  -1.923  1.00  0.00     0.042 A 
HETATM   13  C17 UNL     1     -19.829  14.275  -1.750  1.00  0.00     0.105 A 
HETATM   14  C18 UNL     1     -19.596  13.159  -2.523  1.00  0.00     0.114 A 
HETATM   15  O3  UNL     1     -20.565  12.233  -2.152  1.00  0.00    -0.322 OA
HETATM   16  C19 UNL     1     -21.078  12.612  -0.888  1.00  0.00     0.352 C 
HETATM   17  O4  UNL     1     -20.929  14.018  -0.923  1.00  0.00    -0.323 OA
HETATM   18  O5  UNL     1     -16.626  14.368  -4.492  1.00  0.00    -0.344 OA
HETATM   19  C20 UNL     1     -15.699  13.376  -4.857  1.00  0.00     0.141 C 
HETATM   20  C21 UNL     1     -14.712  13.917  -5.864  1.00  0.00     0.071 C 
ENDROOT
BRANCH   1  21
HETATM   21  C6  UNL     1     -14.067  14.197  -8.234  1.00  0.00     0.038 C 
BRANCH  21  22
HETATM   22  C5  UNL     1     -12.641  13.836  -8.033  1.00  0.00     0.003 C 
BRANCH  22  23
HETATM   23  C4  UNL     1     -11.986  13.659  -9.380  1.00  0.00     0.000 C 
BRANCH  23  24
HETATM   24  C3  UNL     1     -11.924  12.237  -9.825  1.00  0.00    -0.000 C 
BRANCH  24  25
HETATM   25  C2  UNL     1     -11.537  12.109 -11.286  1.00  0.00    -0.005 C 
HETATM   26  C1  UNL     1     -11.563  10.670 -11.741  1.00  0.00     0.005 C 
ENDBRANCH  24  25
ENDBRANCH  23  24
ENDBRANCH  22  23
ENDBRANCH  21  22
ENDBRANCH   1  21
BRANCH   1  27
HETATM   27  O1  UNL     1     -16.291  14.108  -7.585  1.00  0.00    -0.389 OA
ATOM     28  H1  UNL     1     -16.676  13.519  -8.223  1.00  0.00     0.210 HD
ENDBRANCH   1  27
BRANCH   4  29
HETATM   29  O2  UNL     1     -14.860   9.705  -4.586  1.00  0.00    -0.290 OA
ATOM     30  H2  UNL     1     -14.222   9.176  -4.121  1.00  0.00     0.244 HD
ENDBRANCH   4  29
TORSDOF 7
ENDMDL
MODEL 2
REMARK VINA RESULT: -7.131069218      5.858      8.584
REMARK  7 active torsions:
REMARK  status: ('A' for Active; 'I' for Inactive)
REMARK    1  A    between atoms: C2_2  and  C3_3 
REMARK    2  A    between atoms: C3_3  and  C4_4 
REMARK    3  A    between atoms: C4_4  and  C5_5 
REMARK    4  A    between atoms: C5_5  and  C6_6 
REMARK    5  A    between atoms: C6_6  and  C7_7 
REMARK    6  A    between atoms: C7_7  and  O1_8 
REMARK    7  A    between atoms: N1_12  and  O2_14 
ROOT
HETATM    1  C7  UNL     1     -15.541   9.071  -5.848  1.00  0.00     0.065 C 
HETATM    2  C8  UNL     1     -15.651   9.964  -7.088  1.00  0.00     0.092 C 
HETATM    3  C9  UNL     1     -15.626   9.034  -8.292  1.00  0.00     0.019 C 
HETATM    4  N1  UNL     1     -14.958   9.303  -9.309  1.00  0.00    -0.277 N 
ATOM      5  H1  UNL     1     -14.444  10.183  -9.265  1.00  0.00     0.193 HD
HETATM    6  C10 UNL     1     -16.430   7.821  -8.109  1.00  0.00     0.063 C 
HETATM    7  C11 UNL     1     -16.811   7.057  -9.319  1.00  0.00     0.018 C 
HETATM    8  C12 UNL     1     -18.215   6.449  -9.119  1.00  0.00     0.045 C 
HETATM    9  C13 UNL     1     -18.061   5.223  -8.310  1.00  0.00     0.012 A 
HETATM   10  C14 UNL     1     -17.264   5.039  -7.185  1.00  0.00     0.078 A 
HETATM   11  C15 UNL     1     -17.302   3.792  -6.595  1.00  0.00     0.040 A 
HETATM   12  C16 UNL     1     -18.092   2.780  -7.097  1.00  0.00     0.042 A 
HETATM   13  C17 UNL     1     -18.882   2.962  -8.212  1.00  0.00     0.105 A 
HETATM   14  C18 UNL     1     -18.858   4.199  -8.817  1.00  0.00     0.114 A 
HETATM   15  O3  UNL     1     -19.729   4.108  -9.897  1.00  0.00    -0.322 OA
HETATM   16  C19 UNL     1     -19.922   2.737 -10.196  1.00  0.00     0.352 C 
HETATM   17  O4  UNL     1     -19.759   2.137  -8.925  1.00  0.00    -0.323 OA
HETATM   18  O5  UNL     1     -16.415   5.956  -6.559  1.00  0.00    -0.344 OA
HETATM   19  C20 UNL     1     -15.620   6.937  -7.176  1.00  0.00     0.141 C 
HETATM   20  C21 UNL     1     -14.888   7.757  -6.140  1.00  0.00     0.071 C 
ENDROOT
BRANCH   1  21
HETATM   21  C6  UNL     1     -14.815   9.791  -4.737  1.00  0.00     0.038 C 
BRANCH  21  22
HETATM   22  C5  UNL     1     -15.685  10.557  -3.810  1.00  0.00     0.003 C 
BRANCH  22  23
HETATM   23  C4  UNL     1     -15.310  12.016  -3.880  1.00  0.00     0.000 C 
BRANCH  23  24
HETATM   24  C3  UNL     1     -16.185  12.810  -4.789  1.00  0.00    -0.000 C 
BRANCH  24  25
HETATM   25  C2  UNL     1     -15.402  13.823  -5.602  1.00  0.00    -0.005 C 
HETATM   26  C1  UNL     1     -15.758  13.753  -7.066  1.00  0.00     0.005 C 
ENDBRANCH  24  25
ENDBRANCH  23  24
ENDBRANCH  22  23
ENDBRANCH  21  22
ENDBRANCH   1  21
BRANCH   1  27
HETATM   27  O1  UNL     1     -16.825   8.796  -5.327  1.00  0.00    -0.389 OA
ATOM     28  H1  UNL     1     -17.412   9.373  -5.802  1.00  0.00     0.210 HD
ENDBRANCH   1  27
BRANCH   4  29
HETATM   29  O2  UNL     1     -14.809   8.617 -10.458  1.00  0.00    -0.290 OA
ATOM     30  H2  UNL     1     -14.132   8.672 -11.123  1.00  0.00     0.244 HD
ENDBRANCH   4  29
TORSDOF 7
ENDMDL
MODEL 3
REMARK VINA RESULT: -7.109400962      6.156      8.996
REMARK  7 active torsions:
REMARK  status: ('A' for Active; 'I' for Inactive)
REMARK    1  A    between atoms: C2_2  and  C3_3 
REMARK    2  A    between atoms: C3_3  and  C4_4 
REMARK    3  A    between atoms: C4_4  and  C5_5 
REMARK    4  A    between atoms: C5_5  and  C6_6 
REMARK    5  A    between atoms: C6_6  and  C7_7 
REMARK    6  A    between atoms: C7_7  and  O1_8 
REMARK    7  A    between atoms: N1_12  and  O2_14 
ROOT
HETATM    1  C7  UNL     1     -15.540   8.883  -5.768  1.00  0.00     0.065 C 
HETATM    2  C8  UNL     1     -15.652   9.836  -6.963  1.00  0.00     0.092 C 
HETATM    3  C9  UNL     1     -15.653   8.964  -8.210  1.00  0.00     0.019 C 
HETATM    4  N1  UNL     1     -14.994   9.273  -9.222  1.00  0.00    -0.277 N 
ATOM      5  H1  UNL     1     -14.467  10.143  -9.142  1.00  0.00     0.193 HD
HETATM    6  C10 UNL     1     -16.471   7.754  -8.075  1.00  0.00     0.063 C 
HETATM    7  C11 UNL     1     -16.876   7.053  -9.315  1.00  0.00     0.018 C 
HETATM    8  C12 UNL     1     -18.286   6.454  -9.128  1.00  0.00     0.045 C 
HETATM    9  C13 UNL     1     -18.138   5.189  -8.380  1.00  0.00     0.012 A 
HETATM   10  C14 UNL     1     -17.331   4.941  -7.275  1.00  0.00     0.078 A 
HETATM   11  C15 UNL     1     -17.378   3.668  -6.744  1.00  0.00     0.040 A 
HETATM   12  C16 UNL     1     -18.187   2.691  -7.285  1.00  0.00     0.042 A 
HETATM   13  C17 UNL     1     -18.987   2.936  -8.380  1.00  0.00     0.105 A 
HETATM   14  C18 UNL     1     -18.954   4.200  -8.925  1.00  0.00     0.114 A 
HETATM   15  O3  UNL     1     -19.839   4.172  -9.998  1.00  0.00    -0.322 OA
HETATM   16  C19 UNL     1     -20.053   2.819 -10.359  1.00  0.00     0.352 C 
HETATM   17  O4  UNL     1     -19.883   2.157  -9.121  1.00  0.00    -0.323 OA
HETATM   18  O5  UNL     1     -16.463   5.817  -6.616  1.00  0.00    -0.344 OA
HETATM   19  C20 UNL     1     -15.662   6.816  -7.196  1.00  0.00     0.141 C 
HETATM   20  C21 UNL     1     -14.908   7.576  -6.130  1.00  0.00     0.071 C 
ENDROOT
BRANCH   1  21
HETATM   21  C6  UNL     1     -14.792   9.540  -4.633  1.00  0.00     0.038 C 
BRANCH  21  22
HETATM   22  C5  UNL     1     -15.506  10.662  -3.975  1.00  0.00     0.003 C 
BRANCH  22  23
HETATM   23  C4  UNL     1     -14.720  11.102  -2.765  1.00  0.00     0.000 C 
BRANCH  23  24
HETATM   24  C3  UNL     1     -13.474  10.313  -2.551  1.00  0.00    -0.000 C 
BRANCH  24  25
HETATM   25  C2  UNL     1     -12.801  10.647  -1.233  1.00  0.00    -0.005 C 
HETATM   26  C1  UNL     1     -13.501  11.781  -0.526  1.00  0.00     0.005 C 
ENDBRANCH  24  25
ENDBRANCH  23  24
ENDBRANCH  22  23
ENDBRANCH  21  22
ENDBRANCH   1  21
BRANCH   1  27
HETATM   27  O1  UNL     1     -16.821   8.599  -5.246  1.00  0.00    -0.389 OA
ATOM     28  H1  UNL     1     -16.667   7.989  -4.534  1.00  0.00     0.210 HD
ENDBRANCH   1  27
BRANCH   4  29
HETATM   29  O2  UNL     1     -14.867   8.640 -10.403  1.00  0.00    -0.290 OA
ATOM     30  H2  UNL     1     -14.319   7.904 -10.650  1.00  0.00     0.244 HD
ENDBRANCH   4  29
TORSDOF 7
ENDMDL
MODEL 4
REMARK VINA RESULT: -7.044328344      7.237      9.742
REMARK  7 active torsions:
REMARK  status: ('A' for Active; 'I' for Inactive)
REMARK    1  A    between atoms: C2_2  and  C3_3 
REMARK    2  A    between atoms: C3_3  and  C4_4 
REMARK    3  A    between atoms: C4_4  and  C5_5 
REMARK    4  A    between atoms: C5_5  and  C6_6 
REMARK    5  A    between atoms: C6_6  and  C7_7 
REMARK    6  A    between atoms: C7_7  and  O1_8 
REMARK    7  A    between atoms: N1_12  and  O2_14 
ROOT
HETATM    1  C7  UNL     1     -15.995   8.189  -8.253  1.00  0.00     0.065 C 
HETATM    2  C8  UNL     1     -15.672   7.627  -6.864  1.00  0.00     0.092 C 
HETATM    3  C9  UNL     1     -16.752   6.602  -6.553  1.00  0.00     0.019 C 
HETATM    4  N1  UNL     1     -17.282   6.536  -5.427  1.00  0.00    -0.277 N 
ATOM      5  H1  UNL     1     -16.934   7.214  -4.748  1.00  0.00     0.193 HD
HETATM    6  C10 UNL     1     -17.097   5.752  -7.697  1.00  0.00     0.063 C 
HETATM    7  C11 UNL     1     -17.814   4.485  -7.424  1.00  0.00     0.018 C 
HETATM    8  C12 UNL     1     -17.349   3.408  -8.426  1.00  0.00     0.045 C 
HETATM    9  C13 UNL     1     -18.081   3.628  -9.690  1.00  0.00     0.012 A 
HETATM   10  C14 UNL     1     -18.336   4.837 -10.327  1.00  0.00     0.078 A 
HETATM   11  C15 UNL     1     -19.037   4.777 -11.515  1.00  0.00     0.040 A 
HETATM   12  C16 UNL     1     -19.462   3.576 -12.042  1.00  0.00     0.042 A 
HETATM   13  C17 UNL     1     -19.210   2.378 -11.410  1.00  0.00     0.105 A 
HETATM   14  C18 UNL     1     -18.511   2.415 -10.223  1.00  0.00     0.114 A 
HETATM   15  O3  UNL     1     -18.399   1.092  -9.810  1.00  0.00    -0.322 OA
HETATM   16  C19 UNL     1     -19.381   0.331 -10.489  1.00  0.00     0.352 C 
HETATM   17  O4  UNL     1     -19.513   1.043 -11.704  1.00  0.00    -0.323 OA
HETATM   18  O5  UNL     1     -17.975   6.127  -9.926  1.00  0.00    -0.344 OA
HETATM   19  C20 UNL     1     -17.934   6.628  -8.613  1.00  0.00     0.141 C 
HETATM   20  C21 UNL     1     -17.443   8.057  -8.606  1.00  0.00     0.071 C 
ENDROOT
BRANCH   1  21
HETATM   21  C6  UNL     1     -15.551   9.628  -8.361  1.00  0.00     0.038 C 
BRANCH  21  22
HETATM   22  C5  UNL     1     -14.854  10.163  -7.166  1.00  0.00     0.003 C 
BRANCH  22  23
HETATM   23  C4  UNL     1     -14.706  11.657  -7.311  1.00  0.00     0.000 C 
BRANCH  23  24
HETATM   24  C3  UNL     1     -15.940  12.412  -6.950  1.00  0.00    -0.000 C 
BRANCH  24  25
HETATM   25  C2  UNL     1     -15.846  13.879  -7.323  1.00  0.00    -0.005 C 
HETATM   26  C1  UNL     1     -14.439  14.263  -7.711  1.00  0.00     0.005 C 
ENDBRANCH  24  25
ENDBRANCH  23  24
ENDBRANCH  22  23
ENDBRANCH  21  22
ENDBRANCH   1  21
BRANCH   1  27
HETATM   27  O1  UNL     1     -15.258   7.503  -9.243  1.00  0.00    -0.389 OA
ATOM     28  H1  UNL     1     -14.498   7.158  -8.789  1.00  0.00     0.210 HD
ENDBRANCH   1  27
BRANCH   4  29
HETATM   29  O2  UNL     1     -18.241   5.713  -4.964  1.00  0.00    -0.290 OA
ATOM     30  H2  UNL     1     -18.620   4.932  -5.350  1.00  0.00     0.244 HD
ENDBRANCH   4  29
TORSDOF 7
ENDMDL
MODEL 5
REMARK VINA RESULT: -7.018836555      3.999      7.261
REMARK  7 active torsions:
REMARK  status: ('A' for Active; 'I' for Inactive)
REMARK    1  A    between atoms: C2_2  and  C3_3 
REMARK    2  A    between atoms: C3_3  and  C4_4 
REMARK    3  A    between atoms: C4_4  and  C5_5 
REMARK    4  A    between atoms: C5_5  and  C6_6 
REMARK    5  A    between atoms: C6_6  and  C7_7 
REMARK    6  A    between atoms: C7_7  and  O1_8 
REMARK    7  A    between atoms: N1_12  and  O2_14 
ROOT
HETATM    1  C7  UNL     1     -16.129  12.442  -5.225  1.00  0.00     0.065 C 
HETATM    2  C8  UNL     1     -15.653  12.911  -6.605  1.00  0.00     0.092 C 
HETATM    3  C9  UNL     1     -14.931  11.729  -7.235  1.00  0.00     0.019 C 
HETATM    4  N1  UNL     1     -13.858  11.874  -7.851  1.00  0.00    -0.277 N 
ATOM      5  H1  UNL     1     -13.515  12.834  -7.895  1.00  0.00     0.193 HD
HETATM    6  C10 UNL     1     -15.612  10.447  -7.019  1.00  0.00     0.063 C 
HETATM    7  C11 UNL     1     -15.246   9.315  -7.901  1.00  0.00     0.018 C 
HETATM    8  C12 UNL     1     -16.495   8.449  -8.165  1.00  0.00     0.045 C 
HETATM    9  C13 UNL     1     -16.682   7.566  -6.996  1.00  0.00     0.012 A 
HETATM   10  C14 UNL     1     -16.572   7.899  -5.650  1.00  0.00     0.078 A 
HETATM   11  C15 UNL     1     -16.808   6.890  -4.739  1.00  0.00     0.040 A 
HETATM   12  C16 UNL     1     -17.137   5.614  -5.145  1.00  0.00     0.042 A 
HETATM   13  C17 UNL     1     -17.247   5.284  -6.478  1.00  0.00     0.105 A 
HETATM   14  C18 UNL     1     -17.015   6.276  -7.405  1.00  0.00     0.114 A 
HETATM   15  O3  UNL     1     -17.189   5.680  -8.649  1.00  0.00    -0.322 OA
HETATM   16  C19 UNL     1     -17.085   4.277  -8.486  1.00  0.00     0.352 C 
HETATM   17  O4  UNL     1     -17.556   4.103  -7.164  1.00  0.00    -0.323 OA
HETATM   18  O5  UNL     1     -16.250   9.136  -5.082  1.00  0.00    -0.344 OA
HETATM   19  C20 UNL     1     -15.332  10.082  -5.571  1.00  0.00     0.141 C 
HETATM   20  C21 UNL     1     -15.314  11.308  -4.688  1.00  0.00     0.071 C 
ENDROOT
BRANCH   1  21
HETATM   21  C6  UNL     1     -16.146  13.594  -4.249  1.00  0.00     0.038 C 
BRANCH  21  22
HETATM   22  C5  UNL     1     -14.898  13.776  -3.468  1.00  0.00     0.003 C 
BRANCH  22  23
HETATM   23  C4  UNL     1     -15.245  13.878  -2.004  1.00  0.00     0.000 C 
BRANCH  23  24
HETATM   24  C3  UNL     1     -14.300  13.139  -1.119  1.00  0.00    -0.000 C 
BRANCH  24  25
HETATM   25  C2  UNL     1     -14.581  11.649  -1.095  1.00  0.00    -0.005 C 
HETATM   26  C1  UNL     1     -13.375  10.851  -1.527  1.00  0.00     0.005 C 
ENDBRANCH  24  25
ENDBRANCH  23  24
ENDBRANCH  22  23
ENDBRANCH  21  22
ENDBRANCH   1  21
BRANCH   1  27
HETATM   27  O1  UNL     1     -17.469  12.001  -5.294  1.00  0.00    -0.389 OA
ATOM     28  H1  UNL     1     -17.436  11.079  -5.068  1.00  0.00     0.210 HD
ENDBRANCH   1  27
BRANCH   4  29
HETATM   29  O2  UNL     1     -13.079  10.966  -8.467  1.00  0.00    -0.290 OA
ATOM     30  H2  UNL     1     -12.135  10.937  -8.574  1.00  0.00     0.244 HD
ENDBRANCH   4  29
TORSDOF 7
ENDMDL
