MODEL 1
REMARK VINA RESULT: -7.570739123      0.000      0.000
REMARK  7 active torsions:
REMARK  status: ('A' for Active; 'I' for Inactive)
REMARK    1  A    between atoms: C4_4  and  C5_5 
REMARK    2  A    between atoms: C9_9  and  O1_10 
REMARK    3  A    between atoms: C11_12  and  O2_13 
REMARK    4  A    between atoms: O2_13  and  C12_14 
REMARK    5  A    between atoms: C18_21  and  O4_22 
REMARK    6  A    between atoms: N1_24  and  C19_25 
REMARK    7  A    between atoms: C22_28  and  O5_29 
ROOT
HETATM    1  C1  UNL     1     -14.357  10.411  -6.451  1.00  0.00     0.025 C 
HETATM    2  C2  UNL     1     -15.195   9.446  -6.196  1.00  0.00    -0.019 A 
HETATM    3  C3  UNL     1     -15.934   8.948  -5.051  1.00  0.00    -0.007 A 
HETATM    4  C4  UNL     1     -16.165   9.163  -3.784  1.00  0.00     0.050 C 
HETATM    5  C16 UNL     1     -16.437   7.913  -5.996  1.00  0.00     0.042 A 
HETATM    6  C17 UNL     1     -15.739   8.386  -7.067  1.00  0.00     0.041 A 
HETATM    7  C18 UNL     1     -16.034   7.569  -8.136  1.00  0.00     0.157 A 
HETATM    8  N1  UNL     1     -16.885   6.636  -7.714  1.00  0.00    -0.303 N 
HETATM    9  C22 UNL     1     -17.144   6.820  -6.430  1.00  0.00     0.157 A 
ENDROOT
BRANCH   4  10
HETATM   10  C5  UNL     1     -15.590  10.235  -3.007  1.00  0.00     0.077 A 
HETATM   11  C6  UNL     1     -14.724  10.230  -1.924  1.00  0.00     0.051 A 
HETATM   12  C7  UNL     1     -14.520  11.549  -1.592  1.00  0.00     0.003 A 
HETATM   13  C8  UNL     1     -13.755  12.191  -0.601  1.00  0.00     0.054 A 
HETATM   14  C15 UNL     1     -15.255  12.320  -2.463  1.00  0.00     0.089 A 
HETATM   15  C9  UNL     1     -13.709  13.551  -0.464  1.00  0.00     0.102 A 
HETATM   16  C11 UNL     1     -14.479  14.309  -1.374  1.00  0.00     0.104 A 
HETATM   17  C14 UNL     1     -15.240  13.719  -2.358  1.00  0.00     0.077 A 
HETATM   18  O3  UNL     1     -15.859  11.521  -3.266  1.00  0.00    -0.310 OA
BRANCH  15  19
HETATM   19  O1  UNL     1     -12.974  14.194   0.485  1.00  0.00    -0.353 OA
HETATM   20  C10 UNL     1     -13.318  14.444   1.798  1.00  0.00     0.210 C 
ENDBRANCH  15  19
BRANCH  16  21
HETATM   21  O2  UNL     1     -14.428  15.651  -1.218  1.00  0.00    -0.349 OA
BRANCH  21  22
HETATM   22  C12 UNL     1     -15.500  16.479  -0.979  1.00  0.00     0.171 C 
HETATM   23  C13 UNL     1     -15.606  17.021   0.404  1.00  0.00     0.034 C 
ENDBRANCH  21  22
ENDBRANCH  16  21
ENDBRANCH   4  10
BRANCH   9  24
HETATM   24  O5  UNL     1     -17.998   6.045  -5.607  1.00  0.00    -0.345 OA
ATOM     25  H5  UNL     1     -17.918   5.984  -4.662  1.00  0.00     0.219 HD
ENDBRANCH   9  24
BRANCH   7  26
HETATM   26  O4  UNL     1     -15.493   7.756  -9.408  1.00  0.00    -0.345 OA
ATOM     27  H4  UNL     1     -15.493   8.596  -9.852  1.00  0.00     0.219 HD
ENDBRANCH   7  26
BRANCH   8  28
HETATM   28  C19 UNL     1     -17.431   5.585  -8.539  1.00  0.00     0.086 C 
HETATM   29  C20 UNL     1     -18.918   5.668  -8.713  1.00  0.00     0.032 C 
HETATM   30  C21 UNL     1     -17.099   4.212  -7.997  1.00  0.00     0.032 C 
ENDBRANCH   8  28
TORSDOF 7
ENDMDL
MODEL 2
REMARK VINA RESULT: -7.262576754      0.576      1.830
REMARK  7 active torsions:
REMARK  status: ('A' for Active; 'I' for Inactive)
REMARK    1  A    between atoms: C4_4  and  C5_5 
REMARK    2  A    between atoms: C9_9  and  O1_10 
REMARK    3  A    between atoms: C11_12  and  O2_13 
REMARK    4  A    between atoms: O2_13  and  C12_14 
REMARK    5  A    between atoms: C18_21  and  O4_22 
REMARK    6  A    between atoms: N1_24  and  C19_25 
REMARK    7  A    between atoms: C22_28  and  O5_29 
ROOT
HETATM    1  C1  UNL     1     -14.597  10.573  -6.691  1.00  0.00     0.025 C 
HETATM    2  C2  UNL     1     -15.325   9.551  -6.338  1.00  0.00    -0.019 A 
HETATM    3  C3  UNL     1     -16.010   9.089  -5.145  1.00  0.00    -0.007 A 
HETATM    4  C4  UNL     1     -16.271   9.402  -3.904  1.00  0.00     0.050 C 
HETATM    5  C16 UNL     1     -16.390   7.917  -5.980  1.00  0.00     0.042 A 
HETATM    6  C17 UNL     1     -15.743   8.356  -7.096  1.00  0.00     0.041 A 
HETATM    7  C18 UNL     1     -15.939   7.409  -8.078  1.00  0.00     0.157 A 
HETATM    8  N1  UNL     1     -16.683   6.434  -7.561  1.00  0.00    -0.303 N 
HETATM    9  C22 UNL     1     -16.969   6.715  -6.301  1.00  0.00     0.157 A 
ENDROOT
BRANCH   4  10
HETATM   10  C5  UNL     1     -15.824  10.603  -3.240  1.00  0.00     0.077 A 
HETATM   11  C6  UNL     1     -16.072  11.944  -3.489  1.00  0.00     0.051 A 
HETATM   12  C7  UNL     1     -15.376  12.646  -2.532  1.00  0.00     0.003 A 
HETATM   13  C8  UNL     1     -15.228  14.016  -2.253  1.00  0.00     0.054 A 
HETATM   14  C15 UNL     1     -14.727  11.734  -1.732  1.00  0.00     0.089 A 
HETATM   15  C9  UNL     1     -14.464  14.484  -1.219  1.00  0.00     0.102 A 
HETATM   16  C11 UNL     1     -13.810  13.518  -0.422  1.00  0.00     0.104 A 
HETATM   17  C14 UNL     1     -13.931  12.168  -0.662  1.00  0.00     0.077 A 
HETATM   18  O3  UNL     1     -15.012  10.563  -2.175  1.00  0.00    -0.310 OA
BRANCH  15  19
HETATM   19  O1  UNL     1     -14.308  15.805  -0.929  1.00  0.00    -0.353 OA
HETATM   20  C10 UNL     1     -15.282  16.714  -0.565  1.00  0.00     0.210 C 
ENDBRANCH  15  19
BRANCH  16  21
HETATM   21  O2  UNL     1     -13.053  14.000   0.590  1.00  0.00    -0.349 OA
BRANCH  21  22
HETATM   22  C12 UNL     1     -13.430  14.090   1.910  1.00  0.00     0.171 C 
HETATM   23  C13 UNL     1     -13.462  15.464   2.483  1.00  0.00     0.034 C 
ENDBRANCH  21  22
ENDBRANCH  16  21
ENDBRANCH   4  10
BRANCH   9  24
HETATM   24  O5  UNL     1     -17.736   5.935  -5.400  1.00  0.00    -0.345 OA
ATOM     25  H5  UNL     1     -18.446   5.360  -5.662  1.00  0.00     0.219 HD
ENDBRANCH   9  24
BRANCH   7  26
HETATM   26  O4  UNL     1     -15.414   7.529  -9.365  1.00  0.00    -0.345 OA
ATOM     27  H4  UNL     1     -14.833   6.883  -9.749  1.00  0.00     0.219 HD
ENDBRANCH   7  26
BRANCH   8  28
HETATM   28  C19 UNL     1     -17.105   5.253  -8.275  1.00  0.00     0.086 C 
HETATM   29  C20 UNL     1     -18.581   5.202  -8.536  1.00  0.00     0.032 C 
HETATM   30  C21 UNL     1     -16.713   3.985  -7.549  1.00  0.00     0.032 C 
ENDBRANCH   8  28
TORSDOF 7
ENDMDL
MODEL 3
REMARK VINA RESULT: -7.230222861      0.899      2.014
REMARK  7 active torsions:
REMARK  status: ('A' for Active; 'I' for Inactive)
REMARK    1  A    between atoms: C4_4  and  C5_5 
REMARK    2  A    between atoms: C9_9  and  O1_10 
REMARK    3  A    between atoms: C11_12  and  O2_13 
REMARK    4  A    between atoms: O2_13  and  C12_14 
REMARK    5  A    between atoms: C18_21  and  O4_22 
REMARK    6  A    between atoms: N1_24  and  C19_25 
REMARK    7  A    between atoms: C22_28  and  O5_29 
ROOT
HETATM    1  C1  UNL     1     -17.141   8.131  -2.948  1.00  0.00     0.025 C 
HETATM    2  C2  UNL     1     -16.676   8.065  -4.163  1.00  0.00    -0.019 A 
HETATM    3  C3  UNL     1     -15.746   8.809  -4.993  1.00  0.00    -0.007 A 
HETATM    4  C4  UNL     1     -14.934   9.831  -4.991  1.00  0.00     0.050 C 
HETATM    5  C16 UNL     1     -16.101   7.816  -6.045  1.00  0.00     0.042 A 
HETATM    6  C17 UNL     1     -16.973   7.123  -5.260  1.00  0.00     0.041 A 
HETATM    7  C18 UNL     1     -17.477   6.094  -6.025  1.00  0.00     0.157 A 
HETATM    8  N1  UNL     1     -16.919   6.171  -7.231  1.00  0.00    -0.303 N 
HETATM    9  C22 UNL     1     -16.087   7.198  -7.270  1.00  0.00     0.157 A 
ENDROOT
BRANCH   4  10
HETATM   10  C5  UNL     1     -14.698  10.701  -3.865  1.00  0.00     0.077 A 
HETATM   11  C6  UNL     1     -14.046  10.495  -2.658  1.00  0.00     0.051 A 
HETATM   12  C7  UNL     1     -14.136  11.681  -1.968  1.00  0.00     0.003 A 
HETATM   13  C8  UNL     1     -13.678  12.105  -0.707  1.00  0.00     0.054 A 
HETATM   14  C15 UNL     1     -14.830  12.572  -2.753  1.00  0.00     0.089 A 
HETATM   15  C9  UNL     1     -13.894  13.366  -0.224  1.00  0.00     0.102 A 
HETATM   16  C11 UNL     1     -14.613  14.252  -1.058  1.00  0.00     0.104 A 
HETATM   17  C14 UNL     1     -15.077  13.876  -2.299  1.00  0.00     0.077 A 
HETATM   18  O3  UNL     1     -15.137  11.966  -3.842  1.00  0.00    -0.310 OA
BRANCH  15  19
HETATM   19  O1  UNL     1     -13.458  13.799   0.991  1.00  0.00    -0.353 OA
HETATM   20  C10 UNL     1     -13.910  13.417   2.238  1.00  0.00     0.210 C 
ENDBRANCH  15  19
BRANCH  16  21
HETATM   21  O2  UNL     1     -14.824  15.492  -0.561  1.00  0.00    -0.349 OA
BRANCH  21  22
HETATM   22  C12 UNL     1     -16.010  16.187  -0.597  1.00  0.00     0.171 C 
HETATM   23  C13 UNL     1     -15.927  17.587  -1.097  1.00  0.00     0.034 C 
ENDBRANCH  21  22
ENDBRANCH  16  21
ENDBRANCH   4  10
BRANCH   9  24
HETATM   24  O5  UNL     1     -15.297   7.623  -8.368  1.00  0.00    -0.345 OA
ATOM     25  H5  UNL     1     -15.476   7.396  -9.273  1.00  0.00     0.219 HD
ENDBRANCH   9  24
BRANCH   7  26
HETATM   26  O4  UNL     1     -18.407   5.173  -5.543  1.00  0.00    -0.345 OA
ATOM     27  H4  UNL     1     -18.356   4.242  -5.725  1.00  0.00     0.219 HD
ENDBRANCH   7  26
BRANCH   8  28
HETATM   28  C19 UNL     1     -17.191   5.269  -8.324  1.00  0.00     0.086 C 
HETATM   29  C20 UNL     1     -18.608   5.327  -8.814  1.00  0.00     0.032 C 
HETATM   30  C21 UNL     1     -16.880   3.833  -7.960  1.00  0.00     0.032 C 
ENDBRANCH   8  28
TORSDOF 7
ENDMDL
MODEL 4
REMARK VINA RESULT: -7.101449338      3.627      5.336
REMARK  7 active torsions:
REMARK  status: ('A' for Active; 'I' for Inactive)
REMARK    1  A    between atoms: C4_4  and  C5_5 
REMARK    2  A    between atoms: C9_9  and  O1_10 
REMARK    3  A    between atoms: C11_12  and  O2_13 
REMARK    4  A    between atoms: O2_13  and  C12_14 
REMARK    5  A    between atoms: C18_21  and  O4_22 
REMARK    6  A    between atoms: N1_24  and  C19_25 
REMARK    7  A    between atoms: C22_28  and  O5_29 
ROOT
HETATM    1  C1  UNL     1     -17.517   7.323  -9.097  1.00  0.00     0.025 C 
HETATM    2  C2  UNL     1     -17.087   6.391  -8.294  1.00  0.00    -0.019 A 
HETATM    3  C3  UNL     1     -16.315   6.310  -7.067  1.00  0.00    -0.007 A 
HETATM    4  C4  UNL     1     -15.700   7.034  -6.171  1.00  0.00     0.050 C 
HETATM    5  C16 UNL     1     -16.505   4.839  -7.205  1.00  0.00     0.042 A 
HETATM    6  C17 UNL     1     -17.228   4.923  -8.357  1.00  0.00     0.041 A 
HETATM    7  C18 UNL     1     -17.550   3.636  -8.727  1.00  0.00     0.157 A 
HETATM    8  N1  UNL     1     -17.034   2.809  -7.821  1.00  0.00    -0.303 N 
HETATM    9  C22 UNL     1     -16.400   3.507  -6.894  1.00  0.00     0.157 A 
ENDROOT
BRANCH   4  10
HETATM   10  C5  UNL     1     -15.617   8.474  -6.185  1.00  0.00     0.077 A 
HETATM   11  C6  UNL     1     -16.112   9.437  -5.318  1.00  0.00     0.051 A 
HETATM   12  C7  UNL     1     -15.728  10.652  -5.835  1.00  0.00     0.003 A 
HETATM   13  C8  UNL     1     -15.916  11.984  -5.424  1.00  0.00     0.054 A 
HETATM   14  C15 UNL     1     -15.019  10.411  -6.990  1.00  0.00     0.089 A 
HETATM   15  C9  UNL     1     -15.427  13.053  -6.122  1.00  0.00     0.102 A 
HETATM   16  C11 UNL     1     -14.707  12.766  -7.303  1.00  0.00     0.104 A 
HETATM   17  C14 UNL     1     -14.499  11.476  -7.739  1.00  0.00     0.077 A 
HETATM   18  O3  UNL     1     -14.977   9.138  -7.156  1.00  0.00    -0.310 OA
BRANCH  15  19
HETATM   19  O1  UNL     1     -15.594  14.349  -5.741  1.00  0.00    -0.353 OA
HETATM   20  C10 UNL     1     -16.496  14.853  -4.825  1.00  0.00     0.210 C 
ENDBRANCH  15  19
BRANCH  16  21
HETATM   21  O2  UNL     1     -14.237  13.836  -7.984  1.00  0.00    -0.349 OA
BRANCH  21  22
HETATM   22  C12 UNL     1     -12.917  14.205  -8.100  1.00  0.00     0.171 C 
HETATM   23  C13 UNL     1     -12.231  13.780  -9.351  1.00  0.00     0.034 C 
ENDBRANCH  21  22
ENDBRANCH  16  21
ENDBRANCH   4  10
BRANCH   9  24
HETATM   24  O5  UNL     1     -15.716   3.005  -5.758  1.00  0.00    -0.345 OA
ATOM     25  H5  UNL     1     -15.099   3.508  -5.241  1.00  0.00     0.219 HD
ENDBRANCH   9  24
BRANCH   7  26
HETATM   26  O4  UNL     1     -18.293   3.338  -9.870  1.00  0.00    -0.345 OA
ATOM     27  H4  UNL     1     -17.929   2.880 -10.619  1.00  0.00     0.219 HD
ENDBRANCH   7  26
BRANCH   8  28
HETATM   28  C19 UNL     1     -17.151   1.371  -7.857  1.00  0.00     0.086 C 
HETATM   29  C20 UNL     1     -16.551   0.749  -9.083  1.00  0.00     0.032 C 
HETATM   30  C21 UNL     1     -18.592   0.920  -7.760  1.00  0.00     0.032 C 
ENDBRANCH   8  28
TORSDOF 7
ENDMDL
MODEL 5
REMARK VINA RESULT: -7.067473309      1.057      2.797
REMARK  7 active torsions:
REMARK  status: ('A' for Active; 'I' for Inactive)
REMARK    1  A    between atoms: C4_4  and  C5_5 
REMARK    2  A    between atoms: C9_9  and  O1_10 
REMARK    3  A    between atoms: C11_12  and  O2_13 
REMARK    4  A    between atoms: O2_13  and  C12_14 
REMARK    5  A    between atoms: C18_21  and  O4_22 
REMARK    6  A    between atoms: N1_24  and  C19_25 
REMARK    7  A    between atoms: C22_28  and  O5_29 
ROOT
HETATM    1  C1  UNL     1     -17.261   8.385  -2.966  1.00  0.00     0.025 C 
HETATM    2  C2  UNL     1     -16.771   8.227  -4.163  1.00  0.00    -0.019 A 
HETATM    3  C3  UNL     1     -15.876   8.943  -5.054  1.00  0.00    -0.007 A 
HETATM    4  C4  UNL     1     -15.131  10.012  -5.147  1.00  0.00     0.050 C 
HETATM    5  C16 UNL     1     -16.146   7.828  -6.002  1.00  0.00     0.042 A 
HETATM    6  C17 UNL     1     -16.987   7.162  -5.161  1.00  0.00     0.041 A 
HETATM    7  C18 UNL     1     -17.409   6.030  -5.823  1.00  0.00     0.157 A 
HETATM    8  N1  UNL     1     -16.835   6.021  -7.024  1.00  0.00    -0.303 N 
HETATM    9  C22 UNL     1     -16.070   7.092  -7.158  1.00  0.00     0.157 A 
ENDROOT
BRANCH   4  10
HETATM   10  C5  UNL     1     -14.972  11.005  -4.112  1.00  0.00     0.077 A 
HETATM   11  C6  UNL     1     -15.374  12.329  -4.032  1.00  0.00     0.051 A 
HETATM   12  C7  UNL     1     -14.945  12.787  -2.809  1.00  0.00     0.003 A 
HETATM   13  C8  UNL     1     -15.045  14.024  -2.148  1.00  0.00     0.054 A 
HETATM   14  C15 UNL     1     -14.299  11.750  -2.177  1.00  0.00     0.089 A 
HETATM   15  C9  UNL     1     -14.526  14.244  -0.902  1.00  0.00     0.102 A 
HETATM   16  C11 UNL     1     -13.867  13.157  -0.286  1.00  0.00     0.104 A 
HETATM   17  C14 UNL     1     -13.749  11.930  -0.899  1.00  0.00     0.077 A 
HETATM   18  O3  UNL     1     -14.337  10.736  -2.964  1.00  0.00    -0.310 OA
BRANCH  15  19
HETATM   19  O1  UNL     1     -14.613  15.432  -0.242  1.00  0.00    -0.353 OA
HETATM   20  C10 UNL     1     -15.415  16.514  -0.547  1.00  0.00     0.210 C 
ENDBRANCH  15  19
BRANCH  16  21
HETATM   21  O2  UNL     1     -13.353  13.396   0.942  1.00  0.00    -0.349 OA
BRANCH  21  22
HETATM   22  C12 UNL     1     -13.939  13.065   2.142  1.00  0.00     0.171 C 
HETATM   23  C13 UNL     1     -13.716  14.023   3.259  1.00  0.00     0.034 C 
ENDBRANCH  21  22
ENDBRANCH  16  21
ENDBRANCH   4  10
BRANCH   9  24
HETATM   24  O5  UNL     1     -15.290   7.454  -8.284  1.00  0.00    -0.345 OA
ATOM     25  H5  UNL     1     -14.348   7.577  -8.264  1.00  0.00     0.219 HD
ENDBRANCH   9  24
BRANCH   7  26
HETATM   26  O4  UNL     1     -18.287   5.103  -5.260  1.00  0.00    -0.345 OA
ATOM     27  H4  UNL     1     -17.999   4.278  -4.887  1.00  0.00     0.219 HD
ENDBRANCH   7  26
BRANCH   8  28
HETATM   28  C19 UNL     1     -17.029   4.997  -8.022  1.00  0.00     0.086 C 
HETATM   29  C20 UNL     1     -18.447   4.881  -8.498  1.00  0.00     0.032 C 
HETATM   30  C21 UNL     1     -16.589   3.637  -7.527  1.00  0.00     0.032 C 
ENDBRANCH   8  28
TORSDOF 7
ENDMDL
