MODEL 1
REMARK VINA RESULT: -7.177551235      0.000      0.000
REMARK  7 active torsions:
REMARK  status: ('A' for Active; 'I' for Inactive)
REMARK    1  A    between atoms: O1_2  and  C2_3 
REMARK    2  A    between atoms: C3_4  and  C4_5 
REMARK    3  A    between atoms: C4_5  and  C5_6 
REMARK    4  A    between atoms: C9_10  and  O2_11 
REMARK    5  A    between atoms: C12_15  and  C13_16 
REMARK    6  A    between atoms: C14_18  and  C15_19 
REMARK    7  A    between atoms: C20_25  and  O5_26 
ROOT
HETATM    1  C2  UNL     1     -16.041   7.441  -6.793  1.00  0.00     0.093 A 
HETATM    2  C3  UNL     1     -15.780   8.494  -5.922  1.00  0.00     0.016 A 
HETATM    3  C9  UNL     1     -16.374   8.444  -4.656  1.00  0.00     0.111 A 
HETATM    4  C10 UNL     1     -17.183   7.394  -4.289  1.00  0.00     0.139 A 
HETATM    5  C11 UNL     1     -17.427   6.373  -5.158  1.00  0.00     0.123 A 
HETATM    6  C12 UNL     1     -16.844   6.383  -6.463  1.00  0.00     0.071 A 
HETATM    7  O6  UNL     1     -18.262   5.423  -4.588  1.00  0.00    -0.322 OA
HETATM    8  C21 UNL     1     -18.251   5.696  -3.178  1.00  0.00     0.352 C 
HETATM    9  O7  UNL     1     -17.887   7.084  -3.130  1.00  0.00    -0.320 OA
ENDROOT
BRANCH   6  10
HETATM   10  C13 UNL     1     -17.270   5.333  -7.371  1.00  0.00     0.128 A 
HETATM   11  O3  UNL     1     -16.498   4.235  -7.324  1.00  0.00    -0.311 OA
HETATM   12  C14 UNL     1     -16.685   3.169  -8.037  1.00  0.00     0.061 A 
HETATM   13  C18 UNL     1     -17.756   3.175  -8.902  1.00  0.00     0.091 A 
HETATM   14  C19 UNL     1     -18.590   4.255  -9.006  1.00  0.00     0.210 A 
HETATM   15  O4  UNL     1     -19.581   4.282  -9.795  1.00  0.00    -0.285 OA
HETATM   16  C20 UNL     1     -18.336   5.383  -8.204  1.00  0.00     0.151 A 
BRANCH  12  17
HETATM   17  C15 UNL     1     -15.778   1.969  -7.933  1.00  0.00     0.035 C 
HETATM   18  C16 UNL     1     -14.502   2.284  -7.217  1.00  0.00     0.016 C 
HETATM   19  C17 UNL     1     -16.557   0.887  -7.176  1.00  0.00     0.016 C 
ENDBRANCH  12  17
BRANCH  16  20
HETATM   20  O5  UNL     1     -19.217   6.471  -8.323  1.00  0.00    -0.355 OA
ATOM     21  H5  UNL     1     -19.612   6.767  -9.134  1.00  0.00     0.218 HD
ENDBRANCH  16  20
ENDBRANCH   6  10
BRANCH   1  22
HETATM   22  O1  UNL     1     -15.436   7.500  -8.035  1.00  0.00    -0.354 OA
HETATM   23  C1  UNL     1     -16.089   8.185  -9.085  1.00  0.00     0.210 C 
ENDBRANCH   1  22
BRANCH   2  24
HETATM   24  C4  UNL     1     -14.894   9.601  -6.308  1.00  0.00     0.072 C 
BRANCH  24  25
HETATM   25  C5  UNL     1     -15.478  10.917  -6.484  1.00  0.00    -0.020 C 
HETATM   26  C6  UNL     1     -14.837  11.807  -7.270  1.00  0.00    -0.091 C 
HETATM   27  C7  UNL     1     -13.568  11.524  -7.966  1.00  0.00     0.042 C 
HETATM   28  C8  UNL     1     -15.438  13.161  -7.457  1.00  0.00     0.042 C 
ENDBRANCH  24  25
ENDBRANCH   2  24
BRANCH   3  29
HETATM   29  O2  UNL     1     -16.173   9.440  -3.735  1.00  0.00    -0.357 OA
ATOM     30  H2  UNL     1     -16.810  10.135  -3.613  1.00  0.00     0.217 HD
ENDBRANCH   3  29
TORSDOF 7
ENDMDL
MODEL 2
REMARK VINA RESULT: -6.933650644      1.072      2.464
REMARK  7 active torsions:
REMARK  status: ('A' for Active; 'I' for Inactive)
REMARK    1  A    between atoms: O1_2  and  C2_3 
REMARK    2  A    between atoms: C3_4  and  C4_5 
REMARK    3  A    between atoms: C4_5  and  C5_6 
REMARK    4  A    between atoms: C9_10  and  O2_11 
REMARK    5  A    between atoms: C12_15  and  C13_16 
REMARK    6  A    between atoms: C14_18  and  C15_19 
REMARK    7  A    between atoms: C20_25  and  O5_26 
ROOT
HETATM    1  C2  UNL     1     -15.754   7.446  -7.002  1.00  0.00     0.093 A 
HETATM    2  C3  UNL     1     -15.677   8.654  -6.318  1.00  0.00     0.016 A 
HETATM    3  C9  UNL     1     -16.240   8.705  -5.037  1.00  0.00     0.111 A 
HETATM    4  C10 UNL     1     -16.846   7.603  -4.480  1.00  0.00     0.139 A 
HETATM    5  C11 UNL     1     -16.913   6.429  -5.169  1.00  0.00     0.123 A 
HETATM    6  C12 UNL     1     -16.353   6.331  -6.480  1.00  0.00     0.071 A 
HETATM    7  O6  UNL     1     -17.560   5.453  -4.426  1.00  0.00    -0.322 OA
HETATM    8  C21 UNL     1     -17.584   5.946  -3.078  1.00  0.00     0.352 C 
HETATM    9  O7  UNL     1     -17.472   7.366  -3.260  1.00  0.00    -0.320 OA
ENDROOT
BRANCH   6  10
HETATM   10  C13 UNL     1     -16.594   5.091  -7.196  1.00  0.00     0.128 A 
HETATM   11  O3  UNL     1     -17.660   5.137  -8.010  1.00  0.00    -0.311 OA
HETATM   12  C14 UNL     1     -18.067   4.156  -8.753  1.00  0.00     0.061 A 
HETATM   13  C18 UNL     1     -17.344   2.986  -8.694  1.00  0.00     0.091 A 
HETATM   14  C19 UNL     1     -16.244   2.861  -7.890  1.00  0.00     0.210 A 
HETATM   15  O4  UNL     1     -15.564   1.793  -7.821  1.00  0.00    -0.285 OA
HETATM   16  C20 UNL     1     -15.851   3.962  -7.108  1.00  0.00     0.151 A 
BRANCH  12  17
HETATM   17  C15 UNL     1     -19.275   4.278  -9.647  1.00  0.00     0.035 C 
HETATM   18  C16 UNL     1     -18.924   4.791 -11.009  1.00  0.00     0.016 C 
HETATM   19  C17 UNL     1     -19.894   2.879  -9.751  1.00  0.00     0.016 C 
ENDBRANCH  12  17
BRANCH  16  20
HETATM   20  O5  UNL     1     -14.709   3.808  -6.304  1.00  0.00    -0.355 OA
ATOM     21  H5  UNL     1     -13.863   3.506  -6.610  1.00  0.00     0.218 HD
ENDBRANCH  16  20
ENDBRANCH   6  10
BRANCH   1  22
HETATM   22  O1  UNL     1     -15.182   7.408  -8.260  1.00  0.00    -0.354 OA
HETATM   23  C1  UNL     1     -15.922   7.886  -9.366  1.00  0.00     0.210 C 
ENDBRANCH   1  22
BRANCH   2  24
HETATM   24  C4  UNL     1     -15.005   9.821  -6.905  1.00  0.00     0.072 C 
BRANCH  24  25
HETATM   25  C5  UNL     1     -15.712  11.089  -6.908  1.00  0.00    -0.020 C 
HETATM   26  C6  UNL     1     -15.072  12.181  -7.374  1.00  0.00    -0.091 C 
HETATM   27  C7  UNL     1     -13.688  12.170  -7.882  1.00  0.00     0.042 C 
HETATM   28  C8  UNL     1     -15.799  13.487  -7.383  1.00  0.00     0.042 C 
ENDBRANCH  24  25
ENDBRANCH   2  24
BRANCH   3  29
HETATM   29  O2  UNL     1     -16.211   9.856  -4.291  1.00  0.00    -0.357 OA
ATOM     30  H2  UNL     1     -16.973  10.420  -4.224  1.00  0.00     0.217 HD
ENDBRANCH   3  29
TORSDOF 7
ENDMDL
MODEL 3
REMARK VINA RESULT: -6.923273479      3.882      8.773
REMARK  7 active torsions:
REMARK  status: ('A' for Active; 'I' for Inactive)
REMARK    1  A    between atoms: O1_2  and  C2_3 
REMARK    2  A    between atoms: C3_4  and  C4_5 
REMARK    3  A    between atoms: C4_5  and  C5_6 
REMARK    4  A    between atoms: C9_10  and  O2_11 
REMARK    5  A    between atoms: C12_15  and  C13_16 
REMARK    6  A    between atoms: C14_18  and  C15_19 
REMARK    7  A    between atoms: C20_25  and  O5_26 
ROOT
HETATM    1  C2  UNL     1     -15.962  10.764  -4.974  1.00  0.00     0.093 A 
HETATM    2  C3  UNL     1     -15.361  10.063  -6.014  1.00  0.00     0.016 A 
HETATM    3  C9  UNL     1     -14.869  10.808  -7.092  1.00  0.00     0.111 A 
HETATM    4  C10 UNL     1     -14.975  12.179  -7.119  1.00  0.00     0.139 A 
HETATM    5  C11 UNL     1     -15.569  12.847  -6.090  1.00  0.00     0.123 A 
HETATM    6  C12 UNL     1     -16.089  12.127  -4.970  1.00  0.00     0.071 A 
HETATM    7  O6  UNL     1     -15.569  14.215  -6.319  1.00  0.00    -0.322 OA
HETATM    8  C21 UNL     1     -14.619  14.430  -7.373  1.00  0.00     0.352 C 
HETATM    9  O7  UNL     1     -14.587  13.155  -8.032  1.00  0.00    -0.320 OA
ENDROOT
BRANCH   6  10
HETATM   10  C13 UNL     1     -16.829  12.901  -3.990  1.00  0.00     0.128 A 
HETATM   11  O3  UNL     1     -18.116  12.534  -3.873  1.00  0.00    -0.311 OA
HETATM   12  C14 UNL     1     -18.969  13.075  -3.061  1.00  0.00     0.061 A 
HETATM   13  C18 UNL     1     -18.511  14.100  -2.265  1.00  0.00     0.091 A 
HETATM   14  C19 UNL     1     -17.213  14.531  -2.324  1.00  0.00     0.210 A 
HETATM   15  O4  UNL     1     -16.771  15.473  -1.601  1.00  0.00    -0.285 OA
HETATM   16  C20 UNL     1     -16.334  13.903  -3.225  1.00  0.00     0.151 A 
BRANCH  12  17
HETATM   17  C15 UNL     1     -20.401  12.611  -2.982  1.00  0.00     0.035 C 
HETATM   18  C16 UNL     1     -20.510  11.176  -2.570  1.00  0.00     0.016 C 
HETATM   19  C17 UNL     1     -21.104  13.511  -1.959  1.00  0.00     0.016 C 
ENDBRANCH  12  17
BRANCH  16  20
HETATM   20  O5  UNL     1     -15.005  14.357  -3.252  1.00  0.00    -0.355 OA
ATOM     21  H5  UNL     1     -14.537  14.721  -2.509  1.00  0.00     0.218 HD
ENDBRANCH  16  20
ENDBRANCH   6  10
BRANCH   1  22
HETATM   22  O1  UNL     1     -16.431  10.015  -3.911  1.00  0.00    -0.354 OA
HETATM   23  C1  UNL     1     -15.638   9.906  -2.745  1.00  0.00     0.210 C 
ENDBRANCH   1  22
BRANCH   2  24
HETATM   24  C4  UNL     1     -15.225   8.601  -5.969  1.00  0.00     0.072 C 
BRANCH  24  25
HETATM   25  C5  UNL     1     -16.135   7.803  -6.770  1.00  0.00    -0.020 C 
HETATM   26  C6  UNL     1     -16.987   6.969  -6.138  1.00  0.00    -0.091 C 
HETATM   27  C7  UNL     1     -17.051   6.815  -4.673  1.00  0.00     0.042 C 
HETATM   28  C8  UNL     1     -17.928   6.150  -6.960  1.00  0.00     0.042 C 
ENDBRANCH  24  25
ENDBRANCH   2  24
BRANCH   3  29
HETATM   29  O2  UNL     1     -14.263  10.199  -8.162  1.00  0.00    -0.357 OA
ATOM     30  H2  UNL     1     -14.748   9.623  -8.741  1.00  0.00     0.217 HD
ENDBRANCH   3  29
TORSDOF 7
ENDMDL
MODEL 4
REMARK VINA RESULT: -6.793092638      4.101      9.147
REMARK  7 active torsions:
REMARK  status: ('A' for Active; 'I' for Inactive)
REMARK    1  A    between atoms: O1_2  and  C2_3 
REMARK    2  A    between atoms: C3_4  and  C4_5 
REMARK    3  A    between atoms: C4_5  and  C5_6 
REMARK    4  A    between atoms: C9_10  and  O2_11 
REMARK    5  A    between atoms: C12_15  and  C13_16 
REMARK    6  A    between atoms: C14_18  and  C15_19 
REMARK    7  A    between atoms: C20_25  and  O5_26 
ROOT
HETATM    1  C2  UNL     1     -15.716  10.903  -4.654  1.00  0.00     0.093 A 
HETATM    2  C3  UNL     1     -15.295  10.177  -5.763  1.00  0.00     0.016 A 
HETATM    3  C9  UNL     1     -14.990  10.896  -6.925  1.00  0.00     0.111 A 
HETATM    4  C10 UNL     1     -15.101  12.267  -6.966  1.00  0.00     0.139 A 
HETATM    5  C11 UNL     1     -15.518  12.959  -5.868  1.00  0.00     0.123 A 
HETATM    6  C12 UNL     1     -15.842  12.266  -4.660  1.00  0.00     0.071 A 
HETATM    7  O6  UNL     1     -15.558  14.321  -6.125  1.00  0.00    -0.322 OA
HETATM    8  C21 UNL     1     -14.796  14.510  -7.327  1.00  0.00     0.352 C 
HETATM    9  O7  UNL     1     -14.872  13.220  -7.953  1.00  0.00    -0.320 OA
ENDROOT
BRANCH   6  10
HETATM   10  C13 UNL     1     -16.411  13.065  -3.589  1.00  0.00     0.128 A 
HETATM   11  O3  UNL     1     -15.497  13.752  -2.885  1.00  0.00    -0.311 OA
HETATM   12  C14 UNL     1     -15.766  14.535  -1.888  1.00  0.00     0.061 A 
HETATM   13  C18 UNL     1     -17.090  14.663  -1.534  1.00  0.00     0.091 A 
HETATM   14  C19 UNL     1     -18.081  13.997  -2.204  1.00  0.00     0.210 A 
HETATM   15  O4  UNL     1     -19.306  14.101  -1.895  1.00  0.00    -0.285 OA
HETATM   16  C20 UNL     1     -17.726  13.162  -3.279  1.00  0.00     0.151 A 
BRANCH  12  17
HETATM   17  C15 UNL     1     -14.688  15.278  -1.142  1.00  0.00     0.035 C 
HETATM   18  C16 UNL     1     -15.241  16.382  -0.296  1.00  0.00     0.016 C 
HETATM   19  C17 UNL     1     -13.966  14.249  -0.263  1.00  0.00     0.016 C 
ENDBRANCH  12  17
BRANCH  16  20
HETATM   20  O5  UNL     1     -18.766  12.504  -3.956  1.00  0.00    -0.355 OA
ATOM     21  H5  UNL     1     -19.425  12.930  -4.491  1.00  0.00     0.218 HD
ENDBRANCH  16  20
ENDBRANCH   6  10
BRANCH   1  22
HETATM   22  O1  UNL     1     -16.000  10.180  -3.511  1.00  0.00    -0.354 OA
HETATM   23  C1  UNL     1     -15.038  10.125  -2.476  1.00  0.00     0.210 C 
ENDBRANCH   1  22
BRANCH   2  24
HETATM   24  C4  UNL     1     -15.151   8.716  -5.708  1.00  0.00     0.072 C 
BRANCH  24  25
HETATM   25  C5  UNL     1     -16.057   7.907  -6.502  1.00  0.00    -0.020 C 
HETATM   26  C6  UNL     1     -16.958   7.134  -5.862  1.00  0.00    -0.091 C 
HETATM   27  C7  UNL     1     -17.081   7.056  -4.395  1.00  0.00     0.042 C 
HETATM   28  C8  UNL     1     -17.896   6.304  -6.677  1.00  0.00     0.042 C 
ENDBRANCH  24  25
ENDBRANCH   2  24
BRANCH   3  29
HETATM   29  O2  UNL     1     -14.570  10.262  -8.066  1.00  0.00    -0.357 OA
ATOM     30  H2  UNL     1     -13.683   9.929  -8.148  1.00  0.00     0.217 HD
ENDBRANCH   3  29
TORSDOF 7
ENDMDL
MODEL 5
REMARK VINA RESULT: -6.775045564      3.037      7.439
REMARK  7 active torsions:
REMARK  status: ('A' for Active; 'I' for Inactive)
REMARK    1  A    between atoms: O1_2  and  C2_3 
REMARK    2  A    between atoms: C3_4  and  C4_5 
REMARK    3  A    between atoms: C4_5  and  C5_6 
REMARK    4  A    between atoms: C9_10  and  O2_11 
REMARK    5  A    between atoms: C12_15  and  C13_16 
REMARK    6  A    between atoms: C14_18  and  C15_19 
REMARK    7  A    between atoms: C20_25  and  O5_26 
ROOT
HETATM    1  C2  UNL     1     -15.667   9.475  -5.418  1.00  0.00     0.093 A 
HETATM    2  C3  UNL     1     -16.183   8.213  -5.140  1.00  0.00     0.016 A 
HETATM    3  C9  UNL     1     -16.437   7.368  -6.227  1.00  0.00     0.111 A 
HETATM    4  C10 UNL     1     -16.186   7.771  -7.518  1.00  0.00     0.139 A 
HETATM    5  C11 UNL     1     -15.683   9.013  -7.769  1.00  0.00     0.123 A 
HETATM    6  C12 UNL     1     -15.410   9.910  -6.690  1.00  0.00     0.071 A 
HETATM    7  O6  UNL     1     -15.506   9.212  -9.130  1.00  0.00    -0.322 OA
HETATM    8  C21 UNL     1     -15.573   7.906  -9.723  1.00  0.00     0.352 C 
HETATM    9  O7  UNL     1     -16.335   7.163  -8.760  1.00  0.00    -0.320 OA
ENDROOT
BRANCH   6  10
HETATM   10  C13 UNL     1     -15.012  11.258  -7.055  1.00  0.00     0.128 A 
HETATM   11  O3  UNL     1     -13.873  11.311  -7.764  1.00  0.00    -0.311 OA
HETATM   12  C14 UNL     1     -13.326  12.400  -8.205  1.00  0.00     0.061 A 
HETATM   13  C18 UNL     1     -13.968  13.583  -7.918  1.00  0.00     0.091 A 
HETATM   14  C19 UNL     1     -15.134  13.612  -7.203  1.00  0.00     0.210 A 
HETATM   15  O4  UNL     1     -15.742  14.690  -6.928  1.00  0.00    -0.285 OA
HETATM   16  C20 UNL     1     -15.681  12.396  -6.752  1.00  0.00     0.151 A 
BRANCH  12  17
HETATM   17  C15 UNL     1     -12.043  12.385  -8.997  1.00  0.00     0.035 C 
HETATM   18  C16 UNL     1     -12.106  11.446 -10.162  1.00  0.00     0.016 C 
HETATM   19  C17 UNL     1     -11.804  13.819  -9.484  1.00  0.00     0.016 C 
ENDBRANCH  12  17
BRANCH  16  20
HETATM   20  O5  UNL     1     -16.886  12.458  -6.033  1.00  0.00    -0.355 OA
ATOM     21  H5  UNL     1     -17.737  12.207  -6.371  1.00  0.00     0.218 HD
ENDBRANCH  16  20
ENDBRANCH   6  10
BRANCH   1  22
HETATM   22  O1  UNL     1     -15.409  10.291  -4.334  1.00  0.00    -0.354 OA
HETATM   23  C1  UNL     1     -14.165  10.180  -3.671  1.00  0.00     0.210 C 
ENDBRANCH   1  22
BRANCH   2  24
HETATM   24  C4  UNL     1     -16.423   7.775  -3.759  1.00  0.00     0.072 C 
BRANCH  24  25
HETATM   25  C5  UNL     1     -17.699   8.101  -3.149  1.00  0.00    -0.020 C 
HETATM   26  C6  UNL     1     -17.705   8.604  -1.898  1.00  0.00    -0.091 C 
HETATM   27  C7  UNL     1     -16.487   8.843  -1.102  1.00  0.00     0.042 C 
HETATM   28  C8  UNL     1     -19.017   8.946  -1.269  1.00  0.00     0.042 C 
ENDBRANCH  24  25
ENDBRANCH   2  24
BRANCH   3  29
HETATM   29  O2  UNL     1     -16.947   6.108  -6.046  1.00  0.00    -0.357 OA
ATOM     30  H2  UNL     1     -17.272   5.597  -6.778  1.00  0.00     0.217 HD
ENDBRANCH   3  29
TORSDOF 7
ENDMDL
