MODEL 1
REMARK VINA RESULT: -7.128995073      0.000      0.000
REMARK  6 active torsions:
REMARK  status: ('A' for Active; 'I' for Inactive)
REMARK    1  A    between atoms: O1_2  and  C2_3 
REMARK    2  A    between atoms: C6_7  and  O2_8 
REMARK    3  A    between atoms: C7_10  and  O3_11 
REMARK    4  A    between atoms: C14_18  and  O4_19 
REMARK    5  A    between atoms: C16_21  and  O5_22 
REMARK    6  A    between atoms: C18_24  and  O6_25 
ROOT
HETATM    1  C2  UNL     1     -15.372   8.840  -7.861  1.00  0.00     0.106 A 
HETATM    2  C3  UNL     1     -15.282  10.207  -8.065  1.00  0.00     0.069 A 
HETATM    3  C4  UNL     1     -15.255  11.113  -7.028  1.00  0.00     0.040 A 
HETATM    4  C5  UNL     1     -15.320  10.626  -5.738  1.00  0.00     0.011 A 
HETATM    5  C6  UNL     1     -15.412   9.254  -5.534  1.00  0.00     0.111 A 
HETATM    6  C7  UNL     1     -15.441   8.331  -6.563  1.00  0.00     0.135 A 
HETATM    7  C9  UNL     1     -15.239  11.820  -4.851  1.00  0.00     0.051 C 
HETATM    8  C10 UNL     1     -15.826  11.659  -3.504  1.00  0.00     0.053 C 
HETATM    9  C11 UNL     1     -15.407  12.804  -2.644  1.00  0.00    -0.015 A 
HETATM   10  C12 UNL     1     -15.675  14.130  -2.915  1.00  0.00    -0.046 A 
HETATM   11  C13 UNL     1     -15.247  15.102  -2.044  1.00  0.00     0.047 A 
HETATM   12  C14 UNL     1     -14.547  14.719  -0.904  1.00  0.00     0.104 A 
HETATM   13  C16 UNL     1     -14.267  13.406  -0.614  1.00  0.00     0.135 A 
HETATM   14  C18 UNL     1     -14.708  12.440  -1.503  1.00  0.00     0.111 A 
HETATM   15  C20 UNL     1     -16.393  14.678  -4.118  1.00  0.00     0.041 C 
HETATM   16  C21 UNL     1     -15.601  14.282  -5.372  1.00  0.00     0.030 C 
HETATM   17  C22 UNL     1     -15.883  12.875  -5.721  1.00  0.00     0.091 C 
HETATM   18  N1  UNL     1     -15.189  12.548  -6.988  1.00  0.00    -0.384 N 
ATOM     19  H1  UNL     1     -14.768  13.184  -7.665  1.00  0.00     0.160 HD
ENDROOT
BRANCH   1  20
HETATM   20  O1  UNL     1     -15.398   7.946  -8.916  1.00  0.00    -0.353 OA
HETATM   21  C1  UNL     1     -16.632   7.761  -9.581  1.00  0.00     0.210 C 
ENDBRANCH   1  20
BRANCH   6  22
HETATM   22  O3  UNL     1     -15.530   6.974  -6.416  1.00  0.00    -0.351 OA
HETATM   23  C8  UNL     1     -16.679   6.223  -6.189  1.00  0.00     0.210 C 
ENDBRANCH   6  22
BRANCH   5  24
HETATM   24  O2  UNL     1     -15.482   8.723  -4.244  1.00  0.00    -0.357 OA
ATOM     25  H2  UNL     1     -16.321   8.565  -3.827  1.00  0.00     0.217 HD
ENDBRANCH   5  24
BRANCH  14  26
HETATM   26  O6  UNL     1     -14.446  11.116  -1.247  1.00  0.00    -0.352 OA
HETATM   27  C19 UNL     1     -13.181  10.510  -1.474  1.00  0.00     0.210 C 
ENDBRANCH  14  26
BRANCH  13  28
HETATM   28  O5  UNL     1     -13.564  13.032   0.534  1.00  0.00    -0.351 OA
HETATM   29  C17 UNL     1     -14.314  12.765   1.711  1.00  0.00     0.210 C 
ENDBRANCH  13  28
BRANCH  12  30
HETATM   30  O4  UNL     1     -14.137  15.736  -0.061  1.00  0.00    -0.353 OA
HETATM   31  C15 UNL     1     -14.974  16.374   0.852  1.00  0.00     0.210 C 
ENDBRANCH  12  30
TORSDOF 6
ENDMDL
MODEL 2
REMARK VINA RESULT: -7.096022196      1.222      7.658
REMARK  6 active torsions:
REMARK  status: ('A' for Active; 'I' for Inactive)
REMARK    1  A    between atoms: O1_2  and  C2_3 
REMARK    2  A    between atoms: C6_7  and  O2_8 
REMARK    3  A    between atoms: C7_10  and  O3_11 
REMARK    4  A    between atoms: C14_18  and  O4_19 
REMARK    5  A    between atoms: C16_21  and  O5_22 
REMARK    6  A    between atoms: C18_24  and  O6_25 
ROOT
HETATM    1  C2  UNL     1     -15.100  14.285  -1.535  1.00  0.00     0.106 A 
HETATM    2  C3  UNL     1     -15.340  14.629  -2.855  1.00  0.00     0.069 A 
HETATM    3  C4  UNL     1     -15.366  13.700  -3.872  1.00  0.00     0.040 A 
HETATM    4  C5  UNL     1     -15.145  12.376  -3.549  1.00  0.00     0.011 A 
HETATM    5  C6  UNL     1     -14.902  12.033  -2.224  1.00  0.00     0.111 A 
HETATM    6  C7  UNL     1     -14.872  12.952  -1.192  1.00  0.00     0.135 A 
HETATM    7  C9  UNL     1     -15.266  11.623  -4.828  1.00  0.00     0.051 C 
HETATM    8  C10 UNL     1     -14.553  10.328  -4.879  1.00  0.00     0.053 C 
HETATM    9  C11 UNL     1     -15.008   9.564  -6.077  1.00  0.00    -0.015 A 
HETATM   10  C12 UNL     1     -14.894  10.004  -7.381  1.00  0.00    -0.046 A 
HETATM   11  C13 UNL     1     -15.339   9.208  -8.408  1.00  0.00     0.047 A 
HETATM   12  C14 UNL     1     -15.899   7.972  -8.103  1.00  0.00     0.104 A 
HETATM   13  C16 UNL     1     -16.024   7.513  -6.815  1.00  0.00     0.135 A 
HETATM   14  C18 UNL     1     -15.568   8.328  -5.792  1.00  0.00     0.111 A 
HETATM   15  C20 UNL     1     -14.338  11.323  -7.843  1.00  0.00     0.041 C 
HETATM   16  C21 UNL     1     -15.191  12.445  -7.233  1.00  0.00     0.030 C 
HETATM   17  C22 UNL     1     -14.804  12.662  -5.825  1.00  0.00     0.091 C 
HETATM   18  N1  UNL     1     -15.569  13.813  -5.291  1.00  0.00    -0.384 N 
ATOM     19  H1  UNL     1     -16.106  14.512  -5.803  1.00  0.00     0.160 HD
ENDROOT
BRANCH   1  20
HETATM   20  O1  UNL     1     -15.076  15.232  -0.528  1.00  0.00    -0.353 OA
HETATM   21  C1  UNL     1     -15.339  16.573  -0.890  1.00  0.00     0.210 C 
ENDBRANCH   1  20
BRANCH   6  22
HETATM   22  O3  UNL     1     -14.638  12.665   0.125  1.00  0.00    -0.351 OA
HETATM   23  C8  UNL     1     -15.564  12.245   1.074  1.00  0.00     0.210 C 
ENDBRANCH   6  22
BRANCH   5  24
HETATM   24  O2  UNL     1     -14.671  10.705  -1.858  1.00  0.00    -0.357 OA
ATOM     25  H2  UNL     1     -13.941  10.218  -2.223  1.00  0.00     0.217 HD
ENDBRANCH   5  24
BRANCH  14  26
HETATM   26  O6  UNL     1     -15.677   7.904  -4.490  1.00  0.00    -0.352 OA
HETATM   27  C19 UNL     1     -16.840   8.101  -3.696  1.00  0.00     0.210 C 
ENDBRANCH  14  26
BRANCH  13  28
HETATM   28  O5  UNL     1     -16.587   6.269  -6.520  1.00  0.00    -0.351 OA
HETATM   29  C17 UNL     1     -15.725   5.138  -6.513  1.00  0.00     0.210 C 
ENDBRANCH  13  28
BRANCH  12  30
HETATM   30  O4  UNL     1     -16.332   7.211  -9.174  1.00  0.00    -0.353 OA
HETATM   31  C15 UNL     1     -17.657   7.155  -9.604  1.00  0.00     0.210 C 
ENDBRANCH  12  30
TORSDOF 6
ENDMDL
MODEL 3
REMARK VINA RESULT: -7.029360516      3.797      5.631
REMARK  6 active torsions:
REMARK  status: ('A' for Active; 'I' for Inactive)
REMARK    1  A    between atoms: O1_2  and  C2_3 
REMARK    2  A    between atoms: C6_7  and  O2_8 
REMARK    3  A    between atoms: C7_10  and  O3_11 
REMARK    4  A    between atoms: C14_18  and  O4_19 
REMARK    5  A    between atoms: C16_21  and  O5_22 
REMARK    6  A    between atoms: C18_24  and  O6_25 
ROOT
HETATM    1  C2  UNL     1     -12.525  12.626  -8.570  1.00  0.00     0.106 A 
HETATM    2  C3  UNL     1     -13.014  11.348  -8.353  1.00  0.00     0.069 A 
HETATM    3  C4  UNL     1     -13.922  11.059  -7.358  1.00  0.00     0.040 A 
HETATM    4  C5  UNL     1     -14.355  12.094  -6.554  1.00  0.00     0.011 A 
HETATM    5  C6  UNL     1     -13.863  13.375  -6.772  1.00  0.00     0.111 A 
HETATM    6  C7  UNL     1     -12.951  13.682  -7.764  1.00  0.00     0.135 A 
HETATM    7  C9  UNL     1     -15.338  11.488  -5.612  1.00  0.00     0.051 C 
HETATM    8  C10 UNL     1     -15.528  12.207  -4.334  1.00  0.00     0.053 C 
HETATM    9  C11 UNL     1     -16.735  11.669  -3.642  1.00  0.00    -0.015 A 
HETATM   10  C12 UNL     1     -16.900  10.355  -3.256  1.00  0.00    -0.046 A 
HETATM   11  C13 UNL     1     -18.054   9.974  -2.615  1.00  0.00     0.047 A 
HETATM   12  C14 UNL     1     -19.032  10.933  -2.371  1.00  0.00     0.104 A 
HETATM   13  C16 UNL     1     -18.892  12.246  -2.747  1.00  0.00     0.135 A 
HETATM   14  C18 UNL     1     -17.721  12.612  -3.391  1.00  0.00     0.111 A 
HETATM   15  C20 UNL     1     -15.938   9.220  -3.481  1.00  0.00     0.041 C 
HETATM   16  C21 UNL     1     -15.738   9.054  -4.995  1.00  0.00     0.030 C 
HETATM   17  C22 UNL     1     -14.800  10.080  -5.494  1.00  0.00     0.091 C 
HETATM   18  N1  UNL     1     -14.546   9.836  -6.933  1.00  0.00    -0.384 N 
ATOM     19  H1  UNL     1     -14.760   9.005  -7.485  1.00  0.00     0.160 HD
ENDROOT
BRANCH   1  20
HETATM   20  O1  UNL     1     -11.613  12.896  -9.574  1.00  0.00    -0.353 OA
HETATM   21  C1  UNL     1     -11.600  12.030 -10.691  1.00  0.00     0.210 C 
ENDBRANCH   1  20
BRANCH   6  22
HETATM   22  O3  UNL     1     -12.437  14.924  -8.020  1.00  0.00    -0.351 OA
HETATM   23  C8  UNL     1     -12.976  15.907  -8.843  1.00  0.00     0.210 C 
ENDBRANCH   6  22
BRANCH   5  24
HETATM   24  O2  UNL     1     -14.275  14.447  -5.977  1.00  0.00    -0.357 OA
ATOM     25  H2  UNL     1     -14.669  14.300  -5.125  1.00  0.00     0.217 HD
ENDBRANCH   5  24
BRANCH  14  26
HETATM   26  O6  UNL     1     -17.545  13.917  -3.783  1.00  0.00    -0.352 OA
HETATM   27  C19 UNL     1     -16.945  14.907  -2.959  1.00  0.00     0.210 C 
ENDBRANCH  14  26
BRANCH  13  28
HETATM   28  O5  UNL     1     -19.880  13.201  -2.497  1.00  0.00    -0.351 OA
HETATM   29  C17 UNL     1     -19.927  13.780  -1.199  1.00  0.00     0.210 C 
ENDBRANCH  13  28
BRANCH  12  30
HETATM   30  O4  UNL     1     -20.174  10.497  -1.724  1.00  0.00    -0.353 OA
HETATM   31  C15 UNL     1     -21.210   9.808  -2.351  1.00  0.00     0.210 C 
ENDBRANCH  12  30
TORSDOF 6
ENDMDL
MODEL 4
REMARK VINA RESULT: -6.819921529      1.348      7.586
REMARK  6 active torsions:
REMARK  status: ('A' for Active; 'I' for Inactive)
REMARK    1  A    between atoms: O1_2  and  C2_3 
REMARK    2  A    between atoms: C6_7  and  O2_8 
REMARK    3  A    between atoms: C7_10  and  O3_11 
REMARK    4  A    between atoms: C14_18  and  O4_19 
REMARK    5  A    between atoms: C16_21  and  O5_22 
REMARK    6  A    between atoms: C18_24  and  O6_25 
ROOT
HETATM    1  C2  UNL     1     -16.064  15.458  -1.489  1.00  0.00     0.106 A 
HETATM    2  C3  UNL     1     -16.394  15.642  -2.822  1.00  0.00     0.069 A 
HETATM    3  C4  UNL     1     -16.204  14.667  -3.776  1.00  0.00     0.040 A 
HETATM    4  C5  UNL     1     -15.664  13.461  -3.374  1.00  0.00     0.011 A 
HETATM    5  C6  UNL     1     -15.332  13.279  -2.037  1.00  0.00     0.111 A 
HETATM    6  C7  UNL     1     -15.515  14.247  -1.067  1.00  0.00     0.135 A 
HETATM    7  C9  UNL     1     -15.612  12.615  -4.598  1.00  0.00     0.051 C 
HETATM    8  C10 UNL     1     -14.606  11.530  -4.585  1.00  0.00     0.053 C 
HETATM    9  C11 UNL     1     -14.874  10.599  -5.719  1.00  0.00    -0.015 A 
HETATM   10  C12 UNL     1     -14.884  10.961  -7.050  1.00  0.00    -0.046 A 
HETATM   11  C13 UNL     1     -15.133  10.013  -8.012  1.00  0.00     0.047 A 
HETATM   12  C14 UNL     1     -15.372   8.702  -7.613  1.00  0.00     0.104 A 
HETATM   13  C16 UNL     1     -15.368   8.316  -6.295  1.00  0.00     0.135 A 
HETATM   14  C18 UNL     1     -15.114   9.286  -5.339  1.00  0.00     0.111 A 
HETATM   15  C20 UNL     1     -14.669  12.341  -7.611  1.00  0.00     0.041 C 
HETATM   16  C21 UNL     1     -15.763  13.262  -7.052  1.00  0.00     0.030 C 
HETATM   17  C22 UNL     1     -15.426  13.663  -5.672  1.00  0.00     0.091 C 
HETATM   18  N1  UNL     1     -16.443  14.629  -5.193  1.00  0.00    -0.384 N 
ATOM     19  H1  UNL     1     -17.139  15.141  -5.734  1.00  0.00     0.160 HD
ENDROOT
BRANCH   1  20
HETATM   20  O1  UNL     1     -16.261  16.450  -0.546  1.00  0.00    -0.353 OA
HETATM   21  C1  UNL     1     -16.080  17.789  -0.963  1.00  0.00     0.210 C 
ENDBRANCH   1  20
BRANCH   6  22
HETATM   22  O3  UNL     1     -15.205  14.117   0.259  1.00  0.00    -0.351 OA
HETATM   23  C8  UNL     1     -13.968  14.320   0.861  1.00  0.00     0.210 C 
ENDBRANCH   6  22
BRANCH   5  24
HETATM   24  O2  UNL     1     -14.781  12.075  -1.592  1.00  0.00    -0.357 OA
ATOM     25  H2  UNL     1     -15.048  11.692  -0.764  1.00  0.00     0.217 HD
ENDBRANCH   5  24
BRANCH  14  26
HETATM   26  O6  UNL     1     -15.103   8.939  -4.011  1.00  0.00    -0.352 OA
HETATM   27  C19 UNL     1     -16.252   8.995  -3.177  1.00  0.00     0.210 C 
ENDBRANCH  14  26
BRANCH  13  28
HETATM   28  O5  UNL     1     -15.609   6.997  -5.906  1.00  0.00    -0.351 OA
HETATM   29  C17 UNL     1     -16.961   6.595  -5.728  1.00  0.00     0.210 C 
ENDBRANCH  13  28
BRANCH  12  30
HETATM   30  O4  UNL     1     -15.618   7.787  -8.621  1.00  0.00    -0.353 OA
HETATM   31  C15 UNL     1     -16.794   7.749  -9.367  1.00  0.00     0.210 C 
ENDBRANCH  12  30
TORSDOF 6
ENDMDL
MODEL 5
REMARK VINA RESULT: -6.770211546      3.223      5.631
REMARK  6 active torsions:
REMARK  status: ('A' for Active; 'I' for Inactive)
REMARK    1  A    between atoms: O1_2  and  C2_3 
REMARK    2  A    between atoms: C6_7  and  O2_8 
REMARK    3  A    between atoms: C7_10  and  O3_11 
REMARK    4  A    between atoms: C14_18  and  O4_19 
REMARK    5  A    between atoms: C16_21  and  O5_22 
REMARK    6  A    between atoms: C18_24  and  O6_25 
ROOT
HETATM    1  C2  UNL     1     -17.325   3.936  -5.373  1.00  0.00     0.106 A 
HETATM    2  C3  UNL     1     -17.847   4.799  -4.423  1.00  0.00     0.069 A 
HETATM    3  C4  UNL     1     -17.439   6.109  -4.305  1.00  0.00     0.040 A 
HETATM    4  C5  UNL     1     -16.472   6.570  -5.176  1.00  0.00     0.011 A 
HETATM    5  C6  UNL     1     -15.948   5.702  -6.128  1.00  0.00     0.111 A 
HETATM    6  C7  UNL     1     -16.346   4.385  -6.259  1.00  0.00     0.135 A 
HETATM    7  C9  UNL     1     -16.267   8.004  -4.830  1.00  0.00     0.051 C 
HETATM    8  C10 UNL     1     -14.953   8.571  -5.202  1.00  0.00     0.053 C 
HETATM    9  C11 UNL     1     -15.006  10.057  -5.077  1.00  0.00    -0.015 A 
HETATM   10  C12 UNL     1     -15.292  10.739  -3.911  1.00  0.00    -0.046 A 
HETATM   11  C13 UNL     1     -15.302  12.112  -3.912  1.00  0.00     0.047 A 
HETATM   12  C14 UNL     1     -15.024  12.783  -5.098  1.00  0.00     0.104 A 
HETATM   13  C16 UNL     1     -14.738  12.128  -6.271  1.00  0.00     0.135 A 
HETATM   14  C18 UNL     1     -14.731  10.742  -6.251  1.00  0.00     0.111 A 
HETATM   15  C20 UNL     1     -15.634  10.138  -2.575  1.00  0.00     0.041 C 
HETATM   16  C21 UNL     1     -16.910   9.299  -2.739  1.00  0.00     0.030 C 
HETATM   17  C22 UNL     1     -16.580   7.996  -3.351  1.00  0.00     0.091 C 
HETATM   18  N1  UNL     1     -17.807   7.168  -3.405  1.00  0.00    -0.384 N 
ATOM     19  H1  UNL     1     -18.694   7.314  -2.924  1.00  0.00     0.160 HD
ENDROOT
BRANCH   1  20
HETATM   20  O1  UNL     1     -17.747   2.623  -5.474  1.00  0.00    -0.353 OA
HETATM   21  C1  UNL     1     -17.405   1.747  -4.420  1.00  0.00     0.210 C 
ENDBRANCH   1  20
BRANCH   6  22
HETATM   22  O3  UNL     1     -15.863   3.493  -7.178  1.00  0.00    -0.351 OA
HETATM   23  C8  UNL     1     -14.769   2.646  -7.037  1.00  0.00     0.210 C 
ENDBRANCH   6  22
BRANCH   5  24
HETATM   24  O2  UNL     1     -14.967   6.130  -7.026  1.00  0.00    -0.357 OA
ATOM     25  H2  UNL     1     -14.484   5.505  -7.555  1.00  0.00     0.217 HD
ENDBRANCH   5  24
BRANCH  14  26
HETATM   26  O6  UNL     1     -14.450  10.051  -7.404  1.00  0.00    -0.352 OA
HETATM   27  C19 UNL     1     -15.431   9.723  -8.379  1.00  0.00     0.210 C 
ENDBRANCH  14  26
BRANCH  13  28
HETATM   28  O5  UNL     1     -14.460  12.811  -7.456  1.00  0.00    -0.351 OA
HETATM   29  C17 UNL     1     -13.115  13.207  -7.691  1.00  0.00     0.210 C 
ENDBRANCH  13  28
BRANCH  12  30
HETATM   30  O4  UNL     1     -15.049  14.165  -5.045  1.00  0.00    -0.353 OA
HETATM   31  C15 UNL     1     -16.219  14.923  -5.039  1.00  0.00     0.210 C 
ENDBRANCH  12  30
TORSDOF 6
ENDMDL
