MODEL 1
REMARK VINA RESULT: -5.876030458      0.000      0.000
REMARK  2 active torsions:
REMARK  status: ('A' for Active; 'I' for Inactive)
REMARK    1  A    between atoms: N2_5  and  C4_6 
REMARK    2  A    between atoms: C6_12  and  N5_13 
ROOT
HETATM    1  C4  UNL     1       1.348  12.258  14.773  1.00  0.00     0.151 A 
HETATM    2  N3  UNL     1       1.594  13.587  14.729  1.00  0.00    -0.323 N 
ATOM      3  H3  UNL     1       0.881  14.215  14.360  1.00  0.00     0.169 HD
HETATM    4  C5  UNL     1       2.762  14.096  15.162  1.00  0.00     0.152 A 
HETATM    5  N4  UNL     1       3.269  15.340  15.236  1.00  0.00    -0.174 N 
ATOM      6  H4  UNL     1       2.795  16.194  14.943  1.00  0.00     0.186 HD
HETATM    7  C6  UNL     1       4.500  15.272  15.759  1.00  0.00     0.678 A 
HETATM    8  N6  UNL     1       4.786  13.983  16.022  1.00  0.00    -0.186 N 
ATOM      9  H6  UNL     1       5.654  13.628  16.424  1.00  0.00     0.184 HD
HETATM   10  C7  UNL     1       3.721  13.249  15.658  1.00  0.00     0.122 A 
HETATM   11  C8  UNL     1       3.510  11.882  15.720  1.00  0.00     0.096 A 
HETATM   12  N7  UNL     1       4.415  11.022  16.196  1.00  0.00    -0.335 N 
ATOM     13  H7  UNL     1       5.307  11.386  16.529  1.00  0.00     0.168 HD
HETATM   14  C9  UNL     1       4.194   9.672  16.253  1.00  0.00     0.158 A 
HETATM   15  N8  UNL     1       5.061   8.770  16.717  1.00  0.00    -0.295 N 
ATOM     16  H8  UNL     1       5.996   8.930  17.092  1.00  0.00     0.177 HD
HETATM   17  S1  UNL     1       4.251   7.309  16.540  1.00  0.00     0.070 SA
HETATM   18  N9  UNL     1       2.821   7.892  15.876  1.00  0.00    -0.295 N 
ATOM     19  H9  UNL     1       1.998   7.362  15.589  1.00  0.00     0.177 HD
HETATM   20  C10 UNL     1       3.017   9.212  15.811  1.00  0.00     0.159 A 
HETATM   21  N10 UNL     1       2.084  10.092  15.322  1.00  0.00    -0.334 N 
ATOM     22  H10 UNL     1       1.191   9.728  14.987  1.00  0.00     0.168 HD
HETATM   23  C11 UNL     1       2.306  11.400  15.270  1.00  0.00     0.109 A 
ENDROOT
BRANCH   1  24
HETATM   24  N2  UNL     1       0.112  11.728  14.313  1.00  0.00    -0.262 N 
HETATM   25  C3  UNL     1      -0.086  11.245  12.962  1.00  0.00     0.164 C 
HETATM   26  C2  UNL     1      -1.599  11.205  12.896  1.00  0.00     0.132 C 
HETATM   27  N1  UNL     1      -1.966  10.950  14.278  1.00  0.00    -0.216 NA
HETATM   28  C1  UNL     1      -3.282  11.437  14.597  1.00  0.00     0.134 C 
HETATM   29  N11 UNL     1      -1.039  11.604  15.063  1.00  0.00    -0.045 NA
ENDBRANCH   1  24
BRANCH   7  30
HETATM   30  N5  UNL     1       5.285  16.282  15.976  1.00  0.00    -0.234 N 
ATOM     31  H52 UNL     1       5.559  16.982  15.287  1.00  0.00     0.174 HD
ATOM     32  H51 UNL     1       5.730  16.507  16.866  1.00  0.00     0.174 HD
ENDBRANCH   7  30
TORSDOF 2
ENDMDL
MODEL 2
REMARK VINA RESULT: -5.827024904      0.884      1.021
REMARK  2 active torsions:
REMARK  status: ('A' for Active; 'I' for Inactive)
REMARK    1  A    between atoms: N2_5  and  C4_6 
REMARK    2  A    between atoms: C6_12  and  N5_13 
ROOT
HETATM    1  C4  UNL     1       1.375  11.934  14.583  1.00  0.00     0.151 A 
HETATM    2  N3  UNL     1       1.527  13.277  14.539  1.00  0.00    -0.323 N 
ATOM      3  H3  UNL     1       0.824  13.845  14.068  1.00  0.00     0.169 HD
HETATM    4  C5  UNL     1       2.590  13.878  15.106  1.00  0.00     0.152 A 
HETATM    5  N4  UNL     1       2.992  15.158  15.215  1.00  0.00    -0.174 N 
ATOM      6  H4  UNL     1       2.498  15.969  14.844  1.00  0.00     0.186 HD
HETATM    7  C6  UNL     1       4.147  15.189  15.892  1.00  0.00     0.678 A 
HETATM    8  N6  UNL     1       4.490  13.929  16.218  1.00  0.00    -0.186 N 
ATOM      9  H6  UNL     1       5.322  13.645  16.735  1.00  0.00     0.184 HD
HETATM   10  C7  UNL     1       3.536  13.112  15.739  1.00  0.00     0.122 A 
HETATM   11  C8  UNL     1       3.418  11.734  15.806  1.00  0.00     0.096 A 
HETATM   12  N7  UNL     1       4.315  10.951  16.412  1.00  0.00    -0.335 N 
ATOM     13  H7  UNL     1       5.127  11.386  16.848  1.00  0.00     0.168 HD
HETATM   14  C9  UNL     1       4.187   9.590  16.472  1.00  0.00     0.158 A 
HETATM   15  N8  UNL     1       5.050   8.761  17.064  1.00  0.00    -0.295 N 
ATOM     16  H8  UNL     1       5.915   8.996  17.551  1.00  0.00     0.177 HD
HETATM   17  S1  UNL     1       4.378   7.241  16.819  1.00  0.00     0.070 SA
HETATM   18  N9  UNL     1       3.006   7.706  15.965  1.00  0.00    -0.295 N 
ATOM     19  H9  UNL     1       2.267   7.112  15.589  1.00  0.00     0.177 HD
HETATM   20  C10 UNL     1       3.113   9.037  15.896  1.00  0.00     0.159 A 
HETATM   21  N10 UNL     1       2.189   9.837  15.271  1.00  0.00    -0.334 N 
ATOM     22  H10 UNL     1       1.375   9.403  14.834  1.00  0.00     0.168 HD
HETATM   23  C11 UNL     1       2.320  11.157  15.218  1.00  0.00     0.109 A 
ENDROOT
BRANCH   1  24
HETATM   24  N2  UNL     1       0.250  11.307  13.982  1.00  0.00    -0.262 N 
HETATM   25  C3  UNL     1      -0.849  12.049  13.399  1.00  0.00     0.164 C 
HETATM   26  C2  UNL     1      -1.903  10.964  13.304  1.00  0.00     0.132 C 
HETATM   27  N1  UNL     1      -1.103   9.765  13.135  1.00  0.00    -0.216 NA
HETATM   28  C1  UNL     1      -1.778   8.582  13.600  1.00  0.00     0.134 C 
HETATM   29  N11 UNL     1       0.050   9.947  13.873  1.00  0.00    -0.045 NA
ENDBRANCH   1  24
BRANCH   7  30
HETATM   30  N5  UNL     1       4.822  16.258  16.183  1.00  0.00    -0.234 N 
ATOM     31  H52 UNL     1       4.529  17.216  15.997  1.00  0.00     0.174 HD
ATOM     32  H51 UNL     1       5.736  16.277  16.636  1.00  0.00     0.174 HD
ENDBRANCH   7  30
TORSDOF 2
ENDMDL
MODEL 3
REMARK VINA RESULT: -4.996844745      2.169      4.734
REMARK  2 active torsions:
REMARK  status: ('A' for Active; 'I' for Inactive)
REMARK    1  A    between atoms: N2_5  and  C4_6 
REMARK    2  A    between atoms: C6_12  and  N5_13 
ROOT
HETATM    1  C4  UNL     1       3.099  11.017  15.737  1.00  0.00     0.151 A 
HETATM    2  N3  UNL     1       3.914  12.030  16.110  1.00  0.00    -0.323 N 
ATOM      3  H3  UNL     1       4.745  11.825  16.665  1.00  0.00     0.169 HD
HETATM    4  C5  UNL     1       3.648  13.303  15.765  1.00  0.00     0.152 A 
HETATM    5  N4  UNL     1       4.261  14.480  15.989  1.00  0.00    -0.174 N 
ATOM      6  H4  UNL     1       5.125  14.609  16.516  1.00  0.00     0.186 HD
HETATM    7  C6  UNL     1       3.551  15.453  15.404  1.00  0.00     0.678 A 
HETATM    8  N6  UNL     1       2.479  14.902  14.803  1.00  0.00    -0.186 N 
ATOM      9  H6  UNL     1       1.759  15.401  14.280  1.00  0.00     0.184 HD
HETATM   10  C7  UNL     1       2.529  13.577  15.019  1.00  0.00     0.122 A 
HETATM   11  C8  UNL     1       1.669  12.569  14.616  1.00  0.00     0.096 A 
HETATM   12  N7  UNL     1       0.571  12.791  13.890  1.00  0.00    -0.335 N 
ATOM     13  H7  UNL     1       0.350  13.748  13.617  1.00  0.00     0.168 HD
HETATM   14  C9  UNL     1      -0.272  11.786  13.497  1.00  0.00     0.158 A 
HETATM   15  N8  UNL     1      -1.380  11.951  12.772  1.00  0.00    -0.295 N 
ATOM     16  H8  UNL     1      -1.769  12.819  12.405  1.00  0.00     0.177 HD
HETATM   17  S1  UNL     1      -1.986  10.392  12.607  1.00  0.00     0.070 SA
HETATM   18  N9  UNL     1      -0.801   9.568  13.471  1.00  0.00    -0.295 N 
ATOM     19  H9  UNL     1      -0.736   8.567  13.652  1.00  0.00     0.177 HD
HETATM   20  C10 UNL     1       0.034  10.535  13.864  1.00  0.00     0.159 A 
HETATM   21  N10 UNL     1       1.161  10.302  14.611  1.00  0.00    -0.334 N 
ATOM     22  H10 UNL     1       1.383   9.345  14.885  1.00  0.00     0.168 HD
HETATM   23  C11 UNL     1       1.974  11.283  14.987  1.00  0.00     0.109 A 
ENDROOT
BRANCH   1  24
HETATM   24  N2  UNL     1       3.387   9.675  16.106  1.00  0.00    -0.262 N 
HETATM   25  C3  UNL     1       4.599   9.289  16.798  1.00  0.00     0.164 C 
HETATM   26  C2  UNL     1       4.591   7.792  16.569  1.00  0.00     0.132 C 
HETATM   27  N1  UNL     1       3.173   7.497  16.476  1.00  0.00    -0.216 NA
HETATM   28  C1  UNL     1       2.905   6.315  15.700  1.00  0.00     0.134 C 
HETATM   29  N11 UNL     1       2.579   8.583  15.865  1.00  0.00    -0.045 NA
ENDBRANCH   1  24
BRANCH   7  30
HETATM   30  N5  UNL     1       3.848  16.715  15.416  1.00  0.00    -0.234 N 
ATOM     31  H52 UNL     1       3.462  17.412  16.052  1.00  0.00     0.174 HD
ATOM     32  H51 UNL     1       4.507  17.175  14.788  1.00  0.00     0.174 HD
ENDBRANCH   7  30
TORSDOF 2
ENDMDL
MODEL 4
REMARK VINA RESULT: -4.691532112      5.757      6.872
REMARK  2 active torsions:
REMARK  status: ('A' for Active; 'I' for Inactive)
REMARK    1  A    between atoms: N2_5  and  C4_6 
REMARK    2  A    between atoms: C6_12  and  N5_13 
ROOT
HETATM    1  C4  UNL     1       1.428   6.505  14.576  1.00  0.00     0.151 A 
HETATM    2  N3  UNL     1       2.047   6.390  15.772  1.00  0.00    -0.323 N 
ATOM      3  H3  UNL     1       1.524   6.581  16.626  1.00  0.00     0.169 HD
HETATM    4  C5  UNL     1       3.341   6.029  15.858  1.00  0.00     0.152 A 
HETATM    5  N4  UNL     1       4.194   5.841  16.882  1.00  0.00    -0.174 N 
ATOM      6  H4  UNL     1       3.969   5.954  17.870  1.00  0.00     0.186 HD
HETATM    7  C6  UNL     1       5.385   5.480  16.388  1.00  0.00     0.678 A 
HETATM    8  N6  UNL     1       5.301   5.437  15.045  1.00  0.00    -0.186 N 
ATOM      9  H6  UNL     1       6.053   5.193  14.401  1.00  0.00     0.184 HD
HETATM   10  C7  UNL     1       4.044   5.773  14.707  1.00  0.00     0.122 A 
HETATM   11  C8  UNL     1       3.448   5.879  13.462  1.00  0.00     0.096 A 
HETATM   12  N7  UNL     1       4.094   5.638  12.318  1.00  0.00    -0.335 N 
ATOM     13  H7  UNL     1       5.075   5.363  12.359  1.00  0.00     0.168 HD
HETATM   14  C9  UNL     1       3.494   5.746  11.093  1.00  0.00     0.158 A 
HETATM   15  N8  UNL     1       4.090   5.518   9.921  1.00  0.00    -0.295 N 
ATOM     16  H8  UNL     1       5.056   5.236   9.750  1.00  0.00     0.177 HD
HETATM   17  S1  UNL     1       2.879   5.803   8.792  1.00  0.00     0.070 SA
HETATM   18  N9  UNL     1       1.637   6.206   9.852  1.00  0.00    -0.295 N 
ATOM     19  H9  UNL     1       0.677   6.466   9.627  1.00  0.00     0.177 HD
HETATM   20  C10 UNL     1       2.205   6.107  11.058  1.00  0.00     0.159 A 
HETATM   21  N10 UNL     1       1.537   6.355  12.230  1.00  0.00    -0.334 N 
ATOM     22  H10 UNL     1       0.555   6.631  12.190  1.00  0.00     0.168 HD
HETATM   23  C11 UNL     1       2.126   6.248  13.415  1.00  0.00     0.109 A 
ENDROOT
BRANCH   1  24
HETATM   24  N2  UNL     1       0.061   6.886  14.494  1.00  0.00    -0.262 N 
HETATM   25  C3  UNL     1      -1.022   6.046  14.960  1.00  0.00     0.164 C 
HETATM   26  C2  UNL     1      -2.204   6.706  14.280  1.00  0.00     0.132 C 
HETATM   27  N1  UNL     1      -1.777   8.090  14.185  1.00  0.00    -0.216 NA
HETATM   28  C1  UNL     1      -2.411   8.789  13.098  1.00  0.00     0.134 C 
HETATM   29  N11 UNL     1      -0.413   8.073  13.976  1.00  0.00    -0.045 NA
ENDBRANCH   1  24
BRANCH   7  30
HETATM   30  N5  UNL     1       6.444   5.217  17.090  1.00  0.00    -0.234 N 
ATOM     31  H52 UNL     1       7.150   5.893  17.378  1.00  0.00     0.174 HD
ATOM     32  H51 UNL     1       6.708   4.298  17.443  1.00  0.00     0.174 HD
ENDBRANCH   7  30
TORSDOF 2
ENDMDL
MODEL 5
REMARK VINA RESULT: -4.690841404      5.329      6.749
REMARK  2 active torsions:
REMARK  status: ('A' for Active; 'I' for Inactive)
REMARK    1  A    between atoms: N2_5  and  C4_6 
REMARK    2  A    between atoms: C6_12  and  N5_13 
ROOT
HETATM    1  C4  UNL     1       0.882   6.633  12.562  1.00  0.00     0.151 A 
HETATM    2  N3  UNL     1       0.977   6.473  11.222  1.00  0.00    -0.323 N 
ATOM      3  H3  UNL     1       0.153   6.621  10.641  1.00  0.00     0.169 HD
HETATM    4  C5  UNL     1       2.140   6.123  10.642  1.00  0.00     0.152 A 
HETATM    5  N4  UNL     1       2.520   5.898   9.371  1.00  0.00    -0.174 N 
ATOM      6  H4  UNL     1       1.919   5.966   8.550  1.00  0.00     0.186 HD
HETATM    7  C6  UNL     1       3.819   5.571   9.362  1.00  0.00     0.678 A 
HETATM    8  N6  UNL     1       4.276   5.585  10.629  1.00  0.00    -0.186 N 
ATOM      9  H6  UNL     1       5.228   5.376  10.928  1.00  0.00     0.184 HD
HETATM   10  C7  UNL     1       3.249   5.924  11.426  1.00  0.00     0.122 A 
HETATM   11  C8  UNL     1       3.193   6.077  12.801  1.00  0.00     0.096 A 
HETATM   12  N7  UNL     1       4.247   5.894  13.601  1.00  0.00    -0.335 N 
ATOM     13  H7  UNL     1       5.138   5.629  13.183  1.00  0.00     0.168 HD
HETATM   14  C9  UNL     1       4.181   6.049  14.960  1.00  0.00     0.158 A 
HETATM   15  N8  UNL     1       5.200   5.880  15.804  1.00  0.00    -0.295 N 
ATOM     16  H8  UNL     1       6.161   5.617  15.587  1.00  0.00     0.177 HD
HETATM   17  S1  UNL     1       4.529   6.201  17.311  1.00  0.00     0.070 SA
HETATM   18  N9  UNL     1       2.958   6.545  16.820  1.00  0.00    -0.295 N 
ATOM     19  H9  UNL     1       2.160   6.804  17.399  1.00  0.00     0.177 HD
HETATM   20  C10 UNL     1       3.003   6.399  15.492  1.00  0.00     0.159 A 
HETATM   21  N10 UNL     1       1.917   6.587  14.674  1.00  0.00    -0.334 N 
ATOM     22  H10 UNL     1       1.025   6.853  15.092  1.00  0.00     0.168 HD
HETATM   23  C11 UNL     1       1.990   6.436  13.357  1.00  0.00     0.109 A 
ENDROOT
BRANCH   1  24
HETATM   24  N2  UNL     1      -0.350   7.003  13.167  1.00  0.00    -0.262 N 
HETATM   25  C3  UNL     1      -1.397   6.050  13.472  1.00  0.00     0.164 C 
HETATM   26  C2  UNL     1      -2.573   6.981  13.687  1.00  0.00     0.132 C 
HETATM   27  N1  UNL     1      -1.931   8.187  14.179  1.00  0.00    -0.216 NA
HETATM   28  C1  UNL     1      -2.701   9.372  13.907  1.00  0.00     0.134 C 
HETATM   29  N11 UNL     1      -0.713   8.281  13.536  1.00  0.00    -0.045 NA
ENDBRANCH   1  24
BRANCH   7  30
HETATM   30  N5  UNL     1       4.518   5.289   8.307  1.00  0.00    -0.234 N 
ATOM     31  H52 UNL     1       4.221   5.426   7.341  1.00  0.00     0.174 HD
ATOM     32  H51 UNL     1       5.458   4.892   8.307  1.00  0.00     0.174 HD
ENDBRANCH   7  30
TORSDOF 2
ENDMDL
