MODEL 1
REMARK VINA RESULT: -7.547212374      0.000      0.000
REMARK  2 active torsions:
REMARK  status: ('A' for Active; 'I' for Inactive)
REMARK    1  A    between atoms: N3_11  and  C6_12 
REMARK    2  A    between atoms: C7_18  and  N6_19 
ROOT
HETATM    1  C1  UNL     1       0.502  11.276  13.879  1.00  0.00     0.071 C 
HETATM    2  C2  UNL     1       1.159  12.615  13.835  1.00  0.00     0.046 A 
HETATM    3  N1  UNL     1       0.908  13.486  12.861  1.00  0.00    -0.193 N 
ATOM      4  H1  UNL     1       0.272  13.339  12.078  1.00  0.00     0.184 HD
HETATM    5  C3  UNL     1       1.641  14.602  13.089  1.00  0.00     0.691 A 
HETATM    6  N2  UNL     1       1.874  15.810  12.550  1.00  0.00    -0.182 N 
ATOM      7  H2  UNL     1       1.468  16.202  11.701  1.00  0.00     0.184 HD
HETATM    8  C4  UNL     1       2.759  16.388  13.373  1.00  0.00     0.164 A 
HETATM    9  C5  UNL     1       3.379  17.623  13.358  1.00  0.00     0.288 A 
HETATM   10  O1  UNL     1       3.107  18.423  12.406  1.00  0.00    -0.265 OA
HETATM   11  N3  UNL     1       4.245  17.976  14.319  1.00  0.00    -0.207 N 
HETATM   12  C8  UNL     1       4.498  17.094  15.300  1.00  0.00     0.350 A 
HETATM   13  O3  UNL     1       5.305  17.413  16.202  1.00  0.00    -0.245 OA
HETATM   14  N7  UNL     1       3.919  15.864  15.371  1.00  0.00    -0.206 N 
HETATM   15  S1  UNL     1       4.383  14.886  16.722  1.00  0.00     0.056 SA
HETATM   16  C9  UNL     1       3.064  15.511  14.427  1.00  0.00     0.179 A 
HETATM   17  N8  UNL     1       2.340  14.395  14.214  1.00  0.00    -0.131 N 
HETATM   18  C10 UNL     1       2.079  13.173  14.722  1.00  0.00     0.055 A 
HETATM   19  C11 UNL     1       2.538  12.435  15.886  1.00  0.00     0.071 C 
ENDROOT
BRANCH  11  20
HETATM   20  C6  UNL     1       4.876  19.240  14.295  1.00  0.00     0.187 A 
HETATM   21  N4  UNL     1       6.067  19.566  13.781  1.00  0.00    -0.221 N 
HETATM   22  O2  UNL     1       6.239  20.842  13.987  1.00  0.00    -0.153 OA
ATOM     23  H4  UNL     1       6.719  18.935  13.315  1.00  0.00     0.198 HD
HETATM   24  N5  UNL     1       5.256  21.387  14.595  1.00  0.00    -0.222 N 
HETATM   25  C7  UNL     1       4.347  20.401  14.819  1.00  0.00     0.168 A 
ATOM     26  H5  UNL     1       5.170  22.368  14.860  1.00  0.00     0.198 HD
BRANCH  25  27
HETATM   27  N6  UNL     1       3.220  20.579  15.415  1.00  0.00    -0.381 N 
ATOM     28  H62 UNL     1       2.706  19.842  15.898  1.00  0.00     0.157 HD
ATOM     29  H61 UNL     1       2.671  21.434  15.506  1.00  0.00     0.157 HD
ENDBRANCH  25  27
ENDBRANCH  11  20
TORSDOF 2
ENDMDL
MODEL 2
REMARK VINA RESULT: -7.525252505      0.691      1.196
REMARK  2 active torsions:
REMARK  status: ('A' for Active; 'I' for Inactive)
REMARK    1  A    between atoms: N3_11  and  C6_12 
REMARK    2  A    between atoms: C7_18  and  N6_19 
ROOT
HETATM    1  C1  UNL     1       0.547  11.198  13.598  1.00  0.00     0.071 C 
HETATM    2  C2  UNL     1       1.181  12.546  13.689  1.00  0.00     0.046 A 
HETATM    3  N1  UNL     1       0.863  13.527  12.849  1.00  0.00    -0.193 N 
ATOM      4  H1  UNL     1       0.187  13.467  12.088  1.00  0.00     0.184 HD
HETATM    5  C3  UNL     1       1.592  14.621  13.177  1.00  0.00     0.691 A 
HETATM    6  N2  UNL     1       1.777  15.892  12.784  1.00  0.00    -0.182 N 
ATOM      7  H2  UNL     1       1.318  16.379  12.015  1.00  0.00     0.184 HD
HETATM    8  C4  UNL     1       2.698  16.380  13.626  1.00  0.00     0.164 A 
HETATM    9  C5  UNL     1       3.298  17.620  13.735  1.00  0.00     0.288 A 
HETATM   10  O1  UNL     1       2.962  18.528  12.908  1.00  0.00    -0.265 OA
HETATM   11  N3  UNL     1       4.211  17.868  14.685  1.00  0.00    -0.207 N 
HETATM   12  C8  UNL     1       4.530  16.875  15.532  1.00  0.00     0.350 A 
HETATM   13  O3  UNL     1       5.381  17.095  16.422  1.00  0.00    -0.245 OA
HETATM   14  N7  UNL     1       3.975  15.634  15.476  1.00  0.00    -0.206 N 
HETATM   15  S1  UNL     1       4.527  14.504  16.666  1.00  0.00     0.056 SA
HETATM   16  C9  UNL     1       3.074  15.384  14.542  1.00  0.00     0.179 A 
HETATM   17  N8  UNL     1       2.356  14.289  14.228  1.00  0.00    -0.131 N 
HETATM   18  C10 UNL     1       2.141  13.007  14.590  1.00  0.00     0.055 A 
HETATM   19  C11 UNL     1       2.674  12.138  15.624  1.00  0.00     0.071 C 
ENDROOT
BRANCH  11  20
HETATM   20  C6  UNL     1       4.821  19.139  14.789  1.00  0.00     0.187 A 
HETATM   21  N4  UNL     1       4.642  20.072  15.731  1.00  0.00    -0.221 N 
HETATM   22  O2  UNL     1       5.408  21.081  15.424  1.00  0.00    -0.153 OA
ATOM     23  H4  UNL     1       4.023  20.006  16.539  1.00  0.00     0.198 HD
HETATM   24  N5  UNL     1       6.081  20.889  14.354  1.00  0.00    -0.222 N 
HETATM   25  C7  UNL     1       5.742  19.652  13.902  1.00  0.00     0.168 A 
ATOM     26  H5  UNL     1       6.741  21.536  13.924  1.00  0.00     0.198 HD
BRANCH  25  27
HETATM   27  N6  UNL     1       6.224  19.115  12.836  1.00  0.00    -0.381 N 
ATOM     28  H62 UNL     1       5.659  18.799  12.048  1.00  0.00     0.157 HD
ATOM     29  H61 UNL     1       7.197  18.920  12.601  1.00  0.00     0.157 HD
ENDBRANCH  25  27
ENDBRANCH  11  20
TORSDOF 2
ENDMDL
MODEL 3
REMARK VINA RESULT: -7.488985513      1.642      2.891
REMARK  2 active torsions:
REMARK  status: ('A' for Active; 'I' for Inactive)
REMARK    1  A    between atoms: N3_11  and  C6_12 
REMARK    2  A    between atoms: C7_18  and  N6_19 
ROOT
HETATM    1  C1  UNL     1       1.766  10.531  15.082  1.00  0.00     0.071 C 
HETATM    2  C2  UNL     1       2.305  11.919  15.181  1.00  0.00     0.046 A 
HETATM    3  N1  UNL     1       3.158  12.272  16.139  1.00  0.00    -0.193 N 
ATOM      4  H1  UNL     1       3.516  11.663  16.874  1.00  0.00     0.184 HD
HETATM    5  C3  UNL     1       3.469  13.580  15.970  1.00  0.00     0.691 A 
HETATM    6  N2  UNL     1       4.222  14.541  16.531  1.00  0.00    -0.182 N 
ATOM      7  H2  UNL     1       4.823  14.461  17.351  1.00  0.00     0.184 HD
HETATM    8  C4  UNL     1       4.009  15.626  15.776  1.00  0.00     0.164 A 
HETATM    9  C5  UNL     1       4.496  16.918  15.843  1.00  0.00     0.288 A 
HETATM   10  O1  UNL     1       5.310  17.210  16.777  1.00  0.00    -0.265 OA
HETATM   11  N3  UNL     1       4.125  17.847  14.949  1.00  0.00    -0.207 N 
HETATM   12  C8  UNL     1       3.262  17.487  13.983  1.00  0.00     0.350 A 
HETATM   13  O3  UNL     1       2.909  18.345  13.144  1.00  0.00    -0.245 OA
HETATM   14  N7  UNL     1       2.749  16.232  13.865  1.00  0.00    -0.206 N 
HETATM   15  S1  UNL     1       1.656  15.983  12.545  1.00  0.00     0.056 SA
HETATM   16  C9  UNL     1       3.111  15.313  14.743  1.00  0.00     0.179 A 
HETATM   17  N8  UNL     1       2.793  14.014  14.897  1.00  0.00    -0.131 N 
HETATM   18  C10 UNL     1       2.050  13.021  14.365  1.00  0.00     0.055 A 
HETATM   19  C11 UNL     1       1.146  12.921  13.233  1.00  0.00     0.071 C 
ENDROOT
BRANCH  11  20
HETATM   20  C6  UNL     1       4.626  19.165  15.024  1.00  0.00     0.187 A 
HETATM   21  N4  UNL     1       4.337  20.115  15.921  1.00  0.00    -0.221 N 
HETATM   22  O2  UNL     1       5.031  21.171  15.602  1.00  0.00    -0.153 OA
ATOM     23  H4  UNL     1       3.693  20.029  16.708  1.00  0.00     0.198 HD
HETATM   24  N5  UNL     1       5.758  20.995  14.565  1.00  0.00    -0.222 N 
HETATM   25  C7  UNL     1       5.537  19.719  14.151  1.00  0.00     0.168 A 
ATOM     26  H5  UNL     1       6.381  21.677  14.134  1.00  0.00     0.198 HD
BRANCH  25  27
HETATM   27  N6  UNL     1       6.102  19.184  13.126  1.00  0.00    -0.381 N 
ATOM     28  H62 UNL     1       5.666  18.474  12.537  1.00  0.00     0.157 HD
ATOM     29  H61 UNL     1       7.030  19.360  12.740  1.00  0.00     0.157 HD
ENDBRANCH  25  27
ENDBRANCH  11  20
TORSDOF 2
ENDMDL
MODEL 4
REMARK VINA RESULT: -7.286273722      1.697      2.787
REMARK  2 active torsions:
REMARK  status: ('A' for Active; 'I' for Inactive)
REMARK    1  A    between atoms: N3_11  and  C6_12 
REMARK    2  A    between atoms: C7_18  and  N6_19 
ROOT
HETATM    1  C1  UNL     1       1.968  10.091  15.409  1.00  0.00     0.071 C 
HETATM    2  C2  UNL     1       2.452  11.502  15.434  1.00  0.00     0.046 A 
HETATM    3  N1  UNL     1       3.304  11.935  16.359  1.00  0.00    -0.193 N 
ATOM      4  H1  UNL     1       3.697  11.377  17.116  1.00  0.00     0.184 HD
HETATM    5  C3  UNL     1       3.559  13.244  16.124  1.00  0.00     0.691 A 
HETATM    6  N2  UNL     1       4.280  14.261  16.626  1.00  0.00    -0.182 N 
ATOM      7  H2  UNL     1       4.896  14.245  17.439  1.00  0.00     0.184 HD
HETATM    8  C4  UNL     1       4.013  15.299  15.824  1.00  0.00     0.164 A 
HETATM    9  C5  UNL     1       4.447  16.611  15.822  1.00  0.00     0.288 A 
HETATM   10  O1  UNL     1       5.262  16.980  16.727  1.00  0.00    -0.265 OA
HETATM   11  N3  UNL     1       4.026  17.480  14.891  1.00  0.00    -0.207 N 
HETATM   12  C8  UNL     1       3.165  17.040  13.957  1.00  0.00     0.350 A 
HETATM   13  O3  UNL     1       2.764  17.842  13.084  1.00  0.00    -0.245 OA
HETATM   14  N7  UNL     1       2.701  15.762  13.907  1.00  0.00    -0.206 N 
HETATM   15  S1  UNL     1       1.600  15.406  12.619  1.00  0.00     0.056 SA
HETATM   16  C9  UNL     1       3.113  14.902  14.822  1.00  0.00     0.179 A 
HETATM   17  N8  UNL     1       2.850  13.599  15.043  1.00  0.00    -0.131 N 
HETATM   18  C10 UNL     1       2.141  12.553  14.570  1.00  0.00     0.055 A 
HETATM   19  C11 UNL     1       1.225  12.363  13.460  1.00  0.00     0.071 C 
ENDROOT
BRANCH  11  20
HETATM   20  C6  UNL     1       4.474  18.820  14.895  1.00  0.00     0.187 A 
HETATM   21  N4  UNL     1       5.728  19.277  14.797  1.00  0.00    -0.221 N 
HETATM   22  O2  UNL     1       5.667  20.579  14.846  1.00  0.00    -0.153 OA
ATOM     23  H4  UNL     1       6.572  18.714  14.702  1.00  0.00     0.198 HD
HETATM   24  N5  UNL     1       4.474  21.019  14.968  1.00  0.00    -0.222 N 
HETATM   25  C7  UNL     1       3.662  19.928  15.004  1.00  0.00     0.168 A 
ATOM     26  H5  UNL     1       4.186  21.995  15.026  1.00  0.00     0.198 HD
BRANCH  25  27
HETATM   27  N6  UNL     1       2.382  19.984  15.121  1.00  0.00    -0.381 N 
ATOM     28  H62 UNL     1       1.885  20.705  15.645  1.00  0.00     0.157 HD
ATOM     29  H61 UNL     1       1.675  19.357  14.736  1.00  0.00     0.157 HD
ENDBRANCH  25  27
ENDBRANCH  11  20
TORSDOF 2
ENDMDL
MODEL 5
REMARK VINA RESULT: -6.817651226      2.119      3.403
REMARK  2 active torsions:
REMARK  status: ('A' for Active; 'I' for Inactive)
REMARK    1  A    between atoms: N3_11  and  C6_12 
REMARK    2  A    between atoms: C7_18  and  N6_19 
ROOT
HETATM    1  C1  UNL     1       2.774   9.320  16.232  1.00  0.00     0.071 C 
HETATM    2  C2  UNL     1       2.956  10.794  16.083  1.00  0.00     0.046 A 
HETATM    3  N1  UNL     1       3.738  11.490  16.904  1.00  0.00    -0.193 N 
ATOM      4  H1  UNL     1       4.269  11.111  17.687  1.00  0.00     0.184 HD
HETATM    5  C3  UNL     1       3.707  12.789  16.521  1.00  0.00     0.691 A 
HETATM    6  N2  UNL     1       4.223  13.979  16.871  1.00  0.00    -0.182 N 
ATOM      7  H2  UNL     1       4.862  14.179  17.640  1.00  0.00     0.184 HD
HETATM    8  C4  UNL     1       3.713  14.847  15.987  1.00  0.00     0.164 A 
HETATM    9  C5  UNL     1       3.867  16.210  15.824  1.00  0.00     0.288 A 
HETATM   10  O1  UNL     1       4.625  16.834  16.634  1.00  0.00    -0.265 OA
HETATM   11  N3  UNL     1       3.237  16.867  14.838  1.00  0.00    -0.207 N 
HETATM   12  C8  UNL     1       2.447  16.161  14.011  1.00  0.00     0.350 A 
HETATM   13  O3  UNL     1       1.854  16.763  13.088  1.00  0.00    -0.245 OA
HETATM   14  N7  UNL     1       2.256  14.818  14.119  1.00  0.00    -0.206 N 
HETATM   15  S1  UNL     1       1.201  14.106  12.946  1.00  0.00     0.056 SA
HETATM   16  C9  UNL     1       2.875  14.166  15.089  1.00  0.00     0.179 A 
HETATM   17  N8  UNL     1       2.896  12.871  15.457  1.00  0.00    -0.131 N 
HETATM   18  C10 UNL     1       2.399  11.657  15.139  1.00  0.00     0.055 A 
HETATM   19  C11 UNL     1       1.498  11.163  14.113  1.00  0.00     0.071 C 
ENDROOT
BRANCH  11  20
HETATM   20  C6  UNL     1       3.398  18.261  14.679  1.00  0.00     0.187 A 
HETATM   21  N4  UNL     1       2.617  19.247  15.136  1.00  0.00    -0.221 N 
HETATM   22  O2  UNL     1       3.151  20.371  14.750  1.00  0.00    -0.153 OA
ATOM     23  H4  UNL     1       1.764  19.138  15.684  1.00  0.00     0.198 HD
HETATM   24  N5  UNL     1       4.224  20.209  14.075  1.00  0.00    -0.222 N 
HETATM   25  C7  UNL     1       4.432  18.868  13.998  1.00  0.00     0.168 A 
ATOM     26  H5  UNL     1       4.809  20.941  13.673  1.00  0.00     0.198 HD
BRANCH  25  27
HETATM   27  N6  UNL     1       5.427  18.324  13.387  1.00  0.00    -0.381 N 
ATOM     28  H62 UNL     1       6.210  17.872  13.859  1.00  0.00     0.157 HD
ATOM     29  H61 UNL     1       5.601  18.252  12.385  1.00  0.00     0.157 HD
ENDBRANCH  25  27
ENDBRANCH  11  20
TORSDOF 2
ENDMDL
