MODEL 1
REMARK VINA RESULT: -8.758494659      0.000      0.000
REMARK  12 active torsions:
REMARK  status: ('A' for Active; 'I' for Inactive)
REMARK    1  A    between atoms: N1_1  and  C1_4 
REMARK    2  A    between atoms: N4_9  and  C2_10 
REMARK    3  A    between atoms: C2_10  and  C3_11 
REMARK    4  A    between atoms: C3_11  and  O1_12 
REMARK    5  A    between atoms: O1_12  and  C4_13 
REMARK    6  A    between atoms: N5_15  and  C6_16 
REMARK    7  A    between atoms: C6_16  and  C7_17 
REMARK    8  A    between atoms: C7_17  and  C8_18 
REMARK    9  A    between atoms: C8_18  and  C9_19 
REMARK   10  A    between atoms: C13_23  and  O2_24 
REMARK   11  A    between atoms: C15_31  and  N8_32 
REMARK   12  A    between atoms: C16_35  and  N9_36 
ROOT
HETATM    1  C2  UNL     1      28.374   4.817 -25.967  1.00  0.00     0.179 C 
ENDROOT
BRANCH   1   2
HETATM    2  N4  UNL     1      28.358   3.435 -25.564  1.00  0.00    -0.257 N 
HETATM    3  N3  UNL     1      29.545   2.831 -25.610  1.00  0.00    -0.225 N 
HETATM    4  N2  UNL     1      29.998   1.765 -24.931  1.00  0.00    -0.118 N 
ATOM      5  H3  UNL     1      30.212   3.242 -26.263  1.00  0.00     0.209 HD
HETATM    6  C1  UNL     1      29.304   0.627 -24.703  1.00  0.00     0.693 C 
ATOM      7  H2  UNL     1      30.945   1.819 -24.555  1.00  0.00     0.207 HD
HETATM    8  N10 UNL     1      27.967   0.541 -24.606  1.00  0.00    -0.172 N 
HETATM    9  C16 UNL     1      27.050   1.489 -24.832  1.00  0.00     0.160 C 
ATOM     10  H10 UNL     1      27.602  -0.369 -24.322  1.00  0.00     0.186 HD
HETATM   11  C15 UNL     1      27.213   2.848 -25.179  1.00  0.00     0.162 C 
BRANCH   6  12
HETATM   12  N1  UNL     1      29.973  -0.481 -24.565  1.00  0.00    -0.233 N 
ATOM     13  H12 UNL     1      29.439  -1.304 -24.282  1.00  0.00     0.174 HD
ATOM     14  H11 UNL     1      30.977  -0.463 -24.745  1.00  0.00     0.174 HD
ENDBRANCH   6  12
BRANCH   9  15
HETATM   15  N9  UNL     1      25.803   1.156 -24.728  1.00  0.00    -0.382 N 
ATOM     16  H92 UNL     1      25.316   0.875 -25.579  1.00  0.00     0.157 HD
ATOM     17  H91 UNL     1      25.464   1.223 -23.769  1.00  0.00     0.157 HD
ENDBRANCH   9  15
BRANCH  11  18
HETATM   18  N8  UNL     1      26.184   3.567 -25.125  1.00  0.00    -0.381 N 
ATOM     19  H82 UNL     1      26.325   4.572 -25.232  1.00  0.00     0.157 HD
ATOM     20  H81 UNL     1      25.290   3.098 -24.976  1.00  0.00     0.157 HD
ENDBRANCH  11  18
ENDBRANCH   1   2
BRANCH   1  21
HETATM   21  C3  UNL     1      28.620   5.024 -27.453  1.00  0.00     0.199 C 
BRANCH  21  22
HETATM   22  O1  UNL     1      28.476   4.008 -28.243  1.00  0.00    -0.332 OA
BRANCH  22  23
HETATM   23  C4  UNL     1      28.334   3.004 -29.025  1.00  0.00     0.175 A 
HETATM   24  C5  UNL     1      28.598   2.888 -30.400  1.00  0.00     0.169 A 
HETATM   25  N5  UNL     1      28.300   1.657 -30.801  1.00  0.00    -0.281 N 
HETATM   26  N6  UNL     1      27.865   0.988 -29.765  1.00  0.00    -0.239 N 
HETATM   27  N7  UNL     1      27.870   1.751 -28.700  1.00  0.00    -0.264 N 
ATOM     28  H6  UNL     1      27.564   0.014 -29.783  1.00  0.00     0.208 HD
ATOM     29  H7  UNL     1      27.576   1.459 -27.768  1.00  0.00     0.190 HD
BRANCH  25  30
HETATM   30  C6  UNL     1      28.450   1.150 -32.207  1.00  0.00     0.177 C 
BRANCH  30  31
HETATM   31  C7  UNL     1      29.836   1.271 -32.605  1.00  0.00    -0.004 C 
BRANCH  31  32
HETATM   32  C8  UNL     1      30.900   0.784 -32.100  1.00  0.00     0.009 C 
BRANCH  32  33
HETATM   33  C9  UNL     1      31.697   1.232 -30.988  1.00  0.00    -0.034 A 
HETATM   34  C10 UNL     1      32.829   2.039 -31.260  1.00  0.00     0.011 A 
HETATM   35  C11 UNL     1      33.633   2.601 -30.328  1.00  0.00     0.004 A 
HETATM   36  C12 UNL     1      33.332   2.373 -29.002  1.00  0.00     0.036 A 
HETATM   37  C13 UNL     1      32.247   1.600 -28.666  1.00  0.00     0.066 A 
HETATM   38  C14 UNL     1      31.446   1.042 -29.659  1.00  0.00     0.047 A 
BRANCH  37  39
HETATM   39  O2  UNL     1      31.966   1.385 -27.325  1.00  0.00    -0.361 OA
ATOM     40  H2  UNL     1      31.176   0.913 -27.091  1.00  0.00     0.217 HD
ENDBRANCH  37  39
ENDBRANCH  32  33
ENDBRANCH  31  32
ENDBRANCH  30  31
ENDBRANCH  25  30
ENDBRANCH  22  23
ENDBRANCH  21  22
ENDBRANCH   1  21
TORSDOF 12
ENDMDL
MODEL 2
REMARK VINA RESULT: -8.630804480      0.921      2.214
REMARK  12 active torsions:
REMARK  status: ('A' for Active; 'I' for Inactive)
REMARK    1  A    between atoms: N1_1  and  C1_4 
REMARK    2  A    between atoms: N4_9  and  C2_10 
REMARK    3  A    between atoms: C2_10  and  C3_11 
REMARK    4  A    between atoms: C3_11  and  O1_12 
REMARK    5  A    between atoms: O1_12  and  C4_13 
REMARK    6  A    between atoms: N5_15  and  C6_16 
REMARK    7  A    between atoms: C6_16  and  C7_17 
REMARK    8  A    between atoms: C7_17  and  C8_18 
REMARK    9  A    between atoms: C8_18  and  C9_19 
REMARK   10  A    between atoms: C13_23  and  O2_24 
REMARK   11  A    between atoms: C15_31  and  N8_32 
REMARK   12  A    between atoms: C16_35  and  N9_36 
ROOT
HETATM    1  C2  UNL     1      28.970   4.223 -25.769  1.00  0.00     0.179 C 
ENDROOT
BRANCH   1   2
HETATM    2  N4  UNL     1      27.837   3.417 -25.399  1.00  0.00    -0.257 N 
HETATM    3  N3  UNL     1      26.707   4.100 -25.216  1.00  0.00    -0.225 N 
HETATM    4  N2  UNL     1      25.430   3.697 -25.307  1.00  0.00    -0.118 N 
ATOM      5  H3  UNL     1      26.833   5.081 -24.968  1.00  0.00     0.209 HD
HETATM    6  C1  UNL     1      24.937   2.537 -24.818  1.00  0.00     0.693 C 
ATOM      7  H2  UNL     1      24.777   4.318 -25.786  1.00  0.00     0.207 HD
HETATM    8  N10 UNL     1      25.636   1.399 -24.668  1.00  0.00    -0.172 N 
HETATM    9  C16 UNL     1      26.949   1.197 -24.835  1.00  0.00     0.160 C 
ATOM     10  H10 UNL     1      25.094   0.581 -24.390  1.00  0.00     0.186 HD
HETATM   11  C15 UNL     1      27.959   2.086 -25.261  1.00  0.00     0.162 C 
BRANCH   6  12
HETATM   12  N1  UNL     1      23.686   2.505 -24.459  1.00  0.00    -0.233 N 
ATOM     13  H12 UNL     1      23.229   3.405 -24.315  1.00  0.00     0.174 HD
ATOM     14  H11 UNL     1      23.241   1.593 -24.345  1.00  0.00     0.174 HD
ENDBRANCH   6  12
BRANCH   9  15
HETATM   15  N9  UNL     1      27.413   0.016 -24.575  1.00  0.00    -0.382 N 
ATOM     16  H92 UNL     1      28.076  -0.073 -23.807  1.00  0.00     0.157 HD
ATOM     17  H91 UNL     1      27.034  -0.693 -25.203  1.00  0.00     0.157 HD
ENDBRANCH   9  15
BRANCH  11  18
HETATM   18  N8  UNL     1      29.075   1.577 -25.531  1.00  0.00    -0.381 N 
ATOM     19  H82 UNL     1      29.118   0.990 -26.364  1.00  0.00     0.157 HD
ATOM     20  H81 UNL     1      29.850   1.783 -24.900  1.00  0.00     0.157 HD
ENDBRANCH  11  18
ENDBRANCH   1   2
BRANCH   1  21
HETATM   21  C3  UNL     1      28.997   4.613 -27.239  1.00  0.00     0.199 C 
BRANCH  21  22
HETATM   22  O1  UNL     1      28.842   3.678 -28.122  1.00  0.00    -0.332 OA
BRANCH  22  23
HETATM   23  C4  UNL     1      28.690   2.753 -28.995  1.00  0.00     0.175 A 
HETATM   24  C5  UNL     1      29.022   2.740 -30.360  1.00  0.00     0.169 A 
HETATM   25  N5  UNL     1      28.683   1.566 -30.881  1.00  0.00    -0.281 N 
HETATM   26  N6  UNL     1      28.159   0.837 -29.930  1.00  0.00    -0.239 N 
HETATM   27  N7  UNL     1      28.146   1.505 -28.804  1.00  0.00    -0.264 N 
ATOM     28  H6  UNL     1      27.810  -0.114 -30.048  1.00  0.00     0.208 HD
ATOM     29  H7  UNL     1      27.787   1.152 -27.917  1.00  0.00     0.190 HD
BRANCH  25  30
HETATM   30  C6  UNL     1      28.882   1.172 -32.317  1.00  0.00     0.177 C 
BRANCH  30  31
HETATM   31  C7  UNL     1      30.257   1.428 -32.688  1.00  0.00    -0.004 C 
BRANCH  31  32
HETATM   32  C8  UNL     1      31.346   0.896 -32.292  1.00  0.00     0.009 C 
BRANCH  32  33
HETATM   33  C9  UNL     1      32.263   1.300 -31.259  1.00  0.00    -0.034 A 
HETATM   34  C10 UNL     1      33.383   2.083 -31.628  1.00  0.00     0.011 A 
HETATM   35  C11 UNL     1      34.291   2.605 -30.771  1.00  0.00     0.004 A 
HETATM   36  C12 UNL     1      34.119   2.357 -29.426  1.00  0.00     0.036 A 
HETATM   37  C13 UNL     1      33.052   1.604 -28.997  1.00  0.00     0.066 A 
HETATM   38  C14 UNL     1      32.140   1.088 -29.914  1.00  0.00     0.047 A 
BRANCH  37  39
HETATM   39  O2  UNL     1      32.901   1.368 -27.638  1.00  0.00    -0.361 OA
ATOM     40  H2  UNL     1      32.189   1.793 -27.174  1.00  0.00     0.217 HD
ENDBRANCH  37  39
ENDBRANCH  32  33
ENDBRANCH  31  32
ENDBRANCH  30  31
ENDBRANCH  25  30
ENDBRANCH  22  23
ENDBRANCH  21  22
ENDBRANCH   1  21
TORSDOF 12
ENDMDL
MODEL 3
REMARK VINA RESULT: -8.550743450      4.876      7.316
REMARK  12 active torsions:
REMARK  status: ('A' for Active; 'I' for Inactive)
REMARK    1  A    between atoms: N1_1  and  C1_4 
REMARK    2  A    between atoms: N4_9  and  C2_10 
REMARK    3  A    between atoms: C2_10  and  C3_11 
REMARK    4  A    between atoms: C3_11  and  O1_12 
REMARK    5  A    between atoms: O1_12  and  C4_13 
REMARK    6  A    between atoms: N5_15  and  C6_16 
REMARK    7  A    between atoms: C6_16  and  C7_17 
REMARK    8  A    between atoms: C7_17  and  C8_18 
REMARK    9  A    between atoms: C8_18  and  C9_19 
REMARK   10  A    between atoms: C13_23  and  O2_24 
REMARK   11  A    between atoms: C15_31  and  N8_32 
REMARK   12  A    between atoms: C16_35  and  N9_36 
ROOT
HETATM    1  C2  UNL     1      22.257   5.317 -26.990  1.00  0.00     0.179 C 
ENDROOT
BRANCH   1   2
HETATM    2  N4  UNL     1      22.248   6.704 -27.375  1.00  0.00    -0.257 N 
HETATM    3  N3  UNL     1      23.005   7.495 -26.615  1.00  0.00    -0.225 N 
HETATM    4  N2  UNL     1      23.582   8.673 -26.901  1.00  0.00    -0.118 N 
ATOM      5  H3  UNL     1      23.173   7.151 -25.670  1.00  0.00     0.209 HD
HETATM    6  C1  UNL     1      22.995   9.692 -27.568  1.00  0.00     0.693 C 
ATOM      7  H2  UNL     1      24.544   8.811 -26.590  1.00  0.00     0.207 HD
HETATM    8  N10 UNL     1      22.030   9.559 -28.494  1.00  0.00    -0.172 N 
HETATM    9  C16 UNL     1      21.367   8.454 -28.857  1.00  0.00     0.160 C 
ATOM     10  H10 UNL     1      21.768  10.414 -28.986  1.00  0.00     0.186 HD
HETATM   11  C15 UNL     1      21.518   7.119 -28.424  1.00  0.00     0.162 C 
BRANCH   6  12
HETATM   12  N1  UNL     1      23.385  10.905 -27.302  1.00  0.00    -0.233 N 
ATOM     13  H12 UNL     1      22.874  11.399 -26.570  1.00  0.00     0.174 HD
ATOM     14  H11 UNL     1      24.169  11.286 -27.834  1.00  0.00     0.174 HD
ENDBRANCH   6  12
BRANCH   9  15
HETATM   15  N9  UNL     1      20.430   8.579 -29.741  1.00  0.00    -0.382 N 
ATOM     16  H92 UNL     1      20.529   8.059 -30.613  1.00  0.00     0.157 HD
ATOM     17  H91 UNL     1      19.688   9.208 -29.432  1.00  0.00     0.157 HD
ENDBRANCH   9  15
BRANCH  11  18
HETATM   18  N8  UNL     1      20.905   6.243 -29.084  1.00  0.00    -0.381 N 
ATOM     19  H82 UNL     1      21.461   5.699 -29.744  1.00  0.00     0.157 HD
ATOM     20  H81 UNL     1      19.903   6.144 -28.916  1.00  0.00     0.157 HD
ENDBRANCH  11  18
ENDBRANCH   1   2
BRANCH   1  21
HETATM   21  C3  UNL     1      22.654   5.081 -25.542  1.00  0.00     0.199 C 
BRANCH  21  22
HETATM   22  O1  UNL     1      23.616   4.249 -25.299  1.00  0.00    -0.332 OA
BRANCH  22  23
HETATM   23  C4  UNL     1      24.568   3.426 -25.060  1.00  0.00     0.175 A 
HETATM   24  C5  UNL     1      25.955   3.641 -25.013  1.00  0.00     0.169 A 
HETATM   25  N5  UNL     1      26.566   2.496 -24.728  1.00  0.00    -0.281 N 
HETATM   26  N6  UNL     1      25.652   1.572 -24.592  1.00  0.00    -0.239 N 
HETATM   27  N7  UNL     1      24.461   2.084 -24.781  1.00  0.00    -0.264 N 
ATOM     28  H6  UNL     1      25.838   0.594 -24.371  1.00  0.00     0.208 HD
ATOM     29  H7  UNL     1      23.585   1.564 -24.729  1.00  0.00     0.190 HD
BRANCH  25  30
HETATM   30  C6  UNL     1      28.052   2.326 -24.591  1.00  0.00     0.177 C 
BRANCH  30  31
HETATM   31  C7  UNL     1      28.624   2.100 -25.901  1.00  0.00    -0.004 C 
BRANCH  31  32
HETATM   32  C8  UNL     1      28.723   2.866 -26.916  1.00  0.00     0.009 C 
BRANCH  32  33
HETATM   33  C9  UNL     1      29.018   2.562 -28.292  1.00  0.00    -0.034 A 
HETATM   34  C10 UNL     1      28.249   3.198 -29.297  1.00  0.00     0.011 A 
HETATM   35  C11 UNL     1      28.449   3.080 -30.630  1.00  0.00     0.004 A 
HETATM   36  C12 UNL     1      29.486   2.276 -31.052  1.00  0.00     0.036 A 
HETATM   37  C13 UNL     1      30.274   1.628 -30.131  1.00  0.00     0.066 A 
HETATM   38  C14 UNL     1      30.033   1.780 -28.768  1.00  0.00     0.047 A 
BRANCH  37  39
HETATM   39  O2  UNL     1      31.310   0.824 -30.581  1.00  0.00    -0.361 OA
ATOM     40  H2  UNL     1      31.686   0.995 -31.437  1.00  0.00     0.217 HD
ENDBRANCH  37  39
ENDBRANCH  32  33
ENDBRANCH  31  32
ENDBRANCH  30  31
ENDBRANCH  25  30
ENDBRANCH  22  23
ENDBRANCH  21  22
ENDBRANCH   1  21
TORSDOF 12
ENDMDL
MODEL 4
REMARK VINA RESULT: -8.544609712      1.524      2.704
REMARK  12 active torsions:
REMARK  status: ('A' for Active; 'I' for Inactive)
REMARK    1  A    between atoms: N1_1  and  C1_4 
REMARK    2  A    between atoms: N4_9  and  C2_10 
REMARK    3  A    between atoms: C2_10  and  C3_11 
REMARK    4  A    between atoms: C3_11  and  O1_12 
REMARK    5  A    between atoms: O1_12  and  C4_13 
REMARK    6  A    between atoms: N5_15  and  C6_16 
REMARK    7  A    between atoms: C6_16  and  C7_17 
REMARK    8  A    between atoms: C7_17  and  C8_18 
REMARK    9  A    between atoms: C8_18  and  C9_19 
REMARK   10  A    between atoms: C13_23  and  O2_24 
REMARK   11  A    between atoms: C15_31  and  N8_32 
REMARK   12  A    between atoms: C16_35  and  N9_36 
ROOT
HETATM    1  C2  UNL     1      28.881   4.264 -25.722  1.00  0.00     0.179 C 
ENDROOT
BRANCH   1   2
HETATM    2  N4  UNL     1      27.762   3.431 -25.366  1.00  0.00    -0.257 N 
HETATM    3  N3  UNL     1      26.616   4.089 -25.192  1.00  0.00    -0.225 N 
HETATM    4  N2  UNL     1      25.348   3.659 -25.298  1.00  0.00    -0.118 N 
ATOM      5  H3  UNL     1      26.718   5.072 -24.938  1.00  0.00     0.209 HD
HETATM    6  C1  UNL     1      24.876   2.486 -24.819  1.00  0.00     0.693 C 
ATOM      7  H2  UNL     1      24.687   4.268 -25.781  1.00  0.00     0.207 HD
HETATM    8  N10 UNL     1      25.597   1.364 -24.667  1.00  0.00    -0.172 N 
HETATM    9  C16 UNL     1      26.916   1.191 -24.821  1.00  0.00     0.160 C 
ATOM     10  H10 UNL     1      25.071   0.532 -24.398  1.00  0.00     0.186 HD
HETATM   11  C15 UNL     1      27.911   2.103 -25.234  1.00  0.00     0.162 C 
BRANCH   6  12
HETATM   12  N1  UNL     1      23.622   2.426 -24.473  1.00  0.00    -0.233 N 
ATOM     13  H12 UNL     1      23.357   2.929 -23.626  1.00  0.00     0.174 HD
ATOM     14  H11 UNL     1      22.986   1.886 -25.061  1.00  0.00     0.174 HD
ENDBRANCH   6  12
BRANCH   9  15
HETATM   15  N9  UNL     1      27.403   0.019 -24.562  1.00  0.00    -0.382 N 
ATOM     16  H92 UNL     1      28.404  -0.118 -24.696  1.00  0.00     0.157 HD
ATOM     17  H91 UNL     1      26.686  -0.636 -24.247  1.00  0.00     0.157 HD
ENDBRANCH   9  15
BRANCH  11  18
HETATM   18  N8  UNL     1      29.041   1.619 -25.494  1.00  0.00    -0.381 N 
ATOM     19  H82 UNL     1      29.058   0.821 -26.130  1.00  0.00     0.157 HD
ATOM     20  H81 UNL     1      29.851   2.053 -25.052  1.00  0.00     0.157 HD
ENDBRANCH  11  18
ENDBRANCH   1   2
BRANCH   1  21
HETATM   21  C3  UNL     1      28.917   4.656 -27.191  1.00  0.00     0.199 C 
BRANCH  21  22
HETATM   22  O1  UNL     1      28.832   3.716 -28.077  1.00  0.00    -0.332 OA
BRANCH  22  23
HETATM   23  C4  UNL     1      28.747   2.786 -28.953  1.00  0.00     0.175 A 
HETATM   24  C5  UNL     1      29.156   2.774 -30.297  1.00  0.00     0.169 A 
HETATM   25  N5  UNL     1      28.870   1.592 -30.831  1.00  0.00    -0.281 N 
HETATM   26  N6  UNL     1      28.307   0.856 -29.909  1.00  0.00    -0.239 N 
HETATM   27  N7  UNL     1      28.218   1.528 -28.788  1.00  0.00    -0.264 N 
ATOM     28  H6  UNL     1      27.984  -0.102 -30.042  1.00  0.00     0.208 HD
ATOM     29  H7  UNL     1      27.815   1.170 -27.921  1.00  0.00     0.190 HD
BRANCH  25  30
HETATM   30  C6  UNL     1      29.158   1.197 -32.252  1.00  0.00     0.177 C 
BRANCH  30  31
HETATM   31  C7  UNL     1      30.544   1.489 -32.549  1.00  0.00    -0.004 C 
BRANCH  31  32
HETATM   32  C8  UNL     1      31.621   1.120 -31.975  1.00  0.00     0.009 C 
BRANCH  32  33
HETATM   33  C9  UNL     1      32.638   1.891 -31.309  1.00  0.00    -0.034 A 
HETATM   34  C10 UNL     1      32.337   2.440 -30.038  1.00  0.00     0.011 A 
HETATM   35  C11 UNL     1      33.203   3.120 -29.252  1.00  0.00     0.004 A 
HETATM   36  C12 UNL     1      34.487   3.298 -29.721  1.00  0.00     0.036 A 
HETATM   37  C13 UNL     1      34.849   2.792 -30.946  1.00  0.00     0.066 A 
HETATM   38  C14 UNL     1      33.924   2.096 -31.721  1.00  0.00     0.047 A 
BRANCH  37  39
HETATM   39  O2  UNL     1      36.147   2.986 -31.395  1.00  0.00    -0.361 OA
ATOM     40  H2  UNL     1      36.495   2.403 -32.060  1.00  0.00     0.217 HD
ENDBRANCH  37  39
ENDBRANCH  32  33
ENDBRANCH  31  32
ENDBRANCH  30  31
ENDBRANCH  25  30
ENDBRANCH  22  23
ENDBRANCH  21  22
ENDBRANCH   1  21
TORSDOF 12
ENDMDL
MODEL 5
REMARK VINA RESULT: -8.478006493      4.163      8.385
REMARK  12 active torsions:
REMARK  status: ('A' for Active; 'I' for Inactive)
REMARK    1  A    between atoms: N1_1  and  C1_4 
REMARK    2  A    between atoms: N4_9  and  C2_10 
REMARK    3  A    between atoms: C2_10  and  C3_11 
REMARK    4  A    between atoms: C3_11  and  O1_12 
REMARK    5  A    between atoms: O1_12  and  C4_13 
REMARK    6  A    between atoms: N5_15  and  C6_16 
REMARK    7  A    between atoms: C6_16  and  C7_17 
REMARK    8  A    between atoms: C7_17  and  C8_18 
REMARK    9  A    between atoms: C8_18  and  C9_19 
REMARK   10  A    between atoms: C13_23  and  O2_24 
REMARK   11  A    between atoms: C15_31  and  N8_32 
REMARK   12  A    between atoms: C16_35  and  N9_36 
ROOT
HETATM    1  C2  UNL     1      30.318   1.577 -26.959  1.00  0.00     0.179 C 
ENDROOT
BRANCH   1   2
HETATM    2  N4  UNL     1      30.114   1.357 -28.367  1.00  0.00    -0.257 N 
HETATM    3  N3  UNL     1      28.844   1.158 -28.719  1.00  0.00    -0.225 N 
HETATM    4  N2  UNL     1      28.233   1.359 -29.897  1.00  0.00    -0.118 N 
ATOM      5  H3  UNL     1      28.244   0.797 -27.978  1.00  0.00     0.209 HD
HETATM    6  C1  UNL     1      28.735   1.028 -31.108  1.00  0.00     0.693 C 
ATOM      7  H2  UNL     1      27.312   1.800 -29.877  1.00  0.00     0.207 HD
HETATM    8  N10 UNL     1      30.041   0.969 -31.416  1.00  0.00    -0.172 N 
HETATM    9  C16 UNL     1      31.098   1.089 -30.602  1.00  0.00     0.160 C 
ATOM     10  H10 UNL     1      30.257   0.812 -32.401  1.00  0.00     0.186 HD
HETATM   11  C15 UNL     1      31.153   1.362 -29.218  1.00  0.00     0.162 C 
BRANCH   6  12
HETATM   12  N1  UNL     1      27.897   0.740 -32.062  1.00  0.00    -0.233 N 
ATOM     13  H12 UNL     1      27.593  -0.231 -32.125  1.00  0.00     0.174 HD
ATOM     14  H11 UNL     1      27.598   1.493 -32.682  1.00  0.00     0.174 HD
ENDBRANCH   6  12
BRANCH   9  15
HETATM   15  N9  UNL     1      32.275   0.938 -31.120  1.00  0.00    -0.382 N 
ATOM     16  H92 UNL     1      32.350   0.381 -31.971  1.00  0.00     0.157 HD
ATOM     17  H91 UNL     1      32.997   1.419 -30.583  1.00  0.00     0.157 HD
ENDBRANCH   9  15
BRANCH  11  18
HETATM   18  N8  UNL     1      32.287   1.628 -28.745  1.00  0.00    -0.381 N 
ATOM     19  H82 UNL     1      33.038   1.776 -29.420  1.00  0.00     0.157 HD
ATOM     20  H81 UNL     1      32.373   1.672 -27.730  1.00  0.00     0.157 HD
ENDBRANCH  11  18
ENDBRANCH   1   2
BRANCH   1  21
HETATM   21  C3  UNL     1      29.588   2.794 -26.413  1.00  0.00     0.199 C 
BRANCH  21  22
HETATM   22  O1  UNL     1      28.394   2.630 -25.942  1.00  0.00    -0.332 OA
BRANCH  22  23
HETATM   23  C4  UNL     1      27.212   2.468 -25.476  1.00  0.00     0.175 A 
HETATM   24  C5  UNL     1      26.271   3.423 -25.054  1.00  0.00     0.169 A 
HETATM   25  N5  UNL     1      25.172   2.801 -24.642  1.00  0.00    -0.281 N 
HETATM   26  N6  UNL     1      25.359   1.514 -24.777  1.00  0.00    -0.239 N 
HETATM   27  N7  UNL     1      26.551   1.281 -25.266  1.00  0.00    -0.264 N 
ATOM     28  H6  UNL     1      24.676   0.796 -24.537  1.00  0.00     0.208 HD
ATOM     29  H7  UNL     1      26.933   0.355 -25.463  1.00  0.00     0.190 HD
BRANCH  25  30
HETATM   30  C6  UNL     1      23.941   3.486 -24.118  1.00  0.00     0.177 C 
BRANCH  30  31
HETATM   31  C7  UNL     1      23.511   4.480 -25.078  1.00  0.00    -0.004 C 
BRANCH  31  32
HETATM   32  C8  UNL     1      22.462   4.551 -25.798  1.00  0.00     0.009 C 
BRANCH  32  33
HETATM   33  C9  UNL     1      22.104   5.476 -26.842  1.00  0.00    -0.034 A 
HETATM   34  C10 UNL     1      20.963   5.186 -27.629  1.00  0.00     0.011 A 
HETATM   35  C11 UNL     1      20.453   5.986 -28.594  1.00  0.00     0.004 A 
HETATM   36  C12 UNL     1      21.091   7.184 -28.836  1.00  0.00     0.036 A 
HETATM   37  C13 UNL     1      22.204   7.529 -28.108  1.00  0.00     0.066 A 
HETATM   38  C14 UNL     1      22.695   6.675 -27.123  1.00  0.00     0.047 A 
BRANCH  37  39
HETATM   39  O2  UNL     1      22.829   8.739 -28.372  1.00  0.00    -0.361 OA
ATOM     40  H2  UNL     1      23.086   9.292 -27.643  1.00  0.00     0.217 HD
ENDBRANCH  37  39
ENDBRANCH  32  33
ENDBRANCH  31  32
ENDBRANCH  30  31
ENDBRANCH  25  30
ENDBRANCH  22  23
ENDBRANCH  21  22
ENDBRANCH   1  21
TORSDOF 12
ENDMDL
