MODEL 1
REMARK VINA RESULT: -8.677351110      0.000      0.000
REMARK  8 active torsions:
REMARK  status: ('A' for Active; 'I' for Inactive)
REMARK    1  A    between atoms: O1_2  and  C2_3 
REMARK    2  A    between atoms: C4_5  and  C5_6 
REMARK    3  A    between atoms: N1_7  and  N2_9 
REMARK       I    between atoms: N2_9  and  C6_11 
REMARK    4  A    between atoms: C6_11  and  C7_13 
REMARK       I    between atoms: C7_13  and  N3_15 
REMARK    5  A    between atoms: N3_15  and  N4_17 
REMARK    6  A    between atoms: C8_19  and  C9_20 
REMARK    7  A    between atoms: C11_26  and  O6_27 
REMARK    8  A    between atoms: C13_30  and  C14_31 
ROOT
HETATM    1  N2  UNL     1      24.676   4.169 -25.862  1.00  0.00    -0.262 N 
ATOM      2  H2  UNL     1      24.740   4.480 -26.831  1.00  0.00     0.190 HD
HETATM    3  C6  UNL     1      23.437   4.181 -25.191  1.00  0.00     0.329 C 
HETATM    4  O2  UNL     1      23.361   3.801 -24.008  1.00  0.00    -0.261 OA
ENDROOT
BRANCH   3   5
HETATM    5  C7  UNL     1      22.248   4.636 -25.875  1.00  0.00     0.329 C 
HETATM    6  O3  UNL     1      21.098   4.557 -25.333  1.00  0.00    -0.261 OA
HETATM    7  N3  UNL     1      22.272   5.203 -27.202  1.00  0.00    -0.262 N 
ATOM      8  H3  UNL     1      23.169   5.289 -27.681  1.00  0.00     0.190 HD
BRANCH   7   9
HETATM    9  N4  UNL     1      21.190   5.613 -27.818  1.00  0.00    -0.306 N 
HETATM   10  C8  UNL     1      20.670   6.569 -28.358  1.00  0.00     0.149 C 
ATOM     11  H4  UNL     1      20.536   4.831 -27.860  1.00  0.00     0.186 HD
BRANCH  10  12
HETATM   12  C9  UNL     1      21.202   7.912 -28.555  1.00  0.00     0.148 A 
HETATM   13  O4  UNL     1      20.705   8.784 -29.444  1.00  0.00    -0.255 OA
HETATM   14  C10 UNL     1      21.346   9.910 -29.432  1.00  0.00     0.372 A 
HETATM   15  O5  UNL     1      21.106  10.934 -30.165  1.00  0.00    -0.238 OA
HETATM   16  N5  UNL     1      22.307   9.799 -28.509  1.00  0.00    -0.280 N 
HETATM   17  C11 UNL     1      22.227   8.554 -27.954  1.00  0.00     0.180 A 
ATOM     18  H5  UNL     1      22.983  10.520 -28.262  1.00  0.00     0.173 HD
BRANCH  17  19
HETATM   19  O6  UNL     1      23.074   8.091 -26.954  1.00  0.00    -0.344 OA
ATOM     20  H6  UNL     1      23.470   7.232 -26.863  1.00  0.00     0.219 HD
ENDBRANCH  17  19
ENDBRANCH  10  12
ENDBRANCH   7   9
ENDBRANCH   3   5
BRANCH   1  21
HETATM   21  N1  UNL     1      25.818   3.725 -25.184  1.00  0.00    -0.308 N 
HETATM   22  C5  UNL     1      26.985   3.807 -25.695  1.00  0.00     0.118 C 
ATOM     23  H1  UNL     1      25.714   3.323 -24.252  1.00  0.00     0.186 HD
BRANCH  22  24
HETATM   24  C4  UNL     1      28.131   3.335 -24.954  1.00  0.00    -0.013 A 
HETATM   25  C3  UNL     1      29.295   4.105 -24.861  1.00  0.00     0.069 A 
HETATM   26  C2  UNL     1      30.369   3.619 -24.145  1.00  0.00     0.143 A 
HETATM   27  N6  UNL     1      30.344   2.429 -23.526  1.00  0.00    -0.334 N 
HETATM   28  C13 UNL     1      29.237   1.647 -23.588  1.00  0.00     0.080 A 
ATOM     29  H6  UNL     1      31.162   2.109 -23.007  1.00  0.00     0.168 HD
HETATM   30  C12 UNL     1      28.161   2.122 -24.301  1.00  0.00     0.046 A 
BRANCH  26  31
HETATM   31  O1  UNL     1      31.509   4.439 -24.087  1.00  0.00    -0.341 OA
HETATM   32  C1  UNL     1      31.653   5.499 -24.999  1.00  0.00     0.211 C 
ENDBRANCH  26  31
BRANCH  28  33
HETATM   33  C14 UNL     1      29.220   0.356 -22.914  1.00  0.00     0.172 C 
HETATM   34  C15 UNL     1      30.193   0.032 -21.855  1.00  0.00     0.098 C 
HETATM   35  O7  UNL     1      28.365  -0.497 -23.237  1.00  0.00    -0.291 OA
ENDBRANCH  28  33
ENDBRANCH  22  24
ENDBRANCH   1  21
TORSDOF 8
ENDMDL
MODEL 2
REMARK VINA RESULT: -8.571051963      5.050      7.039
REMARK  8 active torsions:
REMARK  status: ('A' for Active; 'I' for Inactive)
REMARK    1  A    between atoms: O1_2  and  C2_3 
REMARK    2  A    between atoms: C4_5  and  C5_6 
REMARK    3  A    between atoms: N1_7  and  N2_9 
REMARK       I    between atoms: N2_9  and  C6_11 
REMARK    4  A    between atoms: C6_11  and  C7_13 
REMARK       I    between atoms: C7_13  and  N3_15 
REMARK    5  A    between atoms: N3_15  and  N4_17 
REMARK    6  A    between atoms: C8_19  and  C9_20 
REMARK    7  A    between atoms: C11_26  and  O6_27 
REMARK    8  A    between atoms: C13_30  and  C14_31 
ROOT
HETATM    1  N2  UNL     1      27.939   2.246 -27.418  1.00  0.00    -0.262 N 
ATOM      2  H2  UNL     1      27.012   2.594 -27.665  1.00  0.00     0.190 HD
HETATM    3  C6  UNL     1      28.302   2.085 -26.066  1.00  0.00     0.329 C 
HETATM    4  O2  UNL     1      29.433   1.660 -25.768  1.00  0.00    -0.261 OA
ENDROOT
BRANCH   3   5
HETATM    5  C7  UNL     1      27.361   2.415 -25.021  1.00  0.00     0.329 C 
HETATM    6  O3  UNL     1      27.535   2.023 -23.821  1.00  0.00    -0.261 OA
HETATM    7  N3  UNL     1      26.172   3.200 -25.250  1.00  0.00    -0.262 N 
ATOM      8  H3  UNL     1      25.985   3.540 -26.194  1.00  0.00     0.190 HD
BRANCH   7   9
HETATM    9  N4  UNL     1      25.321   3.495 -24.298  1.00  0.00    -0.306 N 
HETATM   10  C8  UNL     1      24.166   3.794 -24.070  1.00  0.00     0.149 C 
ATOM     11  H4  UNL     1      25.820   3.460 -23.408  1.00  0.00     0.186 HD
BRANCH  10  12
HETATM   12  C9  UNL     1      23.063   3.967 -25.008  1.00  0.00     0.148 A 
HETATM   13  O4  UNL     1      22.815   5.112 -25.660  1.00  0.00    -0.255 OA
HETATM   14  C10 UNL     1      21.782   5.016 -26.436  1.00  0.00     0.372 A 
HETATM   15  O5  UNL     1      21.299   5.939 -27.184  1.00  0.00    -0.238 OA
HETATM   16  N5  UNL     1      21.315   3.771 -26.307  1.00  0.00    -0.280 N 
HETATM   17  C11 UNL     1      22.107   3.105 -25.417  1.00  0.00     0.180 A 
ATOM     18  H5  UNL     1      20.504   3.384 -26.791  1.00  0.00     0.173 HD
BRANCH  17  19
HETATM   19  O6  UNL     1      21.914   1.781 -25.041  1.00  0.00    -0.344 OA
ATOM     20  H6  UNL     1      22.263   1.322 -24.285  1.00  0.00     0.219 HD
ENDBRANCH  17  19
ENDBRANCH  10  12
ENDBRANCH   7   9
ENDBRANCH   3   5
BRANCH   1  21
HETATM   21  N1  UNL     1      28.863   1.921 -28.419  1.00  0.00    -0.308 N 
HETATM   22  C5  UNL     1      29.754   2.746 -28.813  1.00  0.00     0.118 C 
ATOM     23  H1  UNL     1      28.822   0.996 -28.848  1.00  0.00     0.186 HD
BRANCH  22  24
HETATM   24  C4  UNL     1      30.684   2.362 -29.849  1.00  0.00    -0.013 A 
HETATM   25  C3  UNL     1      30.240   1.734 -31.018  1.00  0.00     0.069 A 
HETATM   26  C2  UNL     1      31.160   1.381 -31.984  1.00  0.00     0.143 A 
HETATM   27  N6  UNL     1      32.474   1.618 -31.849  1.00  0.00    -0.334 N 
HETATM   28  C13 UNL     1      32.950   2.225 -30.733  1.00  0.00     0.080 A 
ATOM     29  H6  UNL     1      33.118   1.339 -32.590  1.00  0.00     0.168 HD
HETATM   30  C12 UNL     1      32.041   2.579 -29.764  1.00  0.00     0.046 A 
BRANCH  26  31
HETATM   31  O1  UNL     1      30.653   0.754 -33.135  1.00  0.00    -0.341 OA
HETATM   32  C1  UNL     1      29.281   0.459 -33.223  1.00  0.00     0.211 C 
ENDBRANCH  26  31
BRANCH  28  33
HETATM   33  C14 UNL     1      34.378   2.477 -30.596  1.00  0.00     0.172 C 
HETATM   34  C15 UNL     1      34.886   3.547 -29.720  1.00  0.00     0.098 C 
HETATM   35  O7  UNL     1      35.192   1.775 -31.234  1.00  0.00    -0.291 OA
ENDBRANCH  28  33
ENDBRANCH  22  24
ENDBRANCH   1  21
TORSDOF 8
ENDMDL
MODEL 3
REMARK VINA RESULT: -8.534296348      0.647      2.546
REMARK  8 active torsions:
REMARK  status: ('A' for Active; 'I' for Inactive)
REMARK    1  A    between atoms: O1_2  and  C2_3 
REMARK    2  A    between atoms: C4_5  and  C5_6 
REMARK    3  A    between atoms: N1_7  and  N2_9 
REMARK       I    between atoms: N2_9  and  C6_11 
REMARK    4  A    between atoms: C6_11  and  C7_13 
REMARK       I    between atoms: C7_13  and  N3_15 
REMARK    5  A    between atoms: N3_15  and  N4_17 
REMARK    6  A    between atoms: C8_19  and  C9_20 
REMARK    7  A    between atoms: C11_26  and  O6_27 
REMARK    8  A    between atoms: C13_30  and  C14_31 
ROOT
HETATM    1  N2  UNL     1      24.403   4.291 -25.943  1.00  0.00    -0.262 N 
ATOM      2  H2  UNL     1      24.478   4.585 -26.917  1.00  0.00     0.190 HD
HETATM    3  C6  UNL     1      23.175   4.391 -25.261  1.00  0.00     0.329 C 
HETATM    4  O2  UNL     1      23.086   4.031 -24.073  1.00  0.00    -0.261 OA
ENDROOT
BRANCH   3   5
HETATM    5  C7  UNL     1      22.012   4.914 -25.941  1.00  0.00     0.329 C 
HETATM    6  O3  UNL     1      20.932   5.167 -25.313  1.00  0.00    -0.261 OA
HETATM    7  N3  UNL     1      21.983   5.185 -27.358  1.00  0.00    -0.262 N 
ATOM      8  H3  UNL     1      22.823   5.001 -27.908  1.00  0.00     0.190 HD
BRANCH   7   9
HETATM    9  N4  UNL     1      20.924   5.659 -27.969  1.00  0.00    -0.306 N 
HETATM   10  C8  UNL     1      20.453   6.648 -28.494  1.00  0.00     0.149 C 
ATOM     11  H4  UNL     1      20.232   4.912 -28.024  1.00  0.00     0.186 HD
BRANCH  10  12
HETATM   12  C9  UNL     1      21.052   7.965 -28.668  1.00  0.00     0.148 A 
HETATM   13  O4  UNL     1      20.554   8.905 -29.485  1.00  0.00    -0.255 OA
HETATM   14  C10 UNL     1      21.262   9.990 -29.467  1.00  0.00     0.372 A 
HETATM   15  O5  UNL     1      21.039  11.059 -30.140  1.00  0.00    -0.238 OA
HETATM   16  N5  UNL     1      22.270   9.781 -28.616  1.00  0.00    -0.280 N 
HETATM   17  C11 UNL     1      22.151   8.519 -28.110  1.00  0.00     0.180 A 
ATOM     18  H5  UNL     1      23.004  10.450 -28.384  1.00  0.00     0.173 HD
BRANCH  17  19
HETATM   19  O6  UNL     1      23.030   7.962 -27.189  1.00  0.00    -0.344 OA
ATOM     20  H6  UNL     1      23.509   7.143 -27.247  1.00  0.00     0.219 HD
ENDBRANCH  17  19
ENDBRANCH  10  12
ENDBRANCH   7   9
ENDBRANCH   3   5
BRANCH   1  21
HETATM   21  N1  UNL     1      25.521   3.782 -25.270  1.00  0.00    -0.308 N 
HETATM   22  C5  UNL     1      26.704   3.900 -25.735  1.00  0.00     0.118 C 
ATOM     23  H1  UNL     1      25.385   3.301 -24.380  1.00  0.00     0.186 HD
BRANCH  22  24
HETATM   24  C4  UNL     1      27.824   3.357 -25.001  1.00  0.00    -0.013 A 
HETATM   25  C3  UNL     1      27.735   2.111 -24.370  1.00  0.00     0.069 A 
HETATM   26  C2  UNL     1      28.826   1.628 -23.678  1.00  0.00     0.143 A 
HETATM   27  N6  UNL     1      29.979   2.307 -23.583  1.00  0.00    -0.334 N 
HETATM   28  C13 UNL     1      30.112   3.519 -24.178  1.00  0.00     0.080 A 
ATOM     29  H6  UNL     1      30.760   1.910 -23.060  1.00  0.00     0.168 HD
HETATM   30  C12 UNL     1      29.029   4.010 -24.870  1.00  0.00     0.046 A 
BRANCH  26  31
HETATM   31  O1  UNL     1      28.676   0.370 -23.067  1.00  0.00    -0.341 OA
HETATM   32  C1  UNL     1      29.798  -0.281 -22.527  1.00  0.00     0.211 C 
ENDBRANCH  26  31
BRANCH  28  33
HETATM   33  C14 UNL     1      31.367   4.249 -24.070  1.00  0.00     0.172 C 
HETATM   34  C15 UNL     1      32.599   3.589 -23.602  1.00  0.00     0.098 C 
HETATM   35  O7  UNL     1      31.405   5.460 -24.377  1.00  0.00    -0.291 OA
ENDBRANCH  28  33
ENDBRANCH  22  24
ENDBRANCH   1  21
TORSDOF 8
ENDMDL
MODEL 4
REMARK VINA RESULT: -8.390882074      7.718     11.573
REMARK  8 active torsions:
REMARK  status: ('A' for Active; 'I' for Inactive)
REMARK    1  A    between atoms: O1_2  and  C2_3 
REMARK    2  A    between atoms: C4_5  and  C5_6 
REMARK    3  A    between atoms: N1_7  and  N2_9 
REMARK       I    between atoms: N2_9  and  C6_11 
REMARK    4  A    between atoms: C6_11  and  C7_13 
REMARK       I    between atoms: C7_13  and  N3_15 
REMARK    5  A    between atoms: N3_15  and  N4_17 
REMARK    6  A    between atoms: C8_19  and  C9_20 
REMARK    7  A    between atoms: C11_26  and  O6_27 
REMARK    8  A    between atoms: C13_30  and  C14_31 
ROOT
HETATM    1  N2  UNL     1      30.049   1.084 -26.058  1.00  0.00    -0.262 N 
ATOM      2  H2  UNL     1      29.038   0.999 -25.956  1.00  0.00     0.190 HD
HETATM    3  C6  UNL     1      30.873   1.187 -24.920  1.00  0.00     0.329 C 
HETATM    4  O2  UNL     1      32.107   1.291 -25.046  1.00  0.00    -0.261 OA
ENDROOT
BRANCH   3   5
HETATM    5  C7  UNL     1      30.286   1.173 -23.599  1.00  0.00     0.329 C 
HETATM    6  O3  UNL     1      29.125   1.650 -23.383  1.00  0.00    -0.261 OA
HETATM    7  N3  UNL     1      30.958   0.626 -22.444  1.00  0.00    -0.262 N 
ATOM      8  H3  UNL     1      31.890   0.230 -22.564  1.00  0.00     0.190 HD
BRANCH   7   9
HETATM    9  N4  UNL     1      30.420   0.617 -21.249  1.00  0.00    -0.306 N 
HETATM   10  C8  UNL     1      30.641   0.816 -20.071  1.00  0.00     0.149 C 
ATOM     11  H4  UNL     1      29.444   0.336 -21.344  1.00  0.00     0.186 HD
BRANCH  10  12
HETATM   12  C9  UNL     1      31.880   1.238 -19.430  1.00  0.00     0.148 A 
HETATM   13  O4  UNL     1      32.842   0.388 -19.041  1.00  0.00    -0.255 OA
HETATM   14  C10 UNL     1      33.845   1.003 -18.499  1.00  0.00     0.372 A 
HETATM   15  O5  UNL     1      34.910   0.464 -18.031  1.00  0.00    -0.238 OA
HETATM   16  N5  UNL     1      33.556   2.308 -18.518  1.00  0.00    -0.280 N 
HETATM   17  C11 UNL     1      32.331   2.468 -19.098  1.00  0.00     0.180 A 
ATOM     18  H5  UNL     1      34.150   3.056 -18.161  1.00  0.00     0.173 HD
BRANCH  17  19
HETATM   19  O6  UNL     1      31.712   3.698 -19.286  1.00  0.00    -0.344 OA
ATOM     20  H6  UNL     1      30.890   4.010 -18.924  1.00  0.00     0.219 HD
ENDBRANCH  17  19
ENDBRANCH  10  12
ENDBRANCH   7   9
ENDBRANCH   3   5
BRANCH   1  21
HETATM   21  N1  UNL     1      30.634   1.100 -27.331  1.00  0.00    -0.308 N 
HETATM   22  C5  UNL     1      30.015   1.543 -28.355  1.00  0.00     0.118 C 
ATOM     23  H1  UNL     1      31.584   0.745 -27.442  1.00  0.00     0.186 HD
BRANCH  22  24
HETATM   24  C4  UNL     1      30.663   1.537 -29.646  1.00  0.00    -0.013 A 
HETATM   25  C3  UNL     1      29.982   1.112 -30.792  1.00  0.00     0.069 A 
HETATM   26  C2  UNL     1      30.636   1.120 -32.006  1.00  0.00     0.143 A 
HETATM   27  N6  UNL     1      31.909   1.524 -32.137  1.00  0.00    -0.334 N 
HETATM   28  C13 UNL     1      32.610   1.945 -31.054  1.00  0.00     0.080 A 
ATOM     29  H6  UNL     1      32.353   1.513 -33.056  1.00  0.00     0.168 HD
HETATM   30  C12 UNL     1      31.966   1.939 -29.838  1.00  0.00     0.046 A 
BRANCH  26  31
HETATM   31  O1  UNL     1      29.899   0.682 -33.120  1.00  0.00    -0.341 OA
HETATM   32  C1  UNL     1      28.497   0.609 -33.045  1.00  0.00     0.211 C 
ENDBRANCH  26  31
BRANCH  28  33
HETATM   33  C14 UNL     1      33.991   2.381 -31.206  1.00  0.00     0.172 C 
HETATM   34  C15 UNL     1      34.677   3.137 -30.144  1.00  0.00     0.098 C 
HETATM   35  O7  UNL     1      34.610   2.111 -32.258  1.00  0.00    -0.291 OA
ENDBRANCH  28  33
ENDBRANCH  22  24
ENDBRANCH   1  21
TORSDOF 8
ENDMDL
MODEL 5
REMARK VINA RESULT: -8.355199826      7.495     11.702
REMARK  8 active torsions:
REMARK  status: ('A' for Active; 'I' for Inactive)
REMARK    1  A    between atoms: O1_2  and  C2_3 
REMARK    2  A    between atoms: C4_5  and  C5_6 
REMARK    3  A    between atoms: N1_7  and  N2_9 
REMARK       I    between atoms: N2_9  and  C6_11 
REMARK    4  A    between atoms: C6_11  and  C7_13 
REMARK       I    between atoms: C7_13  and  N3_15 
REMARK    5  A    between atoms: N3_15  and  N4_17 
REMARK    6  A    between atoms: C8_19  and  C9_20 
REMARK    7  A    between atoms: C11_26  and  O6_27 
REMARK    8  A    between atoms: C13_30  and  C14_31 
ROOT
HETATM    1  N2  UNL     1      30.801   1.325 -24.721  1.00  0.00    -0.262 N 
ATOM      2  H2  UNL     1      31.564   1.886 -24.342  1.00  0.00     0.190 HD
HETATM    3  C6  UNL     1      29.832   0.769 -23.862  1.00  0.00     0.329 C 
HETATM    4  O2  UNL     1      28.902   0.084 -24.327  1.00  0.00    -0.261 OA
ENDROOT
BRANCH   3   5
HETATM    5  C7  UNL     1      29.917   0.991 -22.437  1.00  0.00     0.329 C 
HETATM    6  O3  UNL     1      28.878   0.983 -21.700  1.00  0.00    -0.261 OA
HETATM    7  N3  UNL     1      31.163   1.236 -21.750  1.00  0.00    -0.262 N 
ATOM      8  H3  UNL     1      32.026   1.252 -22.294  1.00  0.00     0.190 HD
BRANCH   7   9
HETATM    9  N4  UNL     1      31.232   1.439 -20.457  1.00  0.00    -0.306 N 
HETATM   10  C8  UNL     1      31.959   1.355 -19.488  1.00  0.00     0.149 C 
ATOM     11  H4  UNL     1      30.333   1.807 -20.147  1.00  0.00     0.186 HD
BRANCH  10  12
HETATM   12  C9  UNL     1      33.339   0.889 -19.415  1.00  0.00     0.148 A 
HETATM   13  O4  UNL     1      34.038   0.469 -20.479  1.00  0.00    -0.255 OA
HETATM   14  C10 UNL     1      35.240   0.108 -20.160  1.00  0.00     0.372 A 
HETATM   15  O5  UNL     1      36.141  -0.338 -20.956  1.00  0.00    -0.238 OA
HETATM   16  N5  UNL     1      35.361   0.286 -18.841  1.00  0.00    -0.280 N 
HETATM   17  C11 UNL     1      34.179   0.774 -18.364  1.00  0.00     0.180 A 
ATOM     18  H5  UNL     1      36.194   0.091 -18.286  1.00  0.00     0.173 HD
BRANCH  17  19
HETATM   19  O6  UNL     1      33.945   1.079 -17.028  1.00  0.00    -0.344 OA
ATOM     20  H6  UNL     1      34.036   0.518 -16.266  1.00  0.00     0.219 HD
ENDBRANCH  17  19
ENDBRANCH  10  12
ENDBRANCH   7   9
ENDBRANCH   3   5
BRANCH   1  21
HETATM   21  N1  UNL     1      30.705   1.100 -26.100  1.00  0.00    -0.308 N 
HETATM   22  C5  UNL     1      31.319   1.827 -26.950  1.00  0.00     0.118 C 
ATOM     23  H1  UNL     1      30.125   0.330 -26.435  1.00  0.00     0.186 HD
BRANCH  22  24
HETATM   24  C4  UNL     1      31.187   1.552 -28.362  1.00  0.00    -0.013 A 
HETATM   25  C3  UNL     1      32.315   1.448 -29.184  1.00  0.00     0.069 A 
HETATM   26  C2  UNL     1      32.147   1.185 -30.527  1.00  0.00     0.143 A 
HETATM   27  N6  UNL     1      30.937   1.023 -31.085  1.00  0.00    -0.334 N 
HETATM   28  C13 UNL     1      29.815   1.115 -30.328  1.00  0.00     0.080 A 
ATOM     29  H6  UNL     1      30.861   0.830 -32.084  1.00  0.00     0.168 HD
HETATM   30  C12 UNL     1      29.972   1.377 -28.987  1.00  0.00     0.046 A 
BRANCH  26  31
HETATM   31  O1  UNL     1      33.317   1.092 -31.300  1.00  0.00    -0.341 OA
HETATM   32  C1  UNL     1      34.289   2.104 -31.221  1.00  0.00     0.211 C 
ENDBRANCH  26  31
BRANCH  28  33
HETATM   33  C14 UNL     1      28.507   0.937 -30.943  1.00  0.00     0.172 C 
HETATM   34  C15 UNL     1      28.357   0.823 -32.404  1.00  0.00     0.098 C 
HETATM   35  O7  UNL     1      27.489   0.880 -30.219  1.00  0.00    -0.291 OA
ENDBRANCH  28  33
ENDBRANCH  22  24
ENDBRANCH   1  21
TORSDOF 8
ENDMDL
