MODEL 1
REMARK VINA RESULT: -8.360917319      0.000      0.000
REMARK  8 active torsions:
REMARK  status: ('A' for Active; 'I' for Inactive)
REMARK    1  A    between atoms: O1_2  and  C2_3 
REMARK    2  A    between atoms: C5_8  and  N1_9 
REMARK    3  A    between atoms: N1_9  and  O4_11 
REMARK    4  A    between atoms: O4_11  and  C6_12 
REMARK    5  A    between atoms: C6_12  and  C7_13 
REMARK    6  A    between atoms: C10_25  and  N6_26 
REMARK    7  A    between atoms: N6_26  and  C11_28 
REMARK    8  A    between atoms: C11_28  and  C12_29 
ROOT
HETATM    1  C2  UNL     1      30.393   3.278 -27.222  1.00  0.00     0.217 A 
HETATM    2  O2  UNL     1      29.312   4.018 -27.266  1.00  0.00    -0.249 OA
HETATM    3  C3  UNL     1      28.216   3.770 -26.591  1.00  0.00     0.306 A 
HETATM    4  O3  UNL     1      27.191   4.507 -26.658  1.00  0.00    -0.259 OA
HETATM    5  C4  UNL     1      28.141   2.676 -25.768  1.00  0.00     0.115 A 
HETATM    6  C5  UNL     1      26.989   2.417 -25.059  1.00  0.00     0.159 A 
HETATM    7  N3  UNL     1      26.970   1.331 -24.267  1.00  0.00    -0.174 N 
ATOM      8  H3  UNL     1      26.134   1.108 -23.727  1.00  0.00     0.186 HD
HETATM    9  C8  UNL     1      28.067   0.528 -24.185  1.00  0.00     0.678 A 
HETATM   10  N4  UNL     1      28.075  -0.521 -23.433  1.00  0.00    -0.234 N 
ATOM     11  H41 UNL     1      28.897  -1.122 -23.371  1.00  0.00     0.174 HD
ATOM     12  H42 UNL     1      27.222  -0.713 -22.907  1.00  0.00     0.174 HD
HETATM   13  N5  UNL     1      29.192   0.782 -24.878  1.00  0.00    -0.189 N 
ATOM     14  H5  UNL     1      29.994   0.159 -24.792  1.00  0.00     0.184 HD
HETATM   15  C9  UNL     1      29.259   1.858 -25.685  1.00  0.00     0.100 A 
HETATM   16  C10 UNL     1      30.397   2.158 -26.417  1.00  0.00     0.116 A 
ENDROOT
BRANCH  16  17
HETATM   17  N6  UNL     1      31.534   1.327 -26.332  1.00  0.00    -0.378 N 
ATOM     18  H6  UNL     1      31.515   0.445 -26.844  1.00  0.00     0.160 HD
BRANCH  17  19
HETATM   19  C11 UNL     1      32.709   1.630 -25.579  1.00  0.00     0.181 C 
BRANCH  19  20
HETATM   20  C12 UNL     1      32.388   2.306 -24.297  1.00  0.00     0.076 A 
HETATM   21  N7  UNL     1      32.266   3.623 -24.045  1.00  0.00    -0.242 N 
HETATM   22  O6  UNL     1      31.976   3.783 -22.786  1.00  0.00    -0.157 OA
ATOM     23  H7  UNL     1      32.382   4.372 -24.728  1.00  0.00     0.196 HD
HETATM   24  N8  UNL     1      31.900   2.642 -22.192  1.00  0.00    -0.244 N 
HETATM   25  C13 UNL     1      32.151   1.678 -23.104  1.00  0.00     0.056 A 
ATOM     26  H8  UNL     1      31.686   2.493 -21.206  1.00  0.00     0.196 HD
HETATM   27  C14 UNL     1      32.168   0.223 -22.861  1.00  0.00     0.072 C 
ENDBRANCH  19  20
ENDBRANCH  17  19
ENDBRANCH  16  17
BRANCH   1  28
HETATM   28  O1  UNL     1      31.523   3.606 -27.972  1.00  0.00    -0.334 OA
HETATM   29  C1  UNL     1      32.404   4.641 -27.582  1.00  0.00     0.212 C 
ENDBRANCH   1  28
BRANCH   6  30
HETATM   30  N1  UNL     1      25.944   3.201 -25.151  1.00  0.00    -0.249 N 
ATOM     31  H1  UNL     1      26.070   4.167 -25.454  1.00  0.00     0.196 HD
BRANCH  30  32
HETATM   32  O4  UNL     1      24.686   2.756 -24.851  1.00  0.00    -0.270 OA
BRANCH  32  33
HETATM   33  C6  UNL     1      23.817   3.703 -24.217  1.00  0.00     0.300 C 
BRANCH  33  34
HETATM   34  C7  UNL     1      22.766   4.128 -25.146  1.00  0.00     0.257 C 
HETATM   35  N2  UNL     1      22.303   5.467 -25.171  1.00  0.00    -0.060 NA
HETATM   36  O5  UNL     1      22.264   3.295 -25.931  1.00  0.00    -0.274 OA
ENDBRANCH  33  34
ENDBRANCH  32  33
ENDBRANCH  30  32
ENDBRANCH   6  30
TORSDOF 8
ENDMDL
MODEL 2
REMARK VINA RESULT: -8.283867173      0.880      1.160
REMARK  8 active torsions:
REMARK  status: ('A' for Active; 'I' for Inactive)
REMARK    1  A    between atoms: O1_2  and  C2_3 
REMARK    2  A    between atoms: C5_8  and  N1_9 
REMARK    3  A    between atoms: N1_9  and  O4_11 
REMARK    4  A    between atoms: O4_11  and  C6_12 
REMARK    5  A    between atoms: C6_12  and  C7_13 
REMARK    6  A    between atoms: C10_25  and  N6_26 
REMARK    7  A    between atoms: N6_26  and  C11_28 
REMARK    8  A    between atoms: C11_28  and  C12_29 
ROOT
HETATM    1  C2  UNL     1      30.441   3.200 -27.146  1.00  0.00     0.217 A 
HETATM    2  O2  UNL     1      29.378   3.965 -27.192  1.00  0.00    -0.249 OA
HETATM    3  C3  UNL     1      28.272   3.739 -26.526  1.00  0.00     0.306 A 
HETATM    4  O3  UNL     1      27.265   4.500 -26.594  1.00  0.00    -0.259 OA
HETATM    5  C4  UNL     1      28.166   2.642 -25.710  1.00  0.00     0.115 A 
HETATM    6  C5  UNL     1      27.003   2.406 -25.011  1.00  0.00     0.159 A 
HETATM    7  N3  UNL     1      26.954   1.315 -24.226  1.00  0.00    -0.174 N 
ATOM      8  H3  UNL     1      26.109   1.107 -23.693  1.00  0.00     0.186 HD
HETATM    9  C8  UNL     1      28.031   0.485 -24.143  1.00  0.00     0.678 A 
HETATM   10  N4  UNL     1      28.009  -0.568 -23.398  1.00  0.00    -0.234 N 
ATOM     11  H41 UNL     1      28.816  -1.189 -23.335  1.00  0.00     0.174 HD
ATOM     12  H42 UNL     1      27.149  -0.744 -22.879  1.00  0.00     0.174 HD
HETATM   13  N5  UNL     1      29.166   0.718 -24.827  1.00  0.00    -0.189 N 
ATOM     14  H5  UNL     1      29.953   0.075 -24.741  1.00  0.00     0.184 HD
HETATM   15  C9  UNL     1      29.264   1.797 -25.626  1.00  0.00     0.100 A 
HETATM   16  C10 UNL     1      30.413   2.075 -26.349  1.00  0.00     0.116 A 
ENDROOT
BRANCH  16  17
HETATM   17  N6  UNL     1      31.529   1.216 -26.262  1.00  0.00    -0.378 N 
ATOM     18  H6  UNL     1      31.511   0.360 -26.816  1.00  0.00     0.160 HD
BRANCH  17  19
HETATM   19  C11 UNL     1      32.682   1.460 -25.456  1.00  0.00     0.181 C 
BRANCH  19  20
HETATM   20  C12 UNL     1      32.364   1.419 -24.006  1.00  0.00     0.076 A 
HETATM   21  N7  UNL     1      32.267   0.349 -23.194  1.00  0.00    -0.242 N 
HETATM   22  O6  UNL     1      31.969   0.760 -21.995  1.00  0.00    -0.157 OA
ATOM     23  H7  UNL     1      32.404  -0.623 -23.473  1.00  0.00     0.196 HD
HETATM   24  N8  UNL     1      31.864   2.044 -21.971  1.00  0.00    -0.244 N 
HETATM   25  C13 UNL     1      32.105   2.507 -23.217  1.00  0.00     0.056 A 
ATOM     26  H8  UNL     1      31.638   2.611 -21.154  1.00  0.00     0.196 HD
HETATM   27  C14 UNL     1      32.092   3.918 -23.646  1.00  0.00     0.072 C 
ENDBRANCH  19  20
ENDBRANCH  17  19
ENDBRANCH  16  17
BRANCH   1  28
HETATM   28  O1  UNL     1      31.583   3.507 -27.887  1.00  0.00    -0.334 OA
HETATM   29  C1  UNL     1      32.432   4.583 -27.540  1.00  0.00     0.212 C 
ENDBRANCH   1  28
BRANCH   6  30
HETATM   30  N1  UNL     1      25.978   3.214 -25.103  1.00  0.00    -0.249 N 
ATOM     31  H1  UNL     1      26.130   4.181 -25.389  1.00  0.00     0.196 HD
BRANCH  30  32
HETATM   32  O4  UNL     1      24.706   2.793 -24.827  1.00  0.00    -0.270 OA
BRANCH  32  33
HETATM   33  C6  UNL     1      23.849   3.751 -24.194  1.00  0.00     0.300 C 
BRANCH  33  34
HETATM   34  C7  UNL     1      22.794   4.177 -25.118  1.00  0.00     0.257 C 
HETATM   35  N2  UNL     1      22.324   5.514 -25.134  1.00  0.00    -0.060 NA
HETATM   36  O5  UNL     1      22.295   3.347 -25.908  1.00  0.00    -0.274 OA
ENDBRANCH  33  34
ENDBRANCH  32  33
ENDBRANCH  30  32
ENDBRANCH   6  30
TORSDOF 8
ENDMDL
MODEL 3
REMARK VINA RESULT: -8.252576602      1.953      3.396
REMARK  8 active torsions:
REMARK  status: ('A' for Active; 'I' for Inactive)
REMARK    1  A    between atoms: O1_2  and  C2_3 
REMARK    2  A    between atoms: C5_8  and  N1_9 
REMARK    3  A    between atoms: N1_9  and  O4_11 
REMARK    4  A    between atoms: O4_11  and  C6_12 
REMARK    5  A    between atoms: C6_12  and  C7_13 
REMARK    6  A    between atoms: C10_25  and  N6_26 
REMARK    7  A    between atoms: N6_26  and  C11_28 
REMARK    8  A    between atoms: C11_28  and  C12_29 
ROOT
HETATM    1  C2  UNL     1      30.338   4.005 -27.033  1.00  0.00     0.217 A 
HETATM    2  O2  UNL     1      29.228   4.701 -26.996  1.00  0.00    -0.249 OA
HETATM    3  C3  UNL     1      28.124   4.304 -26.411  1.00  0.00     0.306 A 
HETATM    4  O3  UNL     1      27.070   5.002 -26.395  1.00  0.00    -0.259 OA
HETATM    5  C4  UNL     1      28.071   3.087 -25.781  1.00  0.00     0.115 A 
HETATM    6  C5  UNL     1      26.910   2.672 -25.167  1.00  0.00     0.159 A 
HETATM    7  N3  UNL     1      26.915   1.470 -24.564  1.00  0.00    -0.174 N 
ATOM      8  H3  UNL     1      26.073   1.130 -24.099  1.00  0.00     0.186 HD
HETATM    9  C8  UNL     1      28.043   0.707 -24.573  1.00  0.00     0.678 A 
HETATM   10  N4  UNL     1      28.074  -0.450 -24.003  1.00  0.00    -0.234 N 
ATOM     11  H41 UNL     1      28.919  -1.022 -24.010  1.00  0.00     0.174 HD
ATOM     12  H42 UNL     1      27.215  -0.759 -23.547  1.00  0.00     0.174 HD
HETATM   13  N5  UNL     1      29.176   1.114 -25.173  1.00  0.00    -0.189 N 
ATOM     14  H5  UNL     1      30.002   0.517 -25.161  1.00  0.00     0.184 HD
HETATM   15  C9  UNL     1      29.221   2.310 -25.791  1.00  0.00     0.100 A 
HETATM   16  C10 UNL     1      30.366   2.770 -26.422  1.00  0.00     0.116 A 
ENDROOT
BRANCH  16  17
HETATM   17  N6  UNL     1      31.535   1.979 -26.432  1.00  0.00    -0.378 N 
ATOM     18  H6  UNL     1      31.942   1.726 -25.532  1.00  0.00     0.160 HD
BRANCH  17  19
HETATM   19  C11 UNL     1      32.188   1.508 -27.611  1.00  0.00     0.181 C 
BRANCH  19  20
HETATM   20  C12 UNL     1      31.221   1.192 -28.693  1.00  0.00     0.076 A 
HETATM   21  N7  UNL     1      30.034   0.562 -28.605  1.00  0.00    -0.242 N 
HETATM   22  O6  UNL     1      29.509   0.493 -29.795  1.00  0.00    -0.157 OA
ATOM     23  H7  UNL     1      29.616   0.199 -27.748  1.00  0.00     0.196 HD
HETATM   24  N8  UNL     1      30.285   1.044 -30.663  1.00  0.00    -0.244 N 
HETATM   25  C13 UNL     1      31.380   1.501 -30.017  1.00  0.00     0.056 A 
ATOM     26  H8  UNL     1      30.105   1.121 -31.664  1.00  0.00     0.196 HD
HETATM   27  C14 UNL     1      32.528   2.201 -30.623  1.00  0.00     0.072 C 
ENDBRANCH  19  20
ENDBRANCH  17  19
ENDBRANCH  16  17
BRANCH   1  28
HETATM   28  O1  UNL     1      31.474   4.496 -27.677  1.00  0.00    -0.334 OA
HETATM   29  C1  UNL     1      32.397   5.343 -27.022  1.00  0.00     0.212 C 
ENDBRANCH   1  28
BRANCH   6  30
HETATM   30  N1  UNL     1      25.835   3.420 -25.168  1.00  0.00    -0.249 N 
ATOM     31  H1  UNL     1      25.920   4.414 -25.381  1.00  0.00     0.196 HD
BRANCH  30  32
HETATM   32  O4  UNL     1      24.601   2.900 -24.890  1.00  0.00    -0.270 OA
BRANCH  32  33
HETATM   33  C6  UNL     1      23.692   3.769 -24.202  1.00  0.00     0.300 C 
BRANCH  33  34
HETATM   34  C7  UNL     1      22.672   4.270 -25.127  1.00  0.00     0.257 C 
HETATM   35  N2  UNL     1      22.336   5.646 -25.178  1.00  0.00    -0.060 NA
HETATM   36  O5  UNL     1      22.082   3.471 -25.885  1.00  0.00    -0.274 OA
ENDBRANCH  33  34
ENDBRANCH  32  33
ENDBRANCH  30  32
ENDBRANCH   6  30
TORSDOF 8
ENDMDL
MODEL 4
REMARK VINA RESULT: -8.240595945      2.223      3.472
REMARK  8 active torsions:
REMARK  status: ('A' for Active; 'I' for Inactive)
REMARK    1  A    between atoms: O1_2  and  C2_3 
REMARK    2  A    between atoms: C5_8  and  N1_9 
REMARK    3  A    between atoms: N1_9  and  O4_11 
REMARK    4  A    between atoms: O4_11  and  C6_12 
REMARK    5  A    between atoms: C6_12  and  C7_13 
REMARK    6  A    between atoms: C10_25  and  N6_26 
REMARK    7  A    between atoms: N6_26  and  C11_28 
REMARK    8  A    between atoms: C11_28  and  C12_29 
ROOT
HETATM    1  C2  UNL     1      29.490   2.927 -28.428  1.00  0.00     0.217 A 
HETATM    2  O2  UNL     1      28.446   3.678 -28.173  1.00  0.00    -0.249 OA
HETATM    3  C3  UNL     1      27.714   3.587 -27.089  1.00  0.00     0.306 A 
HETATM    4  O3  UNL     1      26.713   4.329 -26.876  1.00  0.00    -0.259 OA
HETATM    5  C4  UNL     1      28.016   2.661 -26.124  1.00  0.00     0.115 A 
HETATM    6  C5  UNL     1      27.246   2.567 -24.986  1.00  0.00     0.159 A 
HETATM    7  N3  UNL     1      27.587   1.641 -24.073  1.00  0.00    -0.174 N 
ATOM      8  H3  UNL     1      27.040   1.542 -23.218  1.00  0.00     0.186 HD
HETATM    9  C8  UNL     1      28.664   0.834 -24.289  1.00  0.00     0.678 A 
HETATM   10  N4  UNL     1      29.012  -0.062 -23.428  1.00  0.00    -0.234 N 
ATOM     11  H41 UNL     1      29.818  -0.666 -23.590  1.00  0.00     0.174 HD
ATOM     12  H42 UNL     1      28.443  -0.133 -22.585  1.00  0.00     0.174 HD
HETATM   13  N5  UNL     1      29.414   0.928 -25.401  1.00  0.00    -0.189 N 
ATOM     14  H5  UNL     1      30.213   0.307 -25.530  1.00  0.00     0.184 HD
HETATM   15  C9  UNL     1      29.113   1.840 -26.345  1.00  0.00     0.100 A 
HETATM   16  C10 UNL     1      29.858   1.971 -27.506  1.00  0.00     0.116 A 
ENDROOT
BRANCH  16  17
HETATM   17  N6  UNL     1      30.973   1.135 -27.730  1.00  0.00    -0.378 N 
ATOM     18  H6  UNL     1      30.797   0.194 -28.080  1.00  0.00     0.160 HD
BRANCH  17  19
HETATM   19  C11 UNL     1      32.331   1.513 -27.500  1.00  0.00     0.181 C 
BRANCH  19  20
HETATM   20  C12 UNL     1      33.057   1.775 -28.769  1.00  0.00     0.076 A 
HETATM   21  N7  UNL     1      33.384   0.909 -29.747  1.00  0.00    -0.242 N 
HETATM   22  O6  UNL     1      34.018   1.555 -30.683  1.00  0.00    -0.157 OA
ATOM     23  H7  UNL     1      33.171  -0.089 -29.753  1.00  0.00     0.196 HD
HETATM   24  N8  UNL     1      34.127   2.802 -30.376  1.00  0.00    -0.244 N 
HETATM   25  C13 UNL     1      33.535   2.991 -29.176  1.00  0.00     0.056 A 
ATOM     26  H8  UNL     1      34.580   3.521 -30.940  1.00  0.00     0.196 HD
HETATM   27  C14 UNL     1      33.424   4.267 -28.444  1.00  0.00     0.072 C 
ENDBRANCH  19  20
ENDBRANCH  17  19
ENDBRANCH  16  17
BRANCH   1  28
HETATM   28  O1  UNL     1      30.220   3.084 -29.607  1.00  0.00    -0.334 OA
HETATM   29  C1  UNL     1      29.911   2.356 -30.779  1.00  0.00     0.212 C 
ENDBRANCH   1  28
BRANCH   6  30
HETATM   30  N1  UNL     1      26.215   3.351 -24.796  1.00  0.00    -0.249 N 
ATOM     31  H1  UNL     1      26.370   4.342 -24.613  1.00  0.00     0.196 HD
BRANCH  30  32
HETATM   32  O4  UNL     1      24.934   2.873 -24.837  1.00  0.00    -0.270 OA
BRANCH  32  33
HETATM   33  C6  UNL     1      23.942   3.672 -24.180  1.00  0.00     0.300 C 
BRANCH  33  34
HETATM   34  C7  UNL     1      22.803   3.901 -25.072  1.00  0.00     0.257 C 
HETATM   35  N2  UNL     1      22.229   5.189 -25.218  1.00  0.00    -0.060 NA
HETATM   36  O5  UNL     1      22.323   2.944 -25.716  1.00  0.00    -0.274 OA
ENDBRANCH  33  34
ENDBRANCH  32  33
ENDBRANCH  30  32
ENDBRANCH   6  30
TORSDOF 8
ENDMDL
MODEL 5
REMARK VINA RESULT: -8.234006758      2.512      5.950
REMARK  8 active torsions:
REMARK  status: ('A' for Active; 'I' for Inactive)
REMARK    1  A    between atoms: O1_2  and  C2_3 
REMARK    2  A    between atoms: C5_8  and  N1_9 
REMARK    3  A    between atoms: N1_9  and  O4_11 
REMARK    4  A    between atoms: O4_11  and  C6_12 
REMARK    5  A    between atoms: C6_12  and  C7_13 
REMARK    6  A    between atoms: C10_25  and  N6_26 
REMARK    7  A    between atoms: N6_26  and  C11_28 
REMARK    8  A    between atoms: C11_28  and  C12_29 
ROOT
HETATM    1  C2  UNL     1      31.940   2.573 -26.329  1.00  0.00     0.217 A 
HETATM    2  O2  UNL     1      32.564   2.966 -25.246  1.00  0.00    -0.249 OA
HETATM    3  C3  UNL     1      32.271   2.563 -24.034  1.00  0.00     0.306 A 
HETATM    4  O3  UNL     1      32.896   2.965 -23.010  1.00  0.00    -0.259 OA
HETATM    5  C4  UNL     1      31.252   1.669 -23.827  1.00  0.00     0.115 A 
HETATM    6  C5  UNL     1      30.946   1.246 -22.552  1.00  0.00     0.159 A 
HETATM    7  N3  UNL     1      29.938   0.369 -22.408  1.00  0.00    -0.174 N 
ATOM      8  H3  UNL     1      29.683   0.033 -21.479  1.00  0.00     0.186 HD
HETATM    9  C8  UNL     1      29.256  -0.073 -23.502  1.00  0.00     0.678 A 
HETATM   10  N4  UNL     1      28.284  -0.914 -23.390  1.00  0.00    -0.234 N 
ATOM     11  H41 UNL     1      27.774  -1.245 -24.209  1.00  0.00     0.174 HD
ATOM     12  H42 UNL     1      28.056  -1.229 -22.447  1.00  0.00     0.174 HD
HETATM   13  N5  UNL     1      29.557   0.341 -24.746  1.00  0.00    -0.189 N 
ATOM     14  H5  UNL     1      29.025  -0.010 -25.542  1.00  0.00     0.184 HD
HETATM   15  C9  UNL     1      30.559   1.219 -24.942  1.00  0.00     0.100 A 
HETATM   16  C10 UNL     1      30.902   1.673 -26.205  1.00  0.00     0.116 A 
ENDROOT
BRANCH  16  17
HETATM   17  N6  UNL     1      30.196   1.216 -27.339  1.00  0.00    -0.378 N 
ATOM     18  H6  UNL     1      30.354   0.254 -27.637  1.00  0.00     0.160 HD
BRANCH  17  19
HETATM   19  C11 UNL     1      29.277   2.004 -28.097  1.00  0.00     0.181 C 
BRANCH  19  20
HETATM   20  C12 UNL     1      28.291   2.695 -27.229  1.00  0.00     0.076 A 
HETATM   21  N7  UNL     1      27.255   2.172 -26.546  1.00  0.00    -0.242 N 
HETATM   22  O6  UNL     1      26.645   3.132 -25.912  1.00  0.00    -0.157 OA
ATOM     23  H7  UNL     1      26.992   1.186 -26.529  1.00  0.00     0.196 HD
HETATM   24  N8  UNL     1      27.222   4.261 -26.139  1.00  0.00    -0.244 N 
HETATM   25  C13 UNL     1      28.268   4.039 -26.965  1.00  0.00     0.056 A 
ATOM     26  H8  UNL     1      26.939   5.165 -25.761  1.00  0.00     0.196 HD
HETATM   27  C14 UNL     1      29.207   5.051 -27.484  1.00  0.00     0.072 C 
ENDBRANCH  19  20
ENDBRANCH  17  19
ENDBRANCH  16  17
BRANCH   1  28
HETATM   28  O1  UNL     1      32.310   3.049 -27.588  1.00  0.00    -0.334 OA
HETATM   29  C1  UNL     1      32.851   4.343 -27.768  1.00  0.00     0.212 C 
ENDBRANCH   1  28
BRANCH   6  30
HETATM   30  N1  UNL     1      31.613   1.681 -21.513  1.00  0.00    -0.249 N 
ATOM     31  H1  UNL     1      31.747   2.685 -21.392  1.00  0.00     0.196 HD
BRANCH  30  32
HETATM   32  O4  UNL     1      32.133   0.822 -20.585  1.00  0.00    -0.270 OA
BRANCH  32  33
HETATM   33  C6  UNL     1      32.249   1.332 -19.250  1.00  0.00     0.300 C 
BRANCH  33  34
HETATM   34  C7  UNL     1      31.522   2.599 -19.126  1.00  0.00     0.257 C 
HETATM   35  N2  UNL     1      30.235   2.654 -18.535  1.00  0.00    -0.060 NA
HETATM   36  O5  UNL     1      32.043   3.652 -19.550  1.00  0.00    -0.274 OA
ENDBRANCH  33  34
ENDBRANCH  32  33
ENDBRANCH  30  32
ENDBRANCH   6  30
TORSDOF 8
ENDMDL
