MODEL 1
REMARK VINA RESULT: -8.664561528      0.000      0.000
REMARK  6 active torsions:
REMARK  status: ('A' for Active; 'I' for Inactive)
REMARK    1  A    between atoms: C2_3  and  N2_4 
REMARK    2  A    between atoms: C2_3  and  C9_19 
REMARK    3  A    between atoms: N2_4  and  N3_6 
REMARK    4  A    between atoms: C3_7  and  C4_8 
REMARK    5  A    between atoms: C11_22  and  C12_23 
REMARK    6  A    between atoms: C12_23  and  C13_24 
ROOT
HETATM    1  N1  UNL     1     -21.078   3.963 -21.181  1.00  0.00    -0.195 NA
HETATM    2  C1  UNL     1     -19.980   3.775 -21.523  1.00  0.00     0.092 C 
HETATM    3  C2  UNL     1     -18.611   3.519 -21.973  1.00  0.00     0.256 C 
ENDROOT
BRANCH   3   4
HETATM    4  N2  UNL     1     -18.214   4.603 -22.814  1.00  0.00    -0.301 N 
ATOM      5  H2  UNL     1     -18.358   4.469 -23.816  1.00  0.00     0.183 HD
BRANCH   4   6
HETATM    6  N3  UNL     1     -17.659   5.814 -22.437  1.00  0.00    -0.212 N 
HETATM    7  C3  UNL     1     -16.402   6.027 -22.040  1.00  0.00     0.161 A 
HETATM    8  N4  UNL     1     -16.261   7.342 -21.723  1.00  0.00    -0.281 N 
HETATM    9  N5  UNL     1     -17.378   7.963 -21.904  1.00  0.00    -0.273 N 
ATOM     10  H4  UNL     1     -15.399   7.774 -21.389  1.00  0.00     0.188 HD
HETATM   11  C8  UNL     1     -18.256   7.028 -22.348  1.00  0.00     0.213 A 
ATOM     12  H5  UNL     1     -17.564   8.954 -21.747  1.00  0.00     0.189 HD
HETATM   13  S2  UNL     1     -19.781   7.397 -22.673  1.00  0.00    -0.037 SA
BRANCH   7  14
HETATM   14  C4  UNL     1     -15.276   5.106 -21.921  1.00  0.00     0.052 A 
HETATM   15  C5  UNL     1     -14.743   4.305 -22.903  1.00  0.00     0.023 A 
HETATM   16  C6  UNL     1     -13.709   3.527 -22.578  1.00  0.00     0.009 A 
HETATM   17  C7  UNL     1     -13.247   3.575 -21.293  1.00  0.00     0.050 A 
HETATM   18  S1  UNL     1     -14.289   4.719 -20.586  1.00  0.00    -0.098 SA
ENDBRANCH   7  14
ENDBRANCH   4   6
ENDBRANCH   3   4
BRANCH   3  19
HETATM   19  C9  UNL     1     -18.608   2.218 -22.768  1.00  0.00     0.054 A 
HETATM   20  C10 UNL     1     -19.789   1.578 -23.082  1.00  0.00     0.079 A 
HETATM   21  S3  UNL     1     -19.227   0.223 -23.943  1.00  0.00    -0.087 SA
HETATM   22  C11 UNL     1     -17.552   0.527 -23.864  1.00  0.00     0.051 A 
HETATM   23  N6  UNL     1     -17.510   1.660 -23.177  1.00  0.00    -0.354 N 
ATOM     24  H6  UNL     1     -16.611   2.095 -22.969  1.00  0.00     0.166 HD
BRANCH  22  25
HETATM   25  C12 UNL     1     -16.363  -0.227 -24.395  1.00  0.00     0.069 C 
BRANCH  25  26
HETATM   26  C13 UNL     1     -15.338  -0.416 -23.297  1.00  0.00    -0.009 C 
HETATM   27  C14 UNL     1     -15.208  -1.877 -23.019  1.00  0.00     0.005 C 
HETATM   28  C15 UNL     1     -13.930  -2.525 -23.435  1.00  0.00     0.000 C 
HETATM   29  C16 UNL     1     -12.815  -1.681 -22.790  1.00  0.00     0.000 C 
HETATM   30  C17 UNL     1     -12.795  -0.404 -23.568  1.00  0.00     0.000 C 
HETATM   31  C18 UNL     1     -14.082   0.332 -23.546  1.00  0.00     0.005 C 
ENDBRANCH  25  26
ENDBRANCH  22  25
ENDBRANCH   3  19
TORSDOF 6
ENDMDL
MODEL 2
REMARK VINA RESULT: -8.654469001      1.719      2.087
REMARK  6 active torsions:
REMARK  status: ('A' for Active; 'I' for Inactive)
REMARK    1  A    between atoms: C2_3  and  N2_4 
REMARK    2  A    between atoms: C2_3  and  C9_19 
REMARK    3  A    between atoms: N2_4  and  N3_6 
REMARK    4  A    between atoms: C3_7  and  C4_8 
REMARK    5  A    between atoms: C11_22  and  C12_23 
REMARK    6  A    between atoms: C12_23  and  C13_24 
ROOT
HETATM    1  N1  UNL     1     -22.537   1.980 -24.294  1.00  0.00    -0.195 NA
HETATM    2  C1  UNL     1     -21.562   2.092 -23.666  1.00  0.00     0.092 C 
HETATM    3  C2  UNL     1     -20.323   2.213 -22.897  1.00  0.00     0.256 C 
ENDROOT
BRANCH   3   4
HETATM    4  N2  UNL     1     -19.744   3.485 -23.193  1.00  0.00    -0.301 N 
ATOM      5  H2  UNL     1     -19.404   3.611 -24.147  1.00  0.00     0.183 HD
BRANCH   4   6
HETATM    6  N3  UNL     1     -19.588   4.568 -22.344  1.00  0.00    -0.212 N 
HETATM    7  C3  UNL     1     -18.466   4.942 -21.724  1.00  0.00     0.161 A 
HETATM    8  N4  UNL     1     -18.735   6.030 -20.953  1.00  0.00    -0.281 N 
HETATM    9  N5  UNL     1     -19.980   6.355 -21.065  1.00  0.00    -0.273 N 
ATOM     10  H4  UNL     1     -18.053   6.518 -20.372  1.00  0.00     0.188 HD
HETATM   11  C8  UNL     1     -20.524   5.456 -21.925  1.00  0.00     0.213 A 
ATOM     12  H5  UNL     1     -20.458   7.128 -20.602  1.00  0.00     0.189 HD
HETATM   13  S2  UNL     1     -22.077   5.502 -22.315  1.00  0.00    -0.037 SA
BRANCH   7  14
HETATM   14  C4  UNL     1     -17.122   4.377 -21.773  1.00  0.00     0.052 A 
HETATM   15  C5  UNL     1     -16.617   3.351 -21.010  1.00  0.00     0.023 A 
HETATM   16  C6  UNL     1     -15.349   2.990 -21.213  1.00  0.00     0.009 A 
HETATM   17  C7  UNL     1     -14.634   3.662 -22.165  1.00  0.00     0.050 A 
HETATM   18  S1  UNL     1     -15.778   4.782 -22.741  1.00  0.00    -0.098 SA
ENDBRANCH   7  14
ENDBRANCH   4   6
ENDBRANCH   3   4
BRANCH   3  19
HETATM   19  C9  UNL     1     -19.379   1.099 -23.335  1.00  0.00     0.054 A 
HETATM   20  C10 UNL     1     -19.834  -0.196 -23.483  1.00  0.00     0.079 A 
HETATM   21  S3  UNL     1     -18.419  -1.003 -23.970  1.00  0.00    -0.087 SA
HETATM   22  C11 UNL     1     -17.338   0.315 -23.961  1.00  0.00     0.051 A 
HETATM   23  N6  UNL     1     -18.124   1.314 -23.584  1.00  0.00    -0.354 N 
ATOM     24  H6  UNL     1     -17.740   2.254 -23.489  1.00  0.00     0.166 HD
BRANCH  22  25
HETATM   25  C12 UNL     1     -15.871   0.419 -24.278  1.00  0.00     0.069 C 
BRANCH  25  26
HETATM   26  C13 UNL     1     -15.057  -0.230 -23.179  1.00  0.00    -0.009 C 
HETATM   27  C14 UNL     1     -15.181  -1.712 -23.311  1.00  0.00     0.005 C 
HETATM   28  C15 UNL     1     -13.962  -2.446 -23.759  1.00  0.00     0.000 C 
HETATM   29  C16 UNL     1     -12.845  -2.013 -22.791  1.00  0.00     0.000 C 
HETATM   30  C17 UNL     1     -12.527  -0.602 -23.172  1.00  0.00     0.000 C 
HETATM   31  C18 UNL     1     -13.683   0.320 -23.076  1.00  0.00     0.005 C 
ENDBRANCH  25  26
ENDBRANCH  22  25
ENDBRANCH   3  19
TORSDOF 6
ENDMDL
MODEL 3
REMARK VINA RESULT: -8.560032683      1.823      3.398
REMARK  6 active torsions:
REMARK  status: ('A' for Active; 'I' for Inactive)
REMARK    1  A    between atoms: C2_3  and  N2_4 
REMARK    2  A    between atoms: C2_3  and  C9_19 
REMARK    3  A    between atoms: N2_4  and  N3_6 
REMARK    4  A    between atoms: C3_7  and  C4_8 
REMARK    5  A    between atoms: C11_22  and  C12_23 
REMARK    6  A    between atoms: C12_23  and  C13_24 
ROOT
HETATM    1  N1  UNL     1     -19.598   5.553 -21.795  1.00  0.00    -0.195 NA
HETATM    2  C1  UNL     1     -18.737   4.784 -21.634  1.00  0.00     0.092 C 
HETATM    3  C2  UNL     1     -17.665   3.804 -21.458  1.00  0.00     0.256 C 
ENDROOT
BRANCH   3   4
HETATM    4  N2  UNL     1     -16.433   4.430 -21.819  1.00  0.00    -0.301 N 
ATOM      5  H2  UNL     1     -16.229   4.475 -22.818  1.00  0.00     0.183 HD
BRANCH   4   6
HETATM    6  N3  UNL     1     -15.481   4.985 -20.979  1.00  0.00    -0.212 N 
HETATM    7  C3  UNL     1     -15.467   6.231 -20.500  1.00  0.00     0.161 A 
HETATM    8  N4  UNL     1     -14.349   6.396 -19.744  1.00  0.00    -0.281 N 
HETATM    9  N5  UNL     1     -13.659   5.303 -19.730  1.00  0.00    -0.273 N 
ATOM     10  H4  UNL     1     -14.092   7.256 -19.260  1.00  0.00     0.188 HD
HETATM   11  C8  UNL     1     -14.349   4.418 -20.493  1.00  0.00     0.213 A 
ATOM     12  H5  UNL     1     -12.777   5.140 -19.245  1.00  0.00     0.189 HD
HETATM   13  S2  UNL     1     -13.808   2.932 -20.748  1.00  0.00    -0.037 SA
BRANCH   7  14
HETATM   14  C4  UNL     1     -16.418   7.324 -20.673  1.00  0.00     0.052 A 
HETATM   15  C5  UNL     1     -17.412   7.713 -19.808  1.00  0.00     0.023 A 
HETATM   16  C6  UNL     1     -18.181   8.744 -20.165  1.00  0.00     0.009 A 
HETATM   17  C7  UNL     1     -17.932   9.344 -21.367  1.00  0.00     0.050 A 
HETATM   18  S1  UNL     1     -16.620   8.433 -21.953  1.00  0.00    -0.098 SA
ENDBRANCH   7  14
ENDBRANCH   4   6
ENDBRANCH   3   4
BRANCH   3  19
HETATM   19  C9  UNL     1     -17.939   2.625 -22.385  1.00  0.00     0.054 A 
HETATM   20  C10 UNL     1     -19.218   2.360 -22.831  1.00  0.00     0.079 A 
HETATM   21  S3  UNL     1     -18.964   0.985 -23.799  1.00  0.00    -0.087 SA
HETATM   22  C11 UNL     1     -17.281   0.815 -23.595  1.00  0.00     0.051 A 
HETATM   23  N6  UNL     1     -16.998   1.830 -22.789  1.00  0.00    -0.354 N 
ATOM     24  H6  UNL     1     -16.036   1.984 -22.487  1.00  0.00     0.166 HD
BRANCH  22  25
HETATM   25  C12 UNL     1     -16.294  -0.183 -24.137  1.00  0.00     0.069 C 
BRANCH  25  26
HETATM   26  C13 UNL     1     -15.175  -0.398 -23.139  1.00  0.00    -0.009 C 
HETATM   27  C14 UNL     1     -15.055  -1.862 -22.873  1.00  0.00     0.005 C 
HETATM   28  C15 UNL     1     -13.838  -2.540 -23.406  1.00  0.00     0.000 C 
HETATM   29  C16 UNL     1     -12.647  -1.724 -22.869  1.00  0.00     0.000 C 
HETATM   30  C17 UNL     1     -12.670  -0.447 -23.647  1.00  0.00     0.000 C 
HETATM   31  C18 UNL     1     -13.930   0.320 -23.505  1.00  0.00     0.005 C 
ENDBRANCH  25  26
ENDBRANCH  22  25
ENDBRANCH   3  19
TORSDOF 6
ENDMDL
MODEL 4
REMARK VINA RESULT: -8.559205381      2.142      3.589
REMARK  6 active torsions:
REMARK  status: ('A' for Active; 'I' for Inactive)
REMARK    1  A    between atoms: C2_3  and  N2_4 
REMARK    2  A    between atoms: C2_3  and  C9_19 
REMARK    3  A    between atoms: N2_4  and  N3_6 
REMARK    4  A    between atoms: C3_7  and  C4_8 
REMARK    5  A    between atoms: C11_22  and  C12_23 
REMARK    6  A    between atoms: C12_23  and  C13_24 
ROOT
HETATM    1  N1  UNL     1     -19.812   1.496 -23.867  1.00  0.00    -0.195 NA
HETATM    2  C1  UNL     1     -19.367   2.293 -23.142  1.00  0.00     0.092 C 
HETATM    3  C2  UNL     1     -18.781   3.294 -22.249  1.00  0.00     0.256 C 
ENDROOT
BRANCH   3   4
HETATM    4  N2  UNL     1     -19.366   4.559 -22.563  1.00  0.00    -0.301 N 
ATOM      5  H2  UNL     1     -19.247   4.881 -23.524  1.00  0.00     0.183 HD
BRANCH   4   6
HETATM    6  N3  UNL     1     -20.073   5.403 -21.723  1.00  0.00    -0.212 N 
HETATM    7  C3  UNL     1     -19.633   6.539 -21.177  1.00  0.00     0.161 A 
HETATM    8  N4  UNL     1     -20.615   7.052 -20.387  1.00  0.00    -0.281 N 
HETATM    9  N5  UNL     1     -21.653   6.284 -20.416  1.00  0.00    -0.273 N 
ATOM     10  H4  UNL     1     -20.541   7.917 -19.851  1.00  0.00     0.188 HD
HETATM   11  C8  UNL     1     -21.332   5.255 -21.241  1.00  0.00     0.213 A 
ATOM     12  H5  UNL     1     -22.533   6.422 -19.920  1.00  0.00     0.189 HD
HETATM   13  S2  UNL     1     -22.358   4.059 -21.527  1.00  0.00    -0.037 SA
BRANCH   7  14
HETATM   14  C4  UNL     1     -18.354   7.225 -21.317  1.00  0.00     0.052 A 
HETATM   15  C5  UNL     1     -17.225   7.056 -20.550  1.00  0.00     0.023 A 
HETATM   16  C6  UNL     1     -16.154   7.794 -20.847  1.00  0.00     0.009 A 
HETATM   17  C7  UNL     1     -16.247   8.671 -21.891  1.00  0.00     0.050 A 
HETATM   18  S1  UNL     1     -17.845   8.422 -22.420  1.00  0.00    -0.098 SA
ENDBRANCH   7  14
ENDBRANCH   4   6
ENDBRANCH   3   4
BRANCH   3  19
HETATM   19  C9  UNL     1     -17.279   3.339 -22.503  1.00  0.00     0.054 A 
HETATM   20  C10 UNL     1     -16.691   4.448 -23.077  1.00  0.00     0.079 A 
HETATM   21  S3  UNL     1     -15.057   3.981 -23.132  1.00  0.00    -0.087 SA
HETATM   22  C11 UNL     1     -15.195   2.430 -22.439  1.00  0.00     0.051 A 
HETATM   23  N6  UNL     1     -16.496   2.350 -22.199  1.00  0.00    -0.354 N 
ATOM     24  H6  UNL     1     -16.883   1.507 -21.773  1.00  0.00     0.166 HD
BRANCH  22  25
HETATM   25  C12 UNL     1     -14.176   1.363 -22.141  1.00  0.00     0.069 C 
BRANCH  25  26
HETATM   26  C13 UNL     1     -14.254   0.268 -23.183  1.00  0.00    -0.009 C 
HETATM   27  C14 UNL     1     -12.872  -0.238 -23.441  1.00  0.00     0.005 C 
HETATM   28  C15 UNL     1     -12.563  -1.613 -22.954  1.00  0.00     0.000 C 
HETATM   29  C16 UNL     1     -13.662  -2.514 -23.548  1.00  0.00     0.000 C 
HETATM   30  C17 UNL     1     -14.900  -2.173 -22.782  1.00  0.00     0.000 C 
HETATM   31  C18 UNL     1     -15.291  -0.747 -22.877  1.00  0.00     0.005 C 
ENDBRANCH  25  26
ENDBRANCH  22  25
ENDBRANCH   3  19
TORSDOF 6
ENDMDL
MODEL 5
REMARK VINA RESULT: -8.532527242      2.745      7.194
REMARK  6 active torsions:
REMARK  status: ('A' for Active; 'I' for Inactive)
REMARK    1  A    between atoms: C2_3  and  N2_4 
REMARK    2  A    between atoms: C2_3  and  C9_19 
REMARK    3  A    between atoms: N2_4  and  N3_6 
REMARK    4  A    between atoms: C3_7  and  C4_8 
REMARK    5  A    between atoms: C11_22  and  C12_23 
REMARK    6  A    between atoms: C12_23  and  C13_24 
ROOT
HETATM    1  N1  UNL     1     -13.057   4.178 -20.524  1.00  0.00    -0.195 NA
HETATM    2  C1  UNL     1     -13.862   3.440 -20.932  1.00  0.00     0.092 C 
HETATM    3  C2  UNL     1     -14.891   2.539 -21.453  1.00  0.00     0.256 C 
ENDROOT
BRANCH   3   4
HETATM    4  N2  UNL     1     -14.405   1.977 -22.674  1.00  0.00    -0.301 N 
ATOM      5  H2  UNL     1     -14.520   2.552 -23.508  1.00  0.00     0.183 HD
BRANCH   4   6
HETATM    6  N3  UNL     1     -13.797   0.747 -22.862  1.00  0.00    -0.212 N 
HETATM    7  C3  UNL     1     -14.403  -0.407 -23.155  1.00  0.00     0.161 A 
HETATM    8  N4  UNL     1     -13.464  -1.388 -23.222  1.00  0.00    -0.281 N 
HETATM    9  N5  UNL     1     -12.293  -0.897 -22.984  1.00  0.00    -0.273 N 
ATOM     10  H4  UNL     1     -13.656  -2.368 -23.430  1.00  0.00     0.188 HD
HETATM   11  C8  UNL     1     -12.484   0.428 -22.758  1.00  0.00     0.213 A 
ATOM     12  H5  UNL     1     -11.406  -1.401 -22.968  1.00  0.00     0.189 HD
HETATM   13  S2  UNL     1     -11.263   1.401 -22.399  1.00  0.00    -0.037 SA
BRANCH   7  14
HETATM   14  C4  UNL     1     -15.811  -0.705 -23.389  1.00  0.00     0.052 A 
HETATM   15  C5  UNL     1     -16.444  -1.918 -23.251  1.00  0.00     0.023 A 
HETATM   16  C6  UNL     1     -17.749  -1.974 -23.524  1.00  0.00     0.009 A 
HETATM   17  C7  UNL     1     -18.372  -0.825 -23.923  1.00  0.00     0.050 A 
HETATM   18  S1  UNL     1     -17.093   0.297 -23.899  1.00  0.00    -0.098 SA
ENDBRANCH   7  14
ENDBRANCH   4   6
ENDBRANCH   3   4
BRANCH   3  19
HETATM   19  C9  UNL     1     -16.148   3.357 -21.723  1.00  0.00     0.054 A 
HETATM   20  C10 UNL     1     -16.067   4.615 -22.284  1.00  0.00     0.079 A 
HETATM   21  S3  UNL     1     -17.706   5.063 -22.361  1.00  0.00    -0.087 SA
HETATM   22  C11 UNL     1     -18.402   3.660 -21.690  1.00  0.00     0.051 A 
HETATM   23  N6  UNL     1     -17.335   2.914 -21.440  1.00  0.00    -0.354 N 
ATOM     24  H6  UNL     1     -17.447   1.990 -21.024  1.00  0.00     0.166 HD
BRANCH  22  25
HETATM   25  C12 UNL     1     -19.831   3.276 -21.412  1.00  0.00     0.069 C 
BRANCH  25  26
HETATM   26  C13 UNL     1     -20.669   3.465 -22.659  1.00  0.00    -0.009 C 
HETATM   27  C14 UNL     1     -20.299   2.403 -23.642  1.00  0.00     0.005 C 
HETATM   28  C15 UNL     1     -21.320   1.346 -23.898  1.00  0.00     0.000 C 
HETATM   29  C16 UNL     1     -22.606   2.103 -24.276  1.00  0.00     0.000 C 
HETATM   30  C17 UNL     1     -23.088   2.711 -22.998  1.00  0.00     0.000 C 
HETATM   31  C18 UNL     1     -22.113   3.630 -22.364  1.00  0.00     0.005 C 
ENDBRANCH  25  26
ENDBRANCH  22  25
ENDBRANCH   3  19
TORSDOF 6
ENDMDL
