MODEL 1
REMARK VINA RESULT: -9.680017327      0.000      0.000
REMARK  8 active torsions:
REMARK  status: ('A' for Active; 'I' for Inactive)
REMARK    1  A    between atoms: C3_4  and  N2_5 
REMARK    2  A    between atoms: N2_5  and  O1_7 
REMARK    3  A    between atoms: C5_10  and  C6_11 
REMARK    4  A    between atoms: C6_11  and  C7_12 
REMARK    5  A    between atoms: C9_18  and  O3_19 
REMARK    6  A    between atoms: C11_22  and  C12_23 
REMARK    7  A    between atoms: C12_23  and  C13_24 
REMARK    8  A    between atoms: C13_24  and  C14_25 
ROOT
HETATM    1  N1  UNL     1     -13.022  -2.566 -23.048  1.00  0.00    -0.191 NA
HETATM    2  C1  UNL     1     -13.720  -1.639 -23.120  1.00  0.00     0.103 C 
HETATM    3  C2  UNL     1     -14.559  -0.486 -23.225  1.00  0.00     0.091 A 
HETATM    4  C3  UNL     1     -14.030   0.768 -23.106  1.00  0.00     0.076 A 
HETATM    5  C4  UNL     1     -14.911   1.809 -23.229  1.00  0.00     0.041 A 
HETATM    6  C5  UNL     1     -16.270   1.679 -23.461  1.00  0.00    -0.039 A 
HETATM    7  C10 UNL     1     -16.829   0.380 -23.583  1.00  0.00    -0.004 A 
HETATM    8  C11 UNL     1     -18.132   0.025 -23.815  1.00  0.00    -0.039 A 
HETATM    9  C19 UNL     1     -18.365  -1.347 -23.897  1.00  0.00     0.058 A 
HETATM   10  S2  UNL     1     -16.841  -2.063 -23.658  1.00  0.00    -0.099 SA
HETATM   11  C20 UNL     1     -15.928  -0.644 -23.458  1.00  0.00     0.039 A 
ENDROOT
BRANCH   4  12
HETATM   12  N2  UNL     1     -12.660   1.031 -22.873  1.00  0.00    -0.268 N 
ATOM     13  H2  UNL     1     -12.050   1.137 -23.685  1.00  0.00     0.194 HD
BRANCH  12  14
HETATM   14  O1  UNL     1     -12.147   1.144 -21.743  1.00  0.00    -0.289 OA
ATOM     15  H1  UNL     1     -11.504   0.544 -21.383  1.00  0.00     0.244 HD
ENDBRANCH  12  14
ENDBRANCH   4  12
BRANCH   6  16
HETATM   16  C6  UNL     1     -17.041   2.911 -23.603  1.00  0.00     0.090 C 
BRANCH  16  17
HETATM   17  C7  UNL     1     -16.757   3.830 -22.414  1.00  0.00     0.043 A 
HETATM   18  S1  UNL     1     -15.609   5.080 -22.242  1.00  0.00    -0.029 SA
HETATM   19  C8  UNL     1     -16.015   5.574 -20.658  1.00  0.00     0.290 A 
HETATM   20  O2  UNL     1     -15.505   6.504 -19.928  1.00  0.00    -0.260 OA
HETATM   21  N3  UNL     1     -17.014   4.754 -20.333  1.00  0.00    -0.297 N 
HETATM   22  C9  UNL     1     -17.402   3.866 -21.208  1.00  0.00     0.157 A 
ATOM     23  H3  UNL     1     -17.467   4.819 -19.421  1.00  0.00     0.171 HD
BRANCH  22  24
HETATM   24  O3  UNL     1     -18.460   2.951 -20.943  1.00  0.00    -0.345 OA
ATOM     25  H3  UNL     1     -18.264   2.089 -20.597  1.00  0.00     0.219 HD
ENDBRANCH  22  24
ENDBRANCH  16  17
ENDBRANCH   6  16
BRANCH   8  26
HETATM   26  C12 UNL     1     -19.361   0.877 -23.909  1.00  0.00     0.040 C 
BRANCH  26  27
HETATM   27  C13 UNL     1     -20.540  -0.006 -24.208  1.00  0.00     0.009 C 
BRANCH  27  28
HETATM   28  C14 UNL     1     -21.833   0.621 -23.706  1.00  0.00    -0.014 C 
HETATM   29  C15 UNL     1     -22.982  -0.214 -24.202  1.00  0.00     0.004 C 
HETATM   30  C16 UNL     1     -23.569   0.559 -25.370  1.00  0.00     0.000 C 
HETATM   31  C17 UNL     1     -23.404   1.977 -24.874  1.00  0.00     0.000 C 
HETATM   32  C18 UNL     1     -22.024   1.996 -24.294  1.00  0.00     0.004 C 
ENDBRANCH  27  28
ENDBRANCH  26  27
ENDBRANCH   8  26
TORSDOF 8
ENDMDL
MODEL 2
REMARK VINA RESULT: -9.420864510      3.047      6.305
REMARK  8 active torsions:
REMARK  status: ('A' for Active; 'I' for Inactive)
REMARK    1  A    between atoms: C3_4  and  N2_5 
REMARK    2  A    between atoms: N2_5  and  O1_7 
REMARK    3  A    between atoms: C5_10  and  C6_11 
REMARK    4  A    between atoms: C6_11  and  C7_12 
REMARK    5  A    between atoms: C9_18  and  O3_19 
REMARK    6  A    between atoms: C11_22  and  C12_23 
REMARK    7  A    between atoms: C12_23  and  C13_24 
REMARK    8  A    between atoms: C13_24  and  C14_25 
ROOT
HETATM    1  N1  UNL     1     -22.514   3.969 -20.924  1.00  0.00    -0.191 NA
HETATM    2  C1  UNL     1     -21.424   4.025 -21.324  1.00  0.00     0.103 C 
HETATM    3  C2  UNL     1     -20.075   4.104 -21.791  1.00  0.00     0.091 A 
HETATM    4  C3  UNL     1     -19.334   5.232 -21.577  1.00  0.00     0.076 A 
HETATM    5  C4  UNL     1     -18.051   5.211 -22.055  1.00  0.00     0.041 A 
HETATM    6  C5  UNL     1     -17.467   4.147 -22.724  1.00  0.00    -0.039 A 
HETATM    7  C10 UNL     1     -18.231   2.973 -22.953  1.00  0.00    -0.004 A 
HETATM    8  C11 UNL     1     -17.856   1.814 -23.582  1.00  0.00    -0.039 A 
HETATM    9  C19 UNL     1     -18.837   0.827 -23.636  1.00  0.00     0.058 A 
HETATM   10  S2  UNL     1     -20.184   1.508 -22.853  1.00  0.00    -0.099 SA
HETATM   11  C20 UNL     1     -19.510   3.017 -22.465  1.00  0.00     0.039 A 
ENDROOT
BRANCH   4  12
HETATM   12  N2  UNL     1     -19.814   6.380 -20.905  1.00  0.00    -0.268 N 
ATOM     13  H2  UNL     1     -20.825   6.496 -20.823  1.00  0.00     0.194 HD
BRANCH  12  14
HETATM   14  O1  UNL     1     -19.086   7.260 -20.407  1.00  0.00    -0.289 OA
ATOM     15  H1  UNL     1     -18.152   7.165 -20.260  1.00  0.00     0.244 HD
ENDBRANCH  12  14
ENDBRANCH   4  12
BRANCH   6  16
HETATM   16  C6  UNL     1     -16.071   4.298 -23.121  1.00  0.00     0.090 C 
BRANCH  16  17
HETATM   17  C7  UNL     1     -15.165   3.960 -21.936  1.00  0.00     0.043 A 
HETATM   18  S1  UNL     1     -14.473   2.471 -21.472  1.00  0.00    -0.029 SA
HETATM   19  C8  UNL     1     -13.609   3.013 -20.102  1.00  0.00     0.290 A 
HETATM   20  O2  UNL     1     -12.859   2.358 -19.287  1.00  0.00    -0.260 OA
HETATM   21  N3  UNL     1     -13.892   4.316 -20.063  1.00  0.00    -0.297 N 
HETATM   22  C9  UNL     1     -14.678   4.811 -20.982  1.00  0.00     0.157 A 
ATOM     23  H3  UNL     1     -13.504   4.912 -19.332  1.00  0.00     0.171 HD
BRANCH  22  24
HETATM   24  O3  UNL     1     -15.032   6.189 -21.014  1.00  0.00    -0.345 OA
ATOM     25  H3  UNL     1     -14.849   6.742 -20.264  1.00  0.00     0.219 HD
ENDBRANCH  22  24
ENDBRANCH  16  17
ENDBRANCH   6  16
BRANCH   8  26
HETATM   26  C12 UNL     1     -16.583   1.475 -24.296  1.00  0.00     0.040 C 
BRANCH  26  27
HETATM   27  C13 UNL     1     -16.429  -0.020 -24.325  1.00  0.00     0.009 C 
BRANCH  27  28
HETATM   28  C14 UNL     1     -15.571  -0.504 -23.164  1.00  0.00    -0.014 C 
HETATM   29  C15 UNL     1     -14.126  -0.318 -23.540  1.00  0.00     0.004 C 
HETATM   30  C16 UNL     1     -13.626  -1.701 -23.918  1.00  0.00     0.000 C 
HETATM   31  C17 UNL     1     -14.379  -2.549 -22.918  1.00  0.00     0.000 C 
HETATM   32  C18 UNL     1     -15.764  -1.980 -22.935  1.00  0.00     0.004 C 
ENDBRANCH  27  28
ENDBRANCH  26  27
ENDBRANCH   8  26
TORSDOF 8
ENDMDL
MODEL 3
REMARK VINA RESULT: -9.105891445      2.740      6.067
REMARK  8 active torsions:
REMARK  status: ('A' for Active; 'I' for Inactive)
REMARK    1  A    between atoms: C3_4  and  N2_5 
REMARK    2  A    between atoms: N2_5  and  O1_7 
REMARK    3  A    between atoms: C5_10  and  C6_11 
REMARK    4  A    between atoms: C6_11  and  C7_12 
REMARK    5  A    between atoms: C9_18  and  O3_19 
REMARK    6  A    between atoms: C11_22  and  C12_23 
REMARK    7  A    between atoms: C12_23  and  C13_24 
REMARK    8  A    between atoms: C13_24  and  C14_25 
ROOT
HETATM    1  N1  UNL     1     -22.540   3.544 -21.768  1.00  0.00    -0.191 NA
HETATM    2  C1  UNL     1     -21.405   3.428 -21.995  1.00  0.00     0.103 C 
HETATM    3  C2  UNL     1     -20.005   3.294 -22.246  1.00  0.00     0.091 A 
HETATM    4  C3  UNL     1     -19.138   4.283 -21.878  1.00  0.00     0.076 A 
HETATM    5  C4  UNL     1     -17.815   4.061 -22.155  1.00  0.00     0.041 A 
HETATM    6  C5  UNL     1     -17.309   2.927 -22.768  1.00  0.00    -0.039 A 
HETATM    7  C10 UNL     1     -18.203   1.895 -23.157  1.00  0.00    -0.004 A 
HETATM    8  C11 UNL     1     -17.921   0.700 -23.766  1.00  0.00    -0.039 A 
HETATM    9  C19 UNL     1     -19.026  -0.115 -24.008  1.00  0.00     0.058 A 
HETATM   10  S2  UNL     1     -20.355   0.765 -23.414  1.00  0.00    -0.099 SA
HETATM   11  C20 UNL     1     -19.519   2.140 -22.868  1.00  0.00     0.039 A 
ENDROOT
BRANCH   4  12
HETATM   12  N2  UNL     1     -19.530   5.485 -21.243  1.00  0.00    -0.268 N 
ATOM     13  H2  UNL     1     -20.527   5.640 -21.092  1.00  0.00     0.194 HD
BRANCH  12  14
HETATM   14  O1  UNL     1     -18.739   6.367 -20.855  1.00  0.00    -0.289 OA
ATOM     15  H1  UNL     1     -18.805   7.286 -21.086  1.00  0.00     0.244 HD
ENDBRANCH  12  14
ENDBRANCH   4  12
BRANCH   6  16
HETATM   16  C6  UNL     1     -15.861   2.855 -22.941  1.00  0.00     0.090 C 
BRANCH  16  17
HETATM   17  C7  UNL     1     -15.176   3.664 -21.839  1.00  0.00     0.043 A 
HETATM   18  S1  UNL     1     -15.278   5.328 -21.473  1.00  0.00    -0.029 SA
HETATM   19  C8  UNL     1     -14.250   5.346 -20.109  1.00  0.00     0.290 A 
HETATM   20  O2  UNL     1     -13.902   6.327 -19.352  1.00  0.00    -0.260 OA
HETATM   21  N3  UNL     1     -13.874   4.072 -19.997  1.00  0.00    -0.297 N 
HETATM   22  C9  UNL     1     -14.332   3.208 -20.864  1.00  0.00     0.157 A 
ATOM     23  H3  UNL     1     -13.243   3.777 -19.252  1.00  0.00     0.171 HD
BRANCH  22  24
HETATM   24  O3  UNL     1     -13.981   1.829 -20.818  1.00  0.00    -0.345 OA
ATOM     25  H3  UNL     1     -13.069   1.571 -20.878  1.00  0.00     0.219 HD
ENDBRANCH  22  24
ENDBRANCH  16  17
ENDBRANCH   6  16
BRANCH   8  26
HETATM   26  C12 UNL     1     -16.622   0.169 -24.291  1.00  0.00     0.040 C 
BRANCH  26  27
HETATM   27  C13 UNL     1     -16.445  -1.242 -23.804  1.00  0.00     0.009 C 
BRANCH  27  28
HETATM   28  C14 UNL     1     -15.268  -1.345 -22.844  1.00  0.00    -0.014 C 
HETATM   29  C15 UNL     1     -14.286  -0.259 -23.189  1.00  0.00     0.004 C 
HETATM   30  C16 UNL     1     -13.168  -0.952 -23.947  1.00  0.00     0.000 C 
HETATM   31  C17 UNL     1     -13.104  -2.267 -23.204  1.00  0.00     0.000 C 
HETATM   32  C18 UNL     1     -14.540  -2.651 -23.028  1.00  0.00     0.004 C 
ENDBRANCH  27  28
ENDBRANCH  26  27
ENDBRANCH   8  26
TORSDOF 8
ENDMDL
MODEL 4
REMARK VINA RESULT: -9.103390770      1.294      1.592
REMARK  8 active torsions:
REMARK  status: ('A' for Active; 'I' for Inactive)
REMARK    1  A    between atoms: C3_4  and  N2_5 
REMARK    2  A    between atoms: N2_5  and  O1_7 
REMARK    3  A    between atoms: C5_10  and  C6_11 
REMARK    4  A    between atoms: C6_11  and  C7_12 
REMARK    5  A    between atoms: C9_18  and  O3_19 
REMARK    6  A    between atoms: C11_22  and  C12_23 
REMARK    7  A    between atoms: C12_23  and  C13_24 
REMARK    8  A    between atoms: C13_24  and  C14_25 
ROOT
HETATM    1  N1  UNL     1     -12.257  -2.804 -22.797  1.00  0.00    -0.191 NA
HETATM    2  C1  UNL     1     -12.874  -1.821 -22.853  1.00  0.00     0.103 C 
HETATM    3  C2  UNL     1     -13.611  -0.599 -22.937  1.00  0.00     0.091 A 
HETATM    4  C3  UNL     1     -12.992   0.599 -22.719  1.00  0.00     0.076 A 
HETATM    5  C4  UNL     1     -13.780   1.714 -22.828  1.00  0.00     0.041 A 
HETATM    6  C5  UNL     1     -15.130   1.709 -23.139  1.00  0.00    -0.039 A 
HETATM    7  C10 UNL     1     -15.781   0.468 -23.365  1.00  0.00    -0.004 A 
HETATM    8  C11 UNL     1     -17.093   0.234 -23.686  1.00  0.00    -0.039 A 
HETATM    9  C19 UNL     1     -17.429  -1.108 -23.858  1.00  0.00     0.058 A 
HETATM   10  S2  UNL     1     -15.982  -1.958 -23.579  1.00  0.00    -0.099 SA
HETATM   11  C20 UNL     1     -14.973  -0.631 -23.251  1.00  0.00     0.039 A 
ENDROOT
BRANCH   4  12
HETATM   12  N2  UNL     1     -11.622   0.737 -22.398  1.00  0.00    -0.268 N 
ATOM     13  H2  UNL     1     -11.127  -0.088 -22.058  1.00  0.00     0.194 HD
BRANCH  12  14
HETATM   14  O1  UNL     1     -10.977   1.798 -22.503  1.00  0.00    -0.289 OA
ATOM     15  H1  UNL     1     -11.370   2.661 -22.561  1.00  0.00     0.244 HD
ENDBRANCH  12  14
ENDBRANCH   4  12
BRANCH   6  16
HETATM   16  C6  UNL     1     -15.791   3.006 -23.252  1.00  0.00     0.090 C 
BRANCH  16  17
HETATM   17  C7  UNL     1     -15.415   3.875 -22.051  1.00  0.00     0.043 A 
HETATM   18  S1  UNL     1     -13.884   4.395 -21.508  1.00  0.00    -0.029 SA
HETATM   19  C8  UNL     1     -14.397   5.325 -20.171  1.00  0.00     0.290 A 
HETATM   20  O2  UNL     1     -13.704   6.002 -19.322  1.00  0.00    -0.260 OA
HETATM   21  N3  UNL     1     -15.723   5.194 -20.202  1.00  0.00    -0.297 N 
HETATM   22  C9  UNL     1     -16.255   4.464 -21.146  1.00  0.00     0.157 A 
ATOM     23  H3  UNL     1     -16.310   5.653 -19.505  1.00  0.00     0.171 HD
BRANCH  22  24
HETATM   24  O3  UNL     1     -17.661   4.269 -21.252  1.00  0.00    -0.345 OA
ATOM     25  H3  UNL     1     -18.000   3.492 -21.681  1.00  0.00     0.219 HD
ENDBRANCH  22  24
ENDBRANCH  16  17
ENDBRANCH   6  16
BRANCH   8  26
HETATM   26  C12 UNL     1     -18.243   1.188 -23.796  1.00  0.00     0.040 C 
BRANCH  26  27
HETATM   27  C13 UNL     1     -19.514   0.398 -23.941  1.00  0.00     0.009 C 
BRANCH  27  28
HETATM   28  C14 UNL     1     -20.633   1.007 -23.107  1.00  0.00    -0.014 C 
HETATM   29  C15 UNL     1     -21.781   1.327 -24.026  1.00  0.00     0.004 C 
HETATM   30  C16 UNL     1     -21.716   2.829 -24.244  1.00  0.00     0.000 C 
HETATM   31  C17 UNL     1     -21.271   3.288 -22.874  1.00  0.00     0.000 C 
HETATM   32  C18 UNL     1     -20.197   2.315 -22.500  1.00  0.00     0.004 C 
ENDBRANCH  27  28
ENDBRANCH  26  27
ENDBRANCH   8  26
TORSDOF 8
ENDMDL
MODEL 5
REMARK VINA RESULT: -8.854997907      1.184      1.259
REMARK  8 active torsions:
REMARK  status: ('A' for Active; 'I' for Inactive)
REMARK    1  A    between atoms: C3_4  and  N2_5 
REMARK    2  A    between atoms: N2_5  and  O1_7 
REMARK    3  A    between atoms: C5_10  and  C6_11 
REMARK    4  A    between atoms: C6_11  and  C7_12 
REMARK    5  A    between atoms: C9_18  and  O3_19 
REMARK    6  A    between atoms: C11_22  and  C12_23 
REMARK    7  A    between atoms: C12_23  and  C13_24 
REMARK    8  A    between atoms: C13_24  and  C14_25 
ROOT
HETATM    1  N1  UNL     1     -12.087  -0.719 -22.946  1.00  0.00    -0.191 NA
HETATM    2  C1  UNL     1     -12.978   0.027 -22.959  1.00  0.00     0.103 C 
HETATM    3  C2  UNL     1     -14.058   0.963 -22.992  1.00  0.00     0.091 A 
HETATM    4  C3  UNL     1     -13.839   2.282 -22.712  1.00  0.00     0.076 A 
HETATM    5  C4  UNL     1     -14.934   3.102 -22.775  1.00  0.00     0.041 A 
HETATM    6  C5  UNL     1     -16.218   2.694 -23.097  1.00  0.00    -0.039 A 
HETATM    7  C10 UNL     1     -16.455   1.325 -23.387  1.00  0.00    -0.004 A 
HETATM    8  C11 UNL     1     -17.631   0.712 -23.729  1.00  0.00    -0.039 A 
HETATM    9  C19 UNL     1     -17.537  -0.658 -23.968  1.00  0.00     0.058 A 
HETATM   10  S2  UNL     1     -15.896  -1.031 -23.717  1.00  0.00    -0.099 SA
HETATM   11  C20 UNL     1     -15.345   0.526 -23.318  1.00  0.00     0.039 A 
ENDROOT
BRANCH   4  12
HETATM   12  N2  UNL     1     -12.576   2.822 -22.374  1.00  0.00    -0.268 N 
ATOM     13  H2  UNL     1     -11.874   2.888 -23.111  1.00  0.00     0.194 HD
BRANCH  12  14
HETATM   14  O1  UNL     1     -12.263   3.222 -21.236  1.00  0.00    -0.289 OA
ATOM     15  H1  UNL     1     -11.974   4.106 -21.039  1.00  0.00     0.244 HD
ENDBRANCH  12  14
ENDBRANCH   4  12
BRANCH   6  16
HETATM   16  C6  UNL     1     -17.249   3.726 -23.153  1.00  0.00     0.090 C 
BRANCH  16  17
HETATM   17  C7  UNL     1     -17.004   4.752 -22.045  1.00  0.00     0.043 A 
HETATM   18  S1  UNL     1     -16.529   6.387 -22.148  1.00  0.00    -0.029 SA
HETATM   19  C8  UNL     1     -16.541   6.755 -20.480  1.00  0.00     0.290 A 
HETATM   20  O2  UNL     1     -16.270   7.860 -19.877  1.00  0.00    -0.260 OA
HETATM   21  N3  UNL     1     -16.910   5.603 -19.920  1.00  0.00    -0.297 N 
HETATM   22  C9  UNL     1     -17.148   4.580 -20.696  1.00  0.00     0.157 A 
ATOM     23  H3  UNL     1     -17.005   5.522 -18.907  1.00  0.00     0.171 HD
BRANCH  22  24
HETATM   24  O3  UNL     1     -17.545   3.313 -20.181  1.00  0.00    -0.345 OA
ATOM     25  H3  UNL     1     -18.006   3.263 -19.352  1.00  0.00     0.219 HD
ENDBRANCH  22  24
ENDBRANCH  16  17
ENDBRANCH   6  16
BRANCH   8  26
HETATM   26  C12 UNL     1     -19.021   1.267 -23.803  1.00  0.00     0.040 C 
BRANCH  26  27
HETATM   27  C13 UNL     1     -19.987   0.130 -23.992  1.00  0.00     0.009 C 
BRANCH  27  28
HETATM   28  C14 UNL     1     -21.374   0.502 -23.486  1.00  0.00    -0.014 C 
HETATM   29  C15 UNL     1     -22.374  -0.398 -24.158  1.00  0.00     0.004 C 
HETATM   30  C16 UNL     1     -23.017   0.449 -25.241  1.00  0.00     0.000 C 
HETATM   31  C17 UNL     1     -23.070   1.791 -24.547  1.00  0.00     0.000 C 
HETATM   32  C18 UNL     1     -21.730   1.909 -23.890  1.00  0.00     0.004 C 
ENDBRANCH  27  28
ENDBRANCH  26  27
ENDBRANCH   8  26
TORSDOF 8
ENDMDL
