MODEL 1
REMARK VINA RESULT: -9.090950424      0.000      0.000
REMARK  8 active torsions:
REMARK  status: ('A' for Active; 'I' for Inactive)
REMARK    1  A    between atoms: C4_4  and  C5_5 
REMARK    2  A    between atoms: C5_5  and  C6_6 
REMARK    3  A    between atoms: C6_6  and  C7_7 
REMARK    4  A    between atoms: C7_7  and  C8_8 
REMARK    5  A    between atoms: C7_7  and  C13_14 
REMARK    6  A    between atoms: C8_8  and  C9_9 
REMARK    7  A    between atoms: C13_14  and  C14_15 
REMARK    8  A    between atoms: C21_25  and  O5_26 
ROOT
HETATM    1  C14 UNL     1     -15.418   4.157 -20.996  1.00  0.00     0.337 C 
HETATM    2  O2  UNL     1     -14.924   5.497 -21.110  1.00  0.00    -0.175 OA
HETATM    3  O3  UNL     1     -15.266   6.122 -20.024  1.00  0.00    -0.059 OA
HETATM    4  O4  UNL     1     -16.545   6.279 -19.845  1.00  0.00    -0.145 OA
HETATM    5  C15 UNL     1     -17.278   6.401 -21.004  1.00  0.00     0.309 C 
HETATM    6  C16 UNL     1     -16.847   7.509 -21.903  1.00  0.00     0.099 C 
HETATM    7  C17 UNL     1     -16.214   8.682 -21.258  1.00  0.00     0.012 C 
HETATM    8  C18 UNL     1     -16.932   9.327 -20.137  1.00  0.00     0.041 C 
HETATM    9  C19 UNL     1     -18.398   9.221 -20.148  1.00  0.00    -0.026 A 
HETATM   10  C20 UNL     1     -19.512   9.883 -20.015  1.00  0.00     0.048 A 
HETATM   11  C21 UNL     1     -20.324   8.693 -20.237  1.00  0.00     0.093 A 
HETATM   12  C22 UNL     1     -19.186   8.015 -20.374  1.00  0.00     0.072 A 
HETATM   13  N1  UNL     1     -18.672   6.694 -20.632  1.00  0.00    -0.329 N 
ATOM     14  H1  UNL     1     -19.318   5.908 -20.552  1.00  0.00     0.165 HD
HETATM   15  O6  UNL     1     -17.266   5.198 -21.722  1.00  0.00    -0.173 OA
HETATM   16  O7  UNL     1     -16.799   4.276 -20.938  1.00  0.00    -0.200 OA
ENDROOT
BRANCH   1  17
HETATM   17  C13 UNL     1     -14.886   3.432 -22.159  1.00  0.00     0.071 C 
BRANCH  17  18
HETATM   18  C7  UNL     1     -15.345   2.079 -22.486  1.00  0.00    -0.005 C 
BRANCH  18  19
HETATM   19  C6  UNL     1     -15.889   1.895 -23.842  1.00  0.00     0.009 C 
BRANCH  19  20
HETATM   20  C5  UNL     1     -16.562   0.616 -24.175  1.00  0.00     0.028 C 
BRANCH  20  21
HETATM   21  C4  UNL     1     -18.027   0.831 -23.924  1.00  0.00    -0.025 C 
HETATM   22  C2  UNL     1     -18.907  -0.147 -23.847  1.00  0.00    -0.091 C 
HETATM   23  C1  UNL     1     -18.385  -1.529 -24.024  1.00  0.00     0.042 C 
HETATM   24  C3  UNL     1     -20.350   0.083 -23.599  1.00  0.00     0.042 C 
ENDBRANCH  20  21
ENDBRANCH  19  20
ENDBRANCH  18  19
BRANCH  18  25
HETATM   25  C8  UNL     1     -14.525   0.932 -21.935  1.00  0.00     0.045 C 
BRANCH  25  26
HETATM   26  C9  UNL     1     -13.135   0.897 -22.445  1.00  0.00    -0.034 A 
HETATM   27  C10 UNL     1     -12.658   0.217 -23.532  1.00  0.00     0.033 A 
HETATM   28  C11 UNL     1     -11.307   0.474 -23.629  1.00  0.00     0.142 A 
HETATM   29  O1  UNL     1     -11.022   1.266 -22.644  1.00  0.00    -0.334 OA
HETATM   30  C12 UNL     1     -12.057   1.556 -21.906  1.00  0.00     0.148 A 
ENDBRANCH  25  26
ENDBRANCH  18  25
ENDBRANCH  17  18
ENDBRANCH   1  17
BRANCH  11  31
HETATM   31  O5  UNL     1     -21.654   8.387 -20.287  1.00  0.00    -0.358 OA
ATOM     32  H5  UNL     1     -22.289   7.958 -19.726  1.00  0.00     0.217 HD
ENDBRANCH  11  31
TORSDOF 8
ENDMDL
MODEL 2
REMARK VINA RESULT: -9.070153079      2.139      4.542
REMARK  8 active torsions:
REMARK  status: ('A' for Active; 'I' for Inactive)
REMARK    1  A    between atoms: C4_4  and  C5_5 
REMARK    2  A    between atoms: C5_5  and  C6_6 
REMARK    3  A    between atoms: C6_6  and  C7_7 
REMARK    4  A    between atoms: C7_7  and  C8_8 
REMARK    5  A    between atoms: C7_7  and  C13_14 
REMARK    6  A    between atoms: C8_8  and  C9_9 
REMARK    7  A    between atoms: C13_14  and  C14_15 
REMARK    8  A    between atoms: C21_25  and  O5_26 
ROOT
HETATM    1  C14 UNL     1     -16.776   4.940 -22.959  1.00  0.00     0.337 C 
HETATM    2  O2  UNL     1     -17.833   5.701 -22.362  1.00  0.00    -0.175 OA
HETATM    3  O3  UNL     1     -17.635   6.943 -22.683  1.00  0.00    -0.059 OA
HETATM    4  O4  UNL     1     -16.555   7.483 -22.199  1.00  0.00    -0.145 OA
HETATM    5  C15 UNL     1     -16.161   6.986 -20.977  1.00  0.00     0.309 C 
HETATM    6  C16 UNL     1     -17.188   7.080 -19.901  1.00  0.00     0.099 C 
HETATM    7  C17 UNL     1     -18.165   8.187 -20.010  1.00  0.00     0.012 C 
HETATM    8  C18 UNL     1     -17.641   9.559 -20.189  1.00  0.00     0.041 C 
HETATM    9  C19 UNL     1     -16.310   9.831 -19.628  1.00  0.00    -0.026 A 
HETATM   10  C20 UNL     1     -15.610  10.662 -18.908  1.00  0.00     0.048 A 
HETATM   11  C21 UNL     1     -14.398   9.864 -19.046  1.00  0.00     0.093 A 
HETATM   12  C22 UNL     1     -15.112   9.014 -19.782  1.00  0.00     0.072 A 
HETATM   13  N1  UNL     1     -15.009   7.778 -20.514  1.00  0.00    -0.329 N 
ATOM     14  H1  UNL     1     -14.074   7.427 -20.725  1.00  0.00     0.165 HD
HETATM   15  O6  UNL     1     -15.747   5.653 -21.100  1.00  0.00    -0.173 OA
HETATM   16  O7  UNL     1     -15.610   5.398 -22.364  1.00  0.00    -0.200 OA
ENDROOT
BRANCH   1  17
HETATM   17  C13 UNL     1     -17.109   3.529 -22.714  1.00  0.00     0.071 C 
BRANCH  17  18
HETATM   18  C7  UNL     1     -16.200   2.453 -23.119  1.00  0.00    -0.005 C 
BRANCH  18  19
HETATM   19  C6  UNL     1     -15.601   1.671 -22.023  1.00  0.00     0.009 C 
BRANCH  19  20
HETATM   20  C5  UNL     1     -14.198   1.208 -22.159  1.00  0.00     0.028 C 
BRANCH  20  21
HETATM   21  C4  UNL     1     -14.261  -0.273 -22.395  1.00  0.00    -0.025 C 
HETATM   22  C2  UNL     1     -13.464  -0.916 -23.224  1.00  0.00    -0.091 C 
HETATM   23  C1  UNL     1     -12.457  -0.097 -23.950  1.00  0.00     0.042 C 
HETATM   24  C3  UNL     1     -13.540  -2.380 -23.444  1.00  0.00     0.042 C 
ENDBRANCH  20  21
ENDBRANCH  19  20
ENDBRANCH  18  19
BRANCH  18  25
HETATM   25  C8  UNL     1     -16.576   1.677 -24.362  1.00  0.00     0.045 C 
BRANCH  25  26
HETATM   26  C9  UNL     1     -17.521   0.566 -24.106  1.00  0.00    -0.034 A 
HETATM   27  C10 UNL     1     -17.252  -0.776 -24.088  1.00  0.00     0.033 A 
HETATM   28  C11 UNL     1     -18.430  -1.436 -23.809  1.00  0.00     0.142 A 
HETATM   29  O1  UNL     1     -19.333  -0.516 -23.673  1.00  0.00    -0.334 OA
HETATM   30  C12 UNL     1     -18.863   0.688 -23.836  1.00  0.00     0.148 A 
ENDBRANCH  25  26
ENDBRANCH  18  25
ENDBRANCH  17  18
ENDBRANCH   1  17
BRANCH  11  31
HETATM   31  O5  UNL     1     -13.102   9.935 -18.620  1.00  0.00    -0.358 OA
ATOM     32  H5  UNL     1     -12.264  10.188 -18.988  1.00  0.00     0.217 HD
ENDBRANCH  11  31
TORSDOF 8
ENDMDL
MODEL 3
REMARK VINA RESULT: -8.938745691      1.709      2.630
REMARK  8 active torsions:
REMARK  status: ('A' for Active; 'I' for Inactive)
REMARK    1  A    between atoms: C4_4  and  C5_5 
REMARK    2  A    between atoms: C5_5  and  C6_6 
REMARK    3  A    between atoms: C6_6  and  C7_7 
REMARK    4  A    between atoms: C7_7  and  C8_8 
REMARK    5  A    between atoms: C7_7  and  C13_14 
REMARK    6  A    between atoms: C8_8  and  C9_9 
REMARK    7  A    between atoms: C13_14  and  C14_15 
REMARK    8  A    between atoms: C21_25  and  O5_26 
ROOT
HETATM    1  C14 UNL     1     -15.524   4.011 -21.996  1.00  0.00     0.337 C 
HETATM    2  O2  UNL     1     -16.745   4.761 -21.967  1.00  0.00    -0.175 OA
HETATM    3  O3  UNL     1     -16.506   5.899 -22.545  1.00  0.00    -0.059 OA
HETATM    4  O4  UNL     1     -15.655   6.671 -21.936  1.00  0.00    -0.145 OA
HETATM    5  C15 UNL     1     -15.644   6.548 -20.565  1.00  0.00     0.309 C 
HETATM    6  C16 UNL     1     -16.960   6.780 -19.904  1.00  0.00     0.099 C 
HETATM    7  C17 UNL     1     -17.897   7.696 -20.592  1.00  0.00     0.012 C 
HETATM    8  C18 UNL     1     -17.399   9.033 -20.982  1.00  0.00     0.041 C 
HETATM    9  C19 UNL     1     -16.323   9.599 -20.156  1.00  0.00    -0.026 A 
HETATM   10  C20 UNL     1     -15.918  10.663 -19.522  1.00  0.00     0.048 A 
HETATM   11  C21 UNL     1     -14.693  10.011 -19.075  1.00  0.00     0.093 A 
HETATM   12  C22 UNL     1     -15.106   8.923 -19.723  1.00  0.00     0.072 A 
HETATM   13  N1  UNL     1     -14.728   7.566 -20.023  1.00  0.00    -0.329 N 
ATOM     14  H1  UNL     1     -13.761   7.291 -19.848  1.00  0.00     0.165 HD
HETATM   15  O6  UNL     1     -15.159   5.288 -20.189  1.00  0.00    -0.173 OA
HETATM   16  O7  UNL     1     -14.622   4.744 -21.237  1.00  0.00    -0.200 OA
ENDROOT
BRANCH   1  17
HETATM   17  C13 UNL     1     -15.860   2.676 -21.479  1.00  0.00     0.071 C 
BRANCH  17  18
HETATM   18  C7  UNL     1     -15.750   1.485 -22.326  1.00  0.00    -0.005 C 
BRANCH  18  19
HETATM   19  C6  UNL     1     -15.891   1.711 -23.775  1.00  0.00     0.009 C 
BRANCH  19  20
HETATM   20  C5  UNL     1     -16.707   0.762 -24.571  1.00  0.00     0.028 C 
BRANCH  20  21
HETATM   21  C4  UNL     1     -18.121   0.913 -24.091  1.00  0.00    -0.025 C 
HETATM   22  C2  UNL     1     -18.918  -0.104 -23.831  1.00  0.00    -0.091 C 
HETATM   23  C1  UNL     1     -18.351  -1.464 -24.036  1.00  0.00     0.042 C 
HETATM   24  C3  UNL     1     -20.312   0.064 -23.356  1.00  0.00     0.042 C 
ENDBRANCH  20  21
ENDBRANCH  19  20
ENDBRANCH  18  19
BRANCH  18  25
HETATM   25  C8  UNL     1     -14.732   0.446 -21.909  1.00  0.00     0.045 C 
BRANCH  25  26
HETATM   26  C9  UNL     1     -13.389   0.663 -22.495  1.00  0.00    -0.034 A 
HETATM   27  C10 UNL     1     -12.764  -0.083 -23.458  1.00  0.00     0.033 A 
HETATM   28  C11 UNL     1     -11.530   0.485 -23.694  1.00  0.00     0.142 A 
HETATM   29  O1  UNL     1     -11.451   1.510 -22.904  1.00  0.00    -0.334 OA
HETATM   30  C12 UNL     1     -12.515   1.671 -22.169  1.00  0.00     0.148 A 
ENDBRANCH  25  26
ENDBRANCH  18  25
ENDBRANCH  17  18
ENDBRANCH   1  17
BRANCH  11  31
HETATM   31  O5  UNL     1     -13.600  10.346 -18.328  1.00  0.00    -0.358 OA
ATOM     32  H5  UNL     1     -12.888  10.972 -18.380  1.00  0.00     0.217 HD
ENDBRANCH  11  31
TORSDOF 8
ENDMDL
MODEL 4
REMARK VINA RESULT: -8.934973872      2.097      3.125
REMARK  8 active torsions:
REMARK  status: ('A' for Active; 'I' for Inactive)
REMARK    1  A    between atoms: C4_4  and  C5_5 
REMARK    2  A    between atoms: C5_5  and  C6_6 
REMARK    3  A    between atoms: C6_6  and  C7_7 
REMARK    4  A    between atoms: C7_7  and  C8_8 
REMARK    5  A    between atoms: C7_7  and  C13_14 
REMARK    6  A    between atoms: C8_8  and  C9_9 
REMARK    7  A    between atoms: C13_14  and  C14_15 
REMARK    8  A    between atoms: C21_25  and  O5_26 
ROOT
HETATM    1  C14 UNL     1     -15.692   3.816 -22.455  1.00  0.00     0.337 C 
HETATM    2  O2  UNL     1     -16.901   4.562 -22.271  1.00  0.00    -0.175 OA
HETATM    3  O3  UNL     1     -16.699   5.745 -22.767  1.00  0.00    -0.059 OA
HETATM    4  O4  UNL     1     -15.798   6.462 -22.161  1.00  0.00    -0.145 OA
HETATM    5  C15 UNL     1     -15.685   6.222 -20.810  1.00  0.00     0.309 C 
HETATM    6  C16 UNL     1     -16.946   6.399 -20.034  1.00  0.00     0.099 C 
HETATM    7  C17 UNL     1     -17.925   7.371 -20.571  1.00  0.00     0.012 C 
HETATM    8  C18 UNL     1     -17.448   8.736 -20.882  1.00  0.00     0.041 C 
HETATM    9  C19 UNL     1     -16.308   9.229 -20.096  1.00  0.00    -0.026 A 
HETATM   10  C20 UNL     1     -15.848  10.235 -19.406  1.00  0.00     0.048 A 
HETATM   11  C21 UNL     1     -14.599   9.546 -19.110  1.00  0.00     0.093 A 
HETATM   12  C22 UNL     1     -15.067   8.517 -19.814  1.00  0.00     0.072 A 
HETATM   13  N1  UNL     1     -14.723   7.190 -20.255  1.00  0.00    -0.329 N 
ATOM     14  H1  UNL     1     -13.748   6.900 -20.178  1.00  0.00     0.165 HD
HETATM   15  O6  UNL     1     -15.183   4.935 -20.580  1.00  0.00    -0.173 OA
HETATM   16  O7  UNL     1     -14.731   4.481 -21.708  1.00  0.00    -0.200 OA
ENDROOT
BRANCH   1  17
HETATM   17  C13 UNL     1     -15.998   2.443 -22.029  1.00  0.00     0.071 C 
BRANCH  17  18
HETATM   18  C7  UNL     1     -15.733   1.299 -22.906  1.00  0.00    -0.005 C 
BRANCH  18  19
HETATM   19  C6  UNL     1     -16.647   1.141 -24.050  1.00  0.00     0.009 C 
BRANCH  19  20
HETATM   20  C5  UNL     1     -17.973   0.514 -23.826  1.00  0.00     0.028 C 
BRANCH  20  21
HETATM   21  C4  UNL     1     -18.971   1.634 -23.793  1.00  0.00    -0.025 C 
HETATM   22  C2  UNL     1     -20.276   1.450 -23.776  1.00  0.00    -0.091 C 
HETATM   23  C1  UNL     1     -20.750   0.041 -23.790  1.00  0.00     0.042 C 
HETATM   24  C3  UNL     1     -21.248   2.569 -23.743  1.00  0.00     0.042 C 
ENDBRANCH  20  21
ENDBRANCH  19  20
ENDBRANCH  18  19
BRANCH  18  25
HETATM   25  C8  UNL     1     -14.281   0.961 -23.162  1.00  0.00     0.045 C 
BRANCH  25  26
HETATM   26  C9  UNL     1     -13.994  -0.492 -23.127  1.00  0.00    -0.034 A 
HETATM   27  C10 UNL     1     -14.892  -1.522 -23.055  1.00  0.00     0.033 A 
HETATM   28  C11 UNL     1     -14.178  -2.702 -23.046  1.00  0.00     0.142 A 
HETATM   29  O1  UNL     1     -12.928  -2.364 -23.110  1.00  0.00    -0.334 OA
HETATM   30  C12 UNL     1     -12.750  -1.074 -23.160  1.00  0.00     0.148 A 
ENDBRANCH  25  26
ENDBRANCH  18  25
ENDBRANCH  17  18
ENDBRANCH   1  17
BRANCH  11  31
HETATM   31  O5  UNL     1     -13.450   9.815 -18.422  1.00  0.00    -0.358 OA
ATOM     32  H5  UNL     1     -12.584   9.432 -18.340  1.00  0.00     0.217 HD
ENDBRANCH  11  31
TORSDOF 8
ENDMDL
MODEL 5
REMARK VINA RESULT: -8.833923994      2.485      5.747
REMARK  8 active torsions:
REMARK  status: ('A' for Active; 'I' for Inactive)
REMARK    1  A    between atoms: C4_4  and  C5_5 
REMARK    2  A    between atoms: C5_5  and  C6_6 
REMARK    3  A    between atoms: C6_6  and  C7_7 
REMARK    4  A    between atoms: C7_7  and  C8_8 
REMARK    5  A    between atoms: C7_7  and  C13_14 
REMARK    6  A    between atoms: C8_8  and  C9_9 
REMARK    7  A    between atoms: C13_14  and  C14_15 
REMARK    8  A    between atoms: C21_25  and  O5_26 
ROOT
HETATM    1  C14 UNL     1     -16.860   3.049 -23.205  1.00  0.00     0.337 C 
HETATM    2  O2  UNL     1     -17.591   4.159 -22.669  1.00  0.00    -0.175 OA
HETATM    3  O3  UNL     1     -16.954   5.236 -23.013  1.00  0.00    -0.059 OA
HETATM    4  O4  UNL     1     -15.766   5.374 -22.502  1.00  0.00    -0.145 OA
HETATM    5  C15 UNL     1     -15.608   4.816 -21.254  1.00  0.00     0.309 C 
HETATM    6  C16 UNL     1     -16.563   5.310 -20.221  1.00  0.00     0.099 C 
HETATM    7  C17 UNL     1     -17.077   6.687 -20.395  1.00  0.00     0.012 C 
HETATM    8  C18 UNL     1     -16.094   7.775 -20.589  1.00  0.00     0.041 C 
HETATM    9  C19 UNL     1     -14.769   7.576 -19.985  1.00  0.00    -0.026 A 
HETATM   10  C20 UNL     1     -13.838   8.130 -19.259  1.00  0.00     0.048 A 
HETATM   11  C21 UNL     1     -12.988   6.949 -19.330  1.00  0.00     0.093 A 
HETATM   12  C22 UNL     1     -13.938   6.381 -20.071  1.00  0.00     0.072 A 
HETATM   13  N1  UNL     1     -14.262   5.163 -20.766  1.00  0.00    -0.329 N 
ATOM     14  H1  UNL     1     -13.510   4.494 -20.933  1.00  0.00     0.165 HD
HETATM   15  O6  UNL     1     -15.694   3.419 -21.326  1.00  0.00    -0.173 OA
HETATM   16  O7  UNL     1     -15.623   3.084 -22.577  1.00  0.00    -0.200 OA
ENDROOT
BRANCH   1  17
HETATM   17  C13 UNL     1     -17.681   1.859 -22.937  1.00  0.00     0.071 C 
BRANCH  17  18
HETATM   18  C7  UNL     1     -17.785   0.772 -23.915  1.00  0.00    -0.005 C 
BRANCH  18  19
HETATM   19  C6  UNL     1     -16.529   0.070 -24.230  1.00  0.00     0.009 C 
BRANCH  19  20
HETATM   20  C5  UNL     1     -15.800  -0.618 -23.136  1.00  0.00     0.028 C 
BRANCH  20  21
HETATM   21  C4  UNL     1     -14.415  -0.038 -23.120  1.00  0.00    -0.025 C 
HETATM   22  C2  UNL     1     -13.320  -0.757 -23.252  1.00  0.00    -0.091 C 
HETATM   23  C1  UNL     1     -13.502  -2.224 -23.424  1.00  0.00     0.042 C 
HETATM   24  C3  UNL     1     -11.960  -0.168 -23.234  1.00  0.00     0.042 C 
ENDBRANCH  20  21
ENDBRANCH  19  20
ENDBRANCH  18  19
BRANCH  18  25
HETATM   25  C8  UNL     1     -19.029  -0.085 -23.848  1.00  0.00     0.045 C 
BRANCH  25  26
HETATM   26  C9  UNL     1     -20.289   0.691 -23.904  1.00  0.00    -0.034 A 
HETATM   27  C10 UNL     1     -20.434   2.051 -23.955  1.00  0.00     0.033 A 
HETATM   28  C11 UNL     1     -21.785   2.328 -23.995  1.00  0.00     0.142 A 
HETATM   29  O1  UNL     1     -22.387   1.180 -23.970  1.00  0.00    -0.334 OA
HETATM   30  C12 UNL     1     -21.562   0.172 -23.917  1.00  0.00     0.148 A 
ENDBRANCH  25  26
ENDBRANCH  18  25
ENDBRANCH  17  18
ENDBRANCH   1  17
BRANCH  11  31
HETATM   31  O5  UNL     1     -11.764   6.570 -18.856  1.00  0.00    -0.358 OA
ATOM     32  H5  UNL     1     -11.297   5.755 -18.712  1.00  0.00     0.217 HD
ENDBRANCH  11  31
TORSDOF 8
ENDMDL
