MODEL 1
REMARK VINA RESULT: -8.298623447      0.000      0.000
REMARK  7 active torsions:
REMARK  status: ('A' for Active; 'I' for Inactive)
REMARK    1  A    between atoms: C3_4  and  C4_5 
REMARK    2  A    between atoms: C4_5  and  C5_7 
REMARK    3  A    between atoms: C10_16  and  S2_17 
REMARK    4  A    between atoms: S2_17  and  C11_18 
REMARK    5  A    between atoms: C11_18  and  C12_19 
REMARK    6  A    between atoms: C12_19  and  C13_20 
REMARK    7  A    between atoms: C19_28  and  N4_29 
ROOT
HETATM    1  N1  UNL     1     -23.167  -0.856 -24.206  1.00  0.00    -0.191 NA
HETATM    2  C1  UNL     1     -22.559   0.133 -23.961  1.00  0.00     0.102 C 
HETATM    3  C2  UNL     1     -21.830   1.389 -23.675  1.00  0.00     0.082 A 
HETATM    4  C3  UNL     1     -22.595   2.514 -23.471  1.00  0.00     0.079 A 
HETATM    5  S1  UNL     1     -21.431   3.733 -23.230  1.00  0.00    -0.066 SA
HETATM    6  C9  UNL     1     -20.015   2.798 -23.393  1.00  0.00     0.092 A 
HETATM    7  N2  UNL     1     -18.679   3.107 -23.326  1.00  0.00    -0.330 N 
ATOM      8  H2  UNL     1     -18.392   4.068 -23.142  1.00  0.00     0.168 HD
HETATM    9  C10 UNL     1     -17.750   2.157 -23.501  1.00  0.00     0.146 A 
HETATM   10  N3  UNL     1     -18.179   0.928 -23.738  1.00  0.00    -0.323 N 
ATOM     11  H3  UNL     1     -17.472   0.204 -23.872  1.00  0.00     0.169 HD
HETATM   12  C19 UNL     1     -19.491   0.545 -23.817  1.00  0.00     0.115 A 
HETATM   13  C20 UNL     1     -20.479   1.536 -23.634  1.00  0.00     0.064 A 
ENDROOT
BRANCH   4  14
HETATM   14  C4  UNL     1     -24.072   2.654 -23.433  1.00  0.00     0.202 C 
HETATM   15  O1  UNL     1     -24.669   3.085 -24.452  1.00  0.00    -0.286 OA
BRANCH  14  16
HETATM   16  C5  UNL     1     -24.826   2.310 -22.254  1.00  0.00     0.040 A 
HETATM   17  C6  UNL     1     -24.875   2.939 -21.018  1.00  0.00     0.042 A 
HETATM   18  C7  UNL     1     -25.740   2.233 -20.205  1.00  0.00     0.142 A 
HETATM   19  O2  UNL     1     -26.199   1.226 -20.897  1.00  0.00    -0.334 OA
HETATM   20  C8  UNL     1     -25.698   1.223 -22.103  1.00  0.00     0.156 A 
ENDBRANCH  14  16
ENDBRANCH   4  14
BRANCH  12  21
HETATM   21  N4  UNL     1     -19.660  -0.671 -24.043  1.00  0.00    -0.385 N 
ATOM     22  H42 UNL     1     -19.424  -1.458 -23.438  1.00  0.00     0.157 HD
ATOM     23  H41 UNL     1     -20.081  -0.875 -24.949  1.00  0.00     0.157 HD
ENDBRANCH  12  21
BRANCH   9  24
HETATM   24  S2  UNL     1     -16.002   2.514 -23.448  1.00  0.00    -0.094 SA
BRANCH  24  25
HETATM   25  C11 UNL     1     -15.310   1.864 -21.932  1.00  0.00     0.082 C 
BRANCH  25  26
HETATM   26  C12 UNL     1     -14.716   0.482 -22.105  1.00  0.00     0.015 C 
BRANCH  26  27
HETATM   27  C13 UNL     1     -14.636   0.094 -23.566  1.00  0.00    -0.014 C 
HETATM   28  C14 UNL     1     -13.213  -0.153 -24.007  1.00  0.00     0.005 C 
HETATM   29  C15 UNL     1     -12.545  -1.222 -23.191  1.00  0.00     0.000 C 
HETATM   30  C16 UNL     1     -13.350  -2.411 -22.890  1.00  0.00     0.000 C 
HETATM   31  C17 UNL     1     -14.787  -2.389 -23.176  1.00  0.00     0.000 C 
HETATM   32  C18 UNL     1     -15.361  -1.199 -23.846  1.00  0.00     0.005 C 
ENDBRANCH  26  27
ENDBRANCH  25  26
ENDBRANCH  24  25
ENDBRANCH   9  24
TORSDOF 7
ENDMDL
MODEL 2
REMARK VINA RESULT: -8.141008165      1.609      2.643
REMARK  7 active torsions:
REMARK  status: ('A' for Active; 'I' for Inactive)
REMARK    1  A    between atoms: C3_4  and  C4_5 
REMARK    2  A    between atoms: C4_5  and  C5_7 
REMARK    3  A    between atoms: C10_16  and  S2_17 
REMARK    4  A    between atoms: S2_17  and  C11_18 
REMARK    5  A    between atoms: C11_18  and  C12_19 
REMARK    6  A    between atoms: C12_19  and  C13_20 
REMARK    7  A    between atoms: C19_28  and  N4_29 
ROOT
HETATM    1  N1  UNL     1     -21.769   4.727 -22.861  1.00  0.00    -0.191 NA
HETATM    2  C1  UNL     1     -21.709   3.583 -23.168  1.00  0.00     0.102 C 
HETATM    3  C2  UNL     1     -21.669   2.148 -23.529  1.00  0.00     0.082 A 
HETATM    4  C3  UNL     1     -22.881   1.517 -23.687  1.00  0.00     0.079 A 
HETATM    5  S1  UNL     1     -22.436  -0.089 -24.037  1.00  0.00    -0.066 SA
HETATM    6  C9  UNL     1     -20.741   0.075 -23.976  1.00  0.00     0.092 A 
HETATM    7  N2  UNL     1     -19.710  -0.814 -24.153  1.00  0.00    -0.330 N 
ATOM      8  H2  UNL     1     -19.916  -1.789 -24.373  1.00  0.00     0.168 HD
HETATM    9  C10 UNL     1     -18.436  -0.413 -24.041  1.00  0.00     0.146 A 
HETATM   10  N3  UNL     1     -18.227   0.862 -23.753  1.00  0.00    -0.323 N 
ATOM     11  H3  UNL     1     -17.257   1.169 -23.666  1.00  0.00     0.169 HD
HETATM   12  C19 UNL     1     -19.202   1.805 -23.564  1.00  0.00     0.115 A 
HETATM   13  C20 UNL     1     -20.547   1.394 -23.680  1.00  0.00     0.064 A 
ENDROOT
BRANCH   4  14
HETATM   14  C4  UNL     1     -24.252   2.079 -23.608  1.00  0.00     0.202 C 
HETATM   15  O1  UNL     1     -24.712   2.703 -24.597  1.00  0.00    -0.286 OA
BRANCH  14  16
HETATM   16  C5  UNL     1     -25.056   1.925 -22.422  1.00  0.00     0.040 A 
HETATM   17  C6  UNL     1     -25.264   2.808 -21.371  1.00  0.00     0.042 A 
HETATM   18  C7  UNL     1     -26.114   2.209 -20.462  1.00  0.00     0.142 A 
HETATM   19  O2  UNL     1     -26.414   1.025 -20.922  1.00  0.00    -0.334 OA
HETATM   20  C8  UNL     1     -25.823   0.807 -22.067  1.00  0.00     0.156 A 
ENDBRANCH  14  16
ENDBRANCH   4  14
BRANCH  12  21
HETATM   21  N4  UNL     1     -18.770   2.948 -23.308  1.00  0.00    -0.385 N 
ATOM     22  H42 UNL     1     -18.020   3.453 -23.780  1.00  0.00     0.157 HD
ATOM     23  H41 UNL     1     -19.237   3.408 -22.527  1.00  0.00     0.157 HD
ENDBRANCH  12  21
BRANCH   9  24
HETATM   24  S2  UNL     1     -17.063  -1.535 -24.239  1.00  0.00    -0.094 SA
BRANCH  24  25
HETATM   25  C11 UNL     1     -16.322  -1.853 -22.643  1.00  0.00     0.082 C 
BRANCH  25  26
HETATM   26  C12 UNL     1     -15.047  -1.065 -22.421  1.00  0.00     0.015 C 
BRANCH  26  27
HETATM   27  C13 UNL     1     -14.680  -0.254 -23.645  1.00  0.00    -0.014 C 
HETATM   28  C14 UNL     1     -14.652   1.227 -23.352  1.00  0.00     0.005 C 
HETATM   29  C15 UNL     1     -13.695   1.568 -22.247  1.00  0.00     0.000 C 
HETATM   30  C16 UNL     1     -12.397   0.885 -22.276  1.00  0.00     0.000 C 
HETATM   31  C17 UNL     1     -12.202  -0.235 -23.200  1.00  0.00     0.000 C 
HETATM   32  C18 UNL     1     -13.293  -0.580 -24.141  1.00  0.00     0.005 C 
ENDBRANCH  26  27
ENDBRANCH  25  26
ENDBRANCH  24  25
ENDBRANCH   9  24
TORSDOF 7
ENDMDL
MODEL 3
REMARK VINA RESULT: -8.074311902      3.764      8.807
REMARK  7 active torsions:
REMARK  status: ('A' for Active; 'I' for Inactive)
REMARK    1  A    between atoms: C3_4  and  C4_5 
REMARK    2  A    between atoms: C4_5  and  C5_7 
REMARK    3  A    between atoms: C10_16  and  S2_17 
REMARK    4  A    between atoms: S2_17  and  C11_18 
REMARK    5  A    between atoms: C11_18  and  C12_19 
REMARK    6  A    between atoms: C12_19  and  C13_20 
REMARK    7  A    between atoms: C19_28  and  N4_29 
ROOT
HETATM    1  N1  UNL     1     -13.752   3.161 -20.155  1.00  0.00    -0.191 NA
HETATM    2  C1  UNL     1     -14.626   2.896 -20.911  1.00  0.00     0.102 C 
HETATM    3  C2  UNL     1     -15.689   2.561 -21.886  1.00  0.00     0.082 A 
HETATM    4  C3  UNL     1     -15.364   1.649 -22.864  1.00  0.00     0.079 A 
HETATM    5  S1  UNL     1     -16.785   1.564 -23.799  1.00  0.00    -0.066 SA
HETATM    6  C9  UNL     1     -17.748   2.675 -22.937  1.00  0.00     0.092 A 
HETATM    7  N2  UNL     1     -19.032   3.129 -23.110  1.00  0.00    -0.330 N 
ATOM      8  H2  UNL     1     -19.592   2.776 -23.887  1.00  0.00     0.168 HD
HETATM    9  C10 UNL     1     -19.557   4.031 -22.269  1.00  0.00     0.146 A 
HETATM   10  N3  UNL     1     -18.786   4.455 -21.280  1.00  0.00    -0.323 N 
ATOM     11  H3  UNL     1     -19.184   5.143 -20.640  1.00  0.00     0.169 HD
HETATM   12  C19 UNL     1     -17.500   4.049 -21.044  1.00  0.00     0.115 A 
HETATM   13  C20 UNL     1     -16.937   3.098 -21.923  1.00  0.00     0.064 A 
ENDROOT
BRANCH   4  14
HETATM   14  C4  UNL     1     -14.105   0.889 -23.062  1.00  0.00     0.202 C 
HETATM   15  O1  UNL     1     -13.034   1.521 -23.243  1.00  0.00    -0.286 OA
BRANCH  14  16
HETATM   16  C5  UNL     1     -14.092  -0.552 -23.053  1.00  0.00     0.040 A 
HETATM   17  C6  UNL     1     -13.053  -1.431 -23.328  1.00  0.00     0.042 A 
HETATM   18  C7  UNL     1     -13.528  -2.721 -23.192  1.00  0.00     0.142 A 
HETATM   19  O2  UNL     1     -14.786  -2.645 -22.853  1.00  0.00    -0.334 OA
HETATM   20  C8  UNL     1     -15.169  -1.400 -22.757  1.00  0.00     0.156 A 
ENDBRANCH  14  16
ENDBRANCH   4  14
BRANCH  12  21
HETATM   21  N4  UNL     1     -16.967   4.579 -20.047  1.00  0.00    -0.385 N 
ATOM     22  H42 UNL     1     -16.152   5.192 -20.027  1.00  0.00     0.157 HD
ATOM     23  H41 UNL     1     -17.417   4.354 -19.160  1.00  0.00     0.157 HD
ENDBRANCH  12  21
BRANCH   9  24
HETATM   24  S2  UNL     1     -21.212   4.668 -22.467  1.00  0.00    -0.094 SA
BRANCH  24  25
HETATM   25  C11 UNL     1     -22.387   3.465 -21.861  1.00  0.00     0.082 C 
BRANCH  25  26
HETATM   26  C12 UNL     1     -23.268   2.902 -22.957  1.00  0.00     0.015 C 
BRANCH  26  27
HETATM   27  C13 UNL     1     -22.470   2.606 -24.208  1.00  0.00    -0.014 C 
HETATM   28  C14 UNL     1     -21.880   1.216 -24.183  1.00  0.00     0.005 C 
HETATM   29  C15 UNL     1     -22.932   0.156 -24.023  1.00  0.00     0.000 C 
HETATM   30  C16 UNL     1     -24.156   0.330 -24.812  1.00  0.00     0.000 C 
HETATM   31  C17 UNL     1     -24.388   1.605 -25.498  1.00  0.00     0.000 C 
HETATM   32  C18 UNL     1     -23.330   2.642 -25.447  1.00  0.00     0.005 C 
ENDBRANCH  26  27
ENDBRANCH  25  26
ENDBRANCH  24  25
ENDBRANCH   9  24
TORSDOF 7
ENDMDL
MODEL 4
REMARK VINA RESULT: -8.032236172      1.269      2.196
REMARK  7 active torsions:
REMARK  status: ('A' for Active; 'I' for Inactive)
REMARK    1  A    between atoms: C3_4  and  C4_5 
REMARK    2  A    between atoms: C4_5  and  C5_7 
REMARK    3  A    between atoms: C10_16  and  S2_17 
REMARK    4  A    between atoms: S2_17  and  C11_18 
REMARK    5  A    between atoms: C11_18  and  C12_19 
REMARK    6  A    between atoms: C12_19  and  C13_20 
REMARK    7  A    between atoms: C19_28  and  N4_29 
ROOT
HETATM    1  N1  UNL     1     -23.096  -1.079 -24.273  1.00  0.00    -0.191 NA
HETATM    2  C1  UNL     1     -22.516  -0.068 -24.054  1.00  0.00     0.102 C 
HETATM    3  C2  UNL     1     -21.821   1.215 -23.804  1.00  0.00     0.082 A 
HETATM    4  C3  UNL     1     -22.612   2.334 -23.685  1.00  0.00     0.079 A 
HETATM    5  S1  UNL     1     -21.480   3.585 -23.461  1.00  0.00    -0.066 SA
HETATM    6  C9  UNL     1     -20.043   2.671 -23.521  1.00  0.00     0.092 A 
HETATM    7  N2  UNL     1     -18.716   3.009 -23.419  1.00  0.00    -0.330 N 
ATOM      8  H2  UNL     1     -18.453   3.983 -23.272  1.00  0.00     0.168 HD
HETATM    9  C10 UNL     1     -17.764   2.069 -23.510  1.00  0.00     0.146 A 
HETATM   10  N3  UNL     1     -18.162   0.821 -23.701  1.00  0.00    -0.323 N 
ATOM     11  H3  UNL     1     -17.438   0.106 -23.772  1.00  0.00     0.169 HD
HETATM   12  C19 UNL     1     -19.463   0.410 -23.812  1.00  0.00     0.115 A 
HETATM   13  C20 UNL     1     -20.475   1.390 -23.717  1.00  0.00     0.064 A 
ENDROOT
BRANCH   4  14
HETATM   14  C4  UNL     1     -24.092   2.447 -23.711  1.00  0.00     0.202 C 
HETATM   15  O1  UNL     1     -24.728   2.371 -22.630  1.00  0.00    -0.286 OA
BRANCH  14  16
HETATM   16  C5  UNL     1     -24.805   2.637 -24.949  1.00  0.00     0.040 A 
HETATM   17  C6  UNL     1     -26.157   2.866 -25.167  1.00  0.00     0.042 A 
HETATM   18  C7  UNL     1     -26.365   2.979 -26.527  1.00  0.00     0.142 A 
HETATM   19  O2  UNL     1     -25.211   2.830 -27.117  1.00  0.00    -0.334 OA
HETATM   20  C8  UNL     1     -24.263   2.627 -26.241  1.00  0.00     0.156 A 
ENDBRANCH  14  16
ENDBRANCH   4  14
BRANCH  12  21
HETATM   21  N4  UNL     1     -19.602  -0.819 -23.984  1.00  0.00    -0.385 N 
ATOM     22  H42 UNL     1     -18.871  -1.528 -24.043  1.00  0.00     0.157 HD
ATOM     23  H41 UNL     1     -20.570  -1.123 -24.077  1.00  0.00     0.157 HD
ENDBRANCH  12  21
BRANCH   9  24
HETATM   24  S2  UNL     1     -16.026   2.462 -23.407  1.00  0.00    -0.094 SA
BRANCH  24  25
HETATM   25  C11 UNL     1     -15.362   1.813 -21.879  1.00  0.00     0.082 C 
BRANCH  25  26
HETATM   26  C12 UNL     1     -14.672   0.477 -22.060  1.00  0.00     0.015 C 
BRANCH  26  27
HETATM   27  C13 UNL     1     -14.575   0.101 -23.523  1.00  0.00    -0.014 C 
HETATM   28  C14 UNL     1     -13.143  -0.096 -23.960  1.00  0.00     0.005 C 
HETATM   29  C15 UNL     1     -12.442  -1.147 -23.147  1.00  0.00     0.000 C 
HETATM   30  C16 UNL     1     -13.207  -2.364 -22.857  1.00  0.00     0.000 C 
HETATM   31  C17 UNL     1     -14.644  -2.388 -23.148  1.00  0.00     0.000 C 
HETATM   32  C18 UNL     1     -15.255  -1.214 -23.814  1.00  0.00     0.005 C 
ENDBRANCH  26  27
ENDBRANCH  25  26
ENDBRANCH  24  25
ENDBRANCH   9  24
TORSDOF 7
ENDMDL
MODEL 5
REMARK VINA RESULT: -8.026955666      4.228      8.677
REMARK  7 active torsions:
REMARK  status: ('A' for Active; 'I' for Inactive)
REMARK    1  A    between atoms: C3_4  and  C4_5 
REMARK    2  A    between atoms: C4_5  and  C5_7 
REMARK    3  A    between atoms: C10_16  and  S2_17 
REMARK    4  A    between atoms: S2_17  and  C11_18 
REMARK    5  A    between atoms: C11_18  and  C12_19 
REMARK    6  A    between atoms: C12_19  and  C13_20 
REMARK    7  A    between atoms: C19_28  and  N4_29 
ROOT
HETATM    1  N1  UNL     1     -12.839   2.615 -20.159  1.00  0.00    -0.191 NA
HETATM    2  C1  UNL     1     -13.733   2.785 -20.919  1.00  0.00     0.102 C 
HETATM    3  C2  UNL     1     -14.824   2.983 -21.900  1.00  0.00     0.082 A 
HETATM    4  C3  UNL     1     -14.905   2.071 -22.927  1.00  0.00     0.079 A 
HETATM    5  S1  UNL     1     -16.215   2.646 -23.851  1.00  0.00    -0.066 SA
HETATM    6  C9  UNL     1     -16.626   4.015 -22.923  1.00  0.00     0.092 A 
HETATM    7  N2  UNL     1     -17.594   4.979 -23.060  1.00  0.00    -0.330 N 
ATOM      8  H2  UNL     1     -18.240   4.938 -23.848  1.00  0.00     0.168 HD
HETATM    9  C10 UNL     1     -17.696   5.975 -22.168  1.00  0.00     0.146 A 
HETATM   10  N3  UNL     1     -16.831   5.980 -21.166  1.00  0.00    -0.323 N 
ATOM     11  H3  UNL     1     -16.908   6.738 -20.487  1.00  0.00     0.169 HD
HETATM   12  C19 UNL     1     -15.843   5.055 -20.964  1.00  0.00     0.115 A 
HETATM   13  C20 UNL     1     -15.726   4.001 -21.896  1.00  0.00     0.064 A 
ENDROOT
BRANCH   4  14
HETATM   14  C4  UNL     1     -14.085   0.859 -23.176  1.00  0.00     0.202 C 
HETATM   15  O1  UNL     1     -12.861   0.994 -23.428  1.00  0.00    -0.286 OA
BRANCH  14  16
HETATM   16  C5  UNL     1     -14.667  -0.458 -23.138  1.00  0.00     0.040 A 
HETATM   17  C6  UNL     1     -16.001  -0.837 -23.058  1.00  0.00     0.042 A 
HETATM   18  C7  UNL     1     -16.061  -2.216 -23.046  1.00  0.00     0.142 A 
HETATM   19  O2  UNL     1     -14.838  -2.666 -23.113  1.00  0.00    -0.334 OA
HETATM   20  C8  UNL     1     -13.982  -1.680 -23.169  1.00  0.00     0.156 A 
ENDBRANCH  14  16
ENDBRANCH   4  14
BRANCH  12  21
HETATM   21  N4  UNL     1     -15.148   5.257 -19.947  1.00  0.00    -0.385 N 
ATOM     22  H42 UNL     1     -14.333   5.863 -19.858  1.00  0.00     0.157 HD
ATOM     23  H41 UNL     1     -15.451   4.741 -19.121  1.00  0.00     0.157 HD
ENDBRANCH  12  21
BRANCH   9  24
HETATM   24  S2  UNL     1     -18.921   7.264 -22.316  1.00  0.00    -0.094 SA
BRANCH  24  25
HETATM   25  C11 UNL     1     -20.445   6.724 -21.552  1.00  0.00     0.082 C 
BRANCH  25  26
HETATM   26  C12 UNL     1     -21.065   5.535 -22.256  1.00  0.00     0.015 C 
BRANCH  26  27
HETATM   27  C13 UNL     1     -21.265   4.375 -21.304  1.00  0.00    -0.014 C 
HETATM   28  C14 UNL     1     -22.600   3.700 -21.513  1.00  0.00     0.005 C 
HETATM   29  C15 UNL     1     -22.769   3.201 -22.919  1.00  0.00     0.000 C 
HETATM   30  C16 UNL     1     -21.605   2.542 -23.521  1.00  0.00     0.000 C 
HETATM   31  C17 UNL     1     -20.310   2.622 -22.839  1.00  0.00     0.000 C 
HETATM   32  C18 UNL     1     -20.242   3.288 -21.517  1.00  0.00     0.005 C 
ENDBRANCH  26  27
ENDBRANCH  25  26
ENDBRANCH  24  25
ENDBRANCH   9  24
TORSDOF 7
ENDMDL
