MODEL 1
REMARK VINA RESULT: -7.489022607      0.000      0.000
REMARK  8 active torsions:
REMARK  status: ('A' for Active; 'I' for Inactive)
REMARK    1  A    between atoms: C2_2  and  C3_4 
REMARK    2  A    between atoms: C4_5  and  N1_6 
REMARK    3  A    between atoms: N1_6  and  C5_7 
REMARK    4  A    between atoms: N1_6  and  C8_10 
REMARK    5  A    between atoms: C8_10  and  C10_12 
REMARK    6  A    between atoms: C14_17  and  C15_18 
REMARK    7  A    between atoms: C15_18  and  C16_20 
REMARK    8  A    between atoms: C22_26  and  O3_27 
ROOT
HETATM    1  C3  UNL     1     -21.073   3.507 -22.343  1.00  0.00     0.069 A 
HETATM    2  C4  UNL     1     -21.706   2.855 -23.326  1.00  0.00     0.093 A 
HETATM    3  S1  UNL     1     -20.372   2.161 -24.216  1.00  0.00    -0.065 SA
HETATM    4  C14 UNL     1     -19.076   2.728 -23.304  1.00  0.00     0.083 A 
HETATM    5  C23 UNL     1     -19.701   3.447 -22.323  1.00  0.00     0.084 A 
HETATM    6  N2  UNL     1     -18.871   4.109 -21.315  1.00  0.00    -0.100 NA
ENDROOT
BRANCH   4   7
HETATM    7  C15 UNL     1     -17.642   2.544 -23.472  1.00  0.00     0.203 C 
HETATM    8  O2  UNL     1     -16.995   3.580 -23.849  1.00  0.00    -0.286 OA
BRANCH   7   9
HETATM    9  C16 UNL     1     -16.938   1.331 -23.253  1.00  0.00     0.049 A 
HETATM   10  C17 UNL     1     -17.303   0.107 -23.770  1.00  0.00     0.025 A 
HETATM   11  C18 UNL     1     -16.498  -0.996 -23.440  1.00  0.00    -0.061 A 
HETATM   12  C19 UNL     1     -16.887  -2.326 -23.994  1.00  0.00     0.048 C 
HETATM   13  C20 UNL     1     -15.396  -0.898 -22.645  1.00  0.00     0.009 A 
HETATM   14  C21 UNL     1     -15.064   0.337 -22.149  1.00  0.00     0.038 A 
HETATM   15  C22 UNL     1     -15.804   1.438 -22.433  1.00  0.00     0.080 A 
BRANCH  15  16
HETATM   16  O3  UNL     1     -15.406   2.663 -21.894  1.00  0.00    -0.360 OA
ATOM     17  H3  UNL     1     -15.732   2.964 -21.053  1.00  0.00     0.217 HD
ENDBRANCH  15  16
ENDBRANCH   7   9
ENDBRANCH   4   7
BRANCH   2  18
HETATM   18  N1  UNL     1     -23.082   2.614 -23.746  1.00  0.00    -0.343 N 
BRANCH  18  19
HETATM   19  C5  UNL     1     -23.635   3.779 -24.435  1.00  0.00     0.082 C 
HETATM   20  C6  UNL     1     -24.045   4.942 -23.616  1.00  0.00     0.032 C 
HETATM   21  C7  UNL     1     -22.625   4.243 -25.510  1.00  0.00     0.032 C 
ENDBRANCH  18  19
BRANCH  18  22
HETATM   22  C8  UNL     1     -23.873   1.498 -23.415  1.00  0.00    -0.006 C 
HETATM   23  C9  UNL     1     -25.195   1.644 -22.763  1.00  0.00     0.064 C 
BRANCH  22  24
HETATM   24  C10 UNL     1     -23.939   0.356 -24.403  1.00  0.00    -0.013 C 
HETATM   25  C11 UNL     1     -25.332  -0.273 -24.175  1.00  0.00     0.021 C 
HETATM   26  C12 UNL     1     -23.910   0.745 -25.836  1.00  0.00     0.021 C 
HETATM   27  C13 UNL     1     -22.975  -0.775 -24.067  1.00  0.00     0.021 C 
ENDBRANCH  22  24
ENDBRANCH  18  22
ENDBRANCH   2  18
BRANCH   1  28
HETATM   28  C2  UNL     1     -21.736   4.295 -21.256  1.00  0.00     0.160 C 
HETATM   29  C1  UNL     1     -21.582   5.715 -21.067  1.00  0.00     0.097 C 
HETATM   30  O1  UNL     1     -22.502   3.715 -20.416  1.00  0.00    -0.293 OA
ENDBRANCH   1  28
TORSDOF 8
ENDMDL
MODEL 2
REMARK VINA RESULT: -7.373085909      0.697      2.356
REMARK  8 active torsions:
REMARK  status: ('A' for Active; 'I' for Inactive)
REMARK    1  A    between atoms: C2_2  and  C3_4 
REMARK    2  A    between atoms: C4_5  and  N1_6 
REMARK    3  A    between atoms: N1_6  and  C5_7 
REMARK    4  A    between atoms: N1_6  and  C8_10 
REMARK    5  A    between atoms: C8_10  and  C10_12 
REMARK    6  A    between atoms: C14_17  and  C15_18 
REMARK    7  A    between atoms: C15_18  and  C16_20 
REMARK    8  A    between atoms: C22_26  and  O3_27 
ROOT
HETATM    1  C3  UNL     1     -21.063   3.525 -22.362  1.00  0.00     0.069 A 
HETATM    2  C4  UNL     1     -21.694   2.891 -23.359  1.00  0.00     0.093 A 
HETATM    3  S1  UNL     1     -20.360   2.191 -24.242  1.00  0.00    -0.065 SA
HETATM    4  C14 UNL     1     -19.067   2.732 -23.310  1.00  0.00     0.083 A 
HETATM    5  C23 UNL     1     -19.694   3.448 -22.328  1.00  0.00     0.084 A 
HETATM    6  N2  UNL     1     -18.866   4.090 -21.305  1.00  0.00    -0.100 NA
ENDROOT
BRANCH   4   7
HETATM    7  C15 UNL     1     -17.633   2.533 -23.465  1.00  0.00     0.203 C 
HETATM    8  O2  UNL     1     -16.970   3.565 -23.828  1.00  0.00    -0.286 OA
BRANCH   7   9
HETATM    9  C16 UNL     1     -16.945   1.310 -23.249  1.00  0.00     0.049 A 
HETATM   10  C17 UNL     1     -17.326   0.093 -23.770  1.00  0.00     0.025 A 
HETATM   11  C18 UNL     1     -16.537  -1.021 -23.443  1.00  0.00    -0.061 A 
HETATM   12  C19 UNL     1     -16.942  -2.345 -24.001  1.00  0.00     0.048 C 
HETATM   13  C20 UNL     1     -15.434  -0.941 -22.647  1.00  0.00     0.009 A 
HETATM   14  C21 UNL     1     -15.086   0.288 -22.146  1.00  0.00     0.038 A 
HETATM   15  C22 UNL     1     -15.810   1.400 -22.429  1.00  0.00     0.080 A 
BRANCH  15  16
HETATM   16  O3  UNL     1     -15.397   2.618 -21.885  1.00  0.00    -0.360 OA
ATOM     17  H3  UNL     1     -14.795   2.655 -21.152  1.00  0.00     0.217 HD
ENDBRANCH  15  16
ENDBRANCH   7   9
ENDBRANCH   4   7
BRANCH   2  18
HETATM   18  N1  UNL     1     -23.069   2.671 -23.796  1.00  0.00    -0.343 N 
BRANCH  18  19
HETATM   19  C5  UNL     1     -23.343   1.246 -23.975  1.00  0.00     0.082 C 
HETATM   20  C6  UNL     1     -24.417   0.635 -23.159  1.00  0.00     0.032 C 
HETATM   21  C7  UNL     1     -23.625   0.982 -25.472  1.00  0.00     0.032 C 
ENDBRANCH  18  19
BRANCH  18  22
HETATM   22  C8  UNL     1     -23.995   3.662 -24.171  1.00  0.00    -0.006 C 
HETATM   23  C9  UNL     1     -24.908   4.289 -23.187  1.00  0.00     0.064 C 
BRANCH  22  24
HETATM   24  C10 UNL     1     -23.549   4.712 -25.161  1.00  0.00    -0.013 C 
HETATM   25  C11 UNL     1     -24.857   5.199 -25.825  1.00  0.00     0.021 C 
HETATM   26  C12 UNL     1     -22.928   5.927 -24.573  1.00  0.00     0.021 C 
HETATM   27  C13 UNL     1     -22.751   4.131 -26.322  1.00  0.00     0.021 C 
ENDBRANCH  22  24
ENDBRANCH  18  22
ENDBRANCH   2  18
BRANCH   1  28
HETATM   28  C2  UNL     1     -21.729   4.309 -21.274  1.00  0.00     0.160 C 
HETATM   29  C1  UNL     1     -21.612   5.736 -21.106  1.00  0.00     0.097 C 
HETATM   30  O1  UNL     1     -22.463   3.720 -20.412  1.00  0.00    -0.293 OA
ENDBRANCH   1  28
TORSDOF 8
ENDMDL
MODEL 3
REMARK VINA RESULT: -6.857857839      2.285      4.026
REMARK  8 active torsions:
REMARK  status: ('A' for Active; 'I' for Inactive)
REMARK    1  A    between atoms: C2_2  and  C3_4 
REMARK    2  A    between atoms: C4_5  and  N1_6 
REMARK    3  A    between atoms: N1_6  and  C5_7 
REMARK    4  A    between atoms: N1_6  and  C8_10 
REMARK    5  A    between atoms: C8_10  and  C10_12 
REMARK    6  A    between atoms: C14_17  and  C15_18 
REMARK    7  A    between atoms: C15_18  and  C16_20 
REMARK    8  A    between atoms: C22_26  and  O3_27 
ROOT
HETATM    1  C3  UNL     1     -23.120   1.605 -24.701  1.00  0.00     0.069 A 
HETATM    2  C4  UNL     1     -23.482   2.878 -24.903  1.00  0.00     0.093 A 
HETATM    3  S1  UNL     1     -22.237   3.748 -24.040  1.00  0.00    -0.065 SA
HETATM    4  C14 UNL     1     -21.317   2.462 -23.464  1.00  0.00     0.083 A 
HETATM    5  C23 UNL     1     -21.993   1.378 -23.952  1.00  0.00     0.084 A 
HETATM    6  N2  UNL     1     -21.474   0.044 -23.643  1.00  0.00    -0.100 NA
ENDROOT
BRANCH   4   7
HETATM    7  C15 UNL     1     -20.113   2.444 -22.645  1.00  0.00     0.203 C 
HETATM    8  O2  UNL     1     -20.298   2.606 -21.390  1.00  0.00    -0.286 OA
BRANCH   7   9
HETATM    9  C16 UNL     1     -18.792   2.267 -23.132  1.00  0.00     0.049 A 
HETATM   10  C17 UNL     1     -18.260   1.063 -23.537  1.00  0.00     0.025 A 
HETATM   11  C18 UNL     1     -16.926   1.066 -23.979  1.00  0.00    -0.061 A 
HETATM   12  C19 UNL     1     -16.340  -0.235 -24.418  1.00  0.00     0.048 C 
HETATM   13  C20 UNL     1     -16.161   2.192 -24.019  1.00  0.00     0.009 A 
HETATM   14  C21 UNL     1     -16.725   3.373 -23.608  1.00  0.00     0.038 A 
HETATM   15  C22 UNL     1     -18.008   3.431 -23.171  1.00  0.00     0.080 A 
BRANCH  15  16
HETATM   16  O3  UNL     1     -18.518   4.667 -22.768  1.00  0.00    -0.360 OA
ATOM     17  H3  UNL     1     -18.802   4.819 -21.874  1.00  0.00     0.217 HD
ENDBRANCH  15  16
ENDBRANCH   7   9
ENDBRANCH   4   7
BRANCH   2  18
HETATM   18  N1  UNL     1     -24.536   3.599 -25.609  1.00  0.00    -0.343 N 
BRANCH  18  19
HETATM   19  C5  UNL     1     -23.973   4.586 -26.529  1.00  0.00     0.082 C 
HETATM   20  C6  UNL     1     -23.296   4.095 -27.750  1.00  0.00     0.032 C 
HETATM   21  C7  UNL     1     -25.089   5.580 -26.930  1.00  0.00     0.032 C 
ENDBRANCH  18  19
BRANCH  18  22
HETATM   22  C8  UNL     1     -25.918   3.515 -25.358  1.00  0.00    -0.006 C 
HETATM   23  C9  UNL     1     -26.763   2.470 -25.982  1.00  0.00     0.064 C 
BRANCH  22  24
HETATM   24  C10 UNL     1     -26.399   3.752 -23.945  1.00  0.00    -0.013 C 
HETATM   25  C11 UNL     1     -27.893   4.112 -24.099  1.00  0.00     0.021 C 
HETATM   26  C12 UNL     1     -26.367   2.568 -23.049  1.00  0.00     0.021 C 
HETATM   27  C13 UNL     1     -25.792   5.000 -23.314  1.00  0.00     0.021 C 
ENDBRANCH  22  24
ENDBRANCH  18  22
ENDBRANCH   2  18
BRANCH   1  28
HETATM   28  C2  UNL     1     -23.840   0.404 -25.229  1.00  0.00     0.160 C 
HETATM   29  C1  UNL     1     -23.920   0.045 -26.623  1.00  0.00     0.097 C 
HETATM   30  O1  UNL     1     -24.439  -0.391 -24.430  1.00  0.00    -0.293 OA
ENDBRANCH   1  28
TORSDOF 8
ENDMDL
MODEL 4
REMARK VINA RESULT: -6.736736628      1.947      3.271
REMARK  8 active torsions:
REMARK  status: ('A' for Active; 'I' for Inactive)
REMARK    1  A    between atoms: C2_2  and  C3_4 
REMARK    2  A    between atoms: C4_5  and  N1_6 
REMARK    3  A    between atoms: N1_6  and  C5_7 
REMARK    4  A    between atoms: N1_6  and  C8_10 
REMARK    5  A    between atoms: C8_10  and  C10_12 
REMARK    6  A    between atoms: C14_17  and  C15_18 
REMARK    7  A    between atoms: C15_18  and  C16_20 
REMARK    8  A    between atoms: C22_26  and  O3_27 
ROOT
HETATM    1  C3  UNL     1     -23.148   3.036 -22.672  1.00  0.00     0.069 A 
HETATM    2  C4  UNL     1     -23.008   2.507 -23.894  1.00  0.00     0.093 A 
HETATM    3  S1  UNL     1     -21.290   2.673 -24.164  1.00  0.00    -0.065 SA
HETATM    4  C14 UNL     1     -20.829   3.404 -22.720  1.00  0.00     0.083 A 
HETATM    5  C23 UNL     1     -22.018   3.507 -22.052  1.00  0.00     0.084 A 
HETATM    6  N2  UNL     1     -22.013   4.115 -20.720  1.00  0.00    -0.100 NA
ENDROOT
BRANCH   4   7
HETATM    7  C15 UNL     1     -19.524   3.847 -22.250  1.00  0.00     0.203 C 
HETATM    8  O2  UNL     1     -19.493   5.012 -21.724  1.00  0.00    -0.286 OA
BRANCH   7   9
HETATM    9  C16 UNL     1     -18.322   3.095 -22.337  1.00  0.00     0.049 A 
HETATM   10  C17 UNL     1     -18.058   2.146 -23.300  1.00  0.00     0.025 A 
HETATM   11  C18 UNL     1     -16.821   1.486 -23.227  1.00  0.00    -0.061 A 
HETATM   12  C19 UNL     1     -16.525   0.454 -24.266  1.00  0.00     0.048 C 
HETATM   13  C20 UNL     1     -15.896   1.746 -22.261  1.00  0.00     0.009 A 
HETATM   14  C21 UNL     1     -16.195   2.697 -21.319  1.00  0.00     0.038 A 
HETATM   15  C22 UNL     1     -17.375   3.368 -21.339  1.00  0.00     0.080 A 
BRANCH  15  16
HETATM   16  O3  UNL     1     -17.612   4.323 -20.349  1.00  0.00    -0.360 OA
ATOM     17  H3  UNL     1     -17.150   4.304 -19.518  1.00  0.00     0.217 HD
ENDBRANCH  15  16
ENDBRANCH   7   9
ENDBRANCH   4   7
BRANCH   2  18
HETATM   18  N1  UNL     1     -23.859   1.886 -24.904  1.00  0.00    -0.343 N 
BRANCH  18  19
HETATM   19  C5  UNL     1     -23.394   0.539 -25.229  1.00  0.00     0.082 C 
HETATM   20  C6  UNL     1     -23.505  -0.508 -24.188  1.00  0.00     0.032 C 
HETATM   21  C7  UNL     1     -24.118   0.063 -26.511  1.00  0.00     0.032 C 
ENDBRANCH  18  19
BRANCH  18  22
HETATM   22  C8  UNL     1     -24.896   2.511 -25.621  1.00  0.00    -0.006 C 
HETATM   23  C9  UNL     1     -26.268   2.622 -25.072  1.00  0.00     0.064 C 
BRANCH  22  24
HETATM   24  C10 UNL     1     -24.571   3.775 -26.382  1.00  0.00    -0.013 C 
HETATM   25  C11 UNL     1     -25.766   3.967 -27.343  1.00  0.00     0.021 C 
HETATM   26  C12 UNL     1     -24.513   5.017 -25.569  1.00  0.00     0.021 C 
HETATM   27  C13 UNL     1     -23.380   3.614 -27.319  1.00  0.00     0.021 C 
ENDBRANCH  22  24
ENDBRANCH  18  22
ENDBRANCH   2  18
BRANCH   1  28
HETATM   28  C2  UNL     1     -24.438   3.154 -21.921  1.00  0.00     0.160 C 
HETATM   29  C1  UNL     1     -25.254   4.341 -21.879  1.00  0.00     0.097 C 
HETATM   30  O1  UNL     1     -24.889   2.162 -21.258  1.00  0.00    -0.293 OA
ENDBRANCH   1  28
TORSDOF 8
ENDMDL
MODEL 5
REMARK VINA RESULT: -6.705671969      3.349      6.047
REMARK  8 active torsions:
REMARK  status: ('A' for Active; 'I' for Inactive)
REMARK    1  A    between atoms: C2_2  and  C3_4 
REMARK    2  A    between atoms: C4_5  and  N1_6 
REMARK    3  A    between atoms: N1_6  and  C5_7 
REMARK    4  A    between atoms: N1_6  and  C8_10 
REMARK    5  A    between atoms: C8_10  and  C10_12 
REMARK    6  A    between atoms: C14_17  and  C15_18 
REMARK    7  A    between atoms: C15_18  and  C16_20 
REMARK    8  A    between atoms: C22_26  and  O3_27 
ROOT
HETATM    1  C3  UNL     1     -20.483   6.127 -21.961  1.00  0.00     0.069 A 
HETATM    2  C4  UNL     1     -19.621   7.112 -22.242  1.00  0.00     0.093 A 
HETATM    3  S1  UNL     1     -18.084   6.287 -22.142  1.00  0.00    -0.065 SA
HETATM    4  C14 UNL     1     -18.603   4.735 -21.749  1.00  0.00     0.083 A 
HETATM    5  C23 UNL     1     -19.962   4.884 -21.702  1.00  0.00     0.084 A 
HETATM    6  N2  UNL     1     -20.775   3.710 -21.377  1.00  0.00    -0.100 NA
ENDROOT
BRANCH   4   7
HETATM    7  C15 UNL     1     -17.850   3.514 -21.500  1.00  0.00     0.203 C 
HETATM    8  O2  UNL     1     -17.364   3.398 -20.323  1.00  0.00    -0.286 OA
BRANCH   7   9
HETATM    9  C16 UNL     1     -17.625   2.480 -22.446  1.00  0.00     0.049 A 
HETATM   10  C17 UNL     1     -18.588   1.599 -22.889  1.00  0.00     0.025 A 
HETATM   11  C18 UNL     1     -18.188   0.626 -23.819  1.00  0.00    -0.061 A 
HETATM   12  C19 UNL     1     -19.223  -0.335 -24.304  1.00  0.00     0.048 C 
HETATM   13  C20 UNL     1     -16.912   0.526 -24.286  1.00  0.00     0.009 A 
HETATM   14  C21 UNL     1     -15.981   1.420 -23.822  1.00  0.00     0.038 A 
HETATM   15  C22 UNL     1     -16.309   2.382 -22.923  1.00  0.00     0.080 A 
BRANCH  15  16
HETATM   16  O3  UNL     1     -15.311   3.259 -22.494  1.00  0.00    -0.360 OA
ATOM     17  H3  UNL     1     -15.342   4.186 -22.702  1.00  0.00     0.217 HD
ENDBRANCH  15  16
ENDBRANCH   7   9
ENDBRANCH   4   7
BRANCH   2  18
HETATM   18  N1  UNL     1     -19.680   8.529 -22.588  1.00  0.00    -0.343 N 
BRANCH  18  19
HETATM   19  C5  UNL     1     -19.132   8.769 -23.922  1.00  0.00     0.082 C 
HETATM   20  C6  UNL     1     -20.071   8.791 -25.067  1.00  0.00     0.032 C 
HETATM   21  C7  UNL     1     -18.328  10.090 -23.895  1.00  0.00     0.032 C 
ENDBRANCH  18  19
BRANCH  18  22
HETATM   22  C8  UNL     1     -20.047   9.583 -21.731  1.00  0.00    -0.006 C 
HETATM   23  C9  UNL     1     -21.443  10.075 -21.652  1.00  0.00     0.064 C 
BRANCH  22  24
HETATM   24  C10 UNL     1     -19.438   9.620 -20.349  1.00  0.00    -0.013 C 
HETATM   25  C11 UNL     1     -19.740  11.044 -19.830  1.00  0.00     0.021 C 
HETATM   26  C12 UNL     1     -20.045   8.699 -19.355  1.00  0.00     0.021 C 
HETATM   27  C13 UNL     1     -17.915   9.563 -20.372  1.00  0.00     0.021 C 
ENDBRANCH  22  24
ENDBRANCH  18  22
ENDBRANCH   2  18
BRANCH   1  28
HETATM   28  C2  UNL     1     -21.973   6.265 -21.910  1.00  0.00     0.160 C 
HETATM   29  C1  UNL     1     -22.857   6.007 -23.018  1.00  0.00     0.097 C 
HETATM   30  O1  UNL     1     -22.548   6.633 -20.831  1.00  0.00    -0.293 OA
ENDBRANCH   1  28
TORSDOF 8
ENDMDL
