MODEL 1
REMARK VINA RESULT: -5.843354557      0.000      0.000
REMARK  11 active torsions:
REMARK  status: ('A' for Active; 'I' for Inactive)
REMARK    1  A    between atoms: C2_2  and  C3_3 
REMARK    2  A    between atoms: C3_3  and  N1_4 
REMARK    3  A    between atoms: N1_4  and  C4_6 
REMARK    4  A    between atoms: C4_6  and  C5_12 
REMARK    5  A    between atoms: N2_7  and  N3_9 
REMARK    6  A    between atoms: C6_16  and  C7_17 
REMARK    7  A    between atoms: N5_18  and  C8_20 
REMARK    8  A    between atoms: C8_20  and  C9_21 
REMARK    9  A    between atoms: C9_21  and  N6_22 
REMARK   10  A    between atoms: N6_22  and  N7_24 
REMARK   11  A    between atoms: N7_24  and  N8_25 
ROOT
HETATM    1  C5  UNL     1       4.330  26.078  14.736  1.00  0.00     0.290 A 
HETATM    2  N4  UNL     1       4.893  24.777  14.367  1.00  0.00    -0.050 N 
ATOM      3  H41 UNL     1       5.366  24.396  13.547  1.00  0.00     0.279 HD
ATOM      4  H42 UNL     1       4.513  23.858  14.139  1.00  0.00     0.279 HD
HETATM    5  C6  UNL     1       5.320  25.458  15.600  1.00  0.00     0.262 A 
ENDROOT
BRANCH   1   6
HETATM    6  C4  UNL     1       2.900  26.102  15.107  1.00  0.00     0.125 C 
HETATM    7  N2  UNL     1       2.228  25.022  15.065  1.00  0.00    -0.294 N 
ATOM      8  H2  UNL     1       2.726  24.182  14.772  1.00  0.00     0.187 HD
BRANCH   6   9
HETATM    9  N1  UNL     1       2.310  27.323  15.500  1.00  0.00    -0.373 N 
ATOM     10  H1  UNL     1       1.415  27.319  15.989  1.00  0.00     0.161 HD
BRANCH   9  11
HETATM   11  C3  UNL     1       2.977  28.595  15.209  1.00  0.00     0.147 C 
BRANCH  11  12
HETATM   12  C2  UNL     1       2.685  29.018  13.817  1.00  0.00    -0.018 C 
HETATM   13  C1  UNL     1       2.661  30.289  13.442  1.00  0.00     0.008 C 
ENDBRANCH  11  12
ENDBRANCH   9  11
ENDBRANCH   6   9
BRANCH   7  14
HETATM   14  N3  UNL     1       0.897  24.879  15.378  1.00  0.00    -0.344 N 
ATOM     15  H32 UNL     1       0.246  25.004  14.603  1.00  0.00     0.176 HD
ATOM     16  H31 UNL     1       0.512  24.662  16.297  1.00  0.00     0.176 HD
ENDBRANCH   7  14
ENDBRANCH   1   6
BRANCH   5  17
HETATM   17  C7  UNL     1       6.720  25.889  15.672  1.00  0.00     0.091 C 
HETATM   18  N5  UNL     1       7.141  27.008  15.230  1.00  0.00    -0.398 N 
ATOM     19  H5  UNL     1       6.459  27.635  14.803  1.00  0.00     0.158 HD
BRANCH  18  20
HETATM   20  C8  UNL     1       8.484  27.442  15.289  1.00  0.00     0.141 C 
BRANCH  20  21
HETATM   21  C9  UNL     1       8.675  28.746  16.024  1.00  0.00     0.175 C 
BRANCH  21  22
HETATM   22  N6  UNL     1       7.430  29.391  16.355  1.00  0.00    -0.251 N 
ATOM     23  H6  UNL     1       7.183  29.536  17.334  1.00  0.00     0.197 HD
BRANCH  22  24
HETATM   24  N7  UNL     1       6.665  29.768  15.474  1.00  0.00    -0.249 NA
BRANCH  24  25
HETATM   25  N8  UNL     1       6.058  30.040  14.445  1.00  0.00    -0.261 N 
ATOM     26  H82 UNL     1       6.416  30.994  14.489  1.00  0.00     0.193 HD
ATOM     27  H81 UNL     1       5.493  30.076  13.597  1.00  0.00     0.193 HD
ENDBRANCH  24  25
ENDBRANCH  22  24
ENDBRANCH  21  22
ENDBRANCH  20  21
ENDBRANCH  18  20
ENDBRANCH   5  17
TORSDOF 11
ENDMDL
MODEL 2
REMARK VINA RESULT: -5.833650325      1.449      2.157
REMARK  11 active torsions:
REMARK  status: ('A' for Active; 'I' for Inactive)
REMARK    1  A    between atoms: C2_2  and  C3_3 
REMARK    2  A    between atoms: C3_3  and  N1_4 
REMARK    3  A    between atoms: N1_4  and  C4_6 
REMARK    4  A    between atoms: C4_6  and  C5_12 
REMARK    5  A    between atoms: N2_7  and  N3_9 
REMARK    6  A    between atoms: C6_16  and  C7_17 
REMARK    7  A    between atoms: N5_18  and  C8_20 
REMARK    8  A    between atoms: C8_20  and  C9_21 
REMARK    9  A    between atoms: C9_21  and  N6_22 
REMARK   10  A    between atoms: N6_22  and  N7_24 
REMARK   11  A    between atoms: N7_24  and  N8_25 
ROOT
HETATM    1  C5  UNL     1       4.473  26.493  15.603  1.00  0.00     0.290 A 
HETATM    2  N4  UNL     1       4.902  25.791  16.815  1.00  0.00    -0.050 N 
ATOM      3  H41 UNL     1       5.658  25.150  17.054  1.00  0.00     0.279 HD
ATOM      4  H42 UNL     1       4.542  25.016  17.372  1.00  0.00     0.279 HD
HETATM    5  C6  UNL     1       4.726  27.252  16.815  1.00  0.00     0.262 A 
ENDROOT
BRANCH   1   6
HETATM    6  C4  UNL     1       3.095  26.235  15.137  1.00  0.00     0.125 C 
HETATM    7  N2  UNL     1       2.439  25.267  15.639  1.00  0.00    -0.294 N 
ATOM      8  H2  UNL     1       2.912  24.712  16.352  1.00  0.00     0.187 HD
BRANCH   6   9
HETATM    9  N1  UNL     1       2.535  27.068  14.144  1.00  0.00    -0.373 N 
ATOM     10  H1  UNL     1       1.590  26.889  13.806  1.00  0.00     0.161 HD
BRANCH   9  11
HETATM   11  C3  UNL     1       3.306  28.188  13.597  1.00  0.00     0.147 C 
BRANCH  11  12
HETATM   12  C2  UNL     1       2.743  29.476  14.072  1.00  0.00    -0.018 C 
HETATM   13  C1  UNL     1       2.662  30.552  13.303  1.00  0.00     0.008 C 
ENDBRANCH  11  12
ENDBRANCH   9  11
ENDBRANCH   6   9
BRANCH   7  14
HETATM   14  N3  UNL     1       1.156  24.898  15.315  1.00  0.00    -0.344 N 
ATOM     15  H32 UNL     1       0.547  24.676  16.103  1.00  0.00     0.176 HD
ATOM     16  H31 UNL     1       0.766  24.828  14.375  1.00  0.00     0.176 HD
ENDBRANCH   7  14
ENDBRANCH   1   6
BRANCH   5  17
HETATM   17  C7  UNL     1       5.928  28.066  17.029  1.00  0.00     0.091 C 
HETATM   18  N5  UNL     1       6.416  28.854  16.153  1.00  0.00    -0.398 N 
ATOM     19  H5  UNL     1       5.937  28.916  15.254  1.00  0.00     0.158 HD
BRANCH  18  20
HETATM   20  C8  UNL     1       7.570  29.646  16.338  1.00  0.00     0.141 C 
BRANCH  20  21
HETATM   21  C9  UNL     1       8.829  29.035  15.774  1.00  0.00     0.175 C 
BRANCH  21  22
HETATM   22  N6  UNL     1       8.569  28.060  14.747  1.00  0.00    -0.251 N 
ATOM     23  H6  UNL     1       8.582  28.344  13.768  1.00  0.00     0.197 HD
BRANCH  22  24
HETATM   24  N7  UNL     1       8.332  26.892  15.036  1.00  0.00    -0.249 NA
BRANCH  24  25
HETATM   25  N8  UNL     1       8.291  25.745  15.465  1.00  0.00    -0.261 N 
ATOM     26  H82 UNL     1       9.291  25.645  15.291  1.00  0.00     0.193 HD
ATOM     27  H81 UNL     1       8.062  24.828  15.849  1.00  0.00     0.193 HD
ENDBRANCH  24  25
ENDBRANCH  22  24
ENDBRANCH  21  22
ENDBRANCH  20  21
ENDBRANCH  18  20
ENDBRANCH   5  17
TORSDOF 11
ENDMDL
MODEL 3
REMARK VINA RESULT: -5.726853427      1.615      4.989
REMARK  11 active torsions:
REMARK  status: ('A' for Active; 'I' for Inactive)
REMARK    1  A    between atoms: C2_2  and  C3_3 
REMARK    2  A    between atoms: C3_3  and  N1_4 
REMARK    3  A    between atoms: N1_4  and  C4_6 
REMARK    4  A    between atoms: C4_6  and  C5_12 
REMARK    5  A    between atoms: N2_7  and  N3_9 
REMARK    6  A    between atoms: C6_16  and  C7_17 
REMARK    7  A    between atoms: N5_18  and  C8_20 
REMARK    8  A    between atoms: C8_20  and  C9_21 
REMARK    9  A    between atoms: C9_21  and  N6_22 
REMARK   10  A    between atoms: N6_22  and  N7_24 
REMARK   11  A    between atoms: N7_24  and  N8_25 
ROOT
HETATM    1  C5  UNL     1       6.586  26.888  15.867  1.00  0.00     0.290 A 
HETATM    2  N4  UNL     1       7.460  25.713  15.900  1.00  0.00    -0.050 N 
ATOM      3  H41 UNL     1       7.713  25.015  16.600  1.00  0.00     0.279 HD
ATOM      4  H42 UNL     1       8.468  25.557  15.891  1.00  0.00     0.279 HD
HETATM    5  C6  UNL     1       6.410  25.839  14.877  1.00  0.00     0.262 A 
ENDROOT
BRANCH   1   6
HETATM    6  C4  UNL     1       7.215  28.176  15.511  1.00  0.00     0.125 C 
HETATM    7  N2  UNL     1       8.482  28.242  15.409  1.00  0.00    -0.294 N 
ATOM      8  H2  UNL     1       9.003  27.382  15.583  1.00  0.00     0.187 HD
BRANCH   6   9
HETATM    9  N1  UNL     1       6.399  29.306  15.291  1.00  0.00    -0.373 N 
ATOM     10  H1  UNL     1       6.820  30.233  15.231  1.00  0.00     0.161 HD
BRANCH   9  11
HETATM   11  C3  UNL     1       4.948  29.154  15.148  1.00  0.00     0.147 C 
BRANCH  11  12
HETATM   12  C2  UNL     1       4.464  29.945  13.989  1.00  0.00    -0.018 C 
HETATM   13  C1  UNL     1       3.180  30.054  13.679  1.00  0.00     0.008 C 
ENDBRANCH  11  12
ENDBRANCH   9  11
ENDBRANCH   6   9
BRANCH   7  14
HETATM   14  N3  UNL     1       9.216  29.359  15.089  1.00  0.00    -0.344 N 
ATOM     15  H32 UNL     1      10.172  29.185  14.777  1.00  0.00     0.176 HD
ATOM     16  H31 UNL     1       8.896  30.327  15.134  1.00  0.00     0.176 HD
ENDBRANCH   7  14
ENDBRANCH   1   6
BRANCH   5  17
HETATM   17  C7  UNL     1       5.320  24.857  14.917  1.00  0.00     0.091 C 
HETATM   18  N5  UNL     1       4.338  24.921  15.728  1.00  0.00    -0.398 N 
ATOM     19  H5  UNL     1       4.315  25.703  16.383  1.00  0.00     0.158 HD
BRANCH  18  20
HETATM   20  C8  UNL     1       3.280  23.987  15.783  1.00  0.00     0.141 C 
BRANCH  20  21
HETATM   21  C9  UNL     1       1.941  24.554  15.380  1.00  0.00     0.175 C 
BRANCH  21  22
HETATM   22  N6  UNL     1       1.975  25.978  15.165  1.00  0.00    -0.251 N 
ATOM     23  H6  UNL     1       1.619  26.604  15.887  1.00  0.00     0.197 HD
BRANCH  22  24
HETATM   24  N7  UNL     1       2.427  26.445  14.126  1.00  0.00    -0.249 NA
BRANCH  24  25
HETATM   25  N8  UNL     1       3.089  26.822  13.166  1.00  0.00    -0.261 N 
ATOM     26  H82 UNL     1       3.900  26.324  13.532  1.00  0.00     0.193 HD
ATOM     27  H81 UNL     1       3.469  27.227  12.311  1.00  0.00     0.193 HD
ENDBRANCH  24  25
ENDBRANCH  22  24
ENDBRANCH  21  22
ENDBRANCH  20  21
ENDBRANCH  18  20
ENDBRANCH   5  17
TORSDOF 11
ENDMDL
MODEL 4
REMARK VINA RESULT: -5.371020672      3.815      5.477
REMARK  11 active torsions:
REMARK  status: ('A' for Active; 'I' for Inactive)
REMARK    1  A    between atoms: C2_2  and  C3_3 
REMARK    2  A    between atoms: C3_3  and  N1_4 
REMARK    3  A    between atoms: N1_4  and  C4_6 
REMARK    4  A    between atoms: C4_6  and  C5_12 
REMARK    5  A    between atoms: N2_7  and  N3_9 
REMARK    6  A    between atoms: C6_16  and  C7_17 
REMARK    7  A    between atoms: N5_18  and  C8_20 
REMARK    8  A    between atoms: C8_20  and  C9_21 
REMARK    9  A    between atoms: C9_21  and  N6_22 
REMARK   10  A    between atoms: N6_22  and  N7_24 
REMARK   11  A    between atoms: N7_24  and  N8_25 
ROOT
HETATM    1  C5  UNL     1       5.424  28.263  16.412  1.00  0.00     0.290 A 
HETATM    2  N4  UNL     1       5.839  26.912  16.796  1.00  0.00    -0.050 N 
ATOM      3  H41 UNL     1       6.700  26.486  17.140  1.00  0.00     0.279 HD
ATOM      4  H42 UNL     1       6.022  26.039  16.299  1.00  0.00     0.279 HD
HETATM    5  C6  UNL     1       4.659  27.539  17.413  1.00  0.00     0.262 A 
ENDROOT
BRANCH   1   6
HETATM    6  C4  UNL     1       4.912  28.437  15.038  1.00  0.00     0.125 C 
HETATM    7  N2  UNL     1       4.967  29.586  14.494  1.00  0.00    -0.294 N 
ATOM      8  H2  UNL     1       5.372  30.339  15.050  1.00  0.00     0.187 HD
BRANCH   6   9
HETATM    9  N1  UNL     1       4.372  27.325  14.357  1.00  0.00    -0.373 N 
ATOM     10  H1  UNL     1       4.995  26.647  13.918  1.00  0.00     0.161 HD
BRANCH   9  11
HETATM   11  C3  UNL     1       2.920  27.140  14.277  1.00  0.00     0.147 C 
BRANCH  11  12
HETATM   12  C2  UNL     1       2.506  25.982  15.108  1.00  0.00    -0.018 C 
HETATM   13  C1  UNL     1       3.317  24.973  15.390  1.00  0.00     0.008 C 
ENDBRANCH  11  12
ENDBRANCH   9  11
ENDBRANCH   6   9
BRANCH   7  14
HETATM   14  N3  UNL     1       4.535  29.911  13.230  1.00  0.00    -0.344 N 
ATOM     15  H32 UNL     1       3.988  29.195  12.752  1.00  0.00     0.176 HD
ATOM     16  H31 UNL     1       4.710  30.788  12.738  1.00  0.00     0.176 HD
ENDBRANCH   7  14
ENDBRANCH   1   6
BRANCH   5  17
HETATM   17  C7  UNL     1       4.731  27.818  18.852  1.00  0.00     0.091 C 
HETATM   18  N5  UNL     1       3.887  28.542  19.475  1.00  0.00    -0.398 N 
ATOM     19  H5  UNL     1       3.120  28.946  18.937  1.00  0.00     0.158 HD
BRANCH  18  20
HETATM   20  C8  UNL     1       3.936  28.824  20.859  1.00  0.00     0.141 C 
BRANCH  20  21
HETATM   21  C9  UNL     1       3.024  29.946  21.288  1.00  0.00     0.175 C 
BRANCH  21  22
HETATM   22  N6  UNL     1       1.662  29.520  21.483  1.00  0.00    -0.251 N 
ATOM     23  H6  UNL     1       1.366  29.183  22.399  1.00  0.00     0.197 HD
BRANCH  22  24
HETATM   24  N7  UNL     1       0.854  29.558  20.561  1.00  0.00    -0.249 NA
BRANCH  24  25
HETATM   25  N8  UNL     1      -0.045  29.399  19.745  1.00  0.00    -0.261 N 
ATOM     26  H82 UNL     1       0.589  29.672  18.995  1.00  0.00     0.193 HD
ATOM     27  H81 UNL     1      -0.904  29.216  19.226  1.00  0.00     0.193 HD
ENDBRANCH  24  25
ENDBRANCH  22  24
ENDBRANCH  21  22
ENDBRANCH  20  21
ENDBRANCH  18  20
ENDBRANCH   5  17
TORSDOF 11
ENDMDL
MODEL 5
REMARK VINA RESULT: -5.241600361      4.006      5.301
REMARK  11 active torsions:
REMARK  status: ('A' for Active; 'I' for Inactive)
REMARK    1  A    between atoms: C2_2  and  C3_3 
REMARK    2  A    between atoms: C3_3  and  N1_4 
REMARK    3  A    between atoms: N1_4  and  C4_6 
REMARK    4  A    between atoms: C4_6  and  C5_12 
REMARK    5  A    between atoms: N2_7  and  N3_9 
REMARK    6  A    between atoms: C6_16  and  C7_17 
REMARK    7  A    between atoms: N5_18  and  C8_20 
REMARK    8  A    between atoms: C8_20  and  C9_21 
REMARK    9  A    between atoms: C9_21  and  N6_22 
REMARK   10  A    between atoms: N6_22  and  N7_24 
REMARK   11  A    between atoms: N7_24  and  N8_25 
ROOT
HETATM    1  C5  UNL     1       5.405  28.371  16.383  1.00  0.00     0.290 A 
HETATM    2  N4  UNL     1       6.002  27.083  16.745  1.00  0.00    -0.050 N 
ATOM      3  H41 UNL     1       6.913  26.774  17.084  1.00  0.00     0.279 HD
ATOM      4  H42 UNL     1       6.302  26.252  16.235  1.00  0.00     0.279 HD
HETATM    5  C6  UNL     1       4.748  27.532  17.371  1.00  0.00     0.262 A 
ENDROOT
BRANCH   1   6
HETATM    6  C4  UNL     1       4.873  28.495  15.011  1.00  0.00     0.125 C 
HETATM    7  N2  UNL     1       4.918  29.624  14.426  1.00  0.00    -0.294 N 
ATOM      8  H2  UNL     1       5.329  30.397  14.950  1.00  0.00     0.187 HD
BRANCH   6   9
HETATM    9  N1  UNL     1       4.325  27.358  14.377  1.00  0.00    -0.373 N 
ATOM     10  H1  UNL     1       4.939  26.701  13.897  1.00  0.00     0.161 HD
BRANCH   9  11
HETATM   11  C3  UNL     1       2.879  27.119  14.407  1.00  0.00     0.147 C 
BRANCH  11  12
HETATM   12  C2  UNL     1       2.585  25.854  15.124  1.00  0.00    -0.018 C 
HETATM   13  C1  UNL     1       3.513  24.945  15.389  1.00  0.00     0.008 C 
ENDBRANCH  11  12
ENDBRANCH   9  11
ENDBRANCH   6   9
BRANCH   7  14
HETATM   14  N3  UNL     1       4.467  29.903  13.158  1.00  0.00    -0.344 N 
ATOM     15  H32 UNL     1       5.055  30.530  12.608  1.00  0.00     0.176 HD
ATOM     16  H31 UNL     1       3.614  29.546  12.728  1.00  0.00     0.176 HD
ENDBRANCH   7  14
ENDBRANCH   1   6
BRANCH   5  17
HETATM   17  C7  UNL     1       4.781  27.795  18.814  1.00  0.00     0.091 C 
HETATM   18  N5  UNL     1       3.896  28.475  19.430  1.00  0.00    -0.398 N 
ATOM     19  H5  UNL     1       3.124  28.855  18.883  1.00  0.00     0.158 HD
BRANCH  18  20
HETATM   20  C8  UNL     1       3.909  28.740  20.818  1.00  0.00     0.141 C 
BRANCH  20  21
HETATM   21  C9  UNL     1       2.808  29.665  21.275  1.00  0.00     0.175 C 
BRANCH  21  22
HETATM   22  N6  UNL     1       3.290  30.761  22.076  1.00  0.00    -0.251 N 
ATOM     23  H6  UNL     1       2.754  31.064  22.889  1.00  0.00     0.197 HD
BRANCH  22  24
HETATM   24  N7  UNL     1       4.337  31.332  21.793  1.00  0.00    -0.249 NA
BRANCH  24  25
HETATM   25  N8  UNL     1       5.275  31.947  21.299  1.00  0.00    -0.261 N 
ATOM     26  H82 UNL     1       5.844  31.733  22.117  1.00  0.00     0.193 HD
ATOM     27  H81 UNL     1       5.928  32.491  20.735  1.00  0.00     0.193 HD
ENDBRANCH  24  25
ENDBRANCH  22  24
ENDBRANCH  21  22
ENDBRANCH  20  21
ENDBRANCH  18  20
ENDBRANCH   5  17
TORSDOF 11
ENDMDL
