MODEL 1
REMARK VINA RESULT: -5.850280605      0.000      0.000
REMARK  7 active torsions:
REMARK  status: ('A' for Active; 'I' for Inactive)
REMARK    1  A    between atoms: C2_2  and  C3_3 
REMARK    2  A    between atoms: C3_3  and  N1_4 
REMARK    3  A    between atoms: C6_8  and  N2_9 
REMARK    4  A    between atoms: N2_9  and  C7_12 
REMARK    5  A    between atoms: C7_12  and  C8_13 
REMARK    6  A    between atoms: C8_13  and  C9_14 
REMARK    7  A    between atoms: C9_14  and  N3_15 
ROOT
HETATM    1  N2  UNL     1       4.424  25.795  15.781  1.00  0.00    -0.047 N 
ATOM      2  H21 UNL     1       4.305  24.782  15.792  1.00  0.00     0.280 HD
ATOM      3  H22 UNL     1       3.711  26.056  16.463  1.00  0.00     0.280 HD
ENDROOT
BRANCH   1   4
HETATM    4  C6  UNL     1       4.108  26.335  14.478  1.00  0.00     0.338 C 
HETATM    5  O1  UNL     1       2.739  26.063  14.286  1.00  0.00    -0.356 OA
HETATM    6  C5  UNL     1       2.096  26.226  15.526  1.00  0.00     0.190 C 
HETATM    7  C4  UNL     1       2.440  27.556  16.181  1.00  0.00     0.143 C 
HETATM    8  N1  UNL     1       3.118  28.402  15.257  1.00  0.00    -0.403 N 
HETATM    9  C11 UNL     1       4.189  27.852  14.521  1.00  0.00     0.178 C 
BRANCH   8  10
HETATM   10  C3  UNL     1       2.230  29.299  14.554  1.00  0.00     0.143 C 
BRANCH  10  11
HETATM   11  C2  UNL     1       2.994  29.854  13.405  1.00  0.00    -0.018 C 
HETATM   12  C1  UNL     1       2.951  31.142  13.189  1.00  0.00     0.008 C 
ENDBRANCH  10  11
ENDBRANCH   8  10
ENDBRANCH   1   4
BRANCH   1  13
HETATM   13  C7  UNL     1       5.735  26.160  16.248  1.00  0.00     0.237 C 
BRANCH  13  14
HETATM   14  C8  UNL     1       6.842  25.438  15.508  1.00  0.00     0.047 C 
BRANCH  14  15
HETATM   15  C9  UNL     1       7.954  26.451  15.219  1.00  0.00     0.123 C 
BRANCH  15  16
HETATM   16  N3  UNL     1       7.484  27.733  15.480  1.00  0.00    -0.367 N 
HETATM   17  C10 UNL     1       7.864  28.856  15.505  1.00  0.00     0.196 C 
HETATM   18  N4  UNL     1       9.206  29.268  15.195  1.00  0.00    -0.067 NA
HETATM   19  N5  UNL     1       6.975  29.934  15.854  1.00  0.00    -0.067 NA
ATOM     20  H3  UNL     1       6.496  27.696  15.731  1.00  0.00     0.161 HD
ENDBRANCH  15  16
ENDBRANCH  14  15
ENDBRANCH  13  14
ENDBRANCH   1  13
TORSDOF 7
ENDMDL
MODEL 2
REMARK VINA RESULT: -5.663957438      0.961      1.163
REMARK  7 active torsions:
REMARK  status: ('A' for Active; 'I' for Inactive)
REMARK    1  A    between atoms: C2_2  and  C3_3 
REMARK    2  A    between atoms: C3_3  and  N1_4 
REMARK    3  A    between atoms: C6_8  and  N2_9 
REMARK    4  A    between atoms: N2_9  and  C7_12 
REMARK    5  A    between atoms: C7_12  and  C8_13 
REMARK    6  A    between atoms: C8_13  and  C9_14 
REMARK    7  A    between atoms: C9_14  and  N3_15 
ROOT
HETATM    1  N2  UNL     1       4.408  25.792  15.902  1.00  0.00    -0.047 N 
ATOM      2  H21 UNL     1       4.295  25.174  16.706  1.00  0.00     0.280 HD
ATOM      3  H22 UNL     1       4.639  26.659  16.387  1.00  0.00     0.280 HD
ENDROOT
BRANCH   1   4
HETATM    4  C6  UNL     1       3.163  25.925  15.179  1.00  0.00     0.338 C 
HETATM    5  O1  UNL     1       2.341  26.723  16.000  1.00  0.00    -0.356 OA
HETATM    6  C5  UNL     1       3.160  27.694  16.603  1.00  0.00     0.190 C 
HETATM    7  C4  UNL     1       4.025  28.428  15.588  1.00  0.00     0.143 C 
HETATM    8  N1  UNL     1       3.599  28.123  14.263  1.00  0.00    -0.403 N 
HETATM    9  C11 UNL     1       3.385  26.768  13.934  1.00  0.00     0.178 C 
BRANCH   8  10
HETATM   10  C3  UNL     1       2.658  29.084  13.735  1.00  0.00     0.143 C 
BRANCH  10  11
HETATM   11  C2  UNL     1       3.416  30.338  13.479  1.00  0.00    -0.018 C 
HETATM   12  C1  UNL     1       2.751  31.413  13.146  1.00  0.00     0.008 C 
ENDBRANCH  10  11
ENDBRANCH   8  10
ENDBRANCH   1   4
BRANCH   1  13
HETATM   13  C7  UNL     1       5.505  25.360  15.076  1.00  0.00     0.237 C 
BRANCH  13  14
HETATM   14  C8  UNL     1       6.830  25.372  15.809  1.00  0.00     0.047 C 
BRANCH  14  15
HETATM   15  C9  UNL     1       7.783  26.295  15.044  1.00  0.00     0.123 C 
BRANCH  15  16
HETATM   16  N3  UNL     1       7.454  27.618  15.315  1.00  0.00    -0.367 N 
HETATM   17  C10 UNL     1       7.886  28.568  15.879  1.00  0.00     0.196 C 
HETATM   18  N4  UNL     1       9.144  28.599  16.575  1.00  0.00    -0.067 NA
HETATM   19  N5  UNL     1       7.159  29.811  15.906  1.00  0.00    -0.067 NA
ATOM     20  H3  UNL     1       6.553  27.845  14.895  1.00  0.00     0.161 HD
ENDBRANCH  15  16
ENDBRANCH  14  15
ENDBRANCH  13  14
ENDBRANCH   1  13
TORSDOF 7
ENDMDL
MODEL 3
REMARK VINA RESULT: -4.829787170      1.744      3.733
REMARK  7 active torsions:
REMARK  status: ('A' for Active; 'I' for Inactive)
REMARK    1  A    between atoms: C2_2  and  C3_3 
REMARK    2  A    between atoms: C3_3  and  N1_4 
REMARK    3  A    between atoms: C6_8  and  N2_9 
REMARK    4  A    between atoms: N2_9  and  C7_12 
REMARK    5  A    between atoms: C7_12  and  C8_13 
REMARK    6  A    between atoms: C8_13  and  C9_14 
REMARK    7  A    between atoms: C9_14  and  N3_15 
ROOT
HETATM    1  N2  UNL     1       5.154  28.882  14.639  1.00  0.00    -0.047 N 
ATOM      2  H21 UNL     1       4.788  28.996  13.694  1.00  0.00     0.280 HD
ATOM      3  H22 UNL     1       5.524  27.935  14.564  1.00  0.00     0.280 HD
ENDROOT
BRANCH   1   4
HETATM    4  C6  UNL     1       4.087  28.940  15.613  1.00  0.00     0.338 C 
HETATM    5  O1  UNL     1       2.918  29.194  14.869  1.00  0.00    -0.356 OA
HETATM    6  C5  UNL     1       3.021  28.477  13.662  1.00  0.00     0.190 C 
HETATM    7  C4  UNL     1       3.379  27.016  13.891  1.00  0.00     0.143 C 
HETATM    8  N1  UNL     1       3.266  26.689  15.272  1.00  0.00    -0.403 N 
HETATM    9  C11 UNL     1       3.865  27.560  16.208  1.00  0.00     0.178 C 
BRANCH   8  10
HETATM   10  C3  UNL     1       1.979  26.135  15.620  1.00  0.00     0.143 C 
BRANCH  10  11
HETATM   11  C2  UNL     1       2.023  24.688  15.282  1.00  0.00    -0.018 C 
HETATM   12  C1  UNL     1       3.051  23.984  15.678  1.00  0.00     0.008 C 
ENDBRANCH  10  11
ENDBRANCH   8  10
ENDBRANCH   1   4
BRANCH   1  13
HETATM   13  C7  UNL     1       6.212  29.825  14.893  1.00  0.00     0.237 C 
BRANCH  13  14
HETATM   14  C8  UNL     1       7.109  29.405  16.038  1.00  0.00     0.047 C 
BRANCH  14  15
HETATM   15  C9  UNL     1       8.025  28.286  15.534  1.00  0.00     0.123 C 
BRANCH  15  16
HETATM   16  N3  UNL     1       7.255  27.172  15.219  1.00  0.00    -0.367 N 
HETATM   17  C10 UNL     1       7.298  25.989  15.276  1.00  0.00     0.196 C 
HETATM   18  N4  UNL     1       8.402  25.240  15.812  1.00  0.00    -0.067 NA
HETATM   19  N5  UNL     1       6.204  25.181  14.801  1.00  0.00    -0.067 NA
ATOM     20  H3  UNL     1       6.370  27.467  14.807  1.00  0.00     0.161 HD
ENDBRANCH  15  16
ENDBRANCH  14  15
ENDBRANCH  13  14
ENDBRANCH   1  13
TORSDOF 7
ENDMDL
MODEL 4
REMARK VINA RESULT: -4.823774264      1.702      3.737
REMARK  7 active torsions:
REMARK  status: ('A' for Active; 'I' for Inactive)
REMARK    1  A    between atoms: C2_2  and  C3_3 
REMARK    2  A    between atoms: C3_3  and  N1_4 
REMARK    3  A    between atoms: C6_8  and  N2_9 
REMARK    4  A    between atoms: N2_9  and  C7_12 
REMARK    5  A    between atoms: C7_12  and  C8_13 
REMARK    6  A    between atoms: C8_13  and  C9_14 
REMARK    7  A    between atoms: C9_14  and  N3_15 
ROOT
HETATM    1  N2  UNL     1       4.533  29.068  14.592  1.00  0.00    -0.047 N 
ATOM      2  H21 UNL     1       4.532  29.783  13.863  1.00  0.00     0.280 HD
ATOM      3  H22 UNL     1       4.748  28.249  14.024  1.00  0.00     0.280 HD
ENDROOT
BRANCH   1   4
HETATM    4  C6  UNL     1       3.224  28.947  15.194  1.00  0.00     0.338 C 
HETATM    5  O1  UNL     1       2.356  28.627  14.131  1.00  0.00    -0.356 OA
HETATM    6  C5  UNL     1       3.050  27.765  13.262  1.00  0.00     0.190 C 
HETATM    7  C4  UNL     1       3.684  26.594  14.000  1.00  0.00     0.143 C 
HETATM    8  N1  UNL     1       3.198  26.531  15.337  1.00  0.00    -0.403 N 
HETATM    9  C11 UNL     1       3.188  27.723  16.093  1.00  0.00     0.178 C 
BRANCH   8  10
HETATM   10  C3  UNL     1       2.066  25.647  15.488  1.00  0.00     0.143 C 
BRANCH  10  11
HETATM   11  C2  UNL     1       2.591  24.257  15.443  1.00  0.00    -0.018 C 
HETATM   12  C1  UNL     1       3.823  24.041  15.824  1.00  0.00     0.008 C 
ENDBRANCH  10  11
ENDBRANCH   8  10
ENDBRANCH   1   4
BRANCH   1  13
HETATM   13  C7  UNL     1       5.580  29.317  15.548  1.00  0.00     0.237 C 
BRANCH  13  14
HETATM   14  C8  UNL     1       6.932  29.524  14.896  1.00  0.00     0.047 C 
BRANCH  14  15
HETATM   15  C9  UNL     1       8.005  29.030  15.871  1.00  0.00     0.123 C 
BRANCH  15  16
HETATM   16  N3  UNL     1       8.371  27.733  15.528  1.00  0.00    -0.367 N 
HETATM   17  C10 UNL     1       7.933  26.631  15.533  1.00  0.00     0.196 C 
HETATM   18  N4  UNL     1       6.616  26.281  15.991  1.00  0.00    -0.067 NA
HETATM   19  N5  UNL     1       8.715  25.519  15.058  1.00  0.00    -0.067 NA
ATOM     20  H3  UNL     1       9.319  27.727  15.153  1.00  0.00     0.161 HD
ENDBRANCH  15  16
ENDBRANCH  14  15
ENDBRANCH  13  14
ENDBRANCH   1  13
TORSDOF 7
ENDMDL
MODEL 5
REMARK VINA RESULT: -4.690761641      0.939      1.375
REMARK  7 active torsions:
REMARK  status: ('A' for Active; 'I' for Inactive)
REMARK    1  A    between atoms: C2_2  and  C3_3 
REMARK    2  A    between atoms: C3_3  and  N1_4 
REMARK    3  A    between atoms: C6_8  and  N2_9 
REMARK    4  A    between atoms: N2_9  and  C7_12 
REMARK    5  A    between atoms: C7_12  and  C8_13 
REMARK    6  A    between atoms: C8_13  and  C9_14 
REMARK    7  A    between atoms: C9_14  and  N3_15 
ROOT
HETATM    1  N2  UNL     1       4.221  25.974  15.661  1.00  0.00    -0.047 N 
ATOM      2  H21 UNL     1       4.061  24.975  15.796  1.00  0.00     0.280 HD
ATOM      3  H22 UNL     1       3.612  26.342  16.391  1.00  0.00     0.280 HD
ENDROOT
BRANCH   1   4
HETATM    4  C6  UNL     1       3.768  26.394  14.354  1.00  0.00     0.338 C 
HETATM    5  O1  UNL     1       2.380  26.156  14.349  1.00  0.00    -0.356 OA
HETATM    6  C5  UNL     1       1.892  26.464  15.632  1.00  0.00     0.190 C 
HETATM    7  C4  UNL     1       2.344  27.838  16.104  1.00  0.00     0.143 C 
HETATM    8  N1  UNL     1       2.930  28.563  15.027  1.00  0.00    -0.403 N 
HETATM    9  C11 UNL     1       3.893  27.904  14.233  1.00  0.00     0.178 C 
BRANCH   8  10
HETATM   10  C3  UNL     1       1.989  29.420  14.343  1.00  0.00     0.143 C 
BRANCH  10  11
HETATM   11  C2  UNL     1       2.716  30.040  13.203  1.00  0.00    -0.018 C 
HETATM   12  C1  UNL     1       2.955  31.325  13.239  1.00  0.00     0.008 C 
ENDBRANCH  10  11
ENDBRANCH   8  10
ENDBRANCH   1   4
BRANCH   1  13
HETATM   13  C7  UNL     1       5.595  26.310  15.925  1.00  0.00     0.237 C 
BRANCH  13  14
HETATM   14  C8  UNL     1       5.747  27.321  17.043  1.00  0.00     0.047 C 
BRANCH  14  15
HETATM   15  C9  UNL     1       6.018  28.688  16.408  1.00  0.00     0.123 C 
BRANCH  15  16
HETATM   16  N3  UNL     1       7.375  28.975  16.501  1.00  0.00    -0.367 N 
HETATM   17  C10 UNL     1       8.399  28.724  15.959  1.00  0.00     0.196 C 
HETATM   18  N4  UNL     1       8.523  27.873  14.807  1.00  0.00    -0.067 NA
HETATM   19  N5  UNL     1       9.644  29.277  16.428  1.00  0.00    -0.067 NA
ATOM     20  H3  UNL     1       7.544  29.603  17.287  1.00  0.00     0.161 HD
ENDBRANCH  15  16
ENDBRANCH  14  15
ENDBRANCH  13  14
ENDBRANCH   1  13
TORSDOF 7
ENDMDL
