MODEL 1
REMARK VINA RESULT: -5.499311941      0.000      0.000
REMARK  7 active torsions:
REMARK  status: ('A' for Active; 'I' for Inactive)
REMARK    1  A    between atoms: C4_8  and  C5_9 
REMARK    2  A    between atoms: C5_9  and  N3_10 
REMARK    3  A    between atoms: N3_10  and  C6_12 
REMARK    4  A    between atoms: C6_12  and  C7_13 
REMARK    5  A    between atoms: C7_13  and  C8_14 
REMARK    6  A    between atoms: C8_14  and  C9_15 
REMARK    7  A    between atoms: C9_15  and  N4_16 
ROOT
HETATM    1  N3  UNL     1       5.711  25.397  15.025  1.00  0.00    -0.417 N 
ATOM      2  H3  UNL     1       5.371  25.494  14.069  1.00  0.00     0.153 HD
ENDROOT
BRANCH   1   3
HETATM    3  C5  UNL     1       7.010  25.837  15.419  1.00  0.00     0.179 C 
BRANCH   3   4
HETATM    4  C4  UNL     1       7.168  27.287  15.225  1.00  0.00     0.435 C 
HETATM    5  N1  UNL     1       6.127  28.140  15.690  1.00  0.00     0.118 N 
HETATM    6  C1  UNL     1       6.013  28.190  17.134  1.00  0.00     0.312 C 
HETATM    7  C2  UNL     1       6.672  29.461  15.316  1.00  0.00     0.302 C 
HETATM    8  C3  UNL     1       8.130  29.276  15.656  1.00  0.00     0.265 C 
HETATM    9  N2  UNL     1       8.352  27.853  15.830  1.00  0.00    -0.040 N 
ATOM     10  H22 UNL     1       9.235  27.505  15.457  1.00  0.00     0.279 HD
ATOM     11  H21 UNL     1       8.530  27.558  16.790  1.00  0.00     0.279 HD
ENDBRANCH   3   4
ENDBRANCH   1   3
BRANCH   1  12
HETATM   12  C6  UNL     1       4.927  24.817  16.050  1.00  0.00     0.114 C 
BRANCH  12  13
HETATM   13  C7  UNL     1       3.630  24.273  15.584  1.00  0.00     0.021 C 
BRANCH  13  14
HETATM   14  C8  UNL     1       2.548  25.232  15.253  1.00  0.00     0.025 C 
BRANCH  14  15
HETATM   15  C9  UNL     1       2.621  26.529  15.967  1.00  0.00     0.169 C 
BRANCH  15  16
HETATM   16  N4  UNL     1       2.829  27.620  15.009  1.00  0.00    -0.235 N 
HETATM   17  N5  UNL     1       2.667  28.903  15.236  1.00  0.00    -0.294 N 
HETATM   18  C10 UNL     1       2.946  29.625  14.145  1.00  0.00     0.127 A 
ATOM     19  H5  UNL     1       2.369  29.298  16.128  1.00  0.00     0.187 HD
HETATM   20  C11 UNL     1       3.303  28.710  13.184  1.00  0.00     0.127 A 
HETATM   21  N6  UNL     1       3.213  27.510  13.769  1.00  0.00    -0.294 N 
ATOM     22  H6  UNL     1       3.417  26.625  13.305  1.00  0.00     0.187 HD
ENDBRANCH  15  16
ENDBRANCH  14  15
ENDBRANCH  13  14
ENDBRANCH  12  13
ENDBRANCH   1  12
TORSDOF 7
ENDMDL
MODEL 2
REMARK VINA RESULT: -5.388355513      0.887      1.136
REMARK  7 active torsions:
REMARK  status: ('A' for Active; 'I' for Inactive)
REMARK    1  A    between atoms: C4_8  and  C5_9 
REMARK    2  A    between atoms: C5_9  and  N3_10 
REMARK    3  A    between atoms: N3_10  and  C6_12 
REMARK    4  A    between atoms: C6_12  and  C7_13 
REMARK    5  A    between atoms: C7_13  and  C8_14 
REMARK    6  A    between atoms: C8_14  and  C9_15 
REMARK    7  A    between atoms: C9_15  and  N4_16 
ROOT
HETATM    1  N3  UNL     1       5.454  25.559  14.800  1.00  0.00    -0.417 N 
ATOM      2  H3  UNL     1       5.179  25.961  13.905  1.00  0.00     0.153 HD
ENDROOT
BRANCH   1   3
HETATM    3  C5  UNL     1       6.727  25.817  15.393  1.00  0.00     0.179 C 
BRANCH   3   4
HETATM    4  C4  UNL     1       7.093  27.238  15.280  1.00  0.00     0.435 C 
HETATM    5  N1  UNL     1       6.186  28.205  15.799  1.00  0.00     0.118 N 
HETATM    6  C1  UNL     1       6.078  28.189  17.244  1.00  0.00     0.312 C 
HETATM    7  C2  UNL     1       6.917  29.452  15.497  1.00  0.00     0.302 C 
HETATM    8  C3  UNL     1       8.332  29.040  15.816  1.00  0.00     0.265 C 
HETATM    9  N2  UNL     1       8.346  27.592  15.908  1.00  0.00    -0.040 N 
ATOM     10  H22 UNL     1       9.170  27.141  15.510  1.00  0.00     0.279 HD
ATOM     11  H21 UNL     1       8.477  27.220  16.848  1.00  0.00     0.279 HD
ENDBRANCH   3   4
ENDBRANCH   1   3
BRANCH   1  12
HETATM   12  C6  UNL     1       4.600  24.708  15.540  1.00  0.00     0.114 C 
BRANCH  12  13
HETATM   13  C7  UNL     1       3.183  25.139  15.555  1.00  0.00     0.021 C 
BRANCH  13  14
HETATM   14  C8  UNL     1       2.797  26.303  14.719  1.00  0.00     0.025 C 
BRANCH  14  15
HETATM   15  C9  UNL     1       2.702  27.591  15.447  1.00  0.00     0.169 C 
BRANCH  15  16
HETATM   16  N4  UNL     1       2.919  28.709  14.521  1.00  0.00    -0.235 N 
HETATM   17  N5  UNL     1       4.013  28.960  13.840  1.00  0.00    -0.294 N 
HETATM   18  C10 UNL     1       3.871  30.057  13.088  1.00  0.00     0.127 A 
ATOM     19  H5  UNL     1       4.860  28.392  13.879  1.00  0.00     0.187 HD
HETATM   20  C11 UNL     1       2.596  30.505  13.333  1.00  0.00     0.127 A 
HETATM   21  N6  UNL     1       2.068  29.645  14.212  1.00  0.00    -0.294 N 
ATOM     22  H6  UNL     1       1.122  29.713  14.589  1.00  0.00     0.187 HD
ENDBRANCH  15  16
ENDBRANCH  14  15
ENDBRANCH  13  14
ENDBRANCH  12  13
ENDBRANCH   1  12
TORSDOF 7
ENDMDL
MODEL 3
REMARK VINA RESULT: -5.110980545      1.132      4.313
REMARK  7 active torsions:
REMARK  status: ('A' for Active; 'I' for Inactive)
REMARK    1  A    between atoms: C4_8  and  C5_9 
REMARK    2  A    between atoms: C5_9  and  N3_10 
REMARK    3  A    between atoms: N3_10  and  C6_12 
REMARK    4  A    between atoms: C6_12  and  C7_13 
REMARK    5  A    between atoms: C7_13  and  C8_14 
REMARK    6  A    between atoms: C8_14  and  C9_15 
REMARK    7  A    between atoms: C9_15  and  N4_16 
ROOT
HETATM    1  N3  UNL     1       3.434  24.521  15.032  1.00  0.00    -0.417 N 
ATOM      2  H3  UNL     1       3.563  24.305  14.043  1.00  0.00     0.153 HD
ENDROOT
BRANCH   1   3
HETATM    3  C5  UNL     1       2.350  25.320  15.503  1.00  0.00     0.179 C 
BRANCH   3   4
HETATM    4  C4  UNL     1       2.392  26.674  14.927  1.00  0.00     0.435 C 
HETATM    5  N1  UNL     1       2.529  27.775  15.819  1.00  0.00     0.118 N 
HETATM    6  C1  UNL     1       3.823  27.845  16.467  1.00  0.00     0.312 C 
HETATM    7  C2  UNL     1       2.535  28.899  14.861  1.00  0.00     0.302 C 
HETATM    8  C3  UNL     1       3.369  28.322  13.745  1.00  0.00     0.265 C 
HETATM    9  N2  UNL     1       3.453  26.891  13.970  1.00  0.00    -0.040 N 
ATOM     10  H22 UNL     1       3.398  26.318  13.128  1.00  0.00     0.279 HD
ATOM     11  H21 UNL     1       4.370  26.552  14.258  1.00  0.00     0.279 HD
ENDBRANCH   3   4
ENDBRANCH   1   3
BRANCH   1  12
HETATM   12  C6  UNL     1       4.320  24.046  16.028  1.00  0.00     0.114 C 
BRANCH  12  13
HETATM   13  C7  UNL     1       5.480  24.932  16.278  1.00  0.00     0.021 C 
BRANCH  13  14
HETATM   14  C8  UNL     1       6.159  25.542  15.108  1.00  0.00     0.025 C 
BRANCH  14  15
HETATM   15  C9  UNL     1       7.567  25.945  15.342  1.00  0.00     0.169 C 
BRANCH  15  16
HETATM   16  N4  UNL     1       7.657  27.404  15.474  1.00  0.00    -0.235 N 
HETATM   17  N5  UNL     1       8.685  28.087  15.922  1.00  0.00    -0.294 N 
HETATM   18  C10 UNL     1       8.433  29.400  15.907  1.00  0.00     0.127 A 
ATOM     19  H5  UNL     1       9.560  27.670  16.241  1.00  0.00     0.187 HD
HETATM   20  C11 UNL     1       7.157  29.522  15.412  1.00  0.00     0.127 A 
HETATM   21  N6  UNL     1       6.738  28.275  15.168  1.00  0.00    -0.294 N 
ATOM     22  H6  UNL     1       5.821  28.038  14.791  1.00  0.00     0.187 HD
ENDBRANCH  15  16
ENDBRANCH  14  15
ENDBRANCH  13  14
ENDBRANCH  12  13
ENDBRANCH   1  12
TORSDOF 7
ENDMDL
MODEL 4
REMARK VINA RESULT: -4.837801811      1.437      3.885
REMARK  7 active torsions:
REMARK  status: ('A' for Active; 'I' for Inactive)
REMARK    1  A    between atoms: C4_8  and  C5_9 
REMARK    2  A    between atoms: C5_9  and  N3_10 
REMARK    3  A    between atoms: N3_10  and  C6_12 
REMARK    4  A    between atoms: C6_12  and  C7_13 
REMARK    5  A    between atoms: C7_13  and  C8_14 
REMARK    6  A    between atoms: C8_14  and  C9_15 
REMARK    7  A    between atoms: C9_15  and  N4_16 
ROOT
HETATM    1  N3  UNL     1       7.855  26.905  14.980  1.00  0.00    -0.417 N 
ATOM      2  H3  UNL     1       8.069  27.021  13.990  1.00  0.00     0.153 HD
ENDROOT
BRANCH   1   3
HETATM    3  C5  UNL     1       7.060  25.823  15.466  1.00  0.00     0.179 C 
BRANCH   3   4
HETATM    4  C4  UNL     1       5.628  26.163  15.454  1.00  0.00     0.435 C 
HETATM    5  N1  UNL     1       4.707  25.159  15.041  1.00  0.00     0.118 N 
HETATM    6  C1  UNL     1       4.594  24.052  15.968  1.00  0.00     0.312 C 
HETATM    7  C2  UNL     1       3.431  25.890  15.181  1.00  0.00     0.302 C 
HETATM    8  C3  UNL     1       3.674  26.651  16.460  1.00  0.00     0.265 C 
HETATM    9  N2  UNL     1       5.098  26.591  16.729  1.00  0.00    -0.040 N 
ATOM     10  H22 UNL     1       5.504  27.451  17.098  1.00  0.00     0.279 HD
ATOM     11  H21 UNL     1       5.364  26.011  17.524  1.00  0.00     0.279 HD
ENDBRANCH   3   4
ENDBRANCH   1   3
BRANCH   1  12
HETATM   12  C6  UNL     1       8.327  27.804  15.965  1.00  0.00     0.114 C 
BRANCH  12  13
HETATM   13  C7  UNL     1       7.921  29.211  15.742  1.00  0.00     0.021 C 
BRANCH  13  14
HETATM   14  C8  UNL     1       6.477  29.506  15.576  1.00  0.00     0.025 C 
BRANCH  14  15
HETATM   15  C9  UNL     1       6.094  30.029  14.242  1.00  0.00     0.169 C 
BRANCH  15  16
HETATM   16  N4  UNL     1       4.639  29.954  14.071  1.00  0.00    -0.235 N 
HETATM   17  N5  UNL     1       3.920  30.610  13.190  1.00  0.00    -0.294 N 
HETATM   18  C10 UNL     1       2.623  30.306  13.305  1.00  0.00     0.127 A 
ATOM     19  H5  UNL     1       4.301  31.265  12.507  1.00  0.00     0.187 HD
HETATM   20  C11 UNL     1       2.550  29.398  14.334  1.00  0.00     0.127 A 
HETATM   21  N6  UNL     1       3.807  29.224  14.758  1.00  0.00    -0.294 N 
ATOM     22  H6  UNL     1       4.078  28.602  15.520  1.00  0.00     0.187 HD
ENDBRANCH  15  16
ENDBRANCH  14  15
ENDBRANCH  13  14
ENDBRANCH  12  13
ENDBRANCH   1  12
TORSDOF 7
ENDMDL
MODEL 5
REMARK VINA RESULT: -4.813486206      1.265      4.473
REMARK  7 active torsions:
REMARK  status: ('A' for Active; 'I' for Inactive)
REMARK    1  A    between atoms: C4_8  and  C5_9 
REMARK    2  A    between atoms: C5_9  and  N3_10 
REMARK    3  A    between atoms: N3_10  and  C6_12 
REMARK    4  A    between atoms: C6_12  and  C7_13 
REMARK    5  A    between atoms: C7_13  and  C8_14 
REMARK    6  A    between atoms: C8_14  and  C9_15 
REMARK    7  A    between atoms: C9_15  and  N4_16 
ROOT
HETATM    1  N3  UNL     1       2.946  25.245  15.172  1.00  0.00    -0.417 N 
ATOM      2  H3  UNL     1       2.293  24.957  14.444  1.00  0.00     0.153 HD
ENDROOT
BRANCH   1   3
HETATM    3  C5  UNL     1       2.845  26.507  15.831  1.00  0.00     0.179 C 
BRANCH   3   4
HETATM    4  C4  UNL     1       2.659  27.603  14.866  1.00  0.00     0.435 C 
HETATM    5  N1  UNL     1       3.185  28.883  15.199  1.00  0.00     0.118 N 
HETATM    6  C1  UNL     1       4.633  28.934  15.212  1.00  0.00     0.312 C 
HETATM    7  C2  UNL     1       2.799  29.655  14.001  1.00  0.00     0.302 C 
HETATM    8  C3  UNL     1       3.062  28.645  12.912  1.00  0.00     0.265 C 
HETATM    9  N2  UNL     1       3.209  27.352  13.553  1.00  0.00    -0.040 N 
ATOM     10  H22 UNL     1       2.788  26.571  13.051  1.00  0.00     0.279 HD
ATOM     11  H21 UNL     1       4.155  26.972  13.547  1.00  0.00     0.279 HD
ENDBRANCH   3   4
ENDBRANCH   1   3
BRANCH   1  12
HETATM   12  C6  UNL     1       4.015  24.421  15.596  1.00  0.00     0.114 C 
BRANCH  12  13
HETATM   13  C7  UNL     1       5.221  25.166  16.025  1.00  0.00     0.021 C 
BRANCH  13  14
HETATM   14  C8  UNL     1       6.192  25.583  14.984  1.00  0.00     0.025 C 
BRANCH  14  15
HETATM   15  C9  UNL     1       7.578  25.790  15.469  1.00  0.00     0.169 C 
BRANCH  15  16
HETATM   16  N4  UNL     1       7.855  27.224  15.608  1.00  0.00    -0.235 N 
HETATM   17  N5  UNL     1       8.500  27.983  14.753  1.00  0.00    -0.294 N 
HETATM   18  C10 UNL     1       8.571  29.245  15.189  1.00  0.00     0.127 A 
ATOM     19  H5  UNL     1       8.894  27.653  13.872  1.00  0.00     0.187 HD
HETATM   20  C11 UNL     1       7.922  29.252  16.400  1.00  0.00     0.127 A 
HETATM   21  N6  UNL     1       7.508  27.994  16.600  1.00  0.00    -0.294 N 
ATOM     22  H6  UNL     1       6.990  27.681  17.421  1.00  0.00     0.187 HD
ENDBRANCH  15  16
ENDBRANCH  14  15
ENDBRANCH  13  14
ENDBRANCH  12  13
ENDBRANCH   1  12
TORSDOF 7
ENDMDL
