MODEL 1
REMARK VINA RESULT: -6.070765076      0.000      0.000
REMARK  9 active torsions:
REMARK  status: ('A' for Active; 'I' for Inactive)
REMARK    1  A    between atoms: N1_1  and  C1_4 
REMARK    2  A    between atoms: N3_9  and  C3_10 
REMARK    3  A    between atoms: C3_10  and  C4_11 
REMARK    4  A    between atoms: C4_11  and  C5_12 
REMARK    5  A    between atoms: C5_12  and  N4_13 
REMARK    6  A    between atoms: N5_18  and  C7_19 
REMARK    7  A    between atoms: C7_19  and  C8_20 
REMARK    8  A    between atoms: C8_20  and  C9_21 
REMARK    9  A    between atoms: C9_21  and  C10_22 
ROOT
HETATM    1  C1  UNL     1       4.587  24.583  15.987  1.00  0.00     0.682 A 
HETATM    2  N2  UNL     1       3.262  24.610  15.773  1.00  0.00    -0.141 N 
ATOM      3  H2  UNL     1       2.686  23.855  16.144  1.00  0.00     0.189 HD
HETATM    4  C2  UNL     1       2.668  25.607  15.080  1.00  0.00     0.341 A 
HETATM    5  O1  UNL     1       1.407  25.584  14.905  1.00  0.00    -0.246 OA
HETATM    6  N3  UNL     1       3.412  26.614  14.581  1.00  0.00    -0.294 N 
HETATM    7  C6  UNL     1       4.735  26.567  14.807  1.00  0.00     0.207 A 
HETATM    8  N5  UNL     1       5.343  25.589  15.492  1.00  0.00    -0.179 N 
ENDROOT
BRANCH   6   9
HETATM    9  C3  UNL     1       2.773  27.690  13.832  1.00  0.00     0.136 C 
BRANCH   9  10
HETATM   10  C4  UNL     1       3.043  28.975  14.583  1.00  0.00     0.048 C 
BRANCH  10  11
HETATM   11  C5  UNL     1       3.385  30.111  13.653  1.00  0.00     0.231 C 
BRANCH  11  12
HETATM   12  N4  UNL     1       4.739  30.030  13.161  1.00  0.00    -0.079 N 
ATOM     13  H43 UNL     1       5.363  30.630  13.699  1.00  0.00     0.274 HD
ATOM     14  H42 UNL     1       5.156  29.125  13.379  1.00  0.00     0.274 HD
ATOM     15  H41 UNL     1       4.803  30.233  12.163  1.00  0.00     0.274 HD
ENDBRANCH  11  12
ENDBRANCH  10  11
ENDBRANCH   9  10
ENDBRANCH   6   9
BRANCH   8  16
HETATM   16  C7  UNL     1       6.755  25.634  15.675  1.00  0.00     0.148 C 
BRANCH  16  17
HETATM   17  C8  UNL     1       7.408  26.907  15.231  1.00  0.00     0.023 C 
BRANCH  17  18
HETATM   18  C9  UNL     1       7.304  28.018  16.228  1.00  0.00     0.033 C 
BRANCH  18  19
HETATM   19  C10 UNL     1       7.823  29.284  15.535  1.00  0.00     0.222 C 
HETATM   20  F1  UNL     1       9.129  29.532  15.857  1.00  0.00    -0.255 F 
ENDBRANCH  18  19
ENDBRANCH  17  18
ENDBRANCH  16  17
ENDBRANCH   8  16
BRANCH   1  21
HETATM   21  N1  UNL     1       5.091  23.606  16.655  1.00  0.00    -0.234 N 
ATOM     22  H12 UNL     1       4.623  23.197  17.463  1.00  0.00     0.174 HD
ATOM     23  H11 UNL     1       5.992  23.224  16.368  1.00  0.00     0.174 HD
ENDBRANCH   1  21
TORSDOF 9
ENDMDL
MODEL 2
REMARK VINA RESULT: -5.559255887      2.922      4.609
REMARK  9 active torsions:
REMARK  status: ('A' for Active; 'I' for Inactive)
REMARK    1  A    between atoms: N1_1  and  C1_4 
REMARK    2  A    between atoms: N3_9  and  C3_10 
REMARK    3  A    between atoms: C3_10  and  C4_11 
REMARK    4  A    between atoms: C4_11  and  C5_12 
REMARK    5  A    between atoms: C5_12  and  N4_13 
REMARK    6  A    between atoms: N5_18  and  C7_19 
REMARK    7  A    between atoms: C7_19  and  C8_20 
REMARK    8  A    between atoms: C8_20  and  C9_21 
REMARK    9  A    between atoms: C9_21  and  C10_22 
ROOT
HETATM    1  C1  UNL     1       4.275  25.675  15.377  1.00  0.00     0.682 A 
HETATM    2  N2  UNL     1       5.551  25.263  15.309  1.00  0.00    -0.141 N 
ATOM      3  H2  UNL     1       5.750  24.331  14.943  1.00  0.00     0.189 HD
HETATM    4  C2  UNL     1       6.580  26.043  15.709  1.00  0.00     0.341 A 
HETATM    5  O1  UNL     1       7.772  25.602  15.623  1.00  0.00    -0.246 OA
HETATM    6  N3  UNL     1       6.338  27.277  16.195  1.00  0.00    -0.294 N 
HETATM    7  C6  UNL     1       5.055  27.669  16.254  1.00  0.00     0.207 A 
HETATM    8  N5  UNL     1       4.021  26.912  15.862  1.00  0.00    -0.179 N 
ENDROOT
BRANCH   6   9
HETATM    9  C3  UNL     1       7.446  28.119  16.629  1.00  0.00     0.136 C 
BRANCH   9  10
HETATM   10  C4  UNL     1       7.688  29.133  15.533  1.00  0.00     0.048 C 
BRANCH  10  11
HETATM   11  C5  UNL     1       9.127  29.579  15.485  1.00  0.00     0.231 C 
BRANCH  11  12
HETATM   12  N4  UNL     1       9.859  29.205  16.671  1.00  0.00    -0.079 N 
ATOM     13  H43 UNL     1      10.284  28.284  16.566  1.00  0.00     0.274 HD
ATOM     14  H42 UNL     1      10.706  29.764  16.773  1.00  0.00     0.274 HD
ATOM     15  H41 UNL     1       9.285  29.251  17.513  1.00  0.00     0.274 HD
ENDBRANCH  11  12
ENDBRANCH  10  11
ENDBRANCH   9  10
ENDBRANCH   6   9
BRANCH   8  16
HETATM   16  C7  UNL     1       2.696  27.425  15.967  1.00  0.00     0.148 C 
BRANCH  16  17
HETATM   17  C8  UNL     1       2.434  28.664  15.168  1.00  0.00     0.023 C 
BRANCH  17  18
HETATM   18  C9  UNL     1       3.068  28.651  13.812  1.00  0.00     0.033 C 
BRANCH  18  19
HETATM   19  C10 UNL     1       3.706  30.032  13.610  1.00  0.00     0.222 C 
HETATM   20  F1  UNL     1       2.781  30.959  13.217  1.00  0.00    -0.255 F 
ENDBRANCH  18  19
ENDBRANCH  17  18
ENDBRANCH  16  17
ENDBRANCH   8  16
BRANCH   1  21
HETATM   21  N1  UNL     1       3.342  24.885  14.979  1.00  0.00    -0.234 N 
ATOM     22  H12 UNL     1       2.828  24.281  15.620  1.00  0.00     0.174 HD
ATOM     23  H11 UNL     1       3.104  24.860  13.988  1.00  0.00     0.174 HD
ENDBRANCH   1  21
TORSDOF 9
ENDMDL
MODEL 3
REMARK VINA RESULT: -5.531149518      2.932      5.085
REMARK  9 active torsions:
REMARK  status: ('A' for Active; 'I' for Inactive)
REMARK    1  A    between atoms: N1_1  and  C1_4 
REMARK    2  A    between atoms: N3_9  and  C3_10 
REMARK    3  A    between atoms: C3_10  and  C4_11 
REMARK    4  A    between atoms: C4_11  and  C5_12 
REMARK    5  A    between atoms: C5_12  and  N4_13 
REMARK    6  A    between atoms: N5_18  and  C7_19 
REMARK    7  A    between atoms: C7_19  and  C8_20 
REMARK    8  A    between atoms: C8_20  and  C9_21 
REMARK    9  A    between atoms: C9_21  and  C10_22 
ROOT
HETATM    1  C1  UNL     1       7.420  28.351  15.161  1.00  0.00     0.682 A 
HETATM    2  N2  UNL     1       8.110  27.211  15.327  1.00  0.00    -0.141 N 
ATOM      3  H2  UNL     1       9.125  27.229  15.228  1.00  0.00     0.189 HD
HETATM    4  C2  UNL     1       7.500  26.041  15.621  1.00  0.00     0.341 A 
HETATM    5  O1  UNL     1       8.202  24.988  15.768  1.00  0.00    -0.246 OA
HETATM    6  N3  UNL     1       6.160  25.997  15.757  1.00  0.00    -0.294 N 
HETATM    7  C6  UNL     1       5.491  27.149  15.587  1.00  0.00     0.207 A 
HETATM    8  N5  UNL     1       6.075  28.319  15.295  1.00  0.00    -0.179 N 
ENDROOT
BRANCH   6   9
HETATM    9  C3  UNL     1       5.501  24.735  16.074  1.00  0.00     0.136 C 
BRANCH   9  10
HETATM   10  C4  UNL     1       4.421  24.525  15.036  1.00  0.00     0.048 C 
BRANCH  10  11
HETATM   11  C5  UNL     1       3.042  24.543  15.645  1.00  0.00     0.231 C 
BRANCH  11  12
HETATM   12  N4  UNL     1       2.246  25.650  15.171  1.00  0.00    -0.079 N 
ATOM     13  H43 UNL     1       2.430  26.493  15.713  1.00  0.00     0.274 HD
ATOM     14  H42 UNL     1       2.569  25.970  14.257  1.00  0.00     0.274 HD
ATOM     15  H41 UNL     1       1.250  25.433  15.153  1.00  0.00     0.274 HD
ENDBRANCH  11  12
ENDBRANCH  10  11
ENDBRANCH   9  10
ENDBRANCH   6   9
BRANCH   8  16
HETATM   16  C7  UNL     1       5.271  29.484  15.135  1.00  0.00     0.148 C 
BRANCH  16  17
HETATM   17  C8  UNL     1       3.809  29.220  14.946  1.00  0.00     0.023 C 
BRANCH  17  18
HETATM   18  C9  UNL     1       3.385  29.183  13.511  1.00  0.00     0.033 C 
BRANCH  18  19
HETATM   19  C10 UNL     1       2.426  30.363  13.303  1.00  0.00     0.222 C 
HETATM   20  F1  UNL     1       3.106  31.537  13.134  1.00  0.00    -0.255 F 
ENDBRANCH  18  19
ENDBRANCH  17  18
ENDBRANCH  16  17
ENDBRANCH   8  16
BRANCH   1  21
HETATM   21  N1  UNL     1       8.059  29.432  14.882  1.00  0.00    -0.234 N 
ATOM     22  H12 UNL     1       8.781  29.470  14.162  1.00  0.00     0.174 HD
ATOM     23  H11 UNL     1       7.839  30.284  15.398  1.00  0.00     0.174 HD
ENDBRANCH   1  21
TORSDOF 9
ENDMDL
MODEL 4
REMARK VINA RESULT: -5.464383294      3.224      4.450
REMARK  9 active torsions:
REMARK  status: ('A' for Active; 'I' for Inactive)
REMARK    1  A    between atoms: N1_1  and  C1_4 
REMARK    2  A    between atoms: N3_9  and  C3_10 
REMARK    3  A    between atoms: C3_10  and  C4_11 
REMARK    4  A    between atoms: C4_11  and  C5_12 
REMARK    5  A    between atoms: C5_12  and  N4_13 
REMARK    6  A    between atoms: N5_18  and  C7_19 
REMARK    7  A    between atoms: C7_19  and  C8_20 
REMARK    8  A    between atoms: C8_20  and  C9_21 
REMARK    9  A    between atoms: C9_21  and  C10_22 
ROOT
HETATM    1  C1  UNL     1       6.986  26.383  15.525  1.00  0.00     0.682 A 
HETATM    2  N2  UNL     1       7.397  27.649  15.704  1.00  0.00    -0.141 N 
ATOM      3  H2  UNL     1       8.358  27.819  16.001  1.00  0.00     0.189 HD
HETATM    4  C2  UNL     1       6.576  28.704  15.503  1.00  0.00     0.341 A 
HETATM    5  O1  UNL     1       7.017  29.885  15.688  1.00  0.00    -0.246 OA
HETATM    6  N3  UNL     1       5.303  28.500  15.111  1.00  0.00    -0.294 N 
HETATM    7  C6  UNL     1       4.914  27.226  14.938  1.00  0.00     0.207 A 
HETATM    8  N5  UNL     1       5.711  26.167  15.131  1.00  0.00    -0.179 N 
ENDROOT
BRANCH   6   9
HETATM    9  C3  UNL     1       4.416  29.637  14.894  1.00  0.00     0.136 C 
BRANCH   9  10
HETATM   10  C4  UNL     1       3.101  29.086  14.390  1.00  0.00     0.048 C 
BRANCH  10  11
HETATM   11  C5  UNL     1       2.415  30.039  13.445  1.00  0.00     0.231 C 
BRANCH  11  12
HETATM   12  N4  UNL     1       3.268  31.136  13.055  1.00  0.00    -0.079 N 
ATOM     13  H43 UNL     1       4.093  31.190  13.651  1.00  0.00     0.274 HD
ATOM     14  H42 UNL     1       3.724  30.947  12.162  1.00  0.00     0.274 HD
ATOM     15  H41 UNL     1       2.771  32.026  13.032  1.00  0.00     0.274 HD
ENDBRANCH  11  12
ENDBRANCH  10  11
ENDBRANCH   9  10
ENDBRANCH   6   9
BRANCH   8  16
HETATM   16  C7  UNL     1       5.198  24.855  14.919  1.00  0.00     0.148 C 
BRANCH  16  17
HETATM   17  C8  UNL     1       4.323  24.334  16.018  1.00  0.00     0.023 C 
BRANCH  17  18
HETATM   18  C9  UNL     1       2.942  23.973  15.568  1.00  0.00     0.033 C 
BRANCH  18  19
HETATM   19  C10 UNL     1       2.157  25.287  15.454  1.00  0.00     0.222 C 
HETATM   20  F1  UNL     1       0.848  25.062  15.132  1.00  0.00    -0.255 F 
ENDBRANCH  18  19
ENDBRANCH  17  18
ENDBRANCH  16  17
ENDBRANCH   8  16
BRANCH   1  21
HETATM   21  N1  UNL     1       7.816  25.423  15.733  1.00  0.00    -0.234 N 
ATOM     22  H12 UNL     1       8.544  25.474  16.445  1.00  0.00     0.174 HD
ATOM     23  H11 UNL     1       7.746  24.577  15.167  1.00  0.00     0.174 HD
ENDBRANCH   1  21
TORSDOF 9
ENDMDL
MODEL 5
REMARK VINA RESULT: -5.187535898      1.573      2.237
REMARK  9 active torsions:
REMARK  status: ('A' for Active; 'I' for Inactive)
REMARK    1  A    between atoms: N1_1  and  C1_4 
REMARK    2  A    between atoms: N3_9  and  C3_10 
REMARK    3  A    between atoms: C3_10  and  C4_11 
REMARK    4  A    between atoms: C4_11  and  C5_12 
REMARK    5  A    between atoms: C5_12  and  N4_13 
REMARK    6  A    between atoms: N5_18  and  C7_19 
REMARK    7  A    between atoms: C7_19  and  C8_20 
REMARK    8  A    between atoms: C8_20  and  C9_21 
REMARK    9  A    between atoms: C9_21  and  C10_22 
ROOT
HETATM    1  C1  UNL     1       6.672  26.269  15.554  1.00  0.00     0.682 A 
HETATM    2  N2  UNL     1       5.680  25.477  15.114  1.00  0.00    -0.141 N 
ATOM      3  H2  UNL     1       5.908  24.541  14.778  1.00  0.00     0.189 HD
HETATM    4  C2  UNL     1       4.390  25.882  15.104  1.00  0.00     0.341 A 
HETATM    5  O1  UNL     1       3.489  25.090  14.676  1.00  0.00    -0.246 OA
HETATM    6  N3  UNL     1       4.070  27.114  15.545  1.00  0.00    -0.294 N 
HETATM    7  C6  UNL     1       5.077  27.889  15.979  1.00  0.00     0.207 A 
HETATM    8  N5  UNL     1       6.361  27.507  15.999  1.00  0.00    -0.179 N 
ENDROOT
BRANCH   6   9
HETATM    9  C3  UNL     1       2.679  27.553  15.534  1.00  0.00     0.136 C 
BRANCH   9  10
HETATM   10  C4  UNL     1       2.650  28.923  14.895  1.00  0.00     0.048 C 
BRANCH  10  11
HETATM   11  C5  UNL     1       3.146  28.893  13.472  1.00  0.00     0.231 C 
BRANCH  11  12
HETATM   12  N4  UNL     1       4.202  29.849  13.238  1.00  0.00    -0.079 N 
ATOM     13  H43 UNL     1       4.352  29.994  12.240  1.00  0.00     0.274 HD
ATOM     14  H42 UNL     1       3.909  30.791  13.497  1.00  0.00     0.274 HD
ATOM     15  H41 UNL     1       5.070  29.592  13.707  1.00  0.00     0.274 HD
ENDBRANCH  11  12
ENDBRANCH  10  11
ENDBRANCH   9  10
ENDBRANCH   6   9
BRANCH   8  16
HETATM   16  C7  UNL     1       7.354  28.408  16.481  1.00  0.00     0.148 C 
BRANCH  16  17
HETATM   17  C8  UNL     1       7.954  29.302  15.440  1.00  0.00     0.023 C 
BRANCH  17  18
HETATM   18  C9  UNL     1       9.413  29.564  15.641  1.00  0.00     0.033 C 
BRANCH  18  19
HETATM   19  C10 UNL     1       9.778  28.999  17.020  1.00  0.00     0.222 C 
HETATM   20  F1  UNL     1      11.040  29.368  17.395  1.00  0.00    -0.255 F 
ENDBRANCH  18  19
ENDBRANCH  17  18
ENDBRANCH  16  17
ENDBRANCH   8  16
BRANCH   1  21
HETATM   21  N1  UNL     1       7.878  25.824  15.538  1.00  0.00    -0.234 N 
ATOM     22  H12 UNL     1       8.201  25.142  14.851  1.00  0.00     0.174 HD
ATOM     23  H11 UNL     1       8.540  26.164  16.235  1.00  0.00     0.174 HD
ENDBRANCH   1  21
TORSDOF 9
ENDMDL
