MODEL 1
REMARK VINA RESULT: -8.260202299      0.000      0.000
REMARK  9 active torsions:
REMARK  status: ('A' for Active; 'I' for Inactive)
REMARK    1  A    between atoms: N1_2  and  N2_4 
REMARK       I    between atoms: N2_4  and  C2_6 
REMARK    2  A    between atoms: C2_6  and  C3_8 
REMARK    3  A    between atoms: N3_10  and  C5_11 
REMARK    4  A    between atoms: C6_12  and  C7_13 
REMARK    5  A    between atoms: C8_19  and  N6_20 
REMARK    6  A    between atoms: N6_20  and  N7_22 
REMARK    7  A    between atoms: N9_27  and  C9_28 
REMARK    8  A    between atoms: C11_38  and  C12_39 
REMARK    9  A    between atoms: C12_39  and  O4_41 
ROOT
HETATM    1  C5  UNL     1      -4.208 -33.649  -7.594  1.00  0.00     0.115 A 
HETATM    2  C6  UNL     1      -5.436 -33.073  -7.521  1.00  0.00     0.112 A 
HETATM    3  N8  UNL     1      -5.860 -33.179  -6.229  1.00  0.00    -0.287 N 
ATOM      4  H8  UNL     1      -6.751 -32.830  -5.875  1.00  0.00     0.188 HD
HETATM    5  N9  UNL     1      -4.929 -33.810  -5.487  1.00  0.00    -0.234 N 
HETATM    6  C11 UNL     1      -3.922 -34.109  -6.291  1.00  0.00     0.095 A 
ENDROOT
BRANCH   1   7
HETATM    7  N3  UNL     1      -3.320 -33.806  -8.718  1.00  0.00    -0.246 N 
HETATM    8  C4  UNL     1      -3.301 -34.838  -9.552  1.00  0.00     0.155 A 
HETATM    9  C3  UNL     1      -2.351 -34.643 -10.509  1.00  0.00     0.136 A 
HETATM   10  N14 UNL     1      -1.801 -33.451 -10.221  1.00  0.00    -0.279 N 
HETATM   11  N13 UNL     1      -2.396 -32.968  -9.147  1.00  0.00    -0.235 N 
ATOM     12  H14 UNL     1      -1.052 -32.997 -10.744  1.00  0.00     0.189 HD
ATOM     13  H13 UNL     1      -2.173 -32.074  -8.710  1.00  0.00     0.209 HD
BRANCH   9  14
HETATM   14  C2  UNL     1      -1.979 -35.571 -11.625  1.00  0.00     0.289 C 
HETATM   15  N2  UNL     1      -0.899 -35.164 -12.398  1.00  0.00    -0.269 N 
ATOM     16  H2  UNL     1      -0.453 -34.280 -12.153  1.00  0.00     0.190 HD
HETATM   17  O1  UNL     1      -2.689 -36.613 -11.737  1.00  0.00    -0.264 OA
BRANCH  15  18
HETATM   18  N1  UNL     1      -0.391 -35.852 -13.454  1.00  0.00    -0.338 N 
HETATM   19  C1  UNL     1       0.999 -35.734 -13.647  1.00  0.00     0.167 C 
ATOM     20  H1  UNL     1      -0.979 -36.416 -14.066  1.00  0.00     0.179 HD
ENDBRANCH  15  18
ENDBRANCH   9  14
ENDBRANCH   1   7
BRANCH   2  21
HETATM   21  C7  UNL     1      -6.226 -32.490  -8.583  1.00  0.00     0.134 A 
HETATM   22  N4  UNL     1      -7.218 -33.036  -9.306  1.00  0.00    -0.236 N 
HETATM   23  O2  UNL     1      -7.698 -32.167 -10.149  1.00  0.00    -0.155 OA
ATOM     24  H4  UNL     1      -7.548 -33.997  -9.209  1.00  0.00     0.197 HD
HETATM   25  N5  UNL     1      -7.047 -31.030 -10.015  1.00  0.00    -0.222 N 
HETATM   26  C8  UNL     1      -6.121 -31.198  -9.048  1.00  0.00     0.173 A 
ATOM     27  H5  UNL     1      -7.213 -30.176 -10.548  1.00  0.00     0.198 HD
BRANCH  26  28
HETATM   28  N6  UNL     1      -5.268 -30.357  -8.588  1.00  0.00    -0.289 N 
ATOM     29  H6  UNL     1      -5.395 -30.003  -7.640  1.00  0.00     0.188 HD
BRANCH  28  30
HETATM   30  N7  UNL     1      -4.182 -29.910  -9.325  1.00  0.00    -0.344 N 
ATOM     31  H72 UNL     1      -4.329 -29.120  -9.951  1.00  0.00     0.176 HD
ATOM     32  H71 UNL     1      -3.259 -30.339  -9.262  1.00  0.00     0.176 HD
ENDBRANCH  28  30
ENDBRANCH  26  28
ENDBRANCH   2  21
BRANCH   6  33
HETATM   33  C12 UNL     1      -2.625 -34.759  -5.990  1.00  0.00     0.168 C 
HETATM   34  C13 UNL     1      -2.833 -36.288  -6.168  1.00  0.00     0.046 C 
BRANCH  33  35
HETATM   35  O4  UNL     1      -2.315 -34.657  -4.591  1.00  0.00    -0.390 OA
ATOM     36  H4  UNL     1      -2.872 -35.232  -4.079  1.00  0.00     0.210 HD
ENDBRANCH  33  35
ENDBRANCH   6  33
BRANCH   5  37
HETATM   37  C9  UNL     1      -5.054 -33.973  -4.076  1.00  0.00     0.195 A 
HETATM   38  N10 UNL     1      -5.258 -35.187  -3.467  1.00  0.00    -0.220 N 
HETATM   39  O3  UNL     1      -5.259 -35.068  -2.182  1.00  0.00    -0.153 OA
ATOM     40  H10 UNL     1      -5.391 -36.067  -3.965  1.00  0.00     0.198 HD
HETATM   41  N11 UNL     1      -5.058 -33.794  -1.911  1.00  0.00    -0.222 N 
HETATM   42  C10 UNL     1      -4.928 -33.088  -3.030  1.00  0.00     0.169 A 
ATOM     43  H11 UNL     1      -5.008 -33.403  -0.970  1.00  0.00     0.198 HD
HETATM   44  N12 UNL     1      -4.732 -31.827  -3.170  1.00  0.00    -0.381 N 
ATOM     45 2H12 UNL     1      -4.633 -31.285  -4.029  1.00  0.00     0.157 HD
ATOM     46 1H12 UNL     1      -4.639 -31.171  -2.395  1.00  0.00     0.157 HD
ENDBRANCH   5  37
TORSDOF 9
ENDMDL
MODEL 2
REMARK VINA RESULT: -8.259662883      2.792      6.581
REMARK  9 active torsions:
REMARK  status: ('A' for Active; 'I' for Inactive)
REMARK    1  A    between atoms: N1_2  and  N2_4 
REMARK       I    between atoms: N2_4  and  C2_6 
REMARK    2  A    between atoms: C2_6  and  C3_8 
REMARK    3  A    between atoms: N3_10  and  C5_11 
REMARK    4  A    between atoms: C6_12  and  C7_13 
REMARK    5  A    between atoms: C8_19  and  N6_20 
REMARK    6  A    between atoms: N6_20  and  N7_22 
REMARK    7  A    between atoms: N9_27  and  C9_28 
REMARK    8  A    between atoms: C11_38  and  C12_39 
REMARK    9  A    between atoms: C12_39  and  O4_41 
ROOT
HETATM    1  C5  UNL     1      -4.717 -32.214  -8.586  1.00  0.00     0.115 A 
HETATM    2  C6  UNL     1      -4.726 -32.784  -7.353  1.00  0.00     0.112 A 
HETATM    3  N8  UNL     1      -3.677 -33.655  -7.299  1.00  0.00    -0.287 N 
ATOM      4  H8  UNL     1      -3.432 -34.226  -6.490  1.00  0.00     0.188 HD
HETATM    5  N9  UNL     1      -3.010 -33.648  -8.470  1.00  0.00    -0.234 N 
HETATM    6  C11 UNL     1      -3.623 -32.789  -9.266  1.00  0.00     0.095 A 
ENDROOT
BRANCH   1   7
HETATM    7  N3  UNL     1      -5.600 -31.232  -9.163  1.00  0.00    -0.246 N 
HETATM    8  C4  UNL     1      -5.352 -29.932  -9.266  1.00  0.00     0.155 A 
HETATM    9  C3  UNL     1      -6.394 -29.310  -9.884  1.00  0.00     0.136 A 
HETATM   10  N14 UNL     1      -7.278 -30.286 -10.153  1.00  0.00    -0.279 N 
HETATM   11  N13 UNL     1      -6.782 -31.427  -9.714  1.00  0.00    -0.235 N 
ATOM     12  H14 UNL     1      -8.178 -30.164 -10.618  1.00  0.00     0.189 HD
ATOM     13  H13 UNL     1      -7.248 -32.332  -9.790  1.00  0.00     0.209 HD
BRANCH   9  14
HETATM   14  C2  UNL     1      -6.538 -27.846 -10.175  1.00  0.00     0.289 C 
HETATM   15  N2  UNL     1      -5.675 -27.349 -11.143  1.00  0.00    -0.269 N 
ATOM     16  H2  UNL     1      -5.020 -28.003 -11.571  1.00  0.00     0.190 HD
HETATM   17  O1  UNL     1      -7.422 -27.235  -9.507  1.00  0.00    -0.264 OA
BRANCH  15  18
HETATM   18  N1  UNL     1      -5.637 -26.057 -11.564  1.00  0.00    -0.338 N 
HETATM   19  C1  UNL     1      -5.205 -25.860 -12.890  1.00  0.00     0.167 C 
ATOM     20  H1  UNL     1      -5.904 -25.281 -10.959  1.00  0.00     0.179 HD
ENDBRANCH  15  18
ENDBRANCH   9  14
ENDBRANCH   1   7
BRANCH   2  21
HETATM   21  C7  UNL     1      -5.670 -32.591  -6.274  1.00  0.00     0.134 A 
HETATM   22  N4  UNL     1      -6.852 -31.953  -6.281  1.00  0.00    -0.236 N 
HETATM   23  O2  UNL     1      -7.416 -32.030  -5.110  1.00  0.00    -0.155 OA
ATOM     24  H4  UNL     1      -7.252 -31.476  -7.089  1.00  0.00     0.197 HD
HETATM   25  N5  UNL     1      -6.636 -32.712  -4.297  1.00  0.00    -0.222 N 
HETATM   26  C8  UNL     1      -5.537 -33.075  -4.992  1.00  0.00     0.173 A 
ATOM     27  H5  UNL     1      -6.827 -32.927  -3.318  1.00  0.00     0.198 HD
BRANCH  26  28
HETATM   28  N6  UNL     1      -4.518 -33.749  -4.602  1.00  0.00    -0.289 N 
ATOM     29  H6  UNL     1      -3.597 -33.315  -4.652  1.00  0.00     0.188 HD
BRANCH  28  30
HETATM   30  N7  UNL     1      -4.616 -35.044  -4.116  1.00  0.00    -0.344 N 
ATOM     31  H72 UNL     1      -5.536 -35.485  -4.129  1.00  0.00     0.176 HD
ATOM     32  H71 UNL     1      -3.815 -35.560  -3.753  1.00  0.00     0.176 HD
ENDBRANCH  28  30
ENDBRANCH  26  28
ENDBRANCH   2  21
BRANCH   6  33
HETATM   33  C12 UNL     1      -3.284 -32.361 -10.644  1.00  0.00     0.168 C 
HETATM   34  C13 UNL     1      -3.924 -33.394 -11.610  1.00  0.00     0.046 C 
BRANCH  33  35
HETATM   35  O4  UNL     1      -1.882 -32.534 -10.902  1.00  0.00    -0.390 OA
ATOM     36  H4  UNL     1      -1.744 -33.051 -11.687  1.00  0.00     0.210 HD
ENDBRANCH  33  35
ENDBRANCH   6  33
BRANCH   5  37
HETATM   37  C9  UNL     1      -1.806 -34.387  -8.670  1.00  0.00     0.195 A 
HETATM   38  N10 UNL     1      -1.710 -35.469  -9.510  1.00  0.00    -0.220 N 
HETATM   39  O3  UNL     1      -0.497 -35.905  -9.568  1.00  0.00    -0.153 OA
ATOM     40  H10 UNL     1      -2.494 -35.875 -10.021  1.00  0.00     0.198 HD
HETATM   41  N11 UNL     1       0.229 -35.136  -8.782  1.00  0.00    -0.222 N 
HETATM   42  C10 UNL     1      -0.522 -34.198  -8.213  1.00  0.00     0.169 A 
ATOM     43  H11 UNL     1       1.232 -35.245  -8.631  1.00  0.00     0.198 HD
HETATM   44  N12 UNL     1      -0.176 -33.279  -7.388  1.00  0.00    -0.381 N 
ATOM     45 2H12 UNL     1      -0.753 -32.559  -6.951  1.00  0.00     0.157 HD
ATOM     46 1H12 UNL     1       0.775 -33.139  -7.049  1.00  0.00     0.157 HD
ENDBRANCH   5  37
TORSDOF 9
ENDMDL
MODEL 3
REMARK VINA RESULT: -8.217378929      3.146      5.641
REMARK  9 active torsions:
REMARK  status: ('A' for Active; 'I' for Inactive)
REMARK    1  A    between atoms: N1_2  and  N2_4 
REMARK       I    between atoms: N2_4  and  C2_6 
REMARK    2  A    between atoms: C2_6  and  C3_8 
REMARK    3  A    between atoms: N3_10  and  C5_11 
REMARK    4  A    between atoms: C6_12  and  C7_13 
REMARK    5  A    between atoms: C8_19  and  N6_20 
REMARK    6  A    between atoms: N6_20  and  N7_22 
REMARK    7  A    between atoms: N9_27  and  C9_28 
REMARK    8  A    between atoms: C11_38  and  C12_39 
REMARK    9  A    between atoms: C12_39  and  O4_41 
ROOT
HETATM    1  C5  UNL     1      -2.667 -33.767 -10.085  1.00  0.00     0.115 A 
HETATM    2  C6  UNL     1      -2.694 -33.953  -8.739  1.00  0.00     0.112 A 
HETATM    3  N8  UNL     1      -3.336 -32.880  -8.193  1.00  0.00    -0.287 N 
ATOM      4  H8  UNL     1      -3.508 -32.747  -7.196  1.00  0.00     0.188 HD
HETATM    5  N9  UNL     1      -3.711 -32.022  -9.162  1.00  0.00    -0.234 N 
HETATM    6  C11 UNL     1      -3.313 -32.534 -10.315  1.00  0.00     0.095 A 
ENDROOT
BRANCH   1   7
HETATM    7  N3  UNL     1      -2.114 -34.595 -11.126  1.00  0.00    -0.246 N 
HETATM    8  C4  UNL     1      -0.875 -34.524 -11.598  1.00  0.00     0.155 A 
HETATM    9  C3  UNL     1      -0.690 -35.471 -12.559  1.00  0.00     0.136 A 
HETATM   10  N14 UNL     1      -1.865 -36.118 -12.646  1.00  0.00    -0.279 N 
HETATM   11  N13 UNL     1      -2.702 -35.578 -11.781  1.00  0.00    -0.235 N 
ATOM     12  H14 UNL     1      -2.073 -36.894 -13.274  1.00  0.00     0.189 HD
ATOM     13  H13 UNL     1      -3.666 -35.879 -11.637  1.00  0.00     0.209 HD
BRANCH   9  14
HETATM   14  C2  UNL     1       0.548 -35.719 -13.367  1.00  0.00     0.289 C 
HETATM   15  N2  UNL     1       0.564 -36.915 -14.071  1.00  0.00    -0.269 N 
ATOM     16  H2  UNL     1      -0.250 -37.524 -13.984  1.00  0.00     0.190 HD
HETATM   17  O1  UNL     1       1.432 -34.815 -13.313  1.00  0.00    -0.264 OA
BRANCH  15  18
HETATM   18  N1  UNL     1       1.581 -37.338 -14.868  1.00  0.00    -0.338 N 
HETATM   19  C1  UNL     1       1.332 -37.287 -16.253  1.00  0.00     0.167 C 
ATOM     20  H1  UNL     1       2.466 -37.670 -14.487  1.00  0.00     0.179 HD
ENDBRANCH  15  18
ENDBRANCH   9  14
ENDBRANCH   1   7
BRANCH   2  21
HETATM   21  C7  UNL     1      -2.123 -35.031  -7.963  1.00  0.00     0.134 A 
HETATM   22  N4  UNL     1      -2.726 -36.103  -7.420  1.00  0.00    -0.236 N 
HETATM   23  O2  UNL     1      -1.853 -36.861  -6.822  1.00  0.00    -0.155 OA
ATOM     24  H4  UNL     1      -3.727 -36.295  -7.470  1.00  0.00     0.197 HD
HETATM   25  N5  UNL     1      -0.656 -36.323  -6.945  1.00  0.00    -0.222 N 
HETATM   26  C8  UNL     1      -0.791 -35.180  -7.650  1.00  0.00     0.173 A 
ATOM     27  H5  UNL     1       0.215 -36.703  -6.574  1.00  0.00     0.198 HD
BRANCH  26  28
HETATM   28  N6  UNL     1       0.109 -34.338  -8.007  1.00  0.00    -0.289 N 
ATOM     29  H6  UNL     1       0.699 -34.563  -8.807  1.00  0.00     0.188 HD
BRANCH  28  30
HETATM   30  N7  UNL     1       0.312 -33.134  -7.350  1.00  0.00    -0.344 N 
ATOM     31  H72 UNL     1       0.720 -33.169  -6.416  1.00  0.00     0.176 HD
ATOM     32  H71 UNL     1       0.070 -32.233  -7.762  1.00  0.00     0.176 HD
ENDBRANCH  28  30
ENDBRANCH  26  28
ENDBRANCH   2  21
BRANCH   6  33
HETATM   33  C12 UNL     1      -3.505 -32.031 -11.695  1.00  0.00     0.168 C 
HETATM   34  C13 UNL     1      -2.361 -31.018 -11.972  1.00  0.00     0.046 C 
BRANCH  33  35
HETATM   35  O4  UNL     1      -4.672 -31.198 -11.777  1.00  0.00    -0.390 OA
ATOM     36  H4  UNL     1      -5.453 -31.722 -11.908  1.00  0.00     0.210 HD
ENDBRANCH  33  35
ENDBRANCH   6  33
BRANCH   5  37
HETATM   37  C9  UNL     1      -4.491 -30.858  -8.896  1.00  0.00     0.195 A 
HETATM   38  N10 UNL     1      -4.058 -29.580  -9.146  1.00  0.00    -0.220 N 
HETATM   39  O3  UNL     1      -4.982 -28.717  -8.888  1.00  0.00    -0.153 OA
ATOM     40  H10 UNL     1      -3.127 -29.343  -9.491  1.00  0.00     0.198 HD
HETATM   41  N11 UNL     1      -6.034 -29.390  -8.468  1.00  0.00    -0.222 N 
HETATM   42  C10 UNL     1      -5.784 -30.696  -8.454  1.00  0.00     0.169 A 
ATOM     43  H11 UNL     1      -6.920 -28.967  -8.191  1.00  0.00     0.198 HD
HETATM   44  N12 UNL     1      -6.554 -31.661  -8.101  1.00  0.00    -0.381 N 
ATOM     45 2H12 UNL     1      -6.362 -32.663  -8.091  1.00  0.00     0.157 HD
ATOM     46 1H12 UNL     1      -7.512 -31.541  -7.774  1.00  0.00     0.157 HD
ENDBRANCH   5  37
TORSDOF 9
ENDMDL
MODEL 4
REMARK VINA RESULT: -8.200462485      2.265      5.295
REMARK  9 active torsions:
REMARK  status: ('A' for Active; 'I' for Inactive)
REMARK    1  A    between atoms: N1_2  and  N2_4 
REMARK       I    between atoms: N2_4  and  C2_6 
REMARK    2  A    between atoms: C2_6  and  C3_8 
REMARK    3  A    between atoms: N3_10  and  C5_11 
REMARK    4  A    between atoms: C6_12  and  C7_13 
REMARK    5  A    between atoms: C8_19  and  N6_20 
REMARK    6  A    between atoms: N6_20  and  N7_22 
REMARK    7  A    between atoms: N9_27  and  C9_28 
REMARK    8  A    between atoms: C11_38  and  C12_39 
REMARK    9  A    between atoms: C12_39  and  O4_41 
ROOT
HETATM    1  C5  UNL     1      -3.425 -32.964  -8.021  1.00  0.00     0.115 A 
HETATM    2  C6  UNL     1      -4.431 -33.135  -7.124  1.00  0.00     0.112 A 
HETATM    3  N8  UNL     1      -5.463 -32.331  -7.511  1.00  0.00    -0.287 N 
ATOM      4  H8  UNL     1      -6.357 -32.252  -7.026  1.00  0.00     0.188 HD
HETATM    5  N9  UNL     1      -5.129 -31.655  -8.628  1.00  0.00    -0.234 N 
HETATM    6  C11 UNL     1      -3.899 -32.017  -8.953  1.00  0.00     0.095 A 
ENDROOT
BRANCH   1   7
HETATM    7  N3  UNL     1      -2.120 -33.571  -8.081  1.00  0.00    -0.246 N 
HETATM    8  C4  UNL     1      -1.803 -34.664  -8.764  1.00  0.00     0.155 A 
HETATM    9  C3  UNL     1      -0.477 -34.937  -8.613  1.00  0.00     0.136 A 
HETATM   10  N14 UNL     1      -0.006 -33.963  -7.815  1.00  0.00    -0.279 N 
HETATM   11  N13 UNL     1      -1.005 -33.157  -7.510  1.00  0.00    -0.235 N 
ATOM     12  H14 UNL     1       0.959 -33.864  -7.501  1.00  0.00     0.189 HD
ATOM     13  H13 UNL     1      -0.926 -32.331  -6.916  1.00  0.00     0.209 HD
BRANCH   9  14
HETATM   14  C2  UNL     1       0.286 -36.091  -9.188  1.00  0.00     0.289 C 
HETATM   15  N2  UNL     1       0.984 -35.815 -10.357  1.00  0.00    -0.269 N 
ATOM     16  H2  UNL     1       0.922 -34.867 -10.729  1.00  0.00     0.190 HD
HETATM   17  O1  UNL     1       0.207 -37.179  -8.548  1.00  0.00    -0.264 OA
BRANCH  15  18
HETATM   18  N1  UNL     1       1.743 -36.710 -11.042  1.00  0.00    -0.338 N 
HETATM   19  C1  UNL     1       2.153 -36.303 -12.327  1.00  0.00     0.167 C 
ATOM     20  H1  UNL     1       1.998 -37.616 -10.652  1.00  0.00     0.179 HD
ENDBRANCH  15  18
ENDBRANCH   9  14
ENDBRANCH   1   7
BRANCH   2  21
HETATM   21  C7  UNL     1      -4.451 -33.955  -5.934  1.00  0.00     0.134 A 
HETATM   22  N4  UNL     1      -3.882 -35.153  -5.714  1.00  0.00    -0.236 N 
HETATM   23  O2  UNL     1      -4.108 -35.546  -4.493  1.00  0.00    -0.155 OA
ATOM     24  H4  UNL     1      -3.348 -35.679  -6.405  1.00  0.00     0.197 HD
HETATM   25  N5  UNL     1      -4.828 -34.635  -3.871  1.00  0.00    -0.222 N 
HETATM   26  C8  UNL     1      -5.060 -33.631  -4.742  1.00  0.00     0.173 A 
ATOM     27  H5  UNL     1      -5.151 -34.680  -2.905  1.00  0.00     0.198 HD
BRANCH  26  28
HETATM   28  N6  UNL     1      -5.714 -32.540  -4.566  1.00  0.00    -0.289 N 
ATOM     29  H6  UNL     1      -5.194 -31.688  -4.359  1.00  0.00     0.188 HD
BRANCH  28  30
HETATM   30  N7  UNL     1      -7.096 -32.473  -4.647  1.00  0.00    -0.344 N 
ATOM     31  H72 UNL     1      -7.627 -33.293  -4.351  1.00  0.00     0.176 HD
ATOM     32  H71 UNL     1      -7.590 -31.648  -4.986  1.00  0.00     0.176 HD
ENDBRANCH  28  30
ENDBRANCH  26  28
ENDBRANCH   2  21
BRANCH   6  33
HETATM   33  C12 UNL     1      -3.066 -31.620 -10.113  1.00  0.00     0.168 C 
HETATM   34  C13 UNL     1      -2.391 -30.271  -9.744  1.00  0.00     0.046 C 
BRANCH  33  35
HETATM   35  O4  UNL     1      -3.889 -31.250 -11.230  1.00  0.00    -0.390 OA
ATOM     36  H4  UNL     1      -3.415 -30.683 -11.826  1.00  0.00     0.210 HD
ENDBRANCH  33  35
ENDBRANCH   6  33
BRANCH   5  37
HETATM   37  C9  UNL     1      -6.050 -30.814  -9.319  1.00  0.00     0.195 A 
HETATM   38  N10 UNL     1      -7.045 -31.288 -10.138  1.00  0.00    -0.220 N 
HETATM   39  O3  UNL     1      -7.784 -30.325 -10.578  1.00  0.00    -0.153 OA
ATOM     40  H10 UNL     1      -7.183 -32.272 -10.369  1.00  0.00     0.198 HD
HETATM   41  N11 UNL     1      -7.305 -29.207 -10.069  1.00  0.00    -0.222 N 
HETATM   42  C10 UNL     1      -6.250 -29.453  -9.298  1.00  0.00     0.169 A 
ATOM     43  H11 UNL     1      -7.692 -28.280 -10.243  1.00  0.00     0.198 HD
HETATM   44  N12 UNL     1      -5.519 -28.624  -8.645  1.00  0.00    -0.381 N 
ATOM     45 2H12 UNL     1      -4.710 -28.813  -8.053  1.00  0.00     0.157 HD
ATOM     46 1H12 UNL     1      -5.668 -27.616  -8.628  1.00  0.00     0.157 HD
ENDBRANCH   5  37
TORSDOF 9
ENDMDL
MODEL 5
REMARK VINA RESULT: -8.197947520      0.740      1.472
REMARK  9 active torsions:
REMARK  status: ('A' for Active; 'I' for Inactive)
REMARK    1  A    between atoms: N1_2  and  N2_4 
REMARK       I    between atoms: N2_4  and  C2_6 
REMARK    2  A    between atoms: C2_6  and  C3_8 
REMARK    3  A    between atoms: N3_10  and  C5_11 
REMARK    4  A    between atoms: C6_12  and  C7_13 
REMARK    5  A    between atoms: C8_19  and  N6_20 
REMARK    6  A    between atoms: N6_20  and  N7_22 
REMARK    7  A    between atoms: N9_27  and  C9_28 
REMARK    8  A    between atoms: C11_38  and  C12_39 
REMARK    9  A    between atoms: C12_39  and  O4_41 
ROOT
HETATM    1  C5  UNL     1      -4.078 -33.177  -7.488  1.00  0.00     0.115 A 
HETATM    2  C6  UNL     1      -5.217 -32.450  -7.349  1.00  0.00     0.112 A 
HETATM    3  N8  UNL     1      -5.670 -32.641  -6.077  1.00  0.00    -0.287 N 
ATOM      4  H8  UNL     1      -6.511 -32.216  -5.685  1.00  0.00     0.188 HD
HETATM    5  N9  UNL     1      -4.845 -33.474  -5.412  1.00  0.00    -0.234 N 
HETATM    6  C11 UNL     1      -3.877 -33.816  -6.246  1.00  0.00     0.095 A 
ENDROOT
BRANCH   1   7
HETATM    7  N3  UNL     1      -3.204 -33.328  -8.623  1.00  0.00    -0.246 N 
HETATM    8  C4  UNL     1      -3.069 -34.425  -9.358  1.00  0.00     0.155 A 
HETATM    9  C3  UNL     1      -2.176 -34.204 -10.362  1.00  0.00     0.136 A 
HETATM   10  N14 UNL     1      -1.781 -32.929 -10.207  1.00  0.00    -0.279 N 
HETATM   11  N13 UNL     1      -2.408 -32.424  -9.161  1.00  0.00    -0.235 N 
ATOM     12  H14 UNL     1      -1.110 -32.435 -10.796  1.00  0.00     0.189 HD
ATOM     13  H13 UNL     1      -2.294 -31.470  -8.818  1.00  0.00     0.209 HD
BRANCH   9  14
HETATM   14  C2  UNL     1      -1.712 -35.180 -11.400  1.00  0.00     0.289 C 
HETATM   15  N2  UNL     1      -0.713 -34.714 -12.246  1.00  0.00    -0.269 N 
ATOM     16  H2  UNL     1      -0.382 -33.760 -12.101  1.00  0.00     0.190 HD
HETATM   17  O1  UNL     1      -2.281 -36.310 -11.388  1.00  0.00    -0.264 OA
BRANCH  15  18
HETATM   18  N1  UNL     1      -0.145 -35.430 -13.251  1.00  0.00    -0.338 N 
HETATM   19  C1  UNL     1       1.260 -35.520 -13.217  1.00  0.00     0.167 C 
ATOM     20  H1  UNL     1      -0.700 -35.874 -13.982  1.00  0.00     0.179 HD
ENDBRANCH  15  18
ENDBRANCH   9  14
ENDBRANCH   1   7
BRANCH   2  21
HETATM   21  C7  UNL     1      -5.904 -31.648  -8.337  1.00  0.00     0.134 A 
HETATM   22  N4  UNL     1      -5.921 -30.313  -8.489  1.00  0.00    -0.236 N 
HETATM   23  O2  UNL     1      -6.637 -29.982  -9.525  1.00  0.00    -0.155 OA
ATOM     24  H4  UNL     1      -5.440 -29.651  -7.879  1.00  0.00     0.197 HD
HETATM   25  N5  UNL     1      -7.115 -31.073 -10.087  1.00  0.00    -0.222 N 
HETATM   26  C8  UNL     1      -6.678 -32.129  -9.369  1.00  0.00     0.173 A 
ATOM     27  H5  UNL     1      -7.709 -31.113 -10.915  1.00  0.00     0.198 HD
BRANCH  26  28
HETATM   28  N6  UNL     1      -6.896 -33.380  -9.554  1.00  0.00    -0.289 N 
ATOM     29  H6  UNL     1      -6.211 -33.922 -10.080  1.00  0.00     0.188 HD
BRANCH  28  30
HETATM   30  N7  UNL     1      -8.022 -34.025  -9.067  1.00  0.00    -0.344 N 
ATOM     31  H72 UNL     1      -8.760 -33.448  -8.663  1.00  0.00     0.176 HD
ATOM     32  H71 UNL     1      -8.135 -35.039  -9.098  1.00  0.00     0.176 HD
ENDBRANCH  28  30
ENDBRANCH  26  28
ENDBRANCH   2  21
BRANCH   6  33
HETATM   33  C12 UNL     1      -2.686 -34.668  -6.022  1.00  0.00     0.168 C 
HETATM   34  C13 UNL     1      -3.132 -36.139  -6.249  1.00  0.00     0.046 C 
BRANCH  33  35
HETATM   35  O4  UNL     1      -2.317 -34.675  -4.634  1.00  0.00    -0.390 OA
ATOM     36  H4  UNL     1      -1.635 -35.316  -4.469  1.00  0.00     0.210 HD
ENDBRANCH  33  35
ENDBRANCH   6  33
BRANCH   5  37
HETATM   37  C9  UNL     1      -5.013 -33.776  -4.028  1.00  0.00     0.195 A 
HETATM   38  N10 UNL     1      -5.280 -35.036  -3.553  1.00  0.00    -0.220 N 
HETATM   39  O3  UNL     1      -5.308 -35.050  -2.263  1.00  0.00    -0.153 OA
ATOM     40  H10 UNL     1      -5.436 -35.854  -4.143  1.00  0.00     0.198 HD
HETATM   41  N11 UNL     1      -5.064 -33.821  -1.857  1.00  0.00    -0.222 N 
HETATM   42  C10 UNL     1      -4.878 -33.009  -2.894  1.00  0.00     0.169 A 
ATOM     43  H11 UNL     1      -5.022 -33.531  -0.880  1.00  0.00     0.198 HD
HETATM   44  N12 UNL     1      -4.629 -31.750  -2.898  1.00  0.00    -0.381 N 
ATOM     45 2H12 UNL     1      -4.486 -31.128  -3.694  1.00  0.00     0.157 HD
ATOM     46 1H12 UNL     1      -4.529 -31.182  -2.057  1.00  0.00     0.157 HD
ENDBRANCH   5  37
TORSDOF 9
ENDMDL
