MODEL 1
REMARK VINA RESULT: -8.326610667      0.000      0.000
REMARK  12 active torsions:
REMARK  status: ('A' for Active; 'I' for Inactive)
REMARK    1  A    between atoms: C2_7  and  C3_8 
REMARK    2  A    between atoms: C4_11  and  C5_12 
REMARK       I    between atoms: C5_12  and  N5_14 
REMARK    3  A    between atoms: N5_14  and  C6_16 
REMARK    4  A    between atoms: C6_16  and  N6_17 
REMARK    5  A    between atoms: C6_16  and  C7_21 
REMARK       I    between atoms: C7_21  and  N7_23 
REMARK    6  A    between atoms: N7_23  and  N8_25 
REMARK    7  A    between atoms: N8_25  and  C8_26 
REMARK    8  A    between atoms: C8_26  and  N9_27 
REMARK    9  A    between atoms: C8_26  and  C9_31 
REMARK   10  A    between atoms: C10_33  and  O4_34 
REMARK   11  A    between atoms: C11_36  and  O5_37 
REMARK   12  A    between atoms: C12_39  and  O6_40 
ROOT
HETATM    1  C6  UNL     1       0.040 -35.412  -8.269  1.00  0.00     0.378 C 
ENDROOT
BRANCH   1   2
HETATM    2  N5  UNL     1       0.082 -35.251  -9.703  1.00  0.00    -0.319 N 
HETATM    3  C5  UNL     1       0.961 -35.987 -10.500  1.00  0.00     0.289 C 
HETATM    4  O1  UNL     1       1.740 -36.819  -9.939  1.00  0.00    -0.264 OA
ATOM      5  H5  UNL     1      -0.547 -34.582 -10.145  1.00  0.00     0.165 HD
BRANCH   3   6
HETATM    6  C4  UNL     1       1.007 -35.818 -11.964  1.00  0.00     0.197 A 
HETATM    7  N4  UNL     1       0.470 -36.644 -12.889  1.00  0.00    -0.312 N 
HETATM    8  C3  UNL     1       0.724 -36.151 -14.133  1.00  0.00     0.219 A 
ATOM      9  H4  UNL     1      -0.045 -37.501 -12.687  1.00  0.00     0.170 HD
HETATM   10  O7  UNL     1       1.409 -35.036 -13.921  1.00  0.00    -0.214 OA
HETATM   11  N10 UNL     1       1.579 -34.832 -12.660  1.00  0.00    -0.238 N 
ATOM     12  H10 UNL     1       2.075 -34.038 -12.255  1.00  0.00     0.197 HD
BRANCH   8  13
HETATM   13  C2  UNL     1       0.334 -36.721 -15.414  1.00  0.00     0.191 A 
HETATM   14  N3  UNL     1       1.055 -36.685 -16.546  1.00  0.00    -0.265 N 
HETATM   15  N2  UNL     1       0.353 -37.327 -17.489  1.00  0.00    -0.225 N 
ATOM     16  H3  UNL     1       1.969 -36.249 -16.666  1.00  0.00     0.190 HD
HETATM   17  N1  UNL     1      -0.776 -37.759 -16.984  1.00  0.00    -0.223 N 
ATOM     18  H2  UNL     1       0.652 -37.459 -18.455  1.00  0.00     0.210 HD
HETATM   19  C1  UNL     1      -1.856 -38.503 -17.607  1.00  0.00     0.202 C 
HETATM   20  N11 UNL     1      -0.790 -37.388 -15.714  1.00  0.00    -0.263 N 
ATOM     21  H11 UNL     1      -1.545 -37.583 -15.057  1.00  0.00     0.190 HD
ENDBRANCH   8  13
ENDBRANCH   3   6
ENDBRANCH   1   2
BRANCH   1  22
HETATM   22  N6  UNL     1      -0.383 -36.759  -7.979  1.00  0.00    -0.049 N 
ATOM     23  H63 UNL     1      -0.009 -37.440  -8.640  1.00  0.00     0.277 HD
ATOM     24  H62 UNL     1       0.050 -37.134  -7.135  1.00  0.00     0.277 HD
ATOM     25  H61 UNL     1      -1.402 -36.772  -7.936  1.00  0.00     0.277 HD
ENDBRANCH   1  22
BRANCH   1  26
HETATM   26  C7  UNL     1      -0.885 -34.414  -7.642  1.00  0.00     0.283 C 
HETATM   27  O2  UNL     1      -0.961 -34.310  -6.393  1.00  0.00    -0.268 OA
HETATM   28  N7  UNL     1      -1.671 -33.593  -8.480  1.00  0.00    -0.268 N 
ATOM     29  H7  UNL     1      -1.577 -33.701  -9.490  1.00  0.00     0.185 HD
BRANCH  28  30
HETATM   30  N8  UNL     1      -2.564 -32.647  -7.998  1.00  0.00    -0.098 NA
BRANCH  30  31
HETATM   31  C8  UNL     1      -3.967 -33.047  -8.248  1.00  0.00     0.355 C 
BRANCH  31  32
HETATM   32  N9  UNL     1      -3.956 -34.436  -8.660  1.00  0.00    -0.053 N 
ATOM     33  H93 UNL     1      -3.910 -34.550  -9.673  1.00  0.00     0.276 HD
ATOM     34  H92 UNL     1      -3.082 -34.911  -8.434  1.00  0.00     0.276 HD
ATOM     35  H91 UNL     1      -4.772 -34.885  -8.245  1.00  0.00     0.276 HD
ENDBRANCH  31  32
BRANCH  31  36
HETATM   36  C9  UNL     1      -4.786 -32.812  -7.045  1.00  0.00     0.139 A 
HETATM   37  O3  UNL     1      -5.839 -31.979  -7.019  1.00  0.00    -0.284 OA
HETATM   38  C10 UNL     1      -6.372 -31.961  -5.837  1.00  0.00     0.220 A 
HETATM   39  C11 UNL     1      -5.673 -32.806  -5.012  1.00  0.00     0.160 A 
HETATM   40  C12 UNL     1      -4.649 -33.352  -5.804  1.00  0.00     0.137 A 
BRANCH  38  41
HETATM   41  O4  UNL     1      -7.489 -31.191  -5.475  1.00  0.00    -0.339 OA
ATOM     42  H4  UNL     1      -7.547 -30.247  -5.566  1.00  0.00     0.220 HD
ENDBRANCH  38  41
BRANCH  39  43
HETATM   43  O5  UNL     1      -5.908 -33.076  -3.680  1.00  0.00    -0.354 OA
ATOM     44  H5  UNL     1      -5.989 -33.925  -3.263  1.00  0.00     0.218 HD
ENDBRANCH  39  43
BRANCH  40  45
HETATM   45  O6  UNL     1      -3.757 -34.247  -5.290  1.00  0.00    -0.356 OA
ATOM     46  H6  UNL     1      -3.466 -34.416  -4.402  1.00  0.00     0.218 HD
ENDBRANCH  40  45
ENDBRANCH  31  36
ENDBRANCH  30  31
ENDBRANCH  28  30
ENDBRANCH   1  26
TORSDOF 12
ENDMDL
MODEL 2
REMARK VINA RESULT: -8.300486415      2.808      3.772
REMARK  12 active torsions:
REMARK  status: ('A' for Active; 'I' for Inactive)
REMARK    1  A    between atoms: C2_7  and  C3_8 
REMARK    2  A    between atoms: C4_11  and  C5_12 
REMARK       I    between atoms: C5_12  and  N5_14 
REMARK    3  A    between atoms: N5_14  and  C6_16 
REMARK    4  A    between atoms: C6_16  and  N6_17 
REMARK    5  A    between atoms: C6_16  and  C7_21 
REMARK       I    between atoms: C7_21  and  N7_23 
REMARK    6  A    between atoms: N7_23  and  N8_25 
REMARK    7  A    between atoms: N8_25  and  C8_26 
REMARK    8  A    between atoms: C8_26  and  N9_27 
REMARK    9  A    between atoms: C8_26  and  C9_31 
REMARK   10  A    between atoms: C10_33  and  O4_34 
REMARK   11  A    between atoms: C11_36  and  O5_37 
REMARK   12  A    between atoms: C12_39  and  O6_40 
ROOT
HETATM    1  C6  UNL     1      -1.996 -35.051  -7.008  1.00  0.00     0.378 C 
ENDROOT
BRANCH   1   2
HETATM    2  N5  UNL     1      -1.882 -35.111  -8.445  1.00  0.00    -0.319 N 
HETATM    3  C5  UNL     1      -0.648 -35.008  -9.090  1.00  0.00     0.289 C 
HETATM    4  O1  UNL     1       0.397 -34.859  -8.384  1.00  0.00    -0.264 OA
ATOM      5  H5  UNL     1      -2.726 -35.231  -9.005  1.00  0.00     0.165 HD
BRANCH   3   6
HETATM    6  C4  UNL     1      -0.534 -35.064 -10.560  1.00  0.00     0.197 A 
HETATM    7  N4  UNL     1       0.192 -35.948 -11.279  1.00  0.00    -0.312 N 
HETATM    8  C3  UNL     1       0.046 -35.674 -12.605  1.00  0.00     0.219 A 
ATOM      9  H4  UNL     1       0.760 -36.700 -10.890  1.00  0.00     0.170 HD
HETATM   10  O7  UNL     1      -0.769 -34.630 -12.647  1.00  0.00    -0.214 OA
HETATM   11  N10 UNL     1      -1.113 -34.266 -11.460  1.00  0.00    -0.238 N 
ATOM     12  H10 UNL     1      -1.734 -33.487 -11.241  1.00  0.00     0.197 HD
BRANCH   8  13
HETATM   13  C2  UNL     1       0.652 -36.372 -13.731  1.00  0.00     0.191 A 
HETATM   14  N3  UNL     1       1.619 -37.298 -13.655  1.00  0.00    -0.265 N 
HETATM   15  N2  UNL     1       1.889 -37.699 -14.904  1.00  0.00    -0.225 N 
ATOM     16  H3  UNL     1       2.068 -37.635 -12.803  1.00  0.00     0.190 HD
HETATM   17  N1  UNL     1       1.124 -37.055 -15.751  1.00  0.00    -0.223 N 
ATOM     18  H2  UNL     1       2.585 -38.400 -15.158  1.00  0.00     0.210 HD
HETATM   19  C1  UNL     1       1.047 -37.145 -17.198  1.00  0.00     0.202 C 
HETATM   20  N11 UNL     1       0.366 -36.241 -15.034  1.00  0.00    -0.263 N 
ATOM     21  H11 UNL     1      -0.334 -35.607 -15.417  1.00  0.00     0.190 HD
ENDBRANCH   8  13
ENDBRANCH   3   6
ENDBRANCH   1   2
BRANCH   1  22
HETATM   22  N6  UNL     1      -1.574 -36.320  -6.469  1.00  0.00    -0.049 N 
ATOM     23  H63 UNL     1      -1.547 -37.057  -7.173  1.00  0.00     0.277 HD
ATOM     24  H62 UNL     1      -0.585 -36.332  -6.219  1.00  0.00     0.277 HD
ATOM     25  H61 UNL     1      -2.180 -36.550  -5.681  1.00  0.00     0.277 HD
ENDBRANCH   1  22
BRANCH   1  26
HETATM   26  C7  UNL     1      -3.399 -34.733  -6.591  1.00  0.00     0.283 C 
HETATM   27  O2  UNL     1      -4.203 -34.209  -7.399  1.00  0.00    -0.268 OA
HETATM   28  N7  UNL     1      -3.801 -35.031  -5.270  1.00  0.00    -0.268 N 
ATOM     29  H7  UNL     1      -3.122 -35.463  -4.643  1.00  0.00     0.185 HD
BRANCH  28  30
HETATM   30  N8  UNL     1      -5.073 -34.765  -4.783  1.00  0.00    -0.098 NA
BRANCH  30  31
HETATM   31  C8  UNL     1      -5.096 -33.530  -3.967  1.00  0.00     0.355 C 
BRANCH  31  32
HETATM   32  N9  UNL     1      -6.071 -32.636  -4.559  1.00  0.00    -0.053 N 
ATOM     33  H93 UNL     1      -5.681 -31.726  -4.801  1.00  0.00     0.276 HD
ATOM     34  H92 UNL     1      -6.349 -32.917  -5.499  1.00  0.00     0.276 HD
ATOM     35  H91 UNL     1      -6.858 -32.574  -3.914  1.00  0.00     0.276 HD
ENDBRANCH  31  32
BRANCH  31  36
HETATM   36  C9  UNL     1      -5.394 -33.855  -2.560  1.00  0.00     0.139 A 
HETATM   37  O3  UNL     1      -5.877 -35.043  -2.162  1.00  0.00    -0.284 OA
HETATM   38  C10 UNL     1      -6.049 -35.054  -0.877  1.00  0.00     0.220 A 
HETATM   39  C11 UNL     1      -5.674 -33.839  -0.360  1.00  0.00     0.160 A 
HETATM   40  C12 UNL     1      -5.252 -33.071  -1.458  1.00  0.00     0.137 A 
BRANCH  38  41
HETATM   41  O4  UNL     1      -6.541 -36.146  -0.146  1.00  0.00    -0.339 OA
ATOM     42  H4  UNL     1      -6.865 -36.098   0.746  1.00  0.00     0.220 HD
ENDBRANCH  38  41
BRANCH  39  43
HETATM   43  O5  UNL     1      -5.701 -33.435   0.958  1.00  0.00    -0.354 OA
ATOM     44  H5  UNL     1      -4.969 -33.352   1.558  1.00  0.00     0.218 HD
ENDBRANCH  39  43
BRANCH  40  45
HETATM   45  O6  UNL     1      -4.806 -31.791  -1.298  1.00  0.00    -0.356 OA
ATOM     46  H6  UNL     1      -3.933 -31.417  -1.305  1.00  0.00     0.218 HD
ENDBRANCH  40  45
ENDBRANCH  31  36
ENDBRANCH  30  31
ENDBRANCH  28  30
ENDBRANCH   1  26
TORSDOF 12
ENDMDL
MODEL 3
REMARK VINA RESULT: -8.298397839      5.179     10.428
REMARK  12 active torsions:
REMARK  status: ('A' for Active; 'I' for Inactive)
REMARK    1  A    between atoms: C2_7  and  C3_8 
REMARK    2  A    between atoms: C4_11  and  C5_12 
REMARK       I    between atoms: C5_12  and  N5_14 
REMARK    3  A    between atoms: N5_14  and  C6_16 
REMARK    4  A    between atoms: C6_16  and  N6_17 
REMARK    5  A    between atoms: C6_16  and  C7_21 
REMARK       I    between atoms: C7_21  and  N7_23 
REMARK    6  A    between atoms: N7_23  and  N8_25 
REMARK    7  A    between atoms: N8_25  and  C8_26 
REMARK    8  A    between atoms: C8_26  and  N9_27 
REMARK    9  A    between atoms: C8_26  and  C9_31 
REMARK   10  A    between atoms: C10_33  and  O4_34 
REMARK   11  A    between atoms: C11_36  and  O5_37 
REMARK   12  A    between atoms: C12_39  and  O6_40 
ROOT
HETATM    1  C6  UNL     1      -2.518 -35.521  -6.994  1.00  0.00     0.378 C 
ENDROOT
BRANCH   1   2
HETATM    2  N5  UNL     1      -3.163 -35.115  -5.770  1.00  0.00    -0.319 N 
HETATM    3  C5  UNL     1      -4.372 -34.416  -5.773  1.00  0.00     0.289 C 
HETATM    4  O1  UNL     1      -4.911 -34.137  -6.889  1.00  0.00    -0.264 OA
ATOM      5  H5  UNL     1      -2.725 -35.343  -4.878  1.00  0.00     0.165 HD
BRANCH   3   6
HETATM    6  C4  UNL     1      -5.029 -33.996  -4.520  1.00  0.00     0.197 A 
HETATM    7  N4  UNL     1      -4.530 -34.112  -3.270  1.00  0.00    -0.312 N 
HETATM    8  C3  UNL     1      -5.434 -33.615  -2.379  1.00  0.00     0.219 A 
ATOM      9  H4  UNL     1      -3.622 -34.508  -3.031  1.00  0.00     0.170 HD
HETATM   10  O7  UNL     1      -6.454 -33.211  -3.122  1.00  0.00    -0.214 OA
HETATM   11  N10 UNL     1      -6.229 -33.428  -4.372  1.00  0.00    -0.238 N 
ATOM     12  H10 UNL     1      -6.869 -33.201  -5.133  1.00  0.00     0.197 HD
BRANCH   8  13
HETATM   13  C2  UNL     1      -5.309 -33.544  -0.930  1.00  0.00     0.191 A 
HETATM   14  N3  UNL     1      -5.774 -32.558  -0.147  1.00  0.00    -0.265 N 
HETATM   15  N2  UNL     1      -5.466 -32.873   1.118  1.00  0.00    -0.225 N 
ATOM     16  H3  UNL     1      -6.270 -31.723  -0.458  1.00  0.00     0.190 HD
HETATM   17  N1  UNL     1      -4.827 -34.016   1.147  1.00  0.00    -0.223 N 
ATOM     18  H2  UNL     1      -5.694 -32.307   1.936  1.00  0.00     0.210 HD
HETATM   19  C1  UNL     1      -4.296 -34.763   2.273  1.00  0.00     0.202 C 
HETATM   20  N11 UNL     1      -4.730 -34.428  -0.106  1.00  0.00    -0.263 N 
ATOM     21  H11 UNL     1      -4.280 -35.294  -0.403  1.00  0.00     0.190 HD
ENDBRANCH   8  13
ENDBRANCH   3   6
ENDBRANCH   1   2
BRANCH   1  22
HETATM   22  N6  UNL     1      -1.613 -36.601  -6.690  1.00  0.00    -0.049 N 
ATOM     23  H63 UNL     1      -0.634 -36.342  -6.817  1.00  0.00     0.277 HD
ATOM     24  H62 UNL     1      -1.572 -36.811  -5.692  1.00  0.00     0.277 HD
ATOM     25  H61 UNL     1      -1.881 -37.410  -7.250  1.00  0.00     0.277 HD
ENDBRANCH   1  22
BRANCH   1  26
HETATM   26  C7  UNL     1      -1.789 -34.375  -7.626  1.00  0.00     0.283 C 
HETATM   27  O2  UNL     1      -0.661 -34.022  -7.202  1.00  0.00    -0.268 OA
HETATM   28  N7  UNL     1      -2.395 -33.695  -8.706  1.00  0.00    -0.268 N 
ATOM     29  H7  UNL     1      -3.308 -34.014  -9.027  1.00  0.00     0.185 HD
BRANCH  28  30
HETATM   30  N8  UNL     1      -1.808 -32.616  -9.351  1.00  0.00    -0.098 NA
BRANCH  30  31
HETATM   31  C8  UNL     1      -2.602 -31.380  -9.174  1.00  0.00     0.355 C 
BRANCH  31  32
HETATM   32  N9  UNL     1      -3.690 -31.688  -8.268  1.00  0.00    -0.053 N 
ATOM     33  H93 UNL     1      -3.373 -32.104  -7.392  1.00  0.00     0.276 HD
ATOM     34  H92 UNL     1      -4.124 -30.856  -7.870  1.00  0.00     0.276 HD
ATOM     35  H91 UNL     1      -4.351 -32.278  -8.773  1.00  0.00     0.276 HD
ENDBRANCH  31  32
BRANCH  31  36
HETATM   36  C9  UNL     1      -1.741 -30.286  -8.686  1.00  0.00     0.139 A 
HETATM   37  O3  UNL     1      -2.025 -28.986  -8.865  1.00  0.00    -0.284 OA
HETATM   38  C10 UNL     1      -1.099 -28.245  -8.340  1.00  0.00     0.220 A 
HETATM   39  C11 UNL     1      -0.142 -29.049  -7.776  1.00  0.00     0.160 A 
HETATM   40  C12 UNL     1      -0.566 -30.368  -8.005  1.00  0.00     0.137 A 
BRANCH  38  41
HETATM   41  O4  UNL     1      -1.095 -26.841  -8.355  1.00  0.00    -0.339 OA
ATOM     42  H4  UNL     1      -1.677 -26.293  -7.843  1.00  0.00     0.220 HD
ENDBRANCH  38  41
BRANCH  39  43
HETATM   43  O5  UNL     1       1.008 -28.663  -7.119  1.00  0.00    -0.354 OA
ATOM     44  H5  UNL     1       1.085 -28.092  -6.364  1.00  0.00     0.218 HD
ENDBRANCH  39  43
BRANCH  40  45
HETATM   45  O6  UNL     1       0.164 -31.434  -7.568  1.00  0.00    -0.356 OA
ATOM     46  H6  UNL     1       0.701 -32.069  -8.027  1.00  0.00     0.218 HD
ENDBRANCH  40  45
ENDBRANCH  31  36
ENDBRANCH  30  31
ENDBRANCH  28  30
ENDBRANCH   1  26
TORSDOF 12
ENDMDL
MODEL 4
REMARK VINA RESULT: -8.294588799      1.459      1.992
REMARK  12 active torsions:
REMARK  status: ('A' for Active; 'I' for Inactive)
REMARK    1  A    between atoms: C2_7  and  C3_8 
REMARK    2  A    between atoms: C4_11  and  C5_12 
REMARK       I    between atoms: C5_12  and  N5_14 
REMARK    3  A    between atoms: N5_14  and  C6_16 
REMARK    4  A    between atoms: C6_16  and  N6_17 
REMARK    5  A    between atoms: C6_16  and  C7_21 
REMARK       I    between atoms: C7_21  and  N7_23 
REMARK    6  A    between atoms: N7_23  and  N8_25 
REMARK    7  A    between atoms: N8_25  and  C8_26 
REMARK    8  A    between atoms: C8_26  and  N9_27 
REMARK    9  A    between atoms: C8_26  and  C9_31 
REMARK   10  A    between atoms: C10_33  and  O4_34 
REMARK   11  A    between atoms: C11_36  and  O5_37 
REMARK   12  A    between atoms: C12_39  and  O6_40 
ROOT
HETATM    1  C6  UNL     1      -0.967 -35.599  -8.610  1.00  0.00     0.378 C 
ENDROOT
BRANCH   1   2
HETATM    2  N5  UNL     1      -0.724 -35.641 -10.032  1.00  0.00    -0.319 N 
HETATM    3  C5  UNL     1       0.563 -35.531 -10.562  1.00  0.00     0.289 C 
HETATM    4  O1  UNL     1       1.540 -35.393  -9.762  1.00  0.00    -0.264 OA
ATOM      5  H5  UNL     1      -1.514 -35.753 -10.667  1.00  0.00     0.165 HD
BRANCH   3   6
HETATM    6  C4  UNL     1       0.809 -35.569 -12.016  1.00  0.00     0.197 A 
HETATM    7  N4  UNL     1       0.173 -36.344 -12.922  1.00  0.00    -0.312 N 
HETATM    8  C3  UNL     1       0.683 -36.096 -14.161  1.00  0.00     0.219 A 
ATOM      9  H4  UNL     1      -0.570 -37.010 -12.711  1.00  0.00     0.170 HD
HETATM   10  O7  UNL     1       1.613 -35.173 -13.965  1.00  0.00    -0.214 OA
HETATM   11  N10 UNL     1       1.695 -34.859 -12.718  1.00  0.00    -0.238 N 
ATOM     12  H10 UNL     1       2.339 -34.171 -12.326  1.00  0.00     0.197 HD
BRANCH   8  13
HETATM   13  C2  UNL     1       0.294 -36.709 -15.423  1.00  0.00     0.191 A 
HETATM   14  N3  UNL     1       1.019 -36.717 -16.551  1.00  0.00    -0.265 N 
HETATM   15  N2  UNL     1       0.318 -37.387 -17.474  1.00  0.00    -0.225 N 
ATOM     16  H3  UNL     1       1.937 -36.291 -16.683  1.00  0.00     0.190 HD
HETATM   17  N1  UNL     1      -0.816 -37.794 -16.959  1.00  0.00    -0.223 N 
ATOM     18  H2  UNL     1       0.620 -37.555 -18.434  1.00  0.00     0.210 HD
HETATM   19  C1  UNL     1      -1.898 -38.554 -17.560  1.00  0.00     0.202 C 
HETATM   20  N11 UNL     1      -0.832 -37.379 -15.703  1.00  0.00    -0.263 N 
ATOM     21  H11 UNL     1      -1.592 -37.546 -15.043  1.00  0.00     0.190 HD
ENDBRANCH   8  13
ENDBRANCH   3   6
ENDBRANCH   1   2
BRANCH   1  22
HETATM   22  N6  UNL     1      -0.279 -36.710  -8.002  1.00  0.00    -0.049 N 
ATOM     23  H63 UNL     1      -0.708 -37.608  -8.225  1.00  0.00     0.277 HD
ATOM     24  H62 UNL     1       0.634 -36.885  -8.422  1.00  0.00     0.277 HD
ATOM     25  H61 UNL     1      -0.223 -36.540  -6.998  1.00  0.00     0.277 HD
ENDBRANCH   1  22
BRANCH   1  26
HETATM   26  C7  UNL     1      -2.434 -35.650  -8.312  1.00  0.00     0.283 C 
HETATM   27  O2  UNL     1      -3.276 -35.658  -9.243  1.00  0.00    -0.268 OA
HETATM   28  N7  UNL     1      -2.854 -35.688  -6.964  1.00  0.00    -0.268 N 
ATOM     29  H7  UNL     1      -2.141 -35.688  -6.235  1.00  0.00     0.185 HD
BRANCH  28  30
HETATM   30  N8  UNL     1      -4.188 -35.726  -6.583  1.00  0.00    -0.098 NA
BRANCH  30  31
HETATM   31  C8  UNL     1      -4.447 -34.843  -5.424  1.00  0.00     0.355 C 
BRANCH  31  32
HETATM   32  N9  UNL     1      -3.167 -34.528  -4.823  1.00  0.00    -0.053 N 
ATOM     33  H93 UNL     1      -3.011 -35.015  -3.940  1.00  0.00     0.276 HD
ATOM     34  H92 UNL     1      -2.379 -34.925  -5.334  1.00  0.00     0.276 HD
ATOM     35  H91 UNL     1      -3.113 -33.514  -4.733  1.00  0.00     0.276 HD
ENDBRANCH  31  32
BRANCH  31  36
HETATM   36  C9  UNL     1      -5.191 -33.644  -5.853  1.00  0.00     0.139 A 
HETATM   37  O3  UNL     1      -6.188 -33.098  -5.138  1.00  0.00    -0.284 OA
HETATM   38  C10 UNL     1      -6.666 -32.059  -5.749  1.00  0.00     0.220 A 
HETATM   39  C11 UNL     1      -5.983 -31.871  -6.924  1.00  0.00     0.160 A 
HETATM   40  C12 UNL     1      -5.030 -32.902  -6.982  1.00  0.00     0.137 A 
BRANCH  38  41
HETATM   41  O4  UNL     1      -7.716 -31.262  -5.269  1.00  0.00    -0.339 OA
ATOM     42  H4  UNL     1      -7.605 -30.486  -4.732  1.00  0.00     0.220 HD
ENDBRANCH  38  41
BRANCH  39  43
HETATM   43  O5  UNL     1      -6.176 -30.884  -7.868  1.00  0.00    -0.354 OA
ATOM     44  H5  UNL     1      -5.652 -30.705  -8.640  1.00  0.00     0.218 HD
ENDBRANCH  39  43
BRANCH  40  45
HETATM   45  O6  UNL     1      -4.169 -33.014  -8.034  1.00  0.00    -0.356 OA
ATOM     46  H6  UNL     1      -3.784 -32.367  -8.612  1.00  0.00     0.218 HD
ENDBRANCH  40  45
ENDBRANCH  31  36
ENDBRANCH  30  31
ENDBRANCH  28  30
ENDBRANCH   1  26
TORSDOF 12
ENDMDL
MODEL 5
REMARK VINA RESULT: -8.216587915      3.864     11.327
REMARK  12 active torsions:
REMARK  status: ('A' for Active; 'I' for Inactive)
REMARK    1  A    between atoms: C2_7  and  C3_8 
REMARK    2  A    between atoms: C4_11  and  C5_12 
REMARK       I    between atoms: C5_12  and  N5_14 
REMARK    3  A    between atoms: N5_14  and  C6_16 
REMARK    4  A    between atoms: C6_16  and  N6_17 
REMARK    5  A    between atoms: C6_16  and  C7_21 
REMARK       I    between atoms: C7_21  and  N7_23 
REMARK    6  A    between atoms: N7_23  and  N8_25 
REMARK    7  A    between atoms: N8_25  and  C8_26 
REMARK    8  A    between atoms: C8_26  and  N9_27 
REMARK    9  A    between atoms: C8_26  and  C9_31 
REMARK   10  A    between atoms: C10_33  and  O4_34 
REMARK   11  A    between atoms: C11_36  and  O5_37 
REMARK   12  A    between atoms: C12_39  and  O6_40 
ROOT
HETATM    1  C6  UNL     1      -1.746 -35.374  -8.435  1.00  0.00     0.378 C 
ENDROOT
BRANCH   1   2
HETATM    2  N5  UNL     1      -2.866 -35.179  -7.547  1.00  0.00    -0.319 N 
HETATM    3  C5  UNL     1      -2.689 -34.880  -6.195  1.00  0.00     0.289 C 
HETATM    4  O1  UNL     1      -1.506 -34.777  -5.744  1.00  0.00    -0.264 OA
ATOM      5  H5  UNL     1      -3.813 -35.262  -7.917  1.00  0.00     0.165 HD
BRANCH   3   6
HETATM    6  C4  UNL     1      -3.835 -34.686  -5.287  1.00  0.00     0.197 A 
HETATM    7  N4  UNL     1      -3.783 -34.295  -3.994  1.00  0.00    -0.312 N 
HETATM    8  C3  UNL     1      -5.048 -34.235  -3.492  1.00  0.00     0.219 A 
ATOM      9  H4  UNL     1      -2.931 -34.080  -3.476  1.00  0.00     0.170 HD
HETATM   10  O7  UNL     1      -5.830 -34.590  -4.501  1.00  0.00    -0.214 OA
HETATM   11  N10 UNL     1      -5.133 -34.855  -5.553  1.00  0.00    -0.238 N 
ATOM     12  H10 UNL     1      -5.515 -35.150  -6.452  1.00  0.00     0.197 HD
BRANCH   8  13
HETATM   13  C2  UNL     1      -5.454 -33.863  -2.144  1.00  0.00     0.191 A 
HETATM   14  N3  UNL     1      -6.159 -34.627  -1.295  1.00  0.00    -0.265 N 
HETATM   15  N2  UNL     1      -6.314 -33.928  -0.163  1.00  0.00    -0.225 N 
ATOM     16  H3  UNL     1      -6.511 -35.566  -1.478  1.00  0.00     0.190 HD
HETATM   17  N1  UNL     1      -5.732 -32.760  -0.280  1.00  0.00    -0.223 N 
ATOM     18  H2  UNL     1      -6.811 -34.256   0.665  1.00  0.00     0.210 HD
HETATM   19  C1  UNL     1      -5.629 -31.667   0.671  1.00  0.00     0.202 C 
HETATM   20  N11 UNL     1      -5.206 -32.719  -1.493  1.00  0.00    -0.263 N 
ATOM     21  H11 UNL     1      -4.685 -31.930  -1.876  1.00  0.00     0.190 HD
ENDBRANCH   8  13
ENDBRANCH   3   6
ENDBRANCH   1   2
BRANCH   1  22
HETATM   22  N6  UNL     1      -0.962 -34.164  -8.445  1.00  0.00    -0.049 N 
ATOM     23  H63 UNL     1      -1.417 -33.405  -8.953  1.00  0.00     0.277 HD
ATOM     24  H62 UNL     1      -0.922 -33.714  -7.531  1.00  0.00     0.277 HD
ATOM     25  H61 UNL     1      -0.038 -34.386  -8.815  1.00  0.00     0.277 HD
ENDBRANCH   1  22
BRANCH   1  26
HETATM   26  C7  UNL     1      -2.208 -35.723  -9.817  1.00  0.00     0.283 C 
HETATM   27  O2  UNL     1      -3.432 -35.819 -10.077  1.00  0.00    -0.268 OA
HETATM   28  N7  UNL     1      -1.241 -35.945 -10.823  1.00  0.00    -0.268 N 
ATOM     29  H7  UNL     1      -0.256 -35.851 -10.576  1.00  0.00     0.185 HD
BRANCH  28  30
HETATM   30  N8  UNL     1      -1.566 -36.283 -12.129  1.00  0.00    -0.098 NA
BRANCH  30  31
HETATM   31  C8  UNL     1      -1.011 -35.310 -13.096  1.00  0.00     0.355 C 
BRANCH  31  32
HETATM   32  N9  UNL     1      -0.075 -34.469 -12.378  1.00  0.00    -0.053 N 
ATOM     33  H93 UNL     1      -0.076 -33.502 -12.705  1.00  0.00     0.276 HD
ATOM     34  H92 UNL     1      -0.362 -34.284 -11.417  1.00  0.00     0.276 HD
ATOM     35  H91 UNL     1       0.843 -34.909 -12.440  1.00  0.00     0.276 HD
ENDBRANCH  31  32
BRANCH  31  36
HETATM   36  C9  UNL     1      -0.392 -36.017 -14.232  1.00  0.00     0.139 A 
HETATM   37  O3  UNL     1      -1.099 -36.588 -15.221  1.00  0.00    -0.284 OA
HETATM   38  C10 UNL     1      -0.304 -37.141 -16.084  1.00  0.00     0.220 A 
HETATM   39  C11 UNL     1       0.996 -36.951 -15.689  1.00  0.00     0.160 A 
HETATM   40  C12 UNL     1       0.928 -36.222 -14.489  1.00  0.00     0.137 A 
BRANCH  38  41
HETATM   41  O4  UNL     1      -0.726 -37.823 -17.236  1.00  0.00    -0.339 OA
ATOM     42  H4  UNL     1      -0.368 -37.688 -18.105  1.00  0.00     0.220 HD
ENDBRANCH  38  41
BRANCH  39  43
HETATM   43  O5  UNL     1       2.144 -37.379 -16.320  1.00  0.00    -0.354 OA
ATOM     44  H5  UNL     1       2.638 -36.934 -16.999  1.00  0.00     0.218 HD
ENDBRANCH  39  43
BRANCH  40  45
HETATM   45  O6  UNL     1       2.058 -35.856 -13.817  1.00  0.00    -0.356 OA
ATOM     46  H6  UNL     1       2.799 -36.358 -13.500  1.00  0.00     0.218 HD
ENDBRANCH  40  45
ENDBRANCH  31  36
ENDBRANCH  30  31
ENDBRANCH  28  30
ENDBRANCH   1  26
TORSDOF 12
ENDMDL
