MODEL 1
REMARK VINA RESULT: -8.880781866      0.000      0.000
REMARK  13 active torsions:
REMARK  status: ('A' for Active; 'I' for Inactive)
REMARK       I    between atoms: C2_2  and  N1_4 
REMARK    1  A    between atoms: N1_4  and  C3_6 
REMARK    2  A    between atoms: C4_7  and  N2_8 
REMARK    3  A    between atoms: N2_8  and  N3_9 
REMARK    4  A    between atoms: N2_8  and  C5_13 
REMARK    5  A    between atoms: N3_9  and  O2_11 
REMARK    6  A    between atoms: C5_13  and  O3_14 
REMARK    7  A    between atoms: C5_13  and  N4_16 
REMARK    8  A    between atoms: N4_16  and  O4_18 
REMARK    9  A    between atoms: C6_24  and  N7_25 
REMARK   10  A    between atoms: N7_25  and  C7_27 
REMARK   11  A    between atoms: C7_27  and  O5_28 
REMARK   12  A    between atoms: C7_27  and  C8_30 
REMARK   13  A    between atoms: C9_33  and  C10_34 
ROOT
HETATM    1  C3  UNL     1      -5.020 -30.094   0.859  1.00  0.00     0.111 A 
HETATM    2  C4  UNL     1      -4.592 -29.464  -0.344  1.00  0.00     0.176 A 
HETATM    3  N5  UNL     1      -4.424 -30.166  -1.461  1.00  0.00    -0.280 N 
ATOM      4  H5  UNL     1      -4.117 -29.673  -2.299  1.00  0.00     0.188 HD
HETATM    5  N6  UNL     1      -4.633 -31.468  -1.542  1.00  0.00    -0.282 N 
ATOM      6  H6  UNL     1      -4.490 -31.962  -2.423  1.00  0.00     0.188 HD
HETATM    7  C6  UNL     1      -5.032 -32.125  -0.455  1.00  0.00     0.149 A 
HETATM    8  C12 UNL     1      -5.227 -31.425   0.762  1.00  0.00     0.122 A 
HETATM    9  N12 UNL     1      -5.619 -32.219   1.878  1.00  0.00    -0.096 NA
ENDROOT
BRANCH   7  10
HETATM   10  N7  UNL     1      -5.223 -33.368  -0.457  1.00  0.00    -0.317 N 
ATOM     11  H7  UNL     1      -4.835 -33.799   0.382  1.00  0.00     0.169 HD
BRANCH  10  12
HETATM   12  C7  UNL     1      -5.815 -34.325  -1.282  1.00  0.00     0.187 C 
BRANCH  12  13
HETATM   13  O5  UNL     1      -5.617 -35.661  -0.978  1.00  0.00    -0.343 OA
ATOM     14  H5  UNL     1      -6.360 -36.250  -1.040  1.00  0.00     0.219 HD
ENDBRANCH  12  13
BRANCH  12  15
HETATM   15  C8  UNL     1      -5.712 -34.049  -2.735  1.00  0.00     0.174 A 
HETATM   16  N8  UNL     1      -4.680 -34.576  -3.410  1.00  0.00    -0.319 N 
HETATM   17  C9  UNL     1      -4.513 -34.334  -4.729  1.00  0.00     0.200 A 
ATOM     18  H8  UNL     1      -4.010 -35.169  -2.919  1.00  0.00     0.169 HD
HETATM   19  N9  UNL     1      -5.365 -33.569  -5.385  1.00  0.00    -0.170 N 
HETATM   20  C11 UNL     1      -6.410 -33.024  -4.740  1.00  0.00     0.679 A 
ATOM     21  H9  UNL     1      -5.231 -33.392  -6.381  1.00  0.00     0.186 HD
HETATM   22  N10 UNL     1      -7.296 -32.246  -5.301  1.00  0.00    -0.234 N 
HETATM   23  N11 UNL     1      -6.582 -33.268  -3.405  1.00  0.00    -0.172 N 
ATOM     24 2H10 UNL     1      -7.168 -32.065  -6.297  1.00  0.00     0.174 HD
ATOM     25 1H10 UNL     1      -8.089 -31.833  -4.811  1.00  0.00     0.174 HD
ATOM     26  H11 UNL     1      -7.374 -32.855  -2.913  1.00  0.00     0.186 HD
BRANCH  17  27
HETATM   27  C10 UNL     1      -3.353 -34.969  -5.401  1.00  0.00     0.245 C 
HETATM   28  O6  UNL     1      -2.197 -34.814  -4.958  1.00  0.00    -0.642 OA
HETATM   29  O7  UNL     1      -3.592 -35.724  -6.525  1.00  0.00    -0.642 OA
ENDBRANCH  17  27
ENDBRANCH  12  15
ENDBRANCH  10  12
ENDBRANCH   7  10
BRANCH   1  30
HETATM   30  N1  UNL     1      -5.160 -29.305   1.992  1.00  0.00    -0.323 N 
HETATM   31  C2  UNL     1      -4.263 -28.997   3.025  1.00  0.00     0.218 C 
HETATM   32  C1  UNL     1      -4.689 -28.086   4.138  1.00  0.00     0.117 C 
HETATM   33  O1  UNL     1      -3.098 -29.426   3.105  1.00  0.00    -0.274 OA
ATOM     34  H1  UNL     1      -6.078 -28.871   2.091  1.00  0.00     0.169 HD
ENDBRANCH   1  30
BRANCH   2  35
HETATM   35  N2  UNL     1      -4.349 -28.068  -0.255  1.00  0.00    -0.178 N 
BRANCH  35  36
HETATM   36  N3  UNL     1      -3.044 -27.595  -0.325  1.00  0.00    -0.198 N 
ATOM     37  H3  UNL     1      -2.341 -28.241  -0.685  1.00  0.00     0.216 HD
BRANCH  36  38
HETATM   38  O2  UNL     1      -2.650 -26.475   0.002  1.00  0.00    -0.274 OA
ATOM     39  H2  UNL     1      -1.916 -26.277   0.571  1.00  0.00     0.246 HD
ENDBRANCH  36  38
ENDBRANCH  35  36
BRANCH  35  40
HETATM   40  C5  UNL     1      -5.403 -27.164  -0.086  1.00  0.00     0.266 C 
BRANCH  40  41
HETATM   41  O3  UNL     1      -5.419 -26.252   0.943  1.00  0.00    -0.330 OA
ATOM     42  H3  UNL     1      -5.743 -25.367   0.824  1.00  0.00     0.221 HD
ENDBRANCH  40  41
BRANCH  40  43
HETATM   43  N4  UNL     1      -6.434 -27.134  -0.891  1.00  0.00    -0.231 N 
ATOM     44  H4  UNL     1      -7.392 -27.257  -0.560  1.00  0.00     0.198 HD
BRANCH  43  45
HETATM   45  O4  UNL     1      -6.131 -26.922  -2.229  1.00  0.00    -0.287 OA
ATOM     46  H4  UNL     1      -6.874 -26.949  -2.819  1.00  0.00     0.244 HD
ENDBRANCH  43  45
ENDBRANCH  40  43
ENDBRANCH  35  40
ENDBRANCH   2  35
TORSDOF 13
ENDMDL
MODEL 2
REMARK VINA RESULT: -8.813898432      6.637     12.445
REMARK  13 active torsions:
REMARK  status: ('A' for Active; 'I' for Inactive)
REMARK       I    between atoms: C2_2  and  N1_4 
REMARK    1  A    between atoms: N1_4  and  C3_6 
REMARK    2  A    between atoms: C4_7  and  N2_8 
REMARK    3  A    between atoms: N2_8  and  N3_9 
REMARK    4  A    between atoms: N2_8  and  C5_13 
REMARK    5  A    between atoms: N3_9  and  O2_11 
REMARK    6  A    between atoms: C5_13  and  O3_14 
REMARK    7  A    between atoms: C5_13  and  N4_16 
REMARK    8  A    between atoms: N4_16  and  O4_18 
REMARK    9  A    between atoms: C6_24  and  N7_25 
REMARK   10  A    between atoms: N7_25  and  C7_27 
REMARK   11  A    between atoms: C7_27  and  O5_28 
REMARK   12  A    between atoms: C7_27  and  C8_30 
REMARK   13  A    between atoms: C9_33  and  C10_34 
ROOT
HETATM    1  C3  UNL     1      -0.249 -35.386 -11.295  1.00  0.00     0.111 A 
HETATM    2  C4  UNL     1       1.068 -35.818 -10.971  1.00  0.00     0.176 A 
HETATM    3  N5  UNL     1       1.532 -35.726  -9.728  1.00  0.00    -0.280 N 
ATOM      4  H5  UNL     1       2.481 -36.049  -9.542  1.00  0.00     0.188 HD
HETATM    5  N6  UNL     1       0.828 -35.238  -8.722  1.00  0.00    -0.282 N 
ATOM      6  H6  UNL     1       1.229 -35.189  -7.786  1.00  0.00     0.188 HD
HETATM    7  C6  UNL     1      -0.413 -34.811  -8.950  1.00  0.00     0.149 A 
HETATM    8  C12 UNL     1      -0.956 -34.887 -10.258  1.00  0.00     0.122 A 
HETATM    9  N12 UNL     1      -2.276 -34.373 -10.411  1.00  0.00    -0.096 NA
ENDROOT
BRANCH   7  10
HETATM   10  N7  UNL     1      -1.126 -34.312  -8.044  1.00  0.00    -0.317 N 
ATOM     11  H7  UNL     1      -1.396 -33.356  -8.277  1.00  0.00     0.169 HD
BRANCH  10  12
HETATM   12  C7  UNL     1      -1.653 -34.694  -6.810  1.00  0.00     0.187 C 
BRANCH  12  13
HETATM   13  O5  UNL     1      -1.189 -35.868  -6.238  1.00  0.00    -0.343 OA
ATOM     14  H5  UNL     1      -1.759 -36.325  -5.631  1.00  0.00     0.219 HD
ENDBRANCH  12  13
BRANCH  12  15
HETATM   15  C8  UNL     1      -3.121 -34.536  -6.680  1.00  0.00     0.174 A 
HETATM   16  N8  UNL     1      -3.635 -34.366  -5.452  1.00  0.00    -0.319 N 
HETATM   17  C9  UNL     1      -4.968 -34.249  -5.265  1.00  0.00     0.200 A 
ATOM     18  H8  UNL     1      -3.010 -34.324  -4.648  1.00  0.00     0.169 HD
HETATM   19  N9  UNL     1      -5.798 -34.302  -6.290  1.00  0.00    -0.170 N 
HETATM   20  C11 UNL     1      -5.317 -34.473  -7.533  1.00  0.00     0.679 A 
ATOM     21  H9  UNL     1      -6.804 -34.213  -6.139  1.00  0.00     0.186 HD
HETATM   22  N10 UNL     1      -6.060 -34.549  -8.605  1.00  0.00    -0.234 N 
HETATM   23  N11 UNL     1      -3.969 -34.590  -7.726  1.00  0.00    -0.172 N 
ATOM     24 2H10 UNL     1      -7.066 -34.461  -8.461  1.00  0.00     0.174 HD
ATOM     25 1H10 UNL     1      -5.695 -34.678  -9.548  1.00  0.00     0.174 HD
ATOM     26  H11 UNL     1      -3.601 -34.720  -8.668  1.00  0.00     0.186 HD
BRANCH  17  27
HETATM   27  C10 UNL     1      -5.451 -34.048  -3.877  1.00  0.00     0.245 C 
HETATM   28  O6  UNL     1      -5.097 -34.820  -2.963  1.00  0.00    -0.642 OA
HETATM   29  O7  UNL     1      -6.300 -32.994  -3.635  1.00  0.00    -0.642 OA
ENDBRANCH  17  27
ENDBRANCH  12  15
ENDBRANCH  10  12
ENDBRANCH   7  10
BRANCH   1  30
HETATM   30  N1  UNL     1      -0.664 -35.496 -12.615  1.00  0.00    -0.323 N 
HETATM   31  C2  UNL     1      -1.695 -36.242 -13.204  1.00  0.00     0.218 C 
HETATM   32  C1  UNL     1      -1.928 -36.155 -14.684  1.00  0.00     0.117 C 
HETATM   33  O1  UNL     1      -2.466 -36.998 -12.587  1.00  0.00    -0.274 OA
ATOM     34  H1  UNL     1      -0.123 -34.936 -13.273  1.00  0.00     0.169 HD
ENDBRANCH   1  30
BRANCH   2  35
HETATM   35  N2  UNL     1       1.833 -36.327 -12.054  1.00  0.00    -0.178 N 
BRANCH  35  36
HETATM   36  N3  UNL     1       2.342 -35.448 -13.003  1.00  0.00    -0.198 N 
ATOM     37  H3  UNL     1       3.238 -35.011 -12.789  1.00  0.00     0.216 HD
BRANCH  36  38
HETATM   38  O2  UNL     1       1.819 -35.143 -14.077  1.00  0.00    -0.274 OA
ATOM     39  H2  UNL     1       0.938 -34.810 -14.203  1.00  0.00     0.246 HD
ENDBRANCH  36  38
ENDBRANCH  35  36
BRANCH  35  40
HETATM   40  C5  UNL     1       2.071 -37.699 -12.186  1.00  0.00     0.266 C 
BRANCH  40  41
HETATM   41  O3  UNL     1       1.883 -38.571 -11.140  1.00  0.00    -0.330 OA
ATOM     42  H3  UNL     1       2.595 -39.092 -10.787  1.00  0.00     0.221 HD
ENDBRANCH  40  41
BRANCH  40  43
HETATM   43  N4  UNL     1       2.487 -38.231 -13.306  1.00  0.00    -0.231 N 
ATOM     44  H4  UNL     1       3.265 -38.891 -13.343  1.00  0.00     0.198 HD
BRANCH  43  45
HETATM   45  O4  UNL     1       1.794 -37.833 -14.440  1.00  0.00    -0.287 OA
ATOM     46  H4  UNL     1       1.044 -38.371 -14.663  1.00  0.00     0.244 HD
ENDBRANCH  43  45
ENDBRANCH  40  43
ENDBRANCH  35  40
ENDBRANCH   2  35
TORSDOF 13
ENDMDL
MODEL 3
REMARK VINA RESULT: -8.810722133      6.339     12.007
REMARK  13 active torsions:
REMARK  status: ('A' for Active; 'I' for Inactive)
REMARK       I    between atoms: C2_2  and  N1_4 
REMARK    1  A    between atoms: N1_4  and  C3_6 
REMARK    2  A    between atoms: C4_7  and  N2_8 
REMARK    3  A    between atoms: N2_8  and  N3_9 
REMARK    4  A    between atoms: N2_8  and  C5_13 
REMARK    5  A    between atoms: N3_9  and  O2_11 
REMARK    6  A    between atoms: C5_13  and  O3_14 
REMARK    7  A    between atoms: C5_13  and  N4_16 
REMARK    8  A    between atoms: N4_16  and  O4_18 
REMARK    9  A    between atoms: C6_24  and  N7_25 
REMARK   10  A    between atoms: N7_25  and  C7_27 
REMARK   11  A    between atoms: C7_27  and  O5_28 
REMARK   12  A    between atoms: C7_27  and  C8_30 
REMARK   13  A    between atoms: C9_33  and  C10_34 
ROOT
HETATM    1  C3  UNL     1      -1.004 -35.443 -10.928  1.00  0.00     0.111 A 
HETATM    2  C4  UNL     1      -0.890 -34.809 -12.197  1.00  0.00     0.176 A 
HETATM    3  N5  UNL     1      -1.698 -33.810 -12.538  1.00  0.00    -0.280 N 
ATOM      4  H5  UNL     1      -1.580 -33.384 -13.457  1.00  0.00     0.188 HD
HETATM    5  N6  UNL     1      -2.648 -33.339 -11.748  1.00  0.00    -0.282 N 
ATOM      6  H6  UNL     1      -3.243 -32.570 -12.055  1.00  0.00     0.188 HD
HETATM    7  C6  UNL     1      -2.815 -33.885 -10.545  1.00  0.00     0.149 A 
HETATM    8  C12 UNL     1      -1.979 -34.953 -10.133  1.00  0.00     0.122 A 
HETATM    9  N12 UNL     1      -2.258 -35.497  -8.845  1.00  0.00    -0.096 NA
ENDROOT
BRANCH   7  10
HETATM   10  N7  UNL     1      -3.716 -33.503  -9.756  1.00  0.00    -0.317 N 
ATOM     11  H7  UNL     1      -4.361 -34.264  -9.542  1.00  0.00     0.169 HD
BRANCH  10  12
HETATM   12  C7  UNL     1      -4.083 -32.333  -9.090  1.00  0.00     0.187 C 
BRANCH  12  13
HETATM   13  O5  UNL     1      -3.236 -31.241  -9.175  1.00  0.00    -0.343 OA
ATOM     14  H5  UNL     1      -3.201 -30.643  -8.438  1.00  0.00     0.219 HD
ENDBRANCH  12  13
BRANCH  12  15
HETATM   15  C8  UNL     1      -4.622 -32.534  -7.723  1.00  0.00     0.174 A 
HETATM   16  N8  UNL     1      -4.034 -33.448  -6.937  1.00  0.00    -0.319 N 
HETATM   17  C9  UNL     1      -4.499 -33.699  -5.693  1.00  0.00     0.200 A 
ATOM     18  H8  UNL     1      -3.224 -33.961  -7.283  1.00  0.00     0.169 HD
HETATM   19  N9  UNL     1      -5.547 -33.049  -5.223  1.00  0.00    -0.170 N 
HETATM   20  C11 UNL     1      -6.161 -32.128  -5.985  1.00  0.00     0.679 A 
ATOM     21  H9  UNL     1      -5.891 -33.246  -4.283  1.00  0.00     0.186 HD
HETATM   22  N10 UNL     1      -7.209 -31.445  -5.611  1.00  0.00    -0.234 N 
HETATM   23  N11 UNL     1      -5.692 -31.871  -7.243  1.00  0.00    -0.172 N 
ATOM     24 2H10 UNL     1      -7.559 -31.637  -4.672  1.00  0.00     0.174 HD
ATOM     25 1H10 UNL     1      -7.675 -30.745  -6.189  1.00  0.00     0.174 HD
ATOM     26  H11 UNL     1      -6.156 -31.172  -7.824  1.00  0.00     0.186 HD
BRANCH  17  27
HETATM   27  C10 UNL     1      -3.781 -34.715  -4.885  1.00  0.00     0.245 C 
HETATM   28  O6  UNL     1      -4.410 -35.514  -4.163  1.00  0.00    -0.642 OA
HETATM   29  O7  UNL     1      -2.408 -34.742  -4.954  1.00  0.00    -0.642 OA
ENDBRANCH  17  27
ENDBRANCH  12  15
ENDBRANCH  10  12
ENDBRANCH   7  10
BRANCH   1  30
HETATM   30  N1  UNL     1      -0.138 -36.490 -10.644  1.00  0.00    -0.323 N 
HETATM   31  C2  UNL     1       1.196 -36.499 -10.210  1.00  0.00     0.218 C 
HETATM   32  C1  UNL     1       1.893 -37.804  -9.964  1.00  0.00     0.117 C 
HETATM   33  O1  UNL     1       1.881 -35.482 -10.000  1.00  0.00    -0.274 OA
ATOM     34  H1  UNL     1      -0.543 -37.417 -10.773  1.00  0.00     0.169 HD
ENDBRANCH   1  30
BRANCH   2  35
HETATM   35  N2  UNL     1       0.118 -35.324 -13.055  1.00  0.00    -0.178 N 
BRANCH  35  36
HETATM   36  N3  UNL     1       1.371 -34.724 -13.074  1.00  0.00    -0.198 N 
ATOM     37  H3  UNL     1       1.392 -33.705 -13.043  1.00  0.00     0.216 HD
BRANCH  36  38
HETATM   38  O2  UNL     1       2.460 -35.299 -13.125  1.00  0.00    -0.274 OA
ATOM     39  H2  UNL     1       3.191 -35.181 -12.530  1.00  0.00     0.246 HD
ENDBRANCH  36  38
ENDBRANCH  35  36
BRANCH  35  40
HETATM   40  C5  UNL     1      -0.137 -36.419 -13.888  1.00  0.00     0.266 C 
BRANCH  40  41
HETATM   41  O3  UNL     1      -1.230 -37.232 -13.705  1.00  0.00    -0.330 OA
ATOM     42  H3  UNL     1      -1.592 -37.753 -14.412  1.00  0.00     0.221 HD
ENDBRANCH  40  41
BRANCH  40  43
HETATM   43  N4  UNL     1       0.648 -36.735 -14.886  1.00  0.00    -0.231 N 
ATOM     44  H4  UNL     1       0.470 -36.427 -15.843  1.00  0.00     0.198 HD
BRANCH  43  45
HETATM   45  O4  UNL     1       1.742 -37.519 -14.549  1.00  0.00    -0.287 OA
ATOM     46  H4  UNL     1       2.403 -37.602 -15.227  1.00  0.00     0.244 HD
ENDBRANCH  43  45
ENDBRANCH  40  43
ENDBRANCH  35  40
ENDBRANCH   2  35
TORSDOF 13
ENDMDL
MODEL 4
REMARK VINA RESULT: -8.707929284      1.833      2.776
REMARK  13 active torsions:
REMARK  status: ('A' for Active; 'I' for Inactive)
REMARK       I    between atoms: C2_2  and  N1_4 
REMARK    1  A    between atoms: N1_4  and  C3_6 
REMARK    2  A    between atoms: C4_7  and  N2_8 
REMARK    3  A    between atoms: N2_8  and  N3_9 
REMARK    4  A    between atoms: N2_8  and  C5_13 
REMARK    5  A    between atoms: N3_9  and  O2_11 
REMARK    6  A    between atoms: C5_13  and  O3_14 
REMARK    7  A    between atoms: C5_13  and  N4_16 
REMARK    8  A    between atoms: N4_16  and  O4_18 
REMARK    9  A    between atoms: C6_24  and  N7_25 
REMARK   10  A    between atoms: N7_25  and  C7_27 
REMARK   11  A    between atoms: C7_27  and  O5_28 
REMARK   12  A    between atoms: C7_27  and  C8_30 
REMARK   13  A    between atoms: C9_33  and  C10_34 
ROOT
HETATM    1  C3  UNL     1      -4.848 -29.740   1.192  1.00  0.00     0.111 A 
HETATM    2  C4  UNL     1      -4.421 -28.990   0.060  1.00  0.00     0.176 A 
HETATM    3  N5  UNL     1      -4.300 -29.562  -1.134  1.00  0.00    -0.280 N 
ATOM      4  H5  UNL     1      -3.992 -28.986  -1.917  1.00  0.00     0.188 HD
HETATM    5  N6  UNL     1      -4.558 -30.838  -1.359  1.00  0.00    -0.282 N 
ATOM      6  H6  UNL     1      -4.451 -31.230  -2.294  1.00  0.00     0.188 HD
HETATM    7  C6  UNL     1      -4.960 -31.603  -0.347  1.00  0.00     0.149 A 
HETATM    8  C12 UNL     1      -5.106 -31.042   0.947  1.00  0.00     0.122 A 
HETATM    9  N12 UNL     1      -5.505 -31.947   1.974  1.00  0.00    -0.096 NA
ENDROOT
BRANCH   7  10
HETATM   10  N7  UNL     1      -5.197 -32.830  -0.487  1.00  0.00    -0.317 N 
ATOM     11  H7  UNL     1      -4.563 -33.391   0.082  1.00  0.00     0.169 HD
BRANCH  10  12
HETATM   12  C7  UNL     1      -6.080 -33.640  -1.201  1.00  0.00     0.187 C 
BRANCH  12  13
HETATM   13  O5  UNL     1      -6.516 -34.812  -0.605  1.00  0.00    -0.343 OA
ATOM     14  H5  UNL     1      -6.682 -35.563  -1.163  1.00  0.00     0.219 HD
ENDBRANCH  12  13
BRANCH  12  15
HETATM   15  C8  UNL     1      -5.747 -33.818  -2.635  1.00  0.00     0.174 A 
HETATM   16  N8  UNL     1      -6.371 -33.040  -3.532  1.00  0.00    -0.319 N 
HETATM   17  C9  UNL     1      -6.135 -33.176  -4.856  1.00  0.00     0.200 A 
ATOM     18  H8  UNL     1      -7.034 -32.335  -3.210  1.00  0.00     0.169 HD
HETATM   19  N9  UNL     1      -5.283 -34.082  -5.297  1.00  0.00    -0.170 N 
HETATM   20  C11 UNL     1      -4.642 -34.879  -4.426  1.00  0.00     0.679 A 
ATOM     21  H9  UNL     1      -5.111 -34.178  -6.299  1.00  0.00     0.186 HD
HETATM   22  N10 UNL     1      -3.792 -35.810  -4.769  1.00  0.00    -0.234 N 
HETATM   23  N11 UNL     1      -4.878 -34.743  -3.086  1.00  0.00    -0.172 N 
ATOM     24 2H10 UNL     1      -3.617 -35.911  -5.768  1.00  0.00     0.174 HD
ATOM     25 1H10 UNL     1      -3.305 -36.414  -4.107  1.00  0.00     0.174 HD
ATOM     26  H11 UNL     1      -4.392 -35.346  -2.422  1.00  0.00     0.186 HD
BRANCH  17  27
HETATM   27  C10 UNL     1      -6.856 -32.265  -5.779  1.00  0.00     0.245 C 
HETATM   28  O6  UNL     1      -7.233 -31.139  -5.396  1.00  0.00    -0.642 OA
HETATM   29  O7  UNL     1      -7.098 -32.703  -7.059  1.00  0.00    -0.642 OA
ENDBRANCH  17  27
ENDBRANCH  12  15
ENDBRANCH  10  12
ENDBRANCH   7  10
BRANCH   1  30
HETATM   30  N1  UNL     1      -4.937 -29.083   2.412  1.00  0.00    -0.323 N 
HETATM   31  C2  UNL     1      -5.946 -28.279   2.961  1.00  0.00     0.218 C 
HETATM   32  C1  UNL     1      -5.776 -27.701   4.335  1.00  0.00     0.117 C 
HETATM   33  O1  UNL     1      -7.015 -27.993   2.392  1.00  0.00    -0.274 OA
ATOM     34  H1  UNL     1      -4.124 -29.207   3.016  1.00  0.00     0.169 HD
ENDBRANCH   1  30
BRANCH   2  35
HETATM   35  N2  UNL     1      -4.125 -27.622   0.304  1.00  0.00    -0.178 N 
BRANCH  35  36
HETATM   36  N3  UNL     1      -5.140 -26.677   0.211  1.00  0.00    -0.198 N 
ATOM     37  H3  UNL     1      -5.805 -26.791  -0.555  1.00  0.00     0.216 HD
BRANCH  36  38
HETATM   38  O2  UNL     1      -5.319 -25.714   0.959  1.00  0.00    -0.274 OA
ATOM     39  H2  UNL     1      -5.779 -24.910   0.748  1.00  0.00     0.246 HD
ENDBRANCH  36  38
ENDBRANCH  35  36
BRANCH  35  40
HETATM   40  C5  UNL     1      -2.827 -27.212   0.623  1.00  0.00     0.266 C 
BRANCH  40  41
HETATM   41  O3  UNL     1      -2.010 -27.958   1.438  1.00  0.00    -0.330 OA
ATOM     42  H3  UNL     1      -2.326 -28.728   1.896  1.00  0.00     0.221 HD
ENDBRANCH  40  41
BRANCH  40  43
HETATM   43  N4  UNL     1      -2.315 -26.095   0.171  1.00  0.00    -0.231 N 
ATOM     44  H4  UNL     1      -1.895 -26.021  -0.756  1.00  0.00     0.198 HD
BRANCH  43  45
HETATM   45  O4  UNL     1      -2.386 -25.019   1.045  1.00  0.00    -0.287 OA
ATOM     46  H4  UNL     1      -3.183 -24.505   0.986  1.00  0.00     0.244 HD
ENDBRANCH  43  45
ENDBRANCH  40  43
ENDBRANCH  35  40
ENDBRANCH   2  35
TORSDOF 13
ENDMDL
MODEL 5
REMARK VINA RESULT: -8.627069276      6.844     12.729
REMARK  13 active torsions:
REMARK  status: ('A' for Active; 'I' for Inactive)
REMARK       I    between atoms: C2_2  and  N1_4 
REMARK    1  A    between atoms: N1_4  and  C3_6 
REMARK    2  A    between atoms: C4_7  and  N2_8 
REMARK    3  A    between atoms: N2_8  and  N3_9 
REMARK    4  A    between atoms: N2_8  and  C5_13 
REMARK    5  A    between atoms: N3_9  and  O2_11 
REMARK    6  A    between atoms: C5_13  and  O3_14 
REMARK    7  A    between atoms: C5_13  and  N4_16 
REMARK    8  A    between atoms: N4_16  and  O4_18 
REMARK    9  A    between atoms: C6_24  and  N7_25 
REMARK   10  A    between atoms: N7_25  and  C7_27 
REMARK   11  A    between atoms: C7_27  and  O5_28 
REMARK   12  A    between atoms: C7_27  and  C8_30 
REMARK   13  A    between atoms: C9_33  and  C10_34 
ROOT
HETATM    1  C3  UNL     1      -0.370 -35.858 -11.550  1.00  0.00     0.111 A 
HETATM    2  C4  UNL     1       0.898 -36.340 -11.119  1.00  0.00     0.176 A 
HETATM    3  N5  UNL     1       1.178 -36.469  -9.826  1.00  0.00    -0.280 N 
ATOM      4  H5  UNL     1       2.098 -36.819  -9.563  1.00  0.00     0.188 HD
HETATM    5  N6  UNL     1       0.325 -36.166  -8.862  1.00  0.00    -0.282 N 
ATOM      6  H6  UNL     1       0.586 -36.283  -7.884  1.00  0.00     0.188 HD
HETATM    7  C6  UNL     1      -0.881 -35.706  -9.190  1.00  0.00     0.149 A 
HETATM    8  C12 UNL     1      -1.230 -35.551 -10.555  1.00  0.00     0.122 A 
HETATM    9  N12 UNL     1      -2.527 -35.018 -10.807  1.00  0.00    -0.096 NA
ENDROOT
BRANCH   7  10
HETATM   10  N7  UNL     1      -1.729 -35.375  -8.323  1.00  0.00    -0.317 N 
ATOM     11  H7  UNL     1      -2.619 -35.130  -8.758  1.00  0.00     0.169 HD
BRANCH  10  12
HETATM   12  C7  UNL     1      -1.798 -35.248  -6.936  1.00  0.00     0.187 C 
BRANCH  12  13
HETATM   13  O5  UNL     1      -1.153 -36.198  -6.161  1.00  0.00    -0.343 OA
ATOM     14  H5  UNL     1      -0.223 -36.088  -6.000  1.00  0.00     0.219 HD
ENDBRANCH  12  13
BRANCH  12  15
HETATM   15  C8  UNL     1      -3.137 -34.892  -6.405  1.00  0.00     0.174 A 
HETATM   16  N8  UNL     1      -4.054 -34.420  -7.263  1.00  0.00    -0.319 N 
HETATM   17  C9  UNL     1      -5.280 -34.047  -6.835  1.00  0.00     0.200 A 
ATOM     18  H8  UNL     1      -3.822 -34.340  -8.253  1.00  0.00     0.169 HD
HETATM   19  N9  UNL     1      -5.604 -34.139  -5.559  1.00  0.00    -0.170 N 
HETATM   20  C11 UNL     1      -4.709 -34.607  -4.673  1.00  0.00     0.679 A 
ATOM     21  H9  UNL     1      -6.533 -33.855  -5.245  1.00  0.00     0.186 HD
HETATM   22  N10 UNL     1      -4.933 -34.722  -3.391  1.00  0.00    -0.234 N 
HETATM   23  N11 UNL     1      -3.467 -34.985  -5.103  1.00  0.00    -0.172 N 
ATOM     24 2H10 UNL     1      -5.860 -34.440  -3.071  1.00  0.00     0.174 HD
ATOM     25 1H10 UNL     1      -4.254 -35.078  -2.719  1.00  0.00     0.174 HD
ATOM     26  H11 UNL     1      -2.785 -35.342  -4.432  1.00  0.00     0.186 HD
BRANCH  17  27
HETATM   27  C10 UNL     1      -6.239 -33.549  -7.851  1.00  0.00     0.245 C 
HETATM   28  O6  UNL     1      -6.546 -32.341  -7.898  1.00  0.00    -0.642 OA
HETATM   29  O7  UNL     1      -6.778 -34.459  -8.730  1.00  0.00    -0.642 OA
ENDBRANCH  17  27
ENDBRANCH  12  15
ENDBRANCH  10  12
ENDBRANCH   7  10
BRANCH   1  30
HETATM   30  N1  UNL     1      -0.588 -35.734 -12.915  1.00  0.00    -0.323 N 
HETATM   31  C2  UNL     1      -1.457 -36.414 -13.781  1.00  0.00     0.218 C 
HETATM   32  C1  UNL     1      -1.493 -36.054 -15.237  1.00  0.00     0.117 C 
HETATM   33  O1  UNL     1      -2.233 -37.323 -13.438  1.00  0.00    -0.274 OA
ATOM     34  H1  UNL     1      -0.016 -35.022 -13.369  1.00  0.00     0.169 HD
ENDBRANCH   1  30
BRANCH   2  35
HETATM   35  N2  UNL     1       1.823 -36.649 -12.152  1.00  0.00    -0.178 N 
BRANCH  35  36
HETATM   36  N3  UNL     1       2.425 -35.616 -12.862  1.00  0.00    -0.198 N 
ATOM     37  H3  UNL     1       3.296 -35.247 -12.483  1.00  0.00     0.216 HD
BRANCH  36  38
HETATM   38  O2  UNL     1       2.011 -35.103 -13.903  1.00  0.00    -0.274 OA
ATOM     39  H2  UNL     1       1.347 -35.456 -14.483  1.00  0.00     0.246 HD
ENDBRANCH  36  38
ENDBRANCH  35  36
BRANCH  35  40
HETATM   40  C5  UNL     1       2.127 -37.976 -12.472  1.00  0.00     0.266 C 
BRANCH  40  41
HETATM   41  O3  UNL     1       2.078 -38.979 -11.534  1.00  0.00    -0.330 OA
ATOM     42  H3  UNL     1       2.862 -39.426 -11.235  1.00  0.00     0.221 HD
ENDBRANCH  40  41
BRANCH  40  43
HETATM   43  N4  UNL     1       2.479 -38.341 -13.679  1.00  0.00    -0.231 N 
ATOM     44  H4  UNL     1       3.223 -39.016 -13.852  1.00  0.00     0.198 HD
BRANCH  43  45
HETATM   45  O4  UNL     1       1.765 -37.740 -14.707  1.00  0.00    -0.287 OA
ATOM     46  H4  UNL     1       2.288 -37.454 -15.446  1.00  0.00     0.244 HD
ENDBRANCH  43  45
ENDBRANCH  40  43
ENDBRANCH  35  40
ENDBRANCH   2  35
TORSDOF 13
ENDMDL
