MODEL 1
REMARK VINA RESULT: -7.537305311      0.000      0.000
REMARK  14 active torsions:
REMARK  status: ('A' for Active; 'I' for Inactive)
REMARK    1  A    between atoms: S1_2  and  C2_3 
REMARK    2  A    between atoms: C3_5  and  C4_6 
REMARK    3  A    between atoms: C6_9  and  C7_10 
REMARK       I    between atoms: C7_10  and  N1_12 
REMARK    4  A    between atoms: N1_12  and  C8_14 
REMARK    5  A    between atoms: C8_14  and  C9_15 
REMARK    6  A    between atoms: C9_15  and  N2_16 
REMARK    7  A    between atoms: N2_16  and  C10_18 
REMARK    8  A    between atoms: C10_18  and  N3_19 
REMARK    9  A    between atoms: N3_19  and  O4_21 
REMARK   10  A    between atoms: O4_21  and  C11_22 
REMARK   11  A    between atoms: C12_30  and  O5_31 
REMARK   12  A    between atoms: C13_34  and  O7_35 
REMARK   13  A    between atoms: C14_37  and  O8_38 
REMARK   14  A    between atoms: C15_40  and  O9_41 
ROOT
HETATM    1  C4  UNL     1      -1.004 -35.970 -10.252  1.00  0.00     0.296 C 
HETATM    2  O2  UNL     1       0.058 -36.770 -10.447  1.00  0.00    -0.356 OA
HETATM    3  C5  UNL     1       0.954 -36.471 -11.455  1.00  0.00     0.214 C 
HETATM    4  C6  UNL     1       0.330 -35.910 -12.670  1.00  0.00     0.306 C 
HETATM    5  N6  UNL     1       0.245 -34.442 -12.442  1.00  0.00    -0.010 N 
ATOM      6  H61 UNL     1       0.364 -33.880 -13.285  1.00  0.00     0.284 HD
ATOM      7  H62 UNL     1       1.039 -34.052 -11.934  1.00  0.00     0.284 HD
HETATM    8  C12 UNL     1      -1.021 -34.259 -11.785  1.00  0.00     0.470 C 
HETATM    9  O6  UNL     1      -0.826 -34.593 -10.437  1.00  0.00    -0.306 OA
ENDROOT
BRANCH   4  10
HETATM   10  C7  UNL     1       1.240 -35.882 -13.919  1.00  0.00     0.251 C 
HETATM   11  O3  UNL     1       2.200 -35.166 -13.975  1.00  0.00    -0.271 OA
HETATM   12  N1  UNL     1       0.725 -36.755 -14.886  1.00  0.00    -0.354 N 
ATOM     13  H1  UNL     1      -0.092 -37.273 -14.561  1.00  0.00     0.162 HD
BRANCH  12  14
HETATM   14  C8  UNL     1       1.095 -37.078 -16.222  1.00  0.00     0.167 C 
BRANCH  14  15
HETATM   15  C9  UNL     1       0.859 -35.786 -17.010  1.00  0.00     0.091 C 
BRANCH  15  16
HETATM   16  N2  UNL     1       0.024 -35.878 -18.114  1.00  0.00    -0.319 N 
ATOM     17  H2  UNL     1       0.365 -35.605 -19.036  1.00  0.00     0.176 HD
BRANCH  16  18
HETATM   18  C10 UNL     1      -1.158 -36.302 -17.977  1.00  0.00     0.073 C 
BRANCH  18  19
HETATM   19  N3  UNL     1      -2.335 -36.599 -17.472  1.00  0.00    -0.206 N 
ATOM     20  H3  UNL     1      -3.137 -36.916 -18.017  1.00  0.00     0.206 HD
BRANCH  19  21
HETATM   21  O4  UNL     1      -2.340 -36.420 -16.081  1.00  0.00    -0.196 OA
BRANCH  21  22
HETATM   22  C11 UNL     1      -2.535 -37.617 -15.349  1.00  0.00     0.250 C 
HETATM   23  N4  UNL     1      -2.831 -38.737 -15.877  1.00  0.00    -0.366 N 
ATOM     24  H42 UNL     1      -2.931 -38.727 -16.893  1.00  0.00     0.159 HD
ATOM     25  H41 UNL     1      -2.971 -39.599 -15.350  1.00  0.00     0.159 HD
HETATM   26  N5  UNL     1      -2.394 -37.631 -13.920  1.00  0.00    -0.055 NA
ENDBRANCH  21  22
ENDBRANCH  19  21
ENDBRANCH  18  19
ENDBRANCH  16  18
ENDBRANCH  15  16
ENDBRANCH  14  15
ENDBRANCH  12  14
ENDBRANCH   4  10
BRANCH   8  27
HETATM   27  O5  UNL     1      -2.005 -35.048 -12.383  1.00  0.00    -0.349 OA
ATOM     28  H5  UNL     1      -2.863 -34.835 -12.035  1.00  0.00     0.214 HD
ENDBRANCH   8  27
BRANCH   1  29
HETATM   29  C3  UNL     1      -1.516 -36.069  -8.797  1.00  0.00     0.209 C 
HETATM   30  O1  UNL     1      -2.367 -35.036  -8.575  1.00  0.00    -0.360 OA
HETATM   31  C2  UNL     1      -2.842 -35.027  -7.249  1.00  0.00     0.214 C 
HETATM   32  C15 UNL     1      -1.881 -35.563  -6.252  1.00  0.00     0.188 C 
HETATM   33  C14 UNL     1      -0.471 -35.288  -6.717  1.00  0.00     0.181 C 
HETATM   34  C13 UNL     1      -0.278 -36.123  -7.957  1.00  0.00     0.183 C 
BRANCH  31  35
HETATM   35  S1  UNL     1      -4.437 -35.889  -7.137  1.00  0.00    -0.139 SA
HETATM   36  C1  UNL     1      -5.502 -35.507  -8.548  1.00  0.00     0.092 C 
ENDBRANCH  31  35
BRANCH  32  37
HETATM   37  O9  UNL     1      -2.122 -35.018  -4.996  1.00  0.00    -0.389 OA
ATOM     38  H9  UNL     1      -1.561 -35.421  -4.344  1.00  0.00     0.210 HD
ENDBRANCH  32  37
BRANCH  33  39
HETATM   39  O8  UNL     1      -0.369 -33.959  -7.072  1.00  0.00    -0.390 OA
ATOM     40  H8  UNL     1      -0.388 -33.437  -6.279  1.00  0.00     0.210 HD
ENDBRANCH  33  39
BRANCH  34  41
HETATM   41  O7  UNL     1       0.041 -37.456  -7.640  1.00  0.00    -0.390 OA
ATOM     42  H7  UNL     1      -0.149 -37.634  -6.727  1.00  0.00     0.210 HD
ENDBRANCH  34  41
ENDBRANCH   1  29
TORSDOF 14
ENDMDL
MODEL 2
REMARK VINA RESULT: -7.516233703      5.531      9.734
REMARK  14 active torsions:
REMARK  status: ('A' for Active; 'I' for Inactive)
REMARK    1  A    between atoms: S1_2  and  C2_3 
REMARK    2  A    between atoms: C3_5  and  C4_6 
REMARK    3  A    between atoms: C6_9  and  C7_10 
REMARK       I    between atoms: C7_10  and  N1_12 
REMARK    4  A    between atoms: N1_12  and  C8_14 
REMARK    5  A    between atoms: C8_14  and  C9_15 
REMARK    6  A    between atoms: C9_15  and  N2_16 
REMARK    7  A    between atoms: N2_16  and  C10_18 
REMARK    8  A    between atoms: C10_18  and  N3_19 
REMARK    9  A    between atoms: N3_19  and  O4_21 
REMARK   10  A    between atoms: O4_21  and  C11_22 
REMARK   11  A    between atoms: C12_30  and  O5_31 
REMARK   12  A    between atoms: C13_34  and  O7_35 
REMARK   13  A    between atoms: C14_37  and  O8_38 
REMARK   14  A    between atoms: C15_40  and  O9_41 
ROOT
HETATM    1  C4  UNL     1      -0.157 -36.474  -9.509  1.00  0.00     0.296 C 
HETATM    2  O2  UNL     1      -1.476 -36.239  -9.619  1.00  0.00    -0.356 OA
HETATM    3  C5  UNL     1      -2.125 -35.539  -8.622  1.00  0.00     0.214 C 
HETATM    4  C6  UNL     1      -1.626 -35.825  -7.262  1.00  0.00     0.306 C 
HETATM    5  N6  UNL     1      -0.487 -34.894  -7.042  1.00  0.00    -0.010 N 
ATOM      6  H61 UNL     1      -0.390 -34.571  -6.079  1.00  0.00     0.284 HD
ATOM      7  H62 UNL     1      -0.616 -33.971  -7.457  1.00  0.00     0.284 HD
HETATM    8  C12 UNL     1       0.655 -35.610  -7.541  1.00  0.00     0.470 C 
HETATM    9  O6  UNL     1       0.637 -35.472  -8.937  1.00  0.00    -0.306 OA
ENDROOT
BRANCH   4  10
HETATM   10  C7  UNL     1      -2.536 -35.329  -6.114  1.00  0.00     0.251 C 
HETATM   11  O3  UNL     1      -2.104 -35.149  -5.010  1.00  0.00    -0.271 OA
HETATM   12  N1  UNL     1      -3.846 -35.191  -6.589  1.00  0.00    -0.354 N 
ATOM     13  H1  UNL     1      -3.930 -35.378  -7.588  1.00  0.00     0.162 HD
BRANCH  12  14
HETATM   14  C8  UNL     1      -5.085 -34.845  -5.980  1.00  0.00     0.167 C 
BRANCH  14  15
HETATM   15  C9  UNL     1      -4.940 -33.363  -5.624  1.00  0.00     0.091 C 
BRANCH  15  16
HETATM   16  N2  UNL     1      -5.275 -33.002  -4.327  1.00  0.00    -0.319 N 
ATOM     17  H2  UNL     1      -5.750 -32.117  -4.150  1.00  0.00     0.176 HD
BRANCH  16  18
HETATM   18  C10 UNL     1      -4.989 -33.771  -3.366  1.00  0.00     0.073 C 
BRANCH  18  19
HETATM   19  N3  UNL     1      -4.566 -34.232  -2.210  1.00  0.00    -0.206 N 
ATOM     20  H3  UNL     1      -3.815 -33.815  -1.659  1.00  0.00     0.206 HD
BRANCH  19  21
HETATM   21  O4  UNL     1      -5.286 -35.376  -1.837  1.00  0.00    -0.196 OA
BRANCH  21  22
HETATM   22  C11 UNL     1      -5.732 -35.360  -0.492  1.00  0.00     0.250 C 
HETATM   23  N4  UNL     1      -5.784 -34.312   0.231  1.00  0.00    -0.366 N 
ATOM     24  H42 UNL     1      -5.469 -33.454  -0.223  1.00  0.00     0.159 HD
ATOM     25  H41 UNL     1      -6.106 -34.300   1.199  1.00  0.00     0.159 HD
HETATM   26  N5  UNL     1      -6.176 -36.567   0.146  1.00  0.00    -0.055 NA
ENDBRANCH  21  22
ENDBRANCH  19  21
ENDBRANCH  18  19
ENDBRANCH  16  18
ENDBRANCH  15  16
ENDBRANCH  14  15
ENDBRANCH  12  14
ENDBRANCH   4  10
BRANCH   8  27
HETATM   27  O5  UNL     1       0.611 -36.948  -7.146  1.00  0.00    -0.349 OA
ATOM     28  H5  UNL     1       1.350 -37.158  -6.587  1.00  0.00     0.214 HD
ENDBRANCH   8  27
BRANCH   1  29
HETATM   29  C3  UNL     1       0.489 -36.690 -10.896  1.00  0.00     0.209 C 
HETATM   30  O1  UNL     1       1.824 -36.476 -10.781  1.00  0.00    -0.360 OA
HETATM   31  C2  UNL     1       2.482 -36.605 -12.020  1.00  0.00     0.214 C 
HETATM   32  C15 UNL     1       1.658 -36.217 -13.193  1.00  0.00     0.188 C 
HETATM   33  C14 UNL     1       0.687 -35.135 -12.786  1.00  0.00     0.181 C 
HETATM   34  C13 UNL     1      -0.268 -35.785 -11.817  1.00  0.00     0.183 C 
BRANCH  31  35
HETATM   35  S1  UNL     1       3.137 -38.288 -12.220  1.00  0.00    -0.139 SA
HETATM   36  C1  UNL     1       3.313 -39.129 -10.628  1.00  0.00     0.092 C 
ENDBRANCH  31  35
BRANCH  32  37
HETATM   37  O9  UNL     1       2.468 -35.808 -14.246  1.00  0.00    -0.389 OA
ATOM     38  H9  UNL     1       1.942 -35.585 -15.005  1.00  0.00     0.210 HD
ENDBRANCH  32  37
BRANCH  33  39
HETATM   39  O8  UNL     1       1.374 -34.145 -12.115  1.00  0.00    -0.390 OA
ATOM     40  H8  UNL     1       2.203 -34.506 -11.821  1.00  0.00     0.210 HD
ENDBRANCH  33  39
BRANCH  34  41
HETATM   41  O7  UNL     1      -1.278 -36.500 -12.486  1.00  0.00    -0.390 OA
ATOM     42  H7  UNL     1      -2.135 -36.169 -12.243  1.00  0.00     0.210 HD
ENDBRANCH  34  41
ENDBRANCH   1  29
TORSDOF 14
ENDMDL
MODEL 3
REMARK VINA RESULT: -7.341358335      5.476      9.652
REMARK  14 active torsions:
REMARK  status: ('A' for Active; 'I' for Inactive)
REMARK    1  A    between atoms: S1_2  and  C2_3 
REMARK    2  A    between atoms: C3_5  and  C4_6 
REMARK    3  A    between atoms: C6_9  and  C7_10 
REMARK       I    between atoms: C7_10  and  N1_12 
REMARK    4  A    between atoms: N1_12  and  C8_14 
REMARK    5  A    between atoms: C8_14  and  C9_15 
REMARK    6  A    between atoms: C9_15  and  N2_16 
REMARK    7  A    between atoms: N2_16  and  C10_18 
REMARK    8  A    between atoms: C10_18  and  N3_19 
REMARK    9  A    between atoms: N3_19  and  O4_21 
REMARK   10  A    between atoms: O4_21  and  C11_22 
REMARK   11  A    between atoms: C12_30  and  O5_31 
REMARK   12  A    between atoms: C13_34  and  O7_35 
REMARK   13  A    between atoms: C14_37  and  O8_38 
REMARK   14  A    between atoms: C15_40  and  O9_41 
ROOT
HETATM    1  C4  UNL     1      -0.429 -35.287 -11.059  1.00  0.00     0.296 C 
HETATM    2  O2  UNL     1       0.475 -35.255 -10.065  1.00  0.00    -0.356 OA
HETATM    3  C5  UNL     1       0.074 -35.543  -8.776  1.00  0.00     0.214 C 
HETATM    4  C6  UNL     1      -1.278 -35.052  -8.441  1.00  0.00     0.306 C 
HETATM    5  N6  UNL     1      -2.217 -36.124  -8.870  1.00  0.00    -0.010 N 
ATOM      6  H61 UNL     1      -3.041 -36.220  -8.276  1.00  0.00     0.284 HD
ATOM      7  H62 UNL     1      -1.864 -37.071  -8.726  1.00  0.00     0.284 HD
HETATM    8  C12 UNL     1      -2.512 -35.807 -10.241  1.00  0.00     0.470 C 
HETATM    9  O6  UNL     1      -1.427 -36.268 -11.001  1.00  0.00    -0.306 OA
ENDROOT
BRANCH   4  10
HETATM   10  C7  UNL     1      -1.620 -35.056  -6.933  1.00  0.00     0.251 C 
HETATM   11  O3  UNL     1      -0.759 -35.040  -6.099  1.00  0.00    -0.271 OA
HETATM   12  N1  UNL     1      -3.010 -35.116  -6.774  1.00  0.00    -0.354 N 
ATOM     13  H1  UNL     1      -3.515 -35.084  -7.660  1.00  0.00     0.162 HD
BRANCH  12  14
HETATM   14  C8  UNL     1      -3.871 -35.214  -5.645  1.00  0.00     0.167 C 
BRANCH  14  15
HETATM   15  C9  UNL     1      -4.604 -33.870  -5.601  1.00  0.00     0.091 C 
BRANCH  15  16
HETATM   16  N2  UNL     1      -5.336 -33.602  -4.454  1.00  0.00    -0.319 N 
ATOM     17  H2  UNL     1      -6.307 -33.296  -4.527  1.00  0.00     0.176 HD
BRANCH  16  18
HETATM   18  C10 UNL     1      -4.800 -33.736  -3.318  1.00  0.00     0.073 C 
BRANCH  18  19
HETATM   19  N3  UNL     1      -4.472 -34.194  -2.130  1.00  0.00    -0.206 N 
ATOM     20  H3  UNL     1      -3.754 -33.789  -1.530  1.00  0.00     0.206 HD
BRANCH  19  21
HETATM   21  O4  UNL     1      -5.245 -35.317  -1.799  1.00  0.00    -0.196 OA
BRANCH  21  22
HETATM   22  C11 UNL     1      -5.688 -35.332  -0.453  1.00  0.00     0.250 C 
HETATM   23  N4  UNL     1      -5.704 -34.310   0.305  1.00  0.00    -0.366 N 
ATOM     24  H42 UNL     1      -5.361 -33.447  -0.119  1.00  0.00     0.159 HD
ATOM     25  H41 UNL     1      -6.023 -34.321   1.274  1.00  0.00     0.159 HD
HETATM   26  N5  UNL     1      -6.170 -36.546   0.144  1.00  0.00    -0.055 NA
ENDBRANCH  21  22
ENDBRANCH  19  21
ENDBRANCH  18  19
ENDBRANCH  16  18
ENDBRANCH  15  16
ENDBRANCH  14  15
ENDBRANCH  12  14
ENDBRANCH   4  10
BRANCH   8  27
HETATM   27  O5  UNL     1      -2.717 -34.436 -10.397  1.00  0.00    -0.349 OA
ATOM     28  H5  UNL     1      -3.540 -34.267 -10.841  1.00  0.00     0.214 HD
ENDBRANCH   8  27
BRANCH   1  29
HETATM   29  C3  UNL     1       0.249 -35.550 -12.422  1.00  0.00     0.209 C 
HETATM   30  O1  UNL     1      -0.326 -36.647 -12.978  1.00  0.00    -0.360 OA
HETATM   31  C2  UNL     1       0.274 -36.984 -14.207  1.00  0.00     0.214 C 
HETATM   32  C15 UNL     1       1.717 -36.646 -14.296  1.00  0.00     0.188 C 
HETATM   33  C14 UNL     1       2.338 -36.739 -12.923  1.00  0.00     0.181 C 
HETATM   34  C13 UNL     1       1.712 -35.632 -12.114  1.00  0.00     0.183 C 
BRANCH  31  35
HETATM   35  S1  UNL     1      -0.647 -36.248 -15.589  1.00  0.00    -0.139 SA
HETATM   36  C1  UNL     1      -1.102 -37.489 -16.824  1.00  0.00     0.092 C 
ENDBRANCH  31  35
BRANCH  32  37
HETATM   37  O9  UNL     1       2.360 -37.478 -15.206  1.00  0.00    -0.389 OA
ATOM     38  H9  UNL     1       3.186 -37.097 -15.481  1.00  0.00     0.210 HD
ENDBRANCH  32  37
BRANCH  33  39
HETATM   39  O8  UNL     1       1.984 -37.944 -12.352  1.00  0.00    -0.390 OA
ATOM     40  H8  UNL     1       2.121 -38.629 -12.996  1.00  0.00     0.210 HD
ENDBRANCH  33  39
BRANCH  34  41
HETATM   41  O7  UNL     1       2.334 -34.395 -12.358  1.00  0.00    -0.390 OA
ATOM     42  H7  UNL     1       3.274 -34.468 -12.241  1.00  0.00     0.210 HD
ENDBRANCH  34  41
ENDBRANCH   1  29
TORSDOF 14
ENDMDL
MODEL 4
REMARK VINA RESULT: -7.321214364      4.758      8.441
REMARK  14 active torsions:
REMARK  status: ('A' for Active; 'I' for Inactive)
REMARK    1  A    between atoms: S1_2  and  C2_3 
REMARK    2  A    between atoms: C3_5  and  C4_6 
REMARK    3  A    between atoms: C6_9  and  C7_10 
REMARK       I    between atoms: C7_10  and  N1_12 
REMARK    4  A    between atoms: N1_12  and  C8_14 
REMARK    5  A    between atoms: C8_14  and  C9_15 
REMARK    6  A    between atoms: C9_15  and  N2_16 
REMARK    7  A    between atoms: N2_16  and  C10_18 
REMARK    8  A    between atoms: C10_18  and  N3_19 
REMARK    9  A    between atoms: N3_19  and  O4_21 
REMARK   10  A    between atoms: O4_21  and  C11_22 
REMARK   11  A    between atoms: C12_30  and  O5_31 
REMARK   12  A    between atoms: C13_34  and  O7_35 
REMARK   13  A    between atoms: C14_37  and  O8_38 
REMARK   14  A    between atoms: C15_40  and  O9_41 
ROOT
HETATM    1  C4  UNL     1      -0.173 -36.445  -9.545  1.00  0.00     0.296 C 
HETATM    2  O2  UNL     1      -1.488 -36.192  -9.668  1.00  0.00    -0.356 OA
HETATM    3  C5  UNL     1      -2.124 -35.438  -8.703  1.00  0.00     0.214 C 
HETATM    4  C6  UNL     1      -1.632 -35.674  -7.331  1.00  0.00     0.306 C 
HETATM    5  N6  UNL     1      -0.477 -34.754  -7.150  1.00  0.00    -0.010 N 
ATOM      6  H61 UNL     1      -0.375 -34.392  -6.201  1.00  0.00     0.284 HD
ATOM      7  H62 UNL     1      -0.588 -33.848  -7.604  1.00  0.00     0.284 HD
HETATM    8  C12 UNL     1       0.653 -35.512  -7.615  1.00  0.00     0.470 C 
HETATM    9  O6  UNL     1       0.638 -35.434  -9.016  1.00  0.00    -0.306 OA
ENDROOT
BRANCH   4  10
HETATM   10  C7  UNL     1      -2.534 -35.112  -6.207  1.00  0.00     0.251 C 
HETATM   11  O3  UNL     1      -2.205 -35.174  -5.055  1.00  0.00    -0.271 OA
HETATM   12  N1  UNL     1      -3.712 -34.606  -6.769  1.00  0.00    -0.354 N 
ATOM     13  H1  UNL     1      -3.719 -34.648  -7.788  1.00  0.00     0.162 HD
BRANCH  12  14
HETATM   14  C8  UNL     1      -4.903 -34.045  -6.226  1.00  0.00     0.167 C 
BRANCH  14  15
HETATM   15  C9  UNL     1      -5.640 -33.461  -7.435  1.00  0.00     0.091 C 
BRANCH  15  16
HETATM   16  N2  UNL     1      -5.780 -32.081  -7.466  1.00  0.00    -0.319 N 
ATOM     17  H2  UNL     1      -6.371 -31.612  -6.779  1.00  0.00     0.176 HD
BRANCH  16  18
HETATM   18  C10 UNL     1      -5.176 -31.406  -8.346  1.00  0.00     0.073 C 
BRANCH  18  19
HETATM   19  N3  UNL     1      -4.597 -30.419  -8.995  1.00  0.00    -0.206 N 
ATOM     20  H3  UNL     1      -4.032 -30.531  -9.837  1.00  0.00     0.206 HD
BRANCH  19  21
HETATM   21  O4  UNL     1      -4.861 -29.191  -8.372  1.00  0.00    -0.196 OA
BRANCH  21  22
HETATM   22  C11 UNL     1      -5.524 -28.256  -9.205  1.00  0.00     0.250 C 
HETATM   23  N4  UNL     1      -4.970 -27.649 -10.178  1.00  0.00    -0.366 N 
ATOM     24  H42 UNL     1      -3.986 -27.874 -10.329  1.00  0.00     0.159 HD
ATOM     25  H41 UNL     1      -5.446 -26.976 -10.778  1.00  0.00     0.159 HD
HETATM   26  N5  UNL     1      -6.908 -27.939  -8.993  1.00  0.00    -0.055 NA
ENDBRANCH  21  22
ENDBRANCH  19  21
ENDBRANCH  18  19
ENDBRANCH  16  18
ENDBRANCH  15  16
ENDBRANCH  14  15
ENDBRANCH  12  14
ENDBRANCH   4  10
BRANCH   8  27
HETATM   27  O5  UNL     1       0.584 -36.830  -7.163  1.00  0.00    -0.349 OA
ATOM     28  H5  UNL     1       1.252 -37.364  -7.578  1.00  0.00     0.214 HD
ENDBRANCH   8  27
BRANCH   1  29
HETATM   29  C3  UNL     1       0.470 -36.733 -10.920  1.00  0.00     0.209 C 
HETATM   30  O1  UNL     1       1.807 -36.528 -10.816  1.00  0.00    -0.360 OA
HETATM   31  C2  UNL     1       2.463 -36.722 -12.048  1.00  0.00     0.214 C 
HETATM   32  C15 UNL     1       1.643 -36.380 -13.237  1.00  0.00     0.188 C 
HETATM   33  C14 UNL     1       0.683 -35.271 -12.882  1.00  0.00     0.181 C 
HETATM   34  C13 UNL     1      -0.278 -35.864 -11.883  1.00  0.00     0.183 C 
BRANCH  31  35
HETATM   35  S1  UNL     1       3.100 -38.419 -12.169  1.00  0.00    -0.139 SA
HETATM   36  C1  UNL     1       3.302 -39.174 -10.537  1.00  0.00     0.092 C 
ENDBRANCH  31  35
BRANCH  32  37
HETATM   37  O9  UNL     1       2.457 -36.029 -14.309  1.00  0.00    -0.389 OA
ATOM     38  H9  UNL     1       2.347 -36.642 -15.026  1.00  0.00     0.210 HD
ENDBRANCH  32  37
BRANCH  33  39
HETATM   39  O8  UNL     1       1.381 -34.258 -12.257  1.00  0.00    -0.390 OA
ATOM     40  H8  UNL     1       0.804 -33.509 -12.170  1.00  0.00     0.210 HD
ENDBRANCH  33  39
BRANCH  34  41
HETATM   41  O7  UNL     1      -1.296 -36.599 -12.518  1.00  0.00    -0.390 OA
ATOM     42  H7  UNL     1      -1.150 -36.625 -13.456  1.00  0.00     0.210 HD
ENDBRANCH  34  41
ENDBRANCH   1  29
TORSDOF 14
ENDMDL
MODEL 5
REMARK VINA RESULT: -7.134539201      4.420      8.367
REMARK  14 active torsions:
REMARK  status: ('A' for Active; 'I' for Inactive)
REMARK    1  A    between atoms: S1_2  and  C2_3 
REMARK    2  A    between atoms: C3_5  and  C4_6 
REMARK    3  A    between atoms: C6_9  and  C7_10 
REMARK       I    between atoms: C7_10  and  N1_12 
REMARK    4  A    between atoms: N1_12  and  C8_14 
REMARK    5  A    between atoms: C8_14  and  C9_15 
REMARK    6  A    between atoms: C9_15  and  N2_16 
REMARK    7  A    between atoms: N2_16  and  C10_18 
REMARK    8  A    between atoms: C10_18  and  N3_19 
REMARK    9  A    between atoms: N3_19  and  O4_21 
REMARK   10  A    between atoms: O4_21  and  C11_22 
REMARK   11  A    between atoms: C12_30  and  O5_31 
REMARK   12  A    between atoms: C13_34  and  O7_35 
REMARK   13  A    between atoms: C14_37  and  O8_38 
REMARK   14  A    between atoms: C15_40  and  O9_41 
ROOT
HETATM    1  C4  UNL     1      -0.420 -35.248 -11.062  1.00  0.00     0.296 C 
HETATM    2  O2  UNL     1       0.451 -35.139 -10.045  1.00  0.00    -0.356 OA
HETATM    3  C5  UNL     1       0.018 -35.375  -8.755  1.00  0.00     0.214 C 
HETATM    4  C6  UNL     1      -1.358 -34.910  -8.487  1.00  0.00     0.306 C 
HETATM    5  N6  UNL     1      -2.250 -36.031  -8.889  1.00  0.00    -0.010 N 
ATOM      6  H61 UNL     1      -3.090 -36.123  -8.316  1.00  0.00     0.284 HD
ATOM      7  H62 UNL     1      -1.875 -36.958  -8.687  1.00  0.00     0.284 HD
HETATM    8  C12 UNL     1      -2.511 -35.792 -10.282  1.00  0.00     0.470 C 
HETATM    9  O6  UNL     1      -1.389 -36.255 -10.985  1.00  0.00    -0.306 OA
ENDROOT
BRANCH   4  10
HETATM   10  C7  UNL     1      -1.747 -34.849  -6.992  1.00  0.00     0.251 C 
HETATM   11  O3  UNL     1      -0.972 -35.164  -6.133  1.00  0.00    -0.271 OA
HETATM   12  N1  UNL     1      -3.078 -34.430  -6.877  1.00  0.00    -0.354 N 
ATOM     13  H1  UNL     1      -3.501 -34.192  -7.775  1.00  0.00     0.162 HD
BRANCH  12  14
HETATM   14  C8  UNL     1      -3.970 -34.263  -5.780  1.00  0.00     0.167 C 
BRANCH  14  15
HETATM   15  C9  UNL     1      -5.162 -33.501  -6.364  1.00  0.00     0.091 C 
BRANCH  15  16
HETATM   16  N2  UNL     1      -5.074 -33.145  -7.702  1.00  0.00    -0.319 N 
ATOM     17  H2  UNL     1      -4.836 -33.848  -8.402  1.00  0.00     0.176 HD
BRANCH  16  18
HETATM   18  C10 UNL     1      -5.289 -31.951  -8.052  1.00  0.00     0.073 C 
BRANCH  18  19
HETATM   19  N3  UNL     1      -5.734 -30.888  -8.687  1.00  0.00    -0.206 N 
ATOM     20  H3  UNL     1      -6.276 -30.914  -9.551  1.00  0.00     0.206 HD
BRANCH  19  21
HETATM   21  O4  UNL     1      -5.364 -29.715  -8.015  1.00  0.00    -0.196 OA
BRANCH  21  22
HETATM   22  C11 UNL     1      -5.402 -28.553  -8.825  1.00  0.00     0.250 C 
HETATM   23  N4  UNL     1      -4.371 -28.002  -9.331  1.00  0.00    -0.366 N 
ATOM     24  H42 UNL     1      -3.483 -28.452  -9.110  1.00  0.00     0.159 HD
ATOM     25  H41 UNL     1      -4.399 -27.165  -9.914  1.00  0.00     0.159 HD
HETATM   26  N5  UNL     1      -6.652 -27.919  -9.137  1.00  0.00    -0.055 NA
ENDBRANCH  21  22
ENDBRANCH  19  21
ENDBRANCH  18  19
ENDBRANCH  16  18
ENDBRANCH  15  16
ENDBRANCH  14  15
ENDBRANCH  12  14
ENDBRANCH   4  10
BRANCH   8  27
HETATM   27  O5  UNL     1      -2.752 -34.437 -10.514  1.00  0.00    -0.349 OA
ATOM     28  H5  UNL     1      -2.961 -34.284 -11.428  1.00  0.00     0.214 HD
ENDBRANCH   8  27
BRANCH   1  29
HETATM   29  C3  UNL     1       0.309 -35.557 -12.389  1.00  0.00     0.209 C 
HETATM   30  O1  UNL     1      -0.272 -36.649 -12.949  1.00  0.00    -0.360 OA
HETATM   31  C2  UNL     1       0.371 -37.028 -14.144  1.00  0.00     0.214 C 
HETATM   32  C15 UNL     1       1.825 -36.730 -14.176  1.00  0.00     0.188 C 
HETATM   33  C14 UNL     1       2.384 -36.811 -12.776  1.00  0.00     0.181 C 
HETATM   34  C13 UNL     1       1.754 -35.671 -12.016  1.00  0.00     0.183 C 
BRANCH  31  35
HETATM   35  S1  UNL     1      -0.469 -36.296 -15.578  1.00  0.00    -0.139 SA
HETATM   36  C1  UNL     1      -0.977 -37.559 -16.769  1.00  0.00     0.092 C 
ENDBRANCH  31  35
BRANCH  32  37
HETATM   37  O9  UNL     1       2.484 -37.597 -15.041  1.00  0.00    -0.389 OA
ATOM     38  H9  UNL     1       2.926 -37.112 -15.727  1.00  0.00     0.210 HD
ENDBRANCH  32  37
BRANCH  33  39
HETATM   39  O8  UNL     1       1.973 -37.994 -12.197  1.00  0.00    -0.390 OA
ATOM     40  H8  UNL     1       1.603 -38.544 -12.878  1.00  0.00     0.210 HD
ENDBRANCH  33  39
BRANCH  34  41
HETATM   41  O7  UNL     1       2.420 -34.456 -12.258  1.00  0.00    -0.390 OA
ATOM     42  H7  UNL     1       2.280 -33.853 -11.537  1.00  0.00     0.210 HD
ENDBRANCH  34  41
ENDBRANCH   1  29
TORSDOF 14
ENDMDL
