MODEL 1
REMARK VINA RESULT: -7.111945538      0.000      0.000
REMARK  14 active torsions:
REMARK  status: ('A' for Active; 'I' for Inactive)
REMARK    1  A    between atoms: N1_1  and  C1_5 
REMARK    2  A    between atoms: C1_5  and  C2_6 
REMARK    3  A    between atoms: C5_9  and  N2_10 
REMARK    4  A    between atoms: C6_14  and  O1_15 
REMARK    5  A    between atoms: O1_15  and  C7_16 
REMARK    6  A    between atoms: C8_18  and  O3_19 
REMARK    7  A    between atoms: O3_19  and  C9_20 
REMARK    8  A    between atoms: C10_22  and  C11_23 
REMARK    9  A    between atoms: N4_25  and  O5_27 
REMARK   10  A    between atoms: C12_29  and  C13_30 
REMARK   11  A    between atoms: C13_30  and  O6_31 
REMARK   12  A    between atoms: C14_33  and  O7_34 
REMARK   13  A    between atoms: C15_36  and  N5_37 
REMARK   14  A    between atoms: C17_42  and  N6_43 
ROOT
HETATM    1  C7  UNL     1      -3.933 -31.596  -8.885  1.00  0.00     0.296 C 
HETATM    2  O2  UNL     1      -3.472 -32.186 -10.052  1.00  0.00    -0.327 OA
HETATM    3  C8  UNL     1      -2.726 -31.312 -10.838  1.00  0.00     0.296 C 
HETATM    4  C15 UNL     1      -3.647 -30.228 -11.375  1.00  0.00     0.240 C 
HETATM    5  C16 UNL     1      -4.520 -29.628 -10.329  1.00  0.00     0.075 C 
HETATM    6  C17 UNL     1      -5.006 -30.593  -9.294  1.00  0.00     0.240 C 
ENDROOT
BRANCH   3   7
HETATM    7  O3  UNL     1      -2.323 -32.058 -11.966  1.00  0.00    -0.327 OA
BRANCH   7   8
HETATM    8  C9  UNL     1      -1.936 -33.342 -11.614  1.00  0.00     0.293 C 
HETATM    9  O4  UNL     1      -0.625 -33.611 -12.074  1.00  0.00    -0.345 OA
HETATM   10  C10 UNL     1      -0.526 -34.994 -11.879  1.00  0.00     0.199 C 
HETATM   11  C12 UNL     1      -1.787 -35.577 -12.393  1.00  0.00     0.079 C 
HETATM   12  C14 UNL     1      -2.743 -34.379 -12.331  1.00  0.00     0.182 C 
BRANCH  10  13
HETATM   13  C11 UNL     1       0.719 -35.593 -12.311  1.00  0.00     0.142 C 
HETATM   14  N3  UNL     1       1.111 -36.930 -12.043  1.00  0.00    -0.083 NA
HETATM   15  N4  UNL     1       1.580 -34.885 -13.003  1.00  0.00    -0.257 N 
ATOM     16  H4  UNL     1       1.357 -33.915 -13.228  1.00  0.00     0.195 HD
BRANCH  15  17
HETATM   17  O5  UNL     1       2.766 -35.409 -13.430  1.00  0.00    -0.289 OA
ATOM     18  H5  UNL     1       2.810 -36.033 -14.145  1.00  0.00     0.244 HD
ENDBRANCH  15  17
ENDBRANCH  10  13
BRANCH  11  19
HETATM   19  C13 UNL     1      -1.739 -36.117 -13.804  1.00  0.00     0.174 C 
BRANCH  19  20
HETATM   20  O6  UNL     1      -1.610 -37.486 -13.823  1.00  0.00    -0.400 OA
ATOM     21  H6  UNL     1      -1.074 -37.800 -13.104  1.00  0.00     0.209 HD
ENDBRANCH  19  20
ENDBRANCH  11  19
BRANCH  12  22
HETATM   22  O7  UNL     1      -3.921 -34.702 -11.663  1.00  0.00    -0.390 OA
ATOM     23  H7  UNL     1      -4.512 -35.225 -12.191  1.00  0.00     0.210 HD
ENDBRANCH  12  22
ENDBRANCH   7   8
ENDBRANCH   3   7
BRANCH   4  24
HETATM   24  N5  UNL     1      -4.450 -30.840 -12.415  1.00  0.00    -0.070 N 
ATOM     25  H53 UNL     1      -3.894 -31.301 -13.136  1.00  0.00     0.274 HD
ATOM     26  H52 UNL     1      -4.958 -31.665 -12.097  1.00  0.00     0.274 HD
ATOM     27  H51 UNL     1      -5.060 -30.109 -12.783  1.00  0.00     0.274 HD
ENDBRANCH   4  24
BRANCH   1  28
HETATM   28  O1  UNL     1      -4.508 -32.583  -8.118  1.00  0.00    -0.327 OA
BRANCH  28  29
HETATM   29  C6  UNL     1      -3.846 -33.794  -8.158  1.00  0.00     0.293 C 
HETATM   30  C5  UNL     1      -4.802 -34.979  -8.205  1.00  0.00     0.238 C 
HETATM   31  C4  UNL     1      -3.938 -36.208  -8.453  1.00  0.00     0.040 C 
HETATM   32  C3  UNL     1      -2.489 -35.926  -8.142  1.00  0.00     0.036 C 
HETATM   33  C2  UNL     1      -2.313 -35.032  -6.940  1.00  0.00     0.150 C 
HETATM   34  O8  UNL     1      -3.129 -33.921  -6.965  1.00  0.00    -0.352 OA
BRANCH  30  35
HETATM   35  N2  UNL     1      -5.806 -34.820  -9.238  1.00  0.00    -0.070 N 
ATOM     36  H23 UNL     1      -5.578 -35.368 -10.068  1.00  0.00     0.274 HD
ATOM     37  H22 UNL     1      -6.681 -35.277  -8.982  1.00  0.00     0.274 HD
ATOM     38  H21 UNL     1      -5.952 -33.837  -9.469  1.00  0.00     0.274 HD
ENDBRANCH  30  35
BRANCH  33  39
HETATM   39  C1  UNL     1      -2.514 -35.882  -5.707  1.00  0.00     0.261 C 
BRANCH  39  40
HETATM   40  N1  UNL     1      -3.510 -35.341  -4.819  1.00  0.00    -0.077 N 
ATOM     41  H13 UNL     1      -3.505 -34.321  -4.841  1.00  0.00     0.274 HD
ATOM     42  H12 UNL     1      -4.451 -35.508  -5.178  1.00  0.00     0.274 HD
ATOM     43  H11 UNL     1      -3.413 -35.688  -3.865  1.00  0.00     0.274 HD
ENDBRANCH  39  40
ENDBRANCH  33  39
ENDBRANCH  28  29
ENDBRANCH   1  28
BRANCH   6  44
HETATM   44  N6  UNL     1      -6.153 -31.356  -9.712  1.00  0.00    -0.070 N 
ATOM     45  H63 UNL     1      -6.242 -31.427 -10.725  1.00  0.00     0.274 HD
ATOM     46  H62 UNL     1      -6.063 -32.354  -9.520  1.00  0.00     0.274 HD
ATOM     47  H61 UNL     1      -6.967 -30.933  -9.267  1.00  0.00     0.274 HD
ENDBRANCH   6  44
TORSDOF 14
ENDMDL
MODEL 2
REMARK VINA RESULT: -7.014145566      2.658      5.341
REMARK  14 active torsions:
REMARK  status: ('A' for Active; 'I' for Inactive)
REMARK    1  A    between atoms: N1_1  and  C1_5 
REMARK    2  A    between atoms: C1_5  and  C2_6 
REMARK    3  A    between atoms: C5_9  and  N2_10 
REMARK    4  A    between atoms: C6_14  and  O1_15 
REMARK    5  A    between atoms: O1_15  and  C7_16 
REMARK    6  A    between atoms: C8_18  and  O3_19 
REMARK    7  A    between atoms: O3_19  and  C9_20 
REMARK    8  A    between atoms: C10_22  and  C11_23 
REMARK    9  A    between atoms: N4_25  and  O5_27 
REMARK   10  A    between atoms: C12_29  and  C13_30 
REMARK   11  A    between atoms: C13_30  and  O6_31 
REMARK   12  A    between atoms: C14_33  and  O7_34 
REMARK   13  A    between atoms: C15_36  and  N5_37 
REMARK   14  A    between atoms: C17_42  and  N6_43 
ROOT
HETATM    1  C7  UNL     1      -1.284 -35.005  -9.075  1.00  0.00     0.296 C 
HETATM    2  O2  UNL     1      -0.363 -35.208 -10.092  1.00  0.00    -0.327 OA
HETATM    3  C8  UNL     1       0.108 -36.517 -10.138  1.00  0.00     0.296 C 
HETATM    4  C15 UNL     1       0.946 -36.782  -8.896  1.00  0.00     0.240 C 
HETATM    5  C16 UNL     1       0.286 -36.337  -7.638  1.00  0.00     0.075 C 
HETATM    6  C17 UNL     1      -0.511 -35.077  -7.762  1.00  0.00     0.240 C 
ENDROOT
BRANCH   3   7
HETATM    7  O3  UNL     1       1.013 -36.564 -11.220  1.00  0.00    -0.327 OA
BRANCH   7   8
HETATM    8  C9  UNL     1       0.473 -35.983 -12.357  1.00  0.00     0.293 C 
HETATM    9  O4  UNL     1      -0.543 -36.804 -12.902  1.00  0.00    -0.345 OA
HETATM   10  C10 UNL     1      -0.759 -36.210 -14.152  1.00  0.00     0.199 C 
HETATM   11  C12 UNL     1       0.581 -35.954 -14.727  1.00  0.00     0.079 C 
HETATM   12  C14 UNL     1       1.467 -35.926 -13.475  1.00  0.00     0.182 C 
BRANCH  10  13
HETATM   13  C11 UNL     1      -1.738 -36.870 -14.990  1.00  0.00     0.142 C 
HETATM   14  N3  UNL     1      -2.346 -36.292 -16.133  1.00  0.00    -0.083 NA
HETATM   15  N4  UNL     1      -2.121 -38.093 -14.709  1.00  0.00    -0.257 N 
ATOM     16  H4  UNL     1      -1.720 -38.564 -13.898  1.00  0.00     0.195 HD
BRANCH  15  17
HETATM   17  O5  UNL     1      -3.041 -38.753 -15.472  1.00  0.00    -0.289 OA
ATOM     18  H5  UNL     1      -3.175 -39.691 -15.396  1.00  0.00     0.244 HD
ENDBRANCH  15  17
ENDBRANCH  10  13
BRANCH  11  19
HETATM   19  C13 UNL     1       1.097 -36.996 -15.692  1.00  0.00     0.174 C 
BRANCH  19  20
HETATM   20  O6  UNL     1       2.471 -37.000 -15.754  1.00  0.00    -0.400 OA
ATOM     21  H6  UNL     1       2.784 -36.883 -16.643  1.00  0.00     0.209 HD
ENDBRANCH  19  20
ENDBRANCH  11  19
BRANCH  12  22
HETATM   22  O7  UNL     1       2.257 -34.780 -13.435  1.00  0.00    -0.390 OA
ATOM     23  H7  UNL     1       2.653 -34.577 -14.274  1.00  0.00     0.210 HD
ENDBRANCH  12  22
ENDBRANCH   7   8
ENDBRANCH   3   7
BRANCH   4  24
HETATM   24  N5  UNL     1       2.201 -36.081  -9.083  1.00  0.00    -0.070 N 
ATOM     25  H53 UNL     1       2.935 -36.668  -9.481  1.00  0.00     0.274 HD
ATOM     26  H52 UNL     1       2.169 -35.391  -9.834  1.00  0.00     0.274 HD
ATOM     27  H51 UNL     1       2.452 -35.681  -8.179  1.00  0.00     0.274 HD
ENDBRANCH   4  24
BRANCH   1  28
HETATM   28  O1  UNL     1      -1.798 -33.739  -9.226  1.00  0.00    -0.327 OA
BRANCH  28  29
HETATM   29  C6  UNL     1      -3.040 -33.695  -9.827  1.00  0.00     0.293 C 
HETATM   30  C5  UNL     1      -3.024 -32.928 -11.143  1.00  0.00     0.238 C 
HETATM   31  C4  UNL     1      -4.393 -33.145 -11.774  1.00  0.00     0.040 C 
HETATM   32  C3  UNL     1      -5.390 -33.636 -10.755  1.00  0.00     0.036 C 
HETATM   33  C2  UNL     1      -5.207 -32.995  -9.402  1.00  0.00     0.150 C 
HETATM   34  O8  UNL     1      -3.895 -32.991  -8.976  1.00  0.00    -0.352 OA
BRANCH  30  35
HETATM   35  N2  UNL     1      -1.960 -33.378 -12.017  1.00  0.00    -0.070 N 
ATOM     36  H23 UNL     1      -1.043 -33.244 -11.589  1.00  0.00     0.274 HD
ATOM     37  H22 UNL     1      -1.949 -34.395 -12.098  1.00  0.00     0.274 HD
ATOM     38  H21 UNL     1      -2.014 -32.932 -12.932  1.00  0.00     0.274 HD
ENDBRANCH  30  35
BRANCH  33  39
HETATM   39  C1  UNL     1      -5.809 -31.611  -9.468  1.00  0.00     0.261 C 
BRANCH  39  40
HETATM   40  N1  UNL     1      -5.653 -30.882  -8.236  1.00  0.00    -0.077 N 
ATOM     41  H13 UNL     1      -5.621 -31.514  -7.437  1.00  0.00     0.274 HD
ATOM     42  H12 UNL     1      -4.717 -30.480  -8.165  1.00  0.00     0.274 HD
ATOM     43  H11 UNL     1      -6.370 -30.167  -8.112  1.00  0.00     0.274 HD
ENDBRANCH  39  40
ENDBRANCH  33  39
ENDBRANCH  28  29
ENDBRANCH   1  28
BRANCH   6  44
HETATM   44  N6  UNL     1       0.286 -33.881  -7.681  1.00  0.00    -0.070 N 
ATOM     45  H63 UNL     1       0.471 -33.458  -8.591  1.00  0.00     0.274 HD
ATOM     46  H62 UNL     1      -0.214 -33.092  -7.272  1.00  0.00     0.274 HD
ATOM     47  H61 UNL     1       1.135 -34.126  -7.173  1.00  0.00     0.274 HD
ENDBRANCH   6  44
TORSDOF 14
ENDMDL
MODEL 3
REMARK VINA RESULT: -7.011994343      2.227      5.134
REMARK  14 active torsions:
REMARK  status: ('A' for Active; 'I' for Inactive)
REMARK    1  A    between atoms: N1_1  and  C1_5 
REMARK    2  A    between atoms: C1_5  and  C2_6 
REMARK    3  A    between atoms: C5_9  and  N2_10 
REMARK    4  A    between atoms: C6_14  and  O1_15 
REMARK    5  A    between atoms: O1_15  and  C7_16 
REMARK    6  A    between atoms: C8_18  and  O3_19 
REMARK    7  A    between atoms: O3_19  and  C9_20 
REMARK    8  A    between atoms: C10_22  and  C11_23 
REMARK    9  A    between atoms: N4_25  and  O5_27 
REMARK   10  A    between atoms: C12_29  and  C13_30 
REMARK   11  A    between atoms: C13_30  and  O6_31 
REMARK   12  A    between atoms: C14_33  and  O7_34 
REMARK   13  A    between atoms: C15_36  and  N5_37 
REMARK   14  A    between atoms: C17_42  and  N6_43 
ROOT
HETATM    1  C7  UNL     1      -3.654 -33.747  -8.969  1.00  0.00     0.296 C 
HETATM    2  O2  UNL     1      -2.463 -34.452  -8.874  1.00  0.00    -0.327 OA
HETATM    3  C8  UNL     1      -2.610 -35.799  -9.195  1.00  0.00     0.296 C 
HETATM    4  C15 UNL     1      -3.459 -36.469  -8.126  1.00  0.00     0.240 C 
HETATM    5  C16 UNL     1      -4.696 -35.708  -7.797  1.00  0.00     0.075 C 
HETATM    6  C17 UNL     1      -4.537 -34.220  -7.820  1.00  0.00     0.240 C 
ENDROOT
BRANCH   3   7
HETATM    7  O3  UNL     1      -1.324 -36.368  -9.066  1.00  0.00    -0.327 OA
BRANCH   7   8
HETATM    8  C9  UNL     1      -0.404 -35.731  -9.885  1.00  0.00     0.293 C 
HETATM    9  O4  UNL     1      -0.573 -36.134 -11.230  1.00  0.00    -0.345 OA
HETATM   10  C10 UNL     1       0.583 -35.623 -11.834  1.00  0.00     0.199 C 
HETATM   11  C12 UNL     1       1.709 -35.970 -10.936  1.00  0.00     0.079 C 
HETATM   12  C14 UNL     1       0.996 -36.176  -9.594  1.00  0.00     0.182 C 
BRANCH  10  13
HETATM   13  C11 UNL     1       0.728 -35.921 -13.244  1.00  0.00     0.142 C 
HETATM   14  N3  UNL     1       1.718 -35.360 -14.092  1.00  0.00    -0.083 NA
HETATM   15  N4  UNL     1      -0.093 -36.764 -13.823  1.00  0.00    -0.257 N 
ATOM     16  H4  UNL     1      -0.827 -37.201 -13.266  1.00  0.00     0.195 HD
BRANCH  15  17
HETATM   17  O5  UNL     1       0.007 -37.074 -15.148  1.00  0.00    -0.289 OA
ATOM     18  H5  UNL     1      -0.742 -37.369 -15.652  1.00  0.00     0.244 HD
ENDBRANCH  15  17
ENDBRANCH  10  13
BRANCH  11  19
HETATM   19  C13 UNL     1       2.483 -37.217 -11.298  1.00  0.00     0.174 C 
BRANCH  19  20
HETATM   20  O6  UNL     1       1.831 -38.358 -10.892  1.00  0.00    -0.400 OA
ATOM     21  H6  UNL     1       2.413 -38.952 -10.433  1.00  0.00     0.209 HD
ENDBRANCH  19  20
ENDBRANCH  11  19
BRANCH  12  22
HETATM   22  O7  UNL     1       1.596 -35.435  -8.580  1.00  0.00    -0.390 OA
ATOM     23  H7  UNL     1       1.098 -35.445  -7.771  1.00  0.00     0.210 HD
ENDBRANCH  12  22
ENDBRANCH   7   8
ENDBRANCH   3   7
BRANCH   4  24
HETATM   24  N5  UNL     1      -2.621 -36.604  -6.950  1.00  0.00    -0.070 N 
ATOM     25  H53 UNL     1      -2.570 -37.561  -6.600  1.00  0.00     0.274 HD
ATOM     26  H52 UNL     1      -1.628 -36.487  -7.149  1.00  0.00     0.274 HD
ATOM     27  H51 UNL     1      -2.974 -35.941  -6.260  1.00  0.00     0.274 HD
ENDBRANCH   4  24
BRANCH   1  28
HETATM   28  O1  UNL     1      -3.362 -32.414  -8.795  1.00  0.00    -0.327 OA
BRANCH  28  29
HETATM   29  C6  UNL     1      -4.040 -31.566  -9.647  1.00  0.00     0.293 C 
HETATM   30  C5  UNL     1      -3.122 -30.540 -10.299  1.00  0.00     0.238 C 
HETATM   31  C4  UNL     1      -3.965 -29.828 -11.349  1.00  0.00     0.040 C 
HETATM   32  C3  UNL     1      -5.437 -30.045 -11.103  1.00  0.00     0.036 C 
HETATM   33  C2  UNL     1      -5.790 -30.049  -9.637  1.00  0.00     0.150 C 
HETATM   34  O8  UNL     1      -4.953 -30.838  -8.878  1.00  0.00    -0.352 OA
BRANCH  30  35
HETATM   35  N2  UNL     1      -1.954 -31.161 -10.889  1.00  0.00    -0.070 N 
ATOM     36  H23 UNL     1      -1.353 -31.578 -10.178  1.00  0.00     0.274 HD
ATOM     37  H22 UNL     1      -2.200 -32.007 -11.403  1.00  0.00     0.274 HD
ATOM     38  H21 UNL     1      -1.438 -30.505 -11.476  1.00  0.00     0.274 HD
ENDBRANCH  30  35
BRANCH  33  39
HETATM   39  C1  UNL     1      -5.826 -28.611  -9.173  1.00  0.00     0.261 C 
BRANCH  39  40
HETATM   40  N1  UNL     1      -7.149 -28.184  -8.800  1.00  0.00    -0.077 N 
ATOM     41  H13 UNL     1      -7.851 -28.860  -9.099  1.00  0.00     0.274 HD
ATOM     42  H12 UNL     1      -7.283 -28.244  -7.790  1.00  0.00     0.274 HD
ATOM     43  H11 UNL     1      -7.369 -27.250  -9.145  1.00  0.00     0.274 HD
ENDBRANCH  39  40
ENDBRANCH  33  39
ENDBRANCH  28  29
ENDBRANCH   1  28
BRANCH   6  44
HETATM   44  N6  UNL     1      -3.971 -33.682  -6.610  1.00  0.00    -0.070 N 
ATOM     45  H63 UNL     1      -3.277 -34.295  -6.183  1.00  0.00     0.274 HD
ATOM     46  H62 UNL     1      -3.357 -32.886  -6.774  1.00  0.00     0.274 HD
ATOM     47  H61 UNL     1      -4.751 -33.467  -5.989  1.00  0.00     0.274 HD
ENDBRANCH   6  44
TORSDOF 14
ENDMDL
MODEL 4
REMARK VINA RESULT: -6.972769286      2.626      5.166
REMARK  14 active torsions:
REMARK  status: ('A' for Active; 'I' for Inactive)
REMARK    1  A    between atoms: N1_1  and  C1_5 
REMARK    2  A    between atoms: C1_5  and  C2_6 
REMARK    3  A    between atoms: C5_9  and  N2_10 
REMARK    4  A    between atoms: C6_14  and  O1_15 
REMARK    5  A    between atoms: O1_15  and  C7_16 
REMARK    6  A    between atoms: C8_18  and  O3_19 
REMARK    7  A    between atoms: O3_19  and  C9_20 
REMARK    8  A    between atoms: C10_22  and  C11_23 
REMARK    9  A    between atoms: N4_25  and  O5_27 
REMARK   10  A    between atoms: C12_29  and  C13_30 
REMARK   11  A    between atoms: C13_30  and  O6_31 
REMARK   12  A    between atoms: C14_33  and  O7_34 
REMARK   13  A    between atoms: C15_36  and  N5_37 
REMARK   14  A    between atoms: C17_42  and  N6_43 
ROOT
HETATM    1  C7  UNL     1      -1.225 -34.751  -9.117  1.00  0.00     0.296 C 
HETATM    2  O2  UNL     1      -0.259 -35.045 -10.067  1.00  0.00    -0.327 OA
HETATM    3  C8  UNL     1       0.111 -36.387 -10.060  1.00  0.00     0.296 C 
HETATM    4  C15 UNL     1       0.845 -36.687  -8.762  1.00  0.00     0.240 C 
HETATM    5  C16 UNL     1       0.142 -36.167  -7.557  1.00  0.00     0.075 C 
HETATM    6  C17 UNL     1      -0.546 -34.853  -7.755  1.00  0.00     0.240 C 
ENDROOT
BRANCH   3   7
HETATM    7  O3  UNL     1       1.078 -36.526 -11.079  1.00  0.00    -0.327 OA
BRANCH   7   8
HETATM    8  C9  UNL     1       0.645 -35.959 -12.268  1.00  0.00     0.293 C 
HETATM    9  O4  UNL     1      -0.366 -36.752 -12.859  1.00  0.00    -0.345 OA
HETATM   10  C10 UNL     1      -0.468 -36.190 -14.138  1.00  0.00     0.199 C 
HETATM   11  C12 UNL     1       0.919 -36.011 -14.624  1.00  0.00     0.079 C 
HETATM   12  C14 UNL     1       1.716 -35.982 -13.314  1.00  0.00     0.182 C 
BRANCH  10  13
HETATM   13  C11 UNL     1      -1.416 -36.834 -15.023  1.00  0.00     0.142 C 
HETATM   14  N3  UNL     1      -1.834 -36.316 -16.276  1.00  0.00    -0.083 NA
HETATM   15  N4  UNL     1      -1.954 -37.981 -14.683  1.00  0.00    -0.257 N 
ATOM     16  H4  UNL     1      -1.694 -38.405 -13.793  1.00  0.00     0.195 HD
BRANCH  15  17
HETATM   17  O5  UNL     1      -2.852 -38.623 -15.488  1.00  0.00    -0.289 OA
ATOM     18  H5  UNL     1      -3.305 -39.408 -15.206  1.00  0.00     0.244 HD
ENDBRANCH  15  17
ENDBRANCH  10  13
BRANCH  11  19
HETATM   19  C13 UNL     1       1.452 -37.105 -15.520  1.00  0.00     0.174 C 
BRANCH  19  20
HETATM   20  O6  UNL     1       2.527 -37.750 -14.955  1.00  0.00    -0.400 OA
ATOM     21  H6  UNL     1       3.317 -37.637 -15.470  1.00  0.00     0.209 HD
ENDBRANCH  19  20
ENDBRANCH  11  19
BRANCH  12  22
HETATM   22  O7  UNL     1       2.553 -34.871 -13.252  1.00  0.00    -0.390 OA
ATOM     23  H7  UNL     1       3.409 -35.074 -12.893  1.00  0.00     0.210 HD
ENDBRANCH  12  22
ENDBRANCH   7   8
ENDBRANCH   3   7
BRANCH   4  24
HETATM   24  N5  UNL     1       2.160 -36.088  -8.877  1.00  0.00    -0.070 N 
ATOM     25  H53 UNL     1       2.136 -35.068  -8.916  1.00  0.00     0.274 HD
ATOM     26  H52 UNL     1       2.716 -36.170  -8.026  1.00  0.00     0.274 HD
ATOM     27  H51 UNL     1       2.605 -36.511  -9.692  1.00  0.00     0.274 HD
ENDBRANCH   4  24
BRANCH   1  28
HETATM   28  O1  UNL     1      -1.630 -33.453  -9.323  1.00  0.00    -0.327 OA
BRANCH  28  29
HETATM   29  C6  UNL     1      -2.903 -33.327  -9.840  1.00  0.00     0.293 C 
HETATM   30  C5  UNL     1      -3.749 -32.323  -9.068  1.00  0.00     0.238 C 
HETATM   31  C4  UNL     1      -5.030 -32.145  -9.872  1.00  0.00     0.040 C 
HETATM   32  C3  UNL     1      -5.218 -33.274 -10.853  1.00  0.00     0.036 C 
HETATM   33  C2  UNL     1      -4.778 -34.607 -10.301  1.00  0.00     0.150 C 
HETATM   34  O8  UNL     1      -3.540 -34.563  -9.697  1.00  0.00    -0.352 OA
BRANCH  30  35
HETATM   35  N2  UNL     1      -3.057 -31.063  -8.888  1.00  0.00    -0.070 N 
ATOM     36  H23 UNL     1      -3.650 -30.271  -9.140  1.00  0.00     0.274 HD
ATOM     37  H22 UNL     1      -2.922 -30.849  -7.900  1.00  0.00     0.274 HD
ATOM     38  H21 UNL     1      -2.174 -31.045  -9.398  1.00  0.00     0.274 HD
ENDBRANCH  30  35
BRANCH  33  39
HETATM   39  C1  UNL     1      -5.867 -35.100  -9.378  1.00  0.00     0.261 C 
BRANCH  39  40
HETATM   40  N1  UNL     1      -5.346 -35.649  -8.153  1.00  0.00    -0.077 N 
ATOM     41  H13 UNL     1      -4.461 -35.210  -7.901  1.00  0.00     0.274 HD
ATOM     42  H12 UNL     1      -5.907 -35.358  -7.352  1.00  0.00     0.274 HD
ATOM     43  H11 UNL     1      -5.255 -36.665  -8.188  1.00  0.00     0.274 HD
ENDBRANCH  39  40
ENDBRANCH  33  39
ENDBRANCH  28  29
ENDBRANCH   1  28
BRANCH   6  44
HETATM   44  N6  UNL     1       0.334 -33.719  -7.642  1.00  0.00    -0.070 N 
ATOM     45  H63 UNL     1       1.301 -33.935  -7.881  1.00  0.00     0.274 HD
ATOM     46  H62 UNL     1       0.177 -33.015  -8.363  1.00  0.00     0.274 HD
ATOM     47  H61 UNL     1       0.226 -33.355  -6.695  1.00  0.00     0.274 HD
ENDBRANCH   6  44
TORSDOF 14
ENDMDL
MODEL 5
REMARK VINA RESULT: -6.854026597      1.571      1.817
REMARK  14 active torsions:
REMARK  status: ('A' for Active; 'I' for Inactive)
REMARK    1  A    between atoms: N1_1  and  C1_5 
REMARK    2  A    between atoms: C1_5  and  C2_6 
REMARK    3  A    between atoms: C5_9  and  N2_10 
REMARK    4  A    between atoms: C6_14  and  O1_15 
REMARK    5  A    between atoms: O1_15  and  C7_16 
REMARK    6  A    between atoms: C8_18  and  O3_19 
REMARK    7  A    between atoms: O3_19  and  C9_20 
REMARK    8  A    between atoms: C10_22  and  C11_23 
REMARK    9  A    between atoms: N4_25  and  O5_27 
REMARK   10  A    between atoms: C12_29  and  C13_30 
REMARK   11  A    between atoms: C13_30  and  O6_31 
REMARK   12  A    between atoms: C14_33  and  O7_34 
REMARK   13  A    between atoms: C15_36  and  N5_37 
REMARK   14  A    between atoms: C17_42  and  N6_43 
ROOT
HETATM    1  C7  UNL     1      -4.580 -32.075  -8.382  1.00  0.00     0.296 C 
HETATM    2  O2  UNL     1      -4.088 -32.533  -9.595  1.00  0.00    -0.327 OA
HETATM    3  C8  UNL     1      -2.886 -31.928  -9.950  1.00  0.00     0.296 C 
HETATM    4  C15 UNL     1      -3.144 -30.460 -10.250  1.00  0.00     0.240 C 
HETATM    5  C16 UNL     1      -3.966 -29.784  -9.208  1.00  0.00     0.075 C 
HETATM    6  C17 UNL     1      -5.039 -30.639  -8.609  1.00  0.00     0.240 C 
ENDROOT
BRANCH   3   7
HETATM    7  O3  UNL     1      -2.514 -32.505 -11.184  1.00  0.00    -0.327 OA
BRANCH   7   8
HETATM    8  C9  UNL     1      -1.989 -33.776 -11.012  1.00  0.00     0.293 C 
HETATM    9  O4  UNL     1      -0.720 -33.879 -11.628  1.00  0.00    -0.345 OA
HETATM   10  C10 UNL     1      -0.490 -35.260 -11.593  1.00  0.00     0.199 C 
HETATM   11  C12 UNL     1      -1.749 -35.902 -12.036  1.00  0.00     0.079 C 
HETATM   12  C14 UNL     1      -2.785 -34.808 -11.749  1.00  0.00     0.182 C 
BRANCH  10  13
HETATM   13  C11 UNL     1       0.744 -35.698 -12.210  1.00  0.00     0.142 C 
HETATM   14  N3  UNL     1       1.343 -36.969 -12.011  1.00  0.00    -0.083 NA
HETATM   15  N4  UNL     1       1.392 -34.895 -13.020  1.00  0.00    -0.257 N 
ATOM     16  H4  UNL     1       1.012 -33.966 -13.205  1.00  0.00     0.195 HD
BRANCH  15  17
HETATM   17  O5  UNL     1       2.558 -35.267 -13.624  1.00  0.00    -0.289 OA
ATOM     18  H5  UNL     1       3.402 -34.948 -13.324  1.00  0.00     0.244 HD
ENDBRANCH  15  17
ENDBRANCH  10  13
BRANCH  11  19
HETATM   19  C13 UNL     1      -1.814 -36.295 -13.494  1.00  0.00     0.174 C 
BRANCH  19  20
HETATM   20  O6  UNL     1      -2.392 -37.531 -13.664  1.00  0.00    -0.400 OA
ATOM     21  H6  UNL     1      -2.491 -37.751 -14.583  1.00  0.00     0.209 HD
ENDBRANCH  19  20
ENDBRANCH  11  19
BRANCH  12  22
HETATM   22  O7  UNL     1      -3.853 -35.300 -11.003  1.00  0.00    -0.390 OA
ATOM     23  H7  UNL     1      -4.515 -35.718 -11.541  1.00  0.00     0.210 HD
ENDBRANCH  12  22
ENDBRANCH   7   8
ENDBRANCH   3   7
BRANCH   4  24
HETATM   24  N5  UNL     1      -3.815 -30.408 -11.534  1.00  0.00    -0.070 N 
ATOM     25  H53 UNL     1      -3.968 -29.456 -11.871  1.00  0.00     0.274 HD
ATOM     26  H52 UNL     1      -3.229 -30.724 -12.307  1.00  0.00     0.274 HD
ATOM     27  H51 UNL     1      -4.677 -30.943 -11.437  1.00  0.00     0.274 HD
ENDBRANCH   4  24
BRANCH   1  28
HETATM   28  O1  UNL     1      -5.669 -32.850  -8.055  1.00  0.00    -0.327 OA
BRANCH  28  29
HETATM   29  C6  UNL     1      -5.473 -33.681  -6.970  1.00  0.00     0.293 C 
HETATM   30  C5  UNL     1      -5.339 -32.910  -5.663  1.00  0.00     0.238 C 
HETATM   31  C4  UNL     1      -5.339 -33.956  -4.556  1.00  0.00     0.040 C 
HETATM   32  C3  UNL     1      -5.039 -35.328  -5.105  1.00  0.00     0.036 C 
HETATM   33  C2  UNL     1      -4.010 -35.305  -6.206  1.00  0.00     0.150 C 
HETATM   34  O8  UNL     1      -4.256 -34.340  -7.160  1.00  0.00    -0.352 OA
BRANCH  30  35
HETATM   35  N2  UNL     1      -6.413 -31.954  -5.489  1.00  0.00    -0.070 N 
ATOM     36  H23 UNL     1      -6.057 -31.002  -5.410  1.00  0.00     0.274 HD
ATOM     37  H22 UNL     1      -6.960 -31.847  -6.344  1.00  0.00     0.274 HD
ATOM     38  H21 UNL     1      -7.006 -32.198  -4.696  1.00  0.00     0.274 HD
ENDBRANCH  30  35
BRANCH  33  39
HETATM   39  C1  UNL     1      -2.652 -35.161  -5.559  1.00  0.00     0.261 C 
BRANCH  39  40
HETATM   40  N1  UNL     1      -1.580 -35.151  -6.520  1.00  0.00    -0.077 N 
ATOM     41  H13 UNL     1      -0.839 -34.512  -6.236  1.00  0.00     0.274 HD
ATOM     42  H12 UNL     1      -1.058 -36.028  -6.496  1.00  0.00     0.274 HD
ATOM     43  H11 UNL     1      -1.904 -34.942  -7.464  1.00  0.00     0.274 HD
ENDBRANCH  39  40
ENDBRANCH  33  39
ENDBRANCH  28  29
ENDBRANCH   1  28
BRANCH   6  44
HETATM   44  N6  UNL     1      -6.236 -30.704  -9.407  1.00  0.00    -0.070 N 
ATOM     45  H63 UNL     1      -6.109 -30.344 -10.352  1.00  0.00     0.274 HD
ATOM     46  H62 UNL     1      -6.494 -31.656  -9.666  1.00  0.00     0.274 HD
ATOM     47  H61 UNL     1      -6.965 -30.217  -8.886  1.00  0.00     0.274 HD
ENDBRANCH   6  44
TORSDOF 14
ENDMDL
