MODEL 1
REMARK VINA RESULT: -9.231162827      0.000      0.000
REMARK  9 active torsions:
REMARK  status: ('A' for Active; 'I' for Inactive)
REMARK    1  A    between atoms: C2_2  and  C3_4 
REMARK    2  A    between atoms: C5_9  and  N2_10 
REMARK    3  A    between atoms: N2_10  and  C6_12 
REMARK    4  A    between atoms: C6_12  and  C7_13 
REMARK    5  A    between atoms: C12_20  and  N4_21 
REMARK    6  A    between atoms: C13_26  and  N6_27 
REMARK    7  A    between atoms: N6_27  and  O2_29 
REMARK    8  A    between atoms: O2_29  and  C14_30 
REMARK    9  A    between atoms: C15_35  and  N9_36 
ROOT
HETATM    1  C7  UNL     1      -3.297 -34.889 -10.094  1.00  0.00     0.030 A 
HETATM    2  C8  UNL     1      -3.237 -34.982  -8.716  1.00  0.00     0.060 A 
HETATM    3  C9  UNL     1      -4.130 -34.252  -7.977  1.00  0.00     0.090 A 
HETATM    4  C10 UNL     1      -5.067 -33.441  -8.642  1.00  0.00     0.100 A 
HETATM    5  N3  UNL     1      -5.814 -32.841  -7.722  1.00  0.00    -0.334 N 
ATOM      6  H3  UNL     1      -6.580 -32.190  -7.897  1.00  0.00     0.168 HD
HETATM    7  C11 UNL     1      -5.379 -33.245  -6.527  1.00  0.00     0.174 A 
HETATM    8  C12 UNL     1      -5.904 -32.851  -5.298  1.00  0.00     0.160 C 
HETATM    9  N5  UNL     1      -5.817 -33.492  -4.117  1.00  0.00    -0.171 N 
ATOM     10  H5  UNL     1      -6.408 -33.117  -3.375  1.00  0.00     0.186 HD
HETATM   11  C13 UNL     1      -5.060 -34.563  -3.767  1.00  0.00     0.718 C 
HETATM   12  N8  UNL     1      -4.028 -35.080  -4.501  1.00  0.00    -0.020 N 
ATOM     13  H8  UNL     1      -3.502 -35.830  -4.053  1.00  0.00     0.203 HD
HETATM   14  C15 UNL     1      -3.613 -34.738  -5.731  1.00  0.00     0.699 C 
HETATM   15  N10 UNL     1      -4.340 -34.115  -6.662  1.00  0.00    -0.126 N 
HETATM   16  C16 UNL     1      -5.103 -33.368 -10.014  1.00  0.00     0.143 A 
HETATM   17  C17 UNL     1      -6.042 -32.554 -10.729  1.00  0.00     0.120 C 
HETATM   18  N11 UNL     1      -6.788 -31.883 -11.311  1.00  0.00    -0.190 NA
HETATM   19  N12 UNL     1      -4.206 -34.103 -10.689  1.00  0.00    -0.348 N 
ATOM     20  H12 UNL     1      -4.217 -34.062 -11.708  1.00  0.00     0.166 HD
ENDROOT
BRANCH   1  21
HETATM   21  C6  UNL     1      -2.328 -35.679 -10.944  1.00  0.00     0.173 C 
BRANCH  21  22
HETATM   22  N2  UNL     1      -1.310 -36.209 -10.110  1.00  0.00    -0.389 N 
ATOM     23  H2  UNL     1      -1.412 -37.106  -9.636  1.00  0.00     0.155 HD
BRANCH  22  24
HETATM   24  C5  UNL     1      -0.139 -35.416  -9.975  1.00  0.00     0.309 C 
HETATM   25  C4  UNL     1       0.387 -35.294  -8.581  1.00  0.00     0.289 C 
HETATM   26  N1  UNL     1       0.948 -36.620  -8.357  1.00  0.00    -0.035 N 
HETATM   27  C3  UNL     1       1.687 -36.812  -9.608  1.00  0.00     0.453 C 
ATOM     28  H12 UNL     1       0.275 -37.352  -8.125  1.00  0.00     0.280 HD
ATOM     29  H11 UNL     1       1.493 -36.731  -7.501  1.00  0.00     0.280 HD
HETATM   30  N13 UNL     1       0.949 -36.142 -10.634  1.00  0.00    -0.017 N 
ATOM     31 2H13 UNL     1       1.531 -35.545 -11.221  1.00  0.00     0.282 HD
ATOM     32 1H13 UNL     1       0.624 -36.771 -11.369  1.00  0.00     0.282 HD
BRANCH  27  33
HETATM   33  C2  UNL     1       1.924 -38.240  -9.854  1.00  0.00     0.180 C 
HETATM   34  C1  UNL     1       1.990 -39.173  -8.704  1.00  0.00     0.095 C 
HETATM   35  O1  UNL     1       2.074 -38.716 -10.983  1.00  0.00    -0.294 OA
ENDBRANCH  27  33
ENDBRANCH  22  24
ENDBRANCH  21  22
ENDBRANCH   1  21
BRANCH  14  36
HETATM   36  N9  UNL     1      -2.401 -35.048  -5.991  1.00  0.00    -0.233 N 
ATOM     37  H92 UNL     1      -1.694 -34.944  -5.263  1.00  0.00     0.174 HD
ATOM     38  H91 UNL     1      -2.243 -35.393  -6.938  1.00  0.00     0.174 HD
ENDBRANCH  14  36
BRANCH   8  39
HETATM   39  N4  UNL     1      -6.546 -31.733  -5.326  1.00  0.00    -0.382 N 
ATOM     40  H42 UNL     1      -7.173 -31.569  -6.113  1.00  0.00     0.157 HD
ATOM     41  H41 UNL     1      -6.354 -31.116  -4.537  1.00  0.00     0.157 HD
ENDBRANCH   8  39
BRANCH  11  42
HETATM   42  N6  UNL     1      -5.352 -35.128  -2.648  1.00  0.00    -0.086 N 
ATOM     43  H6  UNL     1      -5.934 -35.965  -2.628  1.00  0.00     0.214 HD
BRANCH  42  44
HETATM   44  O2  UNL     1      -4.872 -34.591  -1.489  1.00  0.00    -0.169 OA
BRANCH  44  45
HETATM   45  C14 UNL     1      -5.631 -34.307  -0.385  1.00  0.00     0.395 C 
HETATM   46  N7  UNL     1      -5.866 -32.953  -0.053  1.00  0.00    -0.031 NA
HETATM   47  O3  UNL     1      -6.097 -35.250   0.302  1.00  0.00    -0.240 OA
ENDBRANCH  44  45
ENDBRANCH  42  44
ENDBRANCH  11  42
TORSDOF 9
ENDMDL
MODEL 2
REMARK VINA RESULT: -9.207783292      1.582      1.771
REMARK  9 active torsions:
REMARK  status: ('A' for Active; 'I' for Inactive)
REMARK    1  A    between atoms: C2_2  and  C3_4 
REMARK    2  A    between atoms: C5_9  and  N2_10 
REMARK    3  A    between atoms: N2_10  and  C6_12 
REMARK    4  A    between atoms: C6_12  and  C7_13 
REMARK    5  A    between atoms: C12_20  and  N4_21 
REMARK    6  A    between atoms: C13_26  and  N6_27 
REMARK    7  A    between atoms: N6_27  and  O2_29 
REMARK    8  A    between atoms: O2_29  and  C14_30 
REMARK    9  A    between atoms: C15_35  and  N9_36 
ROOT
HETATM    1  C7  UNL     1      -3.455 -35.455  -9.918  1.00  0.00     0.030 A 
HETATM    2  C8  UNL     1      -3.368 -35.437  -8.538  1.00  0.00     0.060 A 
HETATM    3  C9  UNL     1      -4.221 -34.618  -7.845  1.00  0.00     0.090 A 
HETATM    4  C10 UNL     1      -5.145 -33.833  -8.557  1.00  0.00     0.100 A 
HETATM    5  N3  UNL     1      -5.852 -33.134  -7.676  1.00  0.00    -0.334 N 
ATOM      6  H3  UNL     1      -6.600 -32.473  -7.890  1.00  0.00     0.168 HD
HETATM    7  C11 UNL     1      -5.405 -33.454  -6.461  1.00  0.00     0.174 A 
HETATM    8  C12 UNL     1      -5.890 -32.943  -5.259  1.00  0.00     0.160 C 
HETATM    9  N5  UNL     1      -5.799 -33.486  -4.030  1.00  0.00    -0.171 N 
ATOM     10  H5  UNL     1      -6.361 -33.032  -3.311  1.00  0.00     0.186 HD
HETATM   11  C13 UNL     1      -5.070 -34.551  -3.607  1.00  0.00     0.718 C 
HETATM   12  N8  UNL     1      -4.072 -35.162  -4.316  1.00  0.00    -0.020 N 
ATOM     13  H8  UNL     1      -3.561 -35.890  -3.816  1.00  0.00     0.203 HD
HETATM   14  C15 UNL     1      -3.672 -34.936  -5.577  1.00  0.00     0.699 C 
HETATM   15  N10 UNL     1      -4.398 -34.367  -6.542  1.00  0.00    -0.126 N 
HETATM   16  C16 UNL     1      -5.208 -33.872  -9.930  1.00  0.00     0.143 A 
HETATM   17  C17 UNL     1      -6.134 -33.087 -10.692  1.00  0.00     0.120 C 
HETATM   18  N11 UNL     1      -6.871 -32.441 -11.313  1.00  0.00    -0.190 NA
HETATM   19  N12 UNL     1      -4.350 -34.690 -10.558  1.00  0.00    -0.348 N 
ATOM     20  H12 UNL     1      -4.382 -34.732 -11.577  1.00  0.00     0.166 HD
ENDROOT
BRANCH   1  21
HETATM   21  C6  UNL     1      -2.531 -36.345 -10.717  1.00  0.00     0.173 C 
BRANCH  21  22
HETATM   22  N2  UNL     1      -1.758 -35.540 -11.593  1.00  0.00    -0.389 N 
ATOM     23  H2  UNL     1      -1.902 -35.548 -12.603  1.00  0.00     0.155 HD
BRANCH  22  24
HETATM   24  C5  UNL     1      -0.772 -34.721 -10.979  1.00  0.00     0.309 C 
HETATM   25  C4  UNL     1       0.125 -35.426 -10.013  1.00  0.00     0.289 C 
HETATM   26  N1  UNL     1       0.965 -36.214 -10.906  1.00  0.00    -0.035 N 
HETATM   27  C3  UNL     1       1.305 -35.205 -11.912  1.00  0.00     0.453 C 
ATOM     28  H12 UNL     1       0.545 -37.072 -11.265  1.00  0.00     0.280 HD
ATOM     29  H11 UNL     1       1.757 -36.685 -10.467  1.00  0.00     0.280 HD
HETATM   30  N13 UNL     1       0.176 -34.335 -12.027  1.00  0.00    -0.017 N 
ATOM     31 2H13 UNL     1       0.427 -33.346 -11.995  1.00  0.00     0.282 HD
ATOM     32 1H13 UNL     1      -0.237 -34.334 -12.960  1.00  0.00     0.282 HD
BRANCH  27  33
HETATM   33  C2  UNL     1       1.717 -35.846 -13.167  1.00  0.00     0.180 C 
HETATM   34  C1  UNL     1       2.261 -37.225 -13.134  1.00  0.00     0.095 C 
HETATM   35  O1  UNL     1       1.634 -35.293 -14.268  1.00  0.00    -0.294 OA
ENDBRANCH  27  33
ENDBRANCH  22  24
ENDBRANCH  21  22
ENDBRANCH   1  21
BRANCH  14  36
HETATM   36  N9  UNL     1      -2.477 -35.308  -5.833  1.00  0.00    -0.233 N 
ATOM     37  H92 UNL     1      -1.741 -35.122  -5.151  1.00  0.00     0.174 HD
ATOM     38  H91 UNL     1      -2.361 -35.784  -6.728  1.00  0.00     0.174 HD
ENDBRANCH  14  36
BRANCH   8  39
HETATM   39  N4  UNL     1      -6.496 -31.809  -5.367  1.00  0.00    -0.382 N 
ATOM     40  H42 UNL     1      -7.342 -31.778  -5.935  1.00  0.00     0.157 HD
ATOM     41  H41 UNL     1      -6.052 -31.043  -4.860  1.00  0.00     0.157 HD
ENDBRANCH   8  39
BRANCH  11  42
HETATM   42  N6  UNL     1      -5.356 -35.012  -2.440  1.00  0.00    -0.086 N 
ATOM     43  H6  UNL     1      -6.044 -35.757  -2.333  1.00  0.00     0.214 HD
BRANCH  42  44
HETATM   44  O2  UNL     1      -4.727 -34.489  -1.348  1.00  0.00    -0.169 OA
BRANCH  44  45
HETATM   45  C14 UNL     1      -5.356 -34.088  -0.200  1.00  0.00     0.395 C 
HETATM   46  N7  UNL     1      -5.012 -34.718   1.019  1.00  0.00    -0.031 NA
HETATM   47  O3  UNL     1      -6.217 -33.175  -0.255  1.00  0.00    -0.240 OA
ENDBRANCH  44  45
ENDBRANCH  42  44
ENDBRANCH  11  42
TORSDOF 9
ENDMDL
MODEL 3
REMARK VINA RESULT: -9.028136380      3.914      6.079
REMARK  9 active torsions:
REMARK  status: ('A' for Active; 'I' for Inactive)
REMARK    1  A    between atoms: C2_2  and  C3_4 
REMARK    2  A    between atoms: C5_9  and  N2_10 
REMARK    3  A    between atoms: N2_10  and  C6_12 
REMARK    4  A    between atoms: C6_12  and  C7_13 
REMARK    5  A    between atoms: C12_20  and  N4_21 
REMARK    6  A    between atoms: C13_26  and  N6_27 
REMARK    7  A    between atoms: N6_27  and  O2_29 
REMARK    8  A    between atoms: O2_29  and  C14_30 
REMARK    9  A    between atoms: C15_35  and  N9_36 
ROOT
HETATM    1  C7  UNL     1      -0.873 -34.629 -10.705  1.00  0.00     0.030 A 
HETATM    2  C8  UNL     1      -1.840 -33.645 -10.776  1.00  0.00     0.060 A 
HETATM    3  C9  UNL     1      -2.700 -33.502  -9.719  1.00  0.00     0.090 A 
HETATM    4  C10 UNL     1      -2.566 -34.355  -8.609  1.00  0.00     0.100 A 
HETATM    5  N3  UNL     1      -3.501 -34.024  -7.724  1.00  0.00    -0.334 N 
ATOM      6  H3  UNL     1      -3.656 -34.465  -6.817  1.00  0.00     0.168 HD
HETATM    7  C11 UNL     1      -4.199 -33.011  -8.240  1.00  0.00     0.174 A 
HETATM    8  C12 UNL     1      -5.267 -32.366  -7.621  1.00  0.00     0.160 C 
HETATM    9  N5  UNL     1      -5.740 -31.128  -7.861  1.00  0.00    -0.171 N 
ATOM     10  H5  UNL     1      -6.425 -30.786  -7.188  1.00  0.00     0.186 HD
HETATM   11  C13 UNL     1      -5.439 -30.268  -8.867  1.00  0.00     0.718 C 
HETATM   12  N8  UNL     1      -4.747 -30.586 -10.004  1.00  0.00    -0.020 N 
ATOM     13  H8  UNL     1      -4.686 -29.845 -10.703  1.00  0.00     0.203 HD
HETATM   14  C15 UNL     1      -4.136 -31.736 -10.326  1.00  0.00     0.699 C 
HETATM   15  N10 UNL     1      -3.722 -32.674  -9.469  1.00  0.00    -0.126 N 
HETATM   16  C16 UNL     1      -1.594 -35.325  -8.566  1.00  0.00     0.143 A 
HETATM   17  C17 UNL     1      -1.425 -36.214  -7.454  1.00  0.00     0.120 C 
HETATM   18  N11 UNL     1      -1.297 -36.947  -6.563  1.00  0.00    -0.190 NA
HETATM   19  N12 UNL     1      -0.780 -35.422  -9.628  1.00  0.00    -0.348 N 
ATOM     20  H12 UNL     1      -0.052 -36.136  -9.615  1.00  0.00     0.166 HD
ENDROOT
BRANCH   1  21
HETATM   21  C6  UNL     1       0.094 -34.818 -11.852  1.00  0.00     0.173 C 
BRANCH  21  22
HETATM   22  N2  UNL     1       1.020 -35.837 -11.511  1.00  0.00    -0.389 N 
ATOM     23  H2  UNL     1       0.792 -36.571 -10.840  1.00  0.00     0.155 HD
BRANCH  22  24
HETATM   24  C5  UNL     1       2.282 -35.775 -12.160  1.00  0.00     0.309 C 
HETATM   25  C4  UNL     1       2.936 -37.097 -12.402  1.00  0.00     0.289 C 
HETATM   26  N1  UNL     1       2.120 -37.641 -13.481  1.00  0.00    -0.035 N 
HETATM   27  C3  UNL     1       2.039 -36.476 -14.366  1.00  0.00     0.453 C 
ATOM     28  H12 UNL     1       1.226 -38.044 -13.199  1.00  0.00     0.280 HD
ATOM     29  H11 UNL     1       2.469 -38.498 -13.910  1.00  0.00     0.280 HD
HETATM   30  N13 UNL     1       2.038 -35.316 -13.529  1.00  0.00    -0.017 N 
ATOM     31 2H13 UNL     1       2.698 -34.601 -13.835  1.00  0.00     0.282 HD
ATOM     32 1H13 UNL     1       1.189 -34.757 -13.619  1.00  0.00     0.282 HD
BRANCH  27  33
HETATM   33  C2  UNL     1       0.881 -36.588 -15.262  1.00  0.00     0.180 C 
HETATM   34  C1  UNL     1       1.101 -36.672 -16.726  1.00  0.00     0.095 C 
HETATM   35  O1  UNL     1      -0.285 -36.616 -14.859  1.00  0.00    -0.294 OA
ENDBRANCH  27  33
ENDBRANCH  22  24
ENDBRANCH  21  22
ENDBRANCH   1  21
BRANCH  14  36
HETATM   36  N9  UNL     1      -3.961 -31.916 -11.579  1.00  0.00    -0.233 N 
ATOM     37  H92 UNL     1      -4.624 -31.505 -12.237  1.00  0.00     0.174 HD
ATOM     38  H91 UNL     1      -3.139 -32.470 -11.820  1.00  0.00     0.174 HD
ENDBRANCH  14  36
BRANCH   8  39
HETATM   39  N4  UNL     1      -5.857 -33.064  -6.711  1.00  0.00    -0.382 N 
ATOM     40  H42 UNL     1      -6.872 -32.990  -6.642  1.00  0.00     0.157 HD
ATOM     41  H41 UNL     1      -5.229 -33.632  -6.141  1.00  0.00     0.157 HD
ENDBRANCH   8  39
BRANCH  11  42
HETATM   42  N6  UNL     1      -5.846 -29.055  -8.724  1.00  0.00    -0.086 N 
ATOM     43  H6  UNL     1      -6.804 -28.800  -8.965  1.00  0.00     0.214 HD
BRANCH  42  44
HETATM   44  O2  UNL     1      -4.980 -28.116  -8.245  1.00  0.00    -0.169 OA
BRANCH  44  45
HETATM   45  C14 UNL     1      -3.963 -27.550  -8.966  1.00  0.00     0.395 C 
HETATM   46  N7  UNL     1      -4.212 -27.164 -10.303  1.00  0.00    -0.031 NA
HETATM   47  O3  UNL     1      -2.840 -27.388  -8.427  1.00  0.00    -0.240 OA
ENDBRANCH  44  45
ENDBRANCH  42  44
ENDBRANCH  11  42
TORSDOF 9
ENDMDL
MODEL 4
REMARK VINA RESULT: -8.968627861      1.551      1.860
REMARK  9 active torsions:
REMARK  status: ('A' for Active; 'I' for Inactive)
REMARK    1  A    between atoms: C2_2  and  C3_4 
REMARK    2  A    between atoms: C5_9  and  N2_10 
REMARK    3  A    between atoms: N2_10  and  C6_12 
REMARK    4  A    between atoms: C6_12  and  C7_13 
REMARK    5  A    between atoms: C12_20  and  N4_21 
REMARK    6  A    between atoms: C13_26  and  N6_27 
REMARK    7  A    between atoms: N6_27  and  O2_29 
REMARK    8  A    between atoms: O2_29  and  C14_30 
REMARK    9  A    between atoms: C15_35  and  N9_36 
ROOT
HETATM    1  C7  UNL     1      -3.753 -34.089 -10.420  1.00  0.00     0.030 A 
HETATM    2  C8  UNL     1      -3.611 -34.379  -9.077  1.00  0.00     0.060 A 
HETATM    3  C9  UNL     1      -4.457 -33.770  -8.188  1.00  0.00     0.090 A 
HETATM    4  C10 UNL     1      -5.432 -32.879  -8.672  1.00  0.00     0.100 A 
HETATM    5  N3  UNL     1      -6.122 -32.423  -7.632  1.00  0.00    -0.334 N 
ATOM      6  H3  UNL     1      -6.896 -31.760  -7.665  1.00  0.00     0.168 HD
HETATM    7  C11 UNL     1      -5.616 -32.992  -6.536  1.00  0.00     0.174 A 
HETATM    8  C12 UNL     1      -6.066 -32.784  -5.234  1.00  0.00     0.160 C 
HETATM    9  N5  UNL     1      -5.909 -33.587  -4.165  1.00  0.00    -0.171 N 
ATOM     10  H5  UNL     1      -6.454 -33.327  -3.343  1.00  0.00     0.186 HD
HETATM   11  C13 UNL     1      -5.134 -34.692  -4.019  1.00  0.00     0.718 C 
HETATM   12  N8  UNL     1      -4.148 -35.090  -4.880  1.00  0.00    -0.020 N 
ATOM     13  H8  UNL     1      -3.597 -35.892  -4.577  1.00  0.00     0.203 HD
HETATM   14  C15 UNL     1      -3.807 -34.571  -6.070  1.00  0.00     0.699 C 
HETATM   15  N10 UNL     1      -4.588 -33.826  -6.856  1.00  0.00    -0.126 N 
HETATM   16  C16 UNL     1      -5.550 -32.609 -10.014  1.00  0.00     0.143 A 
HETATM   17  C17 UNL     1      -6.529 -31.708 -10.547  1.00  0.00     0.120 C 
HETATM   18  N11 UNL     1      -7.308 -30.966 -10.980  1.00  0.00    -0.190 NA
HETATM   19  N12 UNL     1      -4.696 -33.232 -10.840  1.00  0.00    -0.348 N 
ATOM     20  H12 UNL     1      -4.768 -33.045 -11.840  1.00  0.00     0.166 HD
ENDROOT
BRANCH   1  21
HETATM   21  C6  UNL     1      -2.839 -34.741 -11.432  1.00  0.00     0.173 C 
BRANCH  21  22
HETATM   22  N2  UNL     1      -1.512 -34.725 -10.930  1.00  0.00    -0.389 N 
ATOM     23  H2  UNL     1      -1.101 -33.889 -10.514  1.00  0.00     0.155 HD
BRANCH  22  24
HETATM   24  C5  UNL     1      -0.789 -35.944 -11.040  1.00  0.00     0.309 C 
HETATM   25  C4  UNL     1       0.683 -35.790 -11.253  1.00  0.00     0.289 C 
HETATM   26  N1  UNL     1       1.130 -35.345  -9.939  1.00  0.00    -0.035 N 
HETATM   27  C3  UNL     1       0.416 -36.294  -9.080  1.00  0.00     0.453 C 
ATOM     28  H12 UNL     1       0.976 -34.358  -9.731  1.00  0.00     0.280 HD
ATOM     29  H11 UNL     1       2.141 -35.304  -9.807  1.00  0.00     0.280 HD
HETATM   30  N13 UNL     1      -0.827 -36.586  -9.724  1.00  0.00    -0.017 N 
ATOM     31 2H13 UNL     1      -1.029 -37.584  -9.772  1.00  0.00     0.282 HD
ATOM     32 1H13 UNL     1      -1.640 -36.315  -9.170  1.00  0.00     0.282 HD
BRANCH  27  33
HETATM   33  C2  UNL     1       0.291 -35.762  -7.717  1.00  0.00     0.180 C 
HETATM   34  C1  UNL     1       0.617 -34.339  -7.460  1.00  0.00     0.095 C 
HETATM   35  O1  UNL     1      -0.077 -36.445  -6.756  1.00  0.00    -0.294 OA
ENDBRANCH  27  33
ENDBRANCH  22  24
ENDBRANCH  21  22
ENDBRANCH   1  21
BRANCH  14  36
HETATM   36  N9  UNL     1      -2.613 -34.831  -6.444  1.00  0.00    -0.233 N 
ATOM     37  H92 UNL     1      -1.993 -35.337  -5.811  1.00  0.00     0.174 HD
ATOM     38  H91 UNL     1      -2.379 -34.503  -7.381  1.00  0.00     0.174 HD
ENDBRANCH  14  36
BRANCH   8  39
HETATM   39  N4  UNL     1      -6.708 -31.678  -5.062  1.00  0.00    -0.382 N 
ATOM     40  H42 UNL     1      -7.247 -31.318  -5.849  1.00  0.00     0.157 HD
ATOM     41  H41 UNL     1      -6.605 -31.271  -4.133  1.00  0.00     0.157 HD
ENDBRANCH   8  39
BRANCH  11  42
HETATM   42  N6  UNL     1      -5.358 -35.414  -2.977  1.00  0.00    -0.086 N 
ATOM     43  H6  UNL     1      -5.804 -36.327  -3.068  1.00  0.00     0.214 HD
BRANCH  42  44
HETATM   44  O2  UNL     1      -4.991 -34.942  -1.751  1.00  0.00    -0.169 OA
BRANCH  44  45
HETATM   45  C14 UNL     1      -5.732 -35.078  -0.607  1.00  0.00     0.395 C 
HETATM   46  N7  UNL     1      -6.045 -36.380  -0.151  1.00  0.00    -0.031 NA
HETATM   47  O3  UNL     1      -6.113 -34.050   0.007  1.00  0.00    -0.240 OA
ENDBRANCH  44  45
ENDBRANCH  42  44
ENDBRANCH  11  42
TORSDOF 9
ENDMDL
MODEL 5
REMARK VINA RESULT: -8.934109015      2.175      2.495
REMARK  9 active torsions:
REMARK  status: ('A' for Active; 'I' for Inactive)
REMARK    1  A    between atoms: C2_2  and  C3_4 
REMARK    2  A    between atoms: C5_9  and  N2_10 
REMARK    3  A    between atoms: N2_10  and  C6_12 
REMARK    4  A    between atoms: C6_12  and  C7_13 
REMARK    5  A    between atoms: C12_20  and  N4_21 
REMARK    6  A    between atoms: C13_26  and  N6_27 
REMARK    7  A    between atoms: N6_27  and  O2_29 
REMARK    8  A    between atoms: O2_29  and  C14_30 
REMARK    9  A    between atoms: C15_35  and  N9_36 
ROOT
HETATM    1  C7  UNL     1      -2.225 -35.244  -9.478  1.00  0.00     0.030 A 
HETATM    2  C8  UNL     1      -2.490 -35.304  -8.123  1.00  0.00     0.060 A 
HETATM    3  C9  UNL     1      -3.486 -34.508  -7.620  1.00  0.00     0.090 A 
HETATM    4  C10 UNL     1      -4.196 -33.667  -8.496  1.00  0.00     0.100 A 
HETATM    5  N3  UNL     1      -5.099 -33.003  -7.782  1.00  0.00    -0.334 N 
ATOM      6  H3  UNL     1      -5.765 -32.317  -8.139  1.00  0.00     0.168 HD
HETATM    7  C11 UNL     1      -4.975 -33.398  -6.514  1.00  0.00     0.174 A 
HETATM    8  C12 UNL     1      -5.746 -32.944  -5.446  1.00  0.00     0.160 C 
HETATM    9  N5  UNL     1      -5.971 -33.557  -4.268  1.00  0.00    -0.171 N 
ATOM     10  H5  UNL     1      -6.694 -33.131  -3.688  1.00  0.00     0.186 HD
HETATM   11  C13 UNL     1      -5.379 -34.657  -3.737  1.00  0.00     0.718 C 
HETATM   12  N8  UNL     1      -4.237 -35.248  -4.205  1.00  0.00    -0.020 N 
ATOM     13  H8  UNL     1      -3.873 -36.012  -3.636  1.00  0.00     0.203 HD
HETATM   14  C15 UNL     1      -3.530 -34.961  -5.310  1.00  0.00     0.699 C 
HETATM   15  N10 UNL     1      -3.986 -34.325  -6.392  1.00  0.00    -0.126 N 
HETATM   16  C16 UNL     1      -3.910 -33.628  -9.840  1.00  0.00     0.143 A 
HETATM   17  C17 UNL     1      -4.610 -32.785 -10.764  1.00  0.00     0.120 C 
HETATM   18  N11 UNL     1      -5.162 -32.091 -11.512  1.00  0.00    -0.190 NA
HETATM   19  N12 UNL     1      -2.926 -34.427 -10.278  1.00  0.00    -0.348 N 
ATOM     20  H12 UNL     1      -2.699 -34.413 -11.272  1.00  0.00     0.166 HD
ENDROOT
BRANCH   1  21
HETATM   21  C6  UNL     1      -1.134 -36.107 -10.069  1.00  0.00     0.173 C 
BRANCH  21  22
HETATM   22  N2  UNL     1      -0.777 -35.591 -11.342  1.00  0.00    -0.389 N 
ATOM     23  H2  UNL     1      -1.459 -35.488 -12.094  1.00  0.00     0.155 HD
BRANCH  22  24
HETATM   24  C5  UNL     1       0.586 -35.227 -11.507  1.00  0.00     0.309 C 
HETATM   25  C4  UNL     1       1.565 -36.346 -11.351  1.00  0.00     0.289 C 
HETATM   26  N1  UNL     1       1.351 -37.103 -12.579  1.00  0.00    -0.035 N 
HETATM   27  C3  UNL     1       1.341 -36.017 -13.562  1.00  0.00     0.453 C 
ATOM     28  H12 UNL     1       0.533 -37.712 -12.585  1.00  0.00     0.280 HD
ATOM     29  H11 UNL     1       2.018 -37.854 -12.757  1.00  0.00     0.280 HD
HETATM   30  N13 UNL     1       0.768 -34.876 -12.917  1.00  0.00    -0.017 N 
ATOM     31 2H13 UNL     1       1.314 -34.024 -13.051  1.00  0.00     0.282 HD
ATOM     32 1H13 UNL     1      -0.090 -34.552 -13.364  1.00  0.00     0.282 HD
BRANCH  27  33
HETATM   33  C2  UNL     1       0.653 -36.438 -14.789  1.00  0.00     0.180 C 
HETATM   34  C1  UNL     1       1.456 -36.867 -15.960  1.00  0.00     0.095 C 
HETATM   35  O1  UNL     1      -0.576 -36.456 -14.904  1.00  0.00    -0.294 OA
ENDBRANCH  27  33
ENDBRANCH  22  24
ENDBRANCH  21  22
ENDBRANCH   1  21
BRANCH  14  36
HETATM   36  N9  UNL     1      -2.311 -35.342  -5.277  1.00  0.00    -0.233 N 
ATOM     37  H92 UNL     1      -1.570 -34.652  -5.407  1.00  0.00     0.174 HD
ATOM     38  H91 UNL     1      -2.180 -36.340  -5.112  1.00  0.00     0.174 HD
ENDBRANCH  14  36
BRANCH   8  39
HETATM   39  N4  UNL     1      -6.299 -31.795  -5.637  1.00  0.00    -0.382 N 
ATOM     40  H42 UNL     1      -7.097 -31.552  -5.051  1.00  0.00     0.157 HD
ATOM     41  H41 UNL     1      -5.867 -31.237  -6.374  1.00  0.00     0.157 HD
ENDBRANCH   8  39
BRANCH  11  42
HETATM   42  N6  UNL     1      -5.952 -35.175  -2.708  1.00  0.00    -0.086 N 
ATOM     43  H6  UNL     1      -6.936 -35.443  -2.746  1.00  0.00     0.214 HD
BRANCH  42  44
HETATM   44  O2  UNL     1      -5.228 -35.363  -1.568  1.00  0.00    -0.169 OA
BRANCH  44  45
HETATM   45  C14 UNL     1      -5.748 -35.364  -0.301  1.00  0.00     0.395 C 
HETATM   46  N7  UNL     1      -6.165 -36.592   0.261  1.00  0.00    -0.031 NA
HETATM   47  O3  UNL     1      -5.842 -34.280   0.328  1.00  0.00    -0.240 OA
ENDBRANCH  44  45
ENDBRANCH  42  44
ENDBRANCH  11  42
TORSDOF 9
ENDMDL
