MODEL 1
REMARK VINA RESULT: -8.121097485      0.000      0.000
REMARK  4 active torsions:
REMARK  status: ('A' for Active; 'I' for Inactive)
REMARK    1  A    between atoms: C8_8  and  C9_9 
REMARK    2  A    between atoms: C15_17  and  O1_18 
REMARK    3  A    between atoms: O1_18  and  C16_19 
REMARK    4  A    between atoms: C16_19  and  C17_20 
ROOT
HETATM    1  C1  UNL     1      22.329  61.196   8.406  1.00  0.00     0.046 C 
HETATM    2  C2  UNL     1      22.441  62.008   9.675  1.00  0.00    -0.052 C 
HETATM    3  C3  UNL     1      21.733  61.670  10.752  1.00  0.00    -0.062 C 
HETATM    4  C4  UNL     1      20.844  60.455  10.595  1.00  0.00     0.035 C 
HETATM    5  C5  UNL     1      19.834  60.290  11.679  1.00  0.00     0.004 C 
HETATM    6  C6  UNL     1      19.502  61.663  12.217  1.00  0.00     0.002 C 
HETATM    7  C7  UNL     1      20.699  62.247  12.933  1.00  0.00     0.019 C 
HETATM    8  C8  UNL     1      21.864  62.459  11.985  1.00  0.00     0.036 C 
HETATM    9  C12 UNL     1      22.017  63.930  11.670  1.00  0.00     0.205 C 
HETATM   10  F1  UNL     1      22.851  64.605  12.565  1.00  0.00    -0.225 F 
HETATM   11  C13 UNL     1      20.710  64.639  11.811  1.00  0.00     0.104 C 
HETATM   12  N1  UNL     1      19.701  65.213  11.924  1.00  0.00    -0.194 NA
HETATM   13  C14 UNL     1      22.515  64.278  10.317  1.00  0.00     0.097 C 
HETATM   14  C15 UNL     1      23.337  63.195   9.647  1.00  0.00     0.154 C 
ENDROOT
BRANCH   8  15
HETATM   15  C9  UNL     1      23.107  62.034  12.761  1.00  0.00    -0.006 C 
HETATM   16  C10 UNL     1      23.630  60.679  12.311  1.00  0.00     0.011 C 
HETATM   17  C11 UNL     1      22.760  61.786  14.247  1.00  0.00     0.011 C 
ENDBRANCH   8  15
BRANCH  14  18
HETATM   18  O1  UNL     1      23.460  63.619   8.301  1.00  0.00    -0.377 OA
BRANCH  18  19
HETATM   19  C16 UNL     1      22.716  64.764   8.113  1.00  0.00     0.208 C 
BRANCH  19  20
HETATM   20  C17 UNL     1      22.726  65.063   6.645  1.00  0.00    -0.015 A 
HETATM   21  C18 UNL     1      21.635  64.955   5.907  1.00  0.00     0.117 A 
HETATM   22  N2  UNL     1      21.740  65.259   4.521  1.00  0.00    -0.305 N 
HETATM   23  N3  UNL     1      22.939  65.660   3.926  1.00  0.00    -0.268 N 
ATOM     24  H2  UNL     1      20.907  65.181   3.939  1.00  0.00     0.186 HD
HETATM   25  C19 UNL     1      23.035  65.963   2.535  1.00  0.00     0.116 A 
HETATM   26  C23 UNL     1      24.083  65.759   4.769  1.00  0.00     0.056 A 
HETATM   27  C20 UNL     1      24.189  66.341   2.006  1.00  0.00     0.019 A 
HETATM   28  C21 UNL     1      25.383  66.454   2.836  1.00  0.00     0.004 A 
HETATM   29  C22 UNL     1      25.329  66.180   4.133  1.00  0.00     0.031 A 
HETATM   30  C24 UNL     1      24.003  65.478   6.070  1.00  0.00     0.042 A 
ENDBRANCH  19  20
ENDBRANCH  18  19
ENDBRANCH  14  18
TORSDOF 4
ENDMDL
MODEL 2
REMARK VINA RESULT: -8.051461760      2.734      4.359
REMARK  4 active torsions:
REMARK  status: ('A' for Active; 'I' for Inactive)
REMARK    1  A    between atoms: C8_8  and  C9_9 
REMARK    2  A    between atoms: C15_17  and  O1_18 
REMARK    3  A    between atoms: O1_18  and  C16_19 
REMARK    4  A    between atoms: C16_19  and  C17_20 
ROOT
HETATM    1  C1  UNL     1      24.527  60.528  13.589  1.00  0.00     0.046 C 
HETATM    2  C2  UNL     1      23.143  60.969  14.002  1.00  0.00    -0.052 C 
HETATM    3  C3  UNL     1      22.377  60.170  14.744  1.00  0.00    -0.062 C 
HETATM    4  C4  UNL     1      22.992  58.838  15.117  1.00  0.00     0.035 C 
HETATM    5  C5  UNL     1      22.021  57.845  15.657  1.00  0.00     0.004 C 
HETATM    6  C6  UNL     1      20.667  58.145  15.057  1.00  0.00     0.002 C 
HETATM    7  C7  UNL     1      20.147  59.467  15.575  1.00  0.00     0.019 C 
HETATM    8  C8  UNL     1      21.038  60.619  15.151  1.00  0.00     0.036 C 
HETATM    9  C12 UNL     1      20.375  61.409  14.046  1.00  0.00     0.205 C 
HETATM   10  F1  UNL     1      19.561  62.443  14.516  1.00  0.00    -0.225 F 
HETATM   11  C13 UNL     1      19.431  60.548  13.273  1.00  0.00     0.104 C 
HETATM   12  N1  UNL     1      18.683  59.894  12.663  1.00  0.00    -0.194 NA
HETATM   13  C14 UNL     1      21.267  62.028  13.036  1.00  0.00     0.097 C 
HETATM   14  C15 UNL     1      22.679  62.298  13.518  1.00  0.00     0.154 C 
ENDROOT
BRANCH   8  15
HETATM   15  C9  UNL     1      21.129  61.536  16.367  1.00  0.00    -0.006 C 
HETATM   16  C10 UNL     1      22.386  61.281  17.186  1.00  0.00     0.011 C 
HETATM   17  C11 UNL     1      20.000  61.217  17.374  1.00  0.00     0.011 C 
ENDBRANCH   8  15
BRANCH  14  18
HETATM   18  O1  UNL     1      23.405  62.614  12.343  1.00  0.00    -0.377 OA
BRANCH  18  19
HETATM   19  C16 UNL     1      23.392  63.979  12.152  1.00  0.00     0.208 C 
BRANCH  19  20
HETATM   20  C17 UNL     1      23.113  64.220  10.700  1.00  0.00    -0.015 A 
HETATM   21  C18 UNL     1      21.885  64.184  10.213  1.00  0.00     0.117 A 
HETATM   22  N2  UNL     1      21.718  64.425   8.821  1.00  0.00    -0.305 N 
HETATM   23  N3  UNL     1      22.792  64.694   7.967  1.00  0.00    -0.268 N 
ATOM     24  H2  UNL     1      20.777  64.400   8.430  1.00  0.00     0.186 HD
HETATM   25  C19 UNL     1      22.613  64.935   6.572  1.00  0.00     0.116 A 
HETATM   26  C23 UNL     1      24.093  64.721   8.547  1.00  0.00     0.056 A 
HETATM   27  C20 UNL     1      23.655  65.188   5.794  1.00  0.00     0.019 A 
HETATM   28  C21 UNL     1      25.004  65.225   6.350  1.00  0.00     0.004 A 
HETATM   29  C22 UNL     1      25.204  65.005   7.642  1.00  0.00     0.031 A 
HETATM   30  C24 UNL     1      24.268  64.498   9.849  1.00  0.00     0.042 A 
ENDBRANCH  19  20
ENDBRANCH  18  19
ENDBRANCH  14  18
TORSDOF 4
ENDMDL
MODEL 3
REMARK VINA RESULT: -7.988753437      2.069      2.983
REMARK  4 active torsions:
REMARK  status: ('A' for Active; 'I' for Inactive)
REMARK    1  A    between atoms: C8_8  and  C9_9 
REMARK    2  A    between atoms: C15_17  and  O1_18 
REMARK    3  A    between atoms: O1_18  and  C16_19 
REMARK    4  A    between atoms: C16_19  and  C17_20 
ROOT
HETATM    1  C1  UNL     1      22.312  61.282   9.055  1.00  0.00     0.046 C 
HETATM    2  C2  UNL     1      21.384  61.998  10.008  1.00  0.00    -0.052 C 
HETATM    3  C3  UNL     1      20.070  61.788   9.948  1.00  0.00    -0.062 C 
HETATM    4  C4  UNL     1      19.611  60.813   8.885  1.00  0.00     0.035 C 
HETATM    5  C5  UNL     1      18.144  60.840   8.621  1.00  0.00     0.004 C 
HETATM    6  C6  UNL     1      17.641  62.230   8.933  1.00  0.00     0.002 C 
HETATM    7  C7  UNL     1      17.739  62.500  10.418  1.00  0.00     0.019 C 
HETATM    8  C8  UNL     1      19.180  62.479  10.892  1.00  0.00     0.036 C 
HETATM    9  C12 UNL     1      19.661  63.888  11.155  1.00  0.00     0.205 C 
HETATM   10  F1  UNL     1      19.422  64.321  12.461  1.00  0.00    -0.225 F 
HETATM   11  C13 UNL     1      18.905  64.869  10.320  1.00  0.00     0.104 C 
HETATM   12  N1  UNL     1      18.321  65.651   9.683  1.00  0.00    -0.194 NA
HETATM   13  C14 UNL     1      21.094  64.166  10.896  1.00  0.00     0.097 C 
HETATM   14  C15 UNL     1      21.999  62.951  10.970  1.00  0.00     0.154 C 
ENDROOT
BRANCH   8  15
HETATM   15  C9  UNL     1      19.158  61.754  12.234  1.00  0.00    -0.006 C 
HETATM   16  C10 UNL     1      19.568  60.295  12.105  1.00  0.00     0.011 C 
HETATM   17  C11 UNL     1      17.714  61.652  12.774  1.00  0.00     0.011 C 
ENDBRANCH   8  15
BRANCH  14  18
HETATM   18  O1  UNL     1      23.232  63.388  10.427  1.00  0.00    -0.377 OA
BRANCH  18  19
HETATM   19  C16 UNL     1      23.103  64.688   9.988  1.00  0.00     0.208 C 
BRANCH  19  20
HETATM   20  C17 UNL     1      23.758  64.769   8.643  1.00  0.00    -0.015 A 
HETATM   21  C18 UNL     1      25.064  64.633   8.497  1.00  0.00     0.117 A 
HETATM   22  N2  UNL     1      25.596  64.725   7.181  1.00  0.00    -0.305 N 
HETATM   23  N3  UNL     1      24.796  64.951   6.058  1.00  0.00    -0.268 N 
ATOM     24  H2  UNL     1      26.602  64.622   7.052  1.00  0.00     0.186 HD
HETATM   25  C19 UNL     1      25.339  65.042   4.741  1.00  0.00     0.116 A 
HETATM   26  C23 UNL     1      23.395  65.090   6.274  1.00  0.00     0.056 A 
HETATM   27  C20 UNL     1      24.549  65.256   3.699  1.00  0.00     0.019 A 
HETATM   28  C21 UNL     1      23.109  65.403   3.880  1.00  0.00     0.004 A 
HETATM   29  C22 UNL     1      22.571  65.325   5.090  1.00  0.00     0.031 A 
HETATM   30  C24 UNL     1      22.879  65.006   7.500  1.00  0.00     0.042 A 
ENDBRANCH  19  20
ENDBRANCH  18  19
ENDBRANCH  14  18
TORSDOF 4
ENDMDL
MODEL 4
REMARK VINA RESULT: -7.883561546      3.311      8.038
REMARK  4 active torsions:
REMARK  status: ('A' for Active; 'I' for Inactive)
REMARK    1  A    between atoms: C8_8  and  C9_9 
REMARK    2  A    between atoms: C15_17  and  O1_18 
REMARK    3  A    between atoms: O1_18  and  C16_19 
REMARK    4  A    between atoms: C16_19  and  C17_20 
ROOT
HETATM    1  C1  UNL     1      24.603  64.580   9.731  1.00  0.00     0.046 C 
HETATM    2  C2  UNL     1      23.274  63.895   9.949  1.00  0.00    -0.052 C 
HETATM    3  C3  UNL     1      22.341  63.923   8.999  1.00  0.00    -0.062 C 
HETATM    4  C4  UNL     1      22.714  64.672   7.737  1.00  0.00     0.035 C 
HETATM    5  C5  UNL     1      21.565  64.968   6.836  1.00  0.00     0.004 C 
HETATM    6  C6  UNL     1      20.323  65.081   7.690  1.00  0.00     0.002 C 
HETATM    7  C7  UNL     1      19.972  63.734   8.282  1.00  0.00     0.019 C 
HETATM    8  C8  UNL     1      21.059  63.240   9.218  1.00  0.00     0.036 C 
HETATM    9  C12 UNL     1      20.611  63.382  10.656  1.00  0.00     0.205 C 
HETATM   10  F1  UNL     1      19.930  62.261  11.138  1.00  0.00    -0.225 F 
HETATM   11  C13 UNL     1      19.609  64.481  10.791  1.00  0.00     0.104 C 
HETATM   12  N1  UNL     1      18.819  65.330  10.916  1.00  0.00    -0.194 NA
HETATM   13  C14 UNL     1      21.662  63.675  11.659  1.00  0.00     0.097 C 
HETATM   14  C15 UNL     1      23.057  63.233  11.263  1.00  0.00     0.154 C 
ENDROOT
BRANCH   8  15
HETATM   15  C9  UNL     1      21.194  61.746   8.935  1.00  0.00    -0.006 C 
HETATM   16  C10 UNL     1      22.131  61.465   7.770  1.00  0.00     0.011 C 
HETATM   17  C11 UNL     1      19.852  61.163   8.438  1.00  0.00     0.011 C 
ENDBRANCH   8  15
BRANCH  14  18
HETATM   18  O1  UNL     1      23.911  63.849  12.211  1.00  0.00    -0.377 OA
BRANCH  18  19
HETATM   19  C16 UNL     1      24.920  62.975  12.554  1.00  0.00     0.208 C 
BRANCH  19  20
HETATM   20  C17 UNL     1      24.286  61.836  13.294  1.00  0.00    -0.015 A 
HETATM   21  C18 UNL     1      24.472  60.580  12.927  1.00  0.00     0.117 A 
HETATM   22  N2  UNL     1      23.829  59.566  13.690  1.00  0.00    -0.305 N 
HETATM   23  N3  UNL     1      23.022  59.851  14.795  1.00  0.00    -0.268 N 
ATOM     24  H2  UNL     1      23.963  58.592  13.420  1.00  0.00     0.186 HD
HETATM   25  C19 UNL     1      22.382  58.826  15.554  1.00  0.00     0.116 A 
HETATM   26  C23 UNL     1      22.858  61.222  15.145  1.00  0.00     0.056 A 
HETATM   27  C20 UNL     1      21.625  59.134  16.597  1.00  0.00     0.019 A 
HETATM   28  C21 UNL     1      21.432  60.526  16.987  1.00  0.00     0.004 A 
HETATM   29  C22 UNL     1      22.013  61.503  16.303  1.00  0.00     0.031 A 
HETATM   30  C24 UNL     1      23.453  62.185  14.442  1.00  0.00     0.042 A 
ENDBRANCH  19  20
ENDBRANCH  18  19
ENDBRANCH  14  18
TORSDOF 4
ENDMDL
MODEL 5
REMARK VINA RESULT: -7.742730425      2.553      4.076
REMARK  4 active torsions:
REMARK  status: ('A' for Active; 'I' for Inactive)
REMARK    1  A    between atoms: C8_8  and  C9_9 
REMARK    2  A    between atoms: C15_17  and  O1_18 
REMARK    3  A    between atoms: O1_18  and  C16_19 
REMARK    4  A    between atoms: C16_19  and  C17_20 
ROOT
HETATM    1  C1  UNL     1      25.038  65.384   9.166  1.00  0.00     0.046 C 
HETATM    2  C2  UNL     1      23.721  64.758   8.770  1.00  0.00    -0.052 C 
HETATM    3  C3  UNL     1      23.180  63.801   9.522  1.00  0.00    -0.062 C 
HETATM    4  C4  UNL     1      23.970  63.413  10.754  1.00  0.00     0.035 C 
HETATM    5  C5  UNL     1      23.525  62.142  11.393  1.00  0.00     0.004 C 
HETATM    6  C6  UNL     1      22.929  61.265  10.316  1.00  0.00     0.002 C 
HETATM    7  C7  UNL     1      21.644  61.871   9.799  1.00  0.00     0.019 C 
HETATM    8  C8  UNL     1      21.891  63.212   9.134  1.00  0.00     0.036 C 
HETATM    9  C12 UNL     1      21.793  63.072   7.631  1.00  0.00     0.205 C 
HETATM   10  F1  UNL     1      20.499  63.265   7.140  1.00  0.00    -0.225 F 
HETATM   11  C13 UNL     1      22.121  61.678   7.207  1.00  0.00     0.104 C 
HETATM   12  N1  UNL     1      22.365  60.594   6.857  1.00  0.00    -0.194 NA
HETATM   13  C14 UNL     1      22.666  63.952   6.818  1.00  0.00     0.097 C 
HETATM   14  C15 UNL     1      23.094  65.233   7.507  1.00  0.00     0.154 C 
ENDROOT
BRANCH   8  15
HETATM   15  C9  UNL     1      20.738  64.108   9.578  1.00  0.00    -0.006 C 
HETATM   16  C10 UNL     1      20.940  64.647  10.986  1.00  0.00     0.011 C 
HETATM   17  C11 UNL     1      19.434  63.290   9.713  1.00  0.00     0.011 C 
ENDBRANCH   8  15
BRANCH  14  18
HETATM   18  O1  UNL     1      24.117  65.761   6.681  1.00  0.00    -0.377 OA
BRANCH  18  19
HETATM   19  C16 UNL     1      24.566  64.778   5.825  1.00  0.00     0.208 C 
BRANCH  19  20
HETATM   20  C17 UNL     1      24.529  65.347   4.440  1.00  0.00    -0.015 A 
HETATM   21  C18 UNL     1      24.988  66.557   4.173  1.00  0.00     0.117 A 
HETATM   22  N2  UNL     1      24.911  67.012   2.828  1.00  0.00    -0.305 N 
HETATM   23  N3  UNL     1      24.375  66.235   1.798  1.00  0.00    -0.268 N 
ATOM     24  H2  UNL     1      25.261  67.944   2.606  1.00  0.00     0.186 HD
HETATM   25  C19 UNL     1      24.302  66.701   0.451  1.00  0.00     0.116 A 
HETATM   26  C23 UNL     1      23.895  64.939   2.142  1.00  0.00     0.056 A 
HETATM   27  C20 UNL     1      23.788  65.935  -0.500  1.00  0.00     0.019 A 
HETATM   28  C21 UNL     1      23.286  64.602  -0.187  1.00  0.00     0.004 A 
HETATM   29  C22 UNL     1      23.338  64.139   1.054  1.00  0.00     0.031 A 
HETATM   30  C24 UNL     1      23.959  64.496   3.397  1.00  0.00     0.042 A 
ENDBRANCH  19  20
ENDBRANCH  18  19
ENDBRANCH  14  18
TORSDOF 4
ENDMDL
