MODEL 1
REMARK VINA RESULT: -8.339000976      0.000      0.000
REMARK  4 active torsions:
REMARK  status: ('A' for Active; 'I' for Inactive)
REMARK    1  A    between atoms: C4_4  and  C5_5 
REMARK    2  A    between atoms: C15_17  and  N1_18 
REMARK    3  A    between atoms: N1_18  and  C16_20 
REMARK    4  A    between atoms: C16_20  and  C17_21 
ROOT
HETATM    1  C1  UNL     1      23.985  60.778  11.972  1.00  0.00     0.012 C 
HETATM    2  C2  UNL     1      22.824  61.723  12.194  1.00  0.00     0.004 C 
HETATM    3  C3  UNL     1      22.440  62.416  10.897  1.00  0.00     0.016 C 
HETATM    4  C4  UNL     1      22.887  63.845  10.838  1.00  0.00     0.026 C 
HETATM    5  C13 UNL     1      24.310  64.027  11.345  1.00  0.00     0.012 C 
HETATM    6  C14 UNL     1      24.577  63.336  12.641  1.00  0.00     0.026 C 
HETATM    7  C15 UNL     1      23.256  62.775  13.168  1.00  0.00     0.080 C 
ENDROOT
BRANCH   4   8
HETATM    8  C5  UNL     1      22.945  64.218   9.382  1.00  0.00    -0.012 A 
HETATM    9  C6  UNL     1      24.038  64.528   8.618  1.00  0.00     0.027 A 
HETATM   10  C7  UNL     1      23.809  64.830   7.315  1.00  0.00    -0.016 A 
HETATM   11  C8  UNL     1      24.793  65.174   6.367  1.00  0.00     0.036 A 
HETATM   12  C12 UNL     1      22.516  64.796   6.884  1.00  0.00     0.015 A 
HETATM   13  C9  UNL     1      24.426  65.456   5.085  1.00  0.00     0.035 A 
HETATM   14 CL1  UNL     1      25.663  65.888   3.898  1.00  0.00    -0.084 Cl
HETATM   15  C10 UNL     1      23.128  65.431   4.614  1.00  0.00     0.025 A 
HETATM   16  C11 UNL     1      22.168  65.091   5.555  1.00  0.00     0.021 A 
HETATM   17  S1  UNL     1      21.653  64.350   8.288  1.00  0.00    -0.094 SA
ENDBRANCH   4   8
BRANCH   7  18
HETATM   18  N1  UNL     1      23.506  62.249  14.469  1.00  0.00    -0.416 N 
ATOM     19  H1  UNL     1      24.443  62.218  14.873  1.00  0.00     0.153 HD
BRANCH  18  20
HETATM   20  C16 UNL     1      22.363  61.769  15.166  1.00  0.00     0.118 C 
BRANCH  20  21
HETATM   21  C17 UNL     1      22.566  60.371  15.725  1.00  0.00     0.007 C 
HETATM   22  C18 UNL     1      21.627  59.399  15.082  1.00  0.00     0.032 C 
HETATM   23  C19 UNL     1      22.088  58.000  15.468  1.00  0.00     0.168 C 
HETATM   24  O1  UNL     1      22.582  58.000  16.754  1.00  0.00    -0.391 OA
HETATM   25  C20 UNL     1      21.960  58.916  17.586  1.00  0.00     0.168 C 
HETATM   26  C21 UNL     1      22.346  60.332  17.211  1.00  0.00     0.032 C 
ENDBRANCH  20  21
ENDBRANCH  18  20
ENDBRANCH   7  18
TORSDOF 4
ENDMDL
MODEL 2
REMARK VINA RESULT: -8.041822630      1.286      1.656
REMARK  4 active torsions:
REMARK  status: ('A' for Active; 'I' for Inactive)
REMARK    1  A    between atoms: C4_4  and  C5_5 
REMARK    2  A    between atoms: C15_17  and  N1_18 
REMARK    3  A    between atoms: N1_18  and  C16_20 
REMARK    4  A    between atoms: C16_20  and  C17_21 
ROOT
HETATM    1  C1  UNL     1      23.895  60.634  12.262  1.00  0.00     0.012 C 
HETATM    2  C2  UNL     1      22.713  61.552  12.483  1.00  0.00     0.004 C 
HETATM    3  C3  UNL     1      22.323  62.248  11.189  1.00  0.00     0.016 C 
HETATM    4  C4  UNL     1      22.740  63.686  11.144  1.00  0.00     0.026 C 
HETATM    5  C13 UNL     1      24.155  63.895  11.663  1.00  0.00     0.012 C 
HETATM    6  C14 UNL     1      24.428  63.199  12.954  1.00  0.00     0.026 C 
HETATM    7  C15 UNL     1      23.116  62.607  13.468  1.00  0.00     0.080 C 
ENDROOT
BRANCH   4   8
HETATM    8  C5  UNL     1      22.800  64.072   9.691  1.00  0.00    -0.012 A 
HETATM    9  C6  UNL     1      23.891  64.410   8.937  1.00  0.00     0.027 A 
HETATM   10  C7  UNL     1      23.665  64.717   7.635  1.00  0.00    -0.016 A 
HETATM   11  C8  UNL     1      24.648  65.090   6.696  1.00  0.00     0.036 A 
HETATM   12  C12 UNL     1      22.376  64.660   7.195  1.00  0.00     0.015 A 
HETATM   13  C9  UNL     1      24.284  65.373   5.414  1.00  0.00     0.035 A 
HETATM   14 CL1  UNL     1      25.519  65.840   4.239  1.00  0.00    -0.084 Cl
HETATM   15  C10 UNL     1      22.989  65.325   4.934  1.00  0.00     0.025 A 
HETATM   16  C11 UNL     1      22.031  64.957   5.866  1.00  0.00     0.021 A 
HETATM   17  S1  UNL     1      21.513  64.185   8.590  1.00  0.00    -0.094 SA
ENDBRANCH   4   8
BRANCH   7  18
HETATM   18  N1  UNL     1      23.368  62.075  14.767  1.00  0.00    -0.416 N 
ATOM     19  H1  UNL     1      24.304  62.053  15.174  1.00  0.00     0.153 HD
BRANCH  18  20
HETATM   20  C16 UNL     1      22.229  61.578  15.458  1.00  0.00     0.118 C 
BRANCH  20  21
HETATM   21  C17 UNL     1      22.396  61.627  16.967  1.00  0.00     0.007 C 
HETATM   22  C18 UNL     1      22.547  60.249  17.531  1.00  0.00     0.032 C 
HETATM   23  C19 UNL     1      23.001  60.397  18.977  1.00  0.00     0.168 C 
HETATM   24  O1  UNL     1      22.412  61.504  19.549  1.00  0.00    -0.391 OA
HETATM   25  C20 UNL     1      21.145  61.774  19.056  1.00  0.00     0.168 C 
HETATM   26  C21 UNL     1      21.221  62.286  17.633  1.00  0.00     0.032 C 
ENDBRANCH  20  21
ENDBRANCH  18  20
ENDBRANCH   7  18
TORSDOF 4
ENDMDL
MODEL 3
REMARK VINA RESULT: -7.985600354      1.575      2.021
REMARK  4 active torsions:
REMARK  status: ('A' for Active; 'I' for Inactive)
REMARK    1  A    between atoms: C4_4  and  C5_5 
REMARK    2  A    between atoms: C15_17  and  N1_18 
REMARK    3  A    between atoms: N1_18  and  C16_20 
REMARK    4  A    between atoms: C16_20  and  C17_21 
ROOT
HETATM    1  C1  UNL     1      24.184  60.646  12.143  1.00  0.00     0.012 C 
HETATM    2  C2  UNL     1      22.952  61.495  12.372  1.00  0.00     0.004 C 
HETATM    3  C3  UNL     1      22.523  62.177  11.083  1.00  0.00     0.016 C 
HETATM    4  C4  UNL     1      22.859  63.637  11.050  1.00  0.00     0.026 C 
HETATM    5  C13 UNL     1      24.260  63.920  11.569  1.00  0.00     0.012 C 
HETATM    6  C14 UNL     1      24.573  63.231  12.855  1.00  0.00     0.026 C 
HETATM    7  C15 UNL     1      23.297  62.562  13.365  1.00  0.00     0.080 C 
ENDROOT
BRANCH   4   8
HETATM    8  C5  UNL     1      22.895  64.037   9.600  1.00  0.00    -0.012 A 
HETATM    9  C6  UNL     1      23.974  64.377   8.830  1.00  0.00     0.027 A 
HETATM   10  C7  UNL     1      23.726  64.698   7.536  1.00  0.00    -0.016 A 
HETATM   11  C8  UNL     1      24.695  65.075   6.583  1.00  0.00     0.036 A 
HETATM   12  C12 UNL     1      22.430  64.652   7.118  1.00  0.00     0.015 A 
HETATM   13  C9  UNL     1      24.310  65.373   5.310  1.00  0.00     0.035 A 
HETATM   14 CL1  UNL     1      25.526  65.845   4.118  1.00  0.00    -0.084 Cl
HETATM   15  C10 UNL     1      23.006  65.337   4.853  1.00  0.00     0.025 A 
HETATM   16  C11 UNL     1      22.063  64.965   5.798  1.00  0.00     0.021 A 
HETATM   17  S1  UNL     1      21.589  64.168   8.523  1.00  0.00    -0.094 SA
ENDBRANCH   4   8
BRANCH   7  18
HETATM   18  N1  UNL     1      23.581  62.035  14.660  1.00  0.00    -0.416 N 
ATOM     19  H1  UNL     1      24.433  62.270  15.168  1.00  0.00     0.153 HD
BRANCH  18  20
HETATM   20  C16 UNL     1      22.595  61.160  15.195  1.00  0.00     0.118 C 
BRANCH  20  21
HETATM   21  C17 UNL     1      21.576  61.888  16.054  1.00  0.00     0.007 C 
HETATM   22  C18 UNL     1      21.851  61.668  17.509  1.00  0.00     0.032 C 
HETATM   23  C19 UNL     1      20.989  62.651  18.289  1.00  0.00     0.168 C 
HETATM   24  O1  UNL     1      19.777  62.825  17.656  1.00  0.00    -0.391 OA
HETATM   25  C20 UNL     1      19.332  61.694  16.990  1.00  0.00     0.168 C 
HETATM   26  C21 UNL     1      20.175  61.428  15.761  1.00  0.00     0.032 C 
ENDBRANCH  20  21
ENDBRANCH  18  20
ENDBRANCH   7  18
TORSDOF 4
ENDMDL
MODEL 4
REMARK VINA RESULT: -7.952625825      0.791      1.094
REMARK  4 active torsions:
REMARK  status: ('A' for Active; 'I' for Inactive)
REMARK    1  A    between atoms: C4_4  and  C5_5 
REMARK    2  A    between atoms: C15_17  and  N1_18 
REMARK    3  A    between atoms: N1_18  and  C16_20 
REMARK    4  A    between atoms: C16_20  and  C17_21 
ROOT
HETATM    1  C1  UNL     1      24.149  60.603  11.820  1.00  0.00     0.012 C 
HETATM    2  C2  UNL     1      22.883  61.407  12.024  1.00  0.00     0.004 C 
HETATM    3  C3  UNL     1      22.485  62.118  10.741  1.00  0.00     0.016 C 
HETATM    4  C4  UNL     1      22.777  63.587  10.766  1.00  0.00     0.026 C 
HETATM    5  C13 UNL     1      24.147  63.895  11.351  1.00  0.00     0.012 C 
HETATM    6  C14 UNL     1      24.429  63.175  12.627  1.00  0.00     0.026 C 
HETATM    7  C15 UNL     1      23.155  62.452  13.063  1.00  0.00     0.080 C 
ENDROOT
BRANCH   4   8
HETATM    8  C5  UNL     1      22.859  64.034   9.332  1.00  0.00    -0.012 A 
HETATM    9  C6  UNL     1      23.965  64.373   8.600  1.00  0.00     0.027 A 
HETATM   10  C7  UNL     1      23.758  64.743   7.312  1.00  0.00    -0.016 A 
HETATM   11  C8  UNL     1      24.759  65.126   6.396  1.00  0.00     0.036 A 
HETATM   12  C12 UNL     1      22.471  64.743   6.861  1.00  0.00     0.015 A 
HETATM   13  C9  UNL     1      24.413  65.476   5.125  1.00  0.00     0.035 A 
HETATM   14 CL1  UNL     1      25.670  65.957   3.980  1.00  0.00    -0.084 Cl
HETATM   15  C10 UNL     1      23.121  65.488   4.635  1.00  0.00     0.025 A 
HETATM   16  C11 UNL     1      22.145  65.109   5.544  1.00  0.00     0.021 A 
HETATM   17  S1  UNL     1      21.584  64.233   8.228  1.00  0.00    -0.094 SA
ENDBRANCH   4   8
BRANCH   7  18
HETATM   18  N1  UNL     1      23.402  61.893  14.351  1.00  0.00    -0.416 N 
ATOM     19  H1  UNL     1      24.316  61.529  14.620  1.00  0.00     0.153 HD
BRANCH  18  20
HETATM   20  C16 UNL     1      22.288  61.876  15.236  1.00  0.00     0.118 C 
BRANCH  20  21
HETATM   21  C17 UNL     1      21.743  60.476  15.459  1.00  0.00     0.007 C 
HETATM   22  C18 UNL     1      22.756  59.443  15.076  1.00  0.00     0.032 C 
HETATM   23  C19 UNL     1      22.257  58.102  15.598  1.00  0.00     0.168 C 
HETATM   24  O1  UNL     1      20.883  58.039  15.510  1.00  0.00    -0.391 OA
HETATM   25  C20 UNL     1      20.365  58.743  14.435  1.00  0.00     0.168 C 
HETATM   26  C21 UNL     1      20.493  60.235  14.659  1.00  0.00     0.032 C 
ENDBRANCH  20  21
ENDBRANCH  18  20
ENDBRANCH   7  18
TORSDOF 4
ENDMDL
MODEL 5
REMARK VINA RESULT: -7.886448970      1.515      2.014
REMARK  4 active torsions:
REMARK  status: ('A' for Active; 'I' for Inactive)
REMARK    1  A    between atoms: C4_4  and  C5_5 
REMARK    2  A    between atoms: C15_17  and  N1_18 
REMARK    3  A    between atoms: N1_18  and  C16_20 
REMARK    4  A    between atoms: C16_20  and  C17_21 
ROOT
HETATM    1  C1  UNL     1      22.135  61.311  10.776  1.00  0.00     0.012 C 
HETATM    2  C2  UNL     1      21.660  62.738  10.952  1.00  0.00     0.004 C 
HETATM    3  C3  UNL     1      21.842  63.528   9.667  1.00  0.00     0.016 C 
HETATM    4  C4  UNL     1      22.998  64.480   9.720  1.00  0.00     0.026 C 
HETATM    5  C13 UNL     1      24.234  63.855  10.349  1.00  0.00     0.012 C 
HETATM    6  C14 UNL     1      23.956  63.131  11.624  1.00  0.00     0.026 C 
HETATM    7  C15 UNL     1      22.499  63.383  12.012  1.00  0.00     0.080 C 
ENDROOT
BRANCH   4   8
HETATM    8  C5  UNL     1      23.390  64.760   8.294  1.00  0.00    -0.012 A 
HETATM    9  C6  UNL     1      22.587  64.896   7.194  1.00  0.00     0.027 A 
HETATM   10  C7  UNL     1      23.203  65.151   6.014  1.00  0.00    -0.016 A 
HETATM   11  C8  UNL     1      22.560  65.325   4.771  1.00  0.00     0.036 A 
HETATM   12  C12 UNL     1      24.563  65.251   6.027  1.00  0.00     0.015 A 
HETATM   13  C9  UNL     1      23.301  65.578   3.657  1.00  0.00     0.035 A 
HETATM   14 CL1  UNL     1      22.491  65.794   2.100  1.00  0.00    -0.084 Cl
HETATM   15  C10 UNL     1      24.678  65.685   3.634  1.00  0.00     0.025 A 
HETATM   16  C11 UNL     1      25.301  65.514   4.861  1.00  0.00     0.021 A 
HETATM   17  S1  UNL     1      24.952  64.989   7.669  1.00  0.00    -0.094 SA
ENDBRANCH   4   8
BRANCH   7  18
HETATM   18  N1  UNL     1      22.295  62.805  13.300  1.00  0.00    -0.416 N 
ATOM     19  H1  UNL     1      21.371  62.736  13.725  1.00  0.00     0.153 HD
BRANCH  18  20
HETATM   20  C16 UNL     1      23.468  62.332  13.952  1.00  0.00     0.118 C 
BRANCH  20  21
HETATM   21  C17 UNL     1      23.173  61.217  14.941  1.00  0.00     0.007 C 
HETATM   22  C18 UNL     1      22.639  60.009  14.237  1.00  0.00     0.032 C 
HETATM   23  C19 UNL     1      22.652  58.859  15.235  1.00  0.00     0.168 C 
HETATM   24  O1  UNL     1      22.358  59.323  16.499  1.00  0.00    -0.391 OA
HETATM   25  C20 UNL     1      21.488  60.402  16.504  1.00  0.00     0.168 C 
HETATM   26  C21 UNL     1      22.172  61.645  15.977  1.00  0.00     0.032 C 
ENDBRANCH  20  21
ENDBRANCH  18  20
ENDBRANCH   7  18
TORSDOF 4
ENDMDL
