MODEL 1
REMARK VINA RESULT: -7.360708998      0.000      0.000
REMARK  4 active torsions:
REMARK  status: ('A' for Active; 'I' for Inactive)
REMARK    1  A    between atoms: C2_2  and  C3_3 
REMARK    2  A    between atoms: C3_3  and  C4_4 
REMARK    3  A    between atoms: C15_17  and  C17_19 
REMARK    4  A    between atoms: C17_19  and  O3_20 
ROOT
HETATM    1  C3  UNL     1      23.230  64.045   8.838  1.00  0.00    -0.014 C 
HETATM    2  C6  UNL     1      22.595  63.356   7.695  1.00  0.00     0.055 C 
HETATM    3  C7  UNL     1      21.821  62.091   7.987  1.00  0.00     0.097 C 
HETATM    4  C8  UNL     1      22.324  61.074   6.922  1.00  0.00     0.050 C 
HETATM    5  O1  UNL     1      22.186  61.479   9.165  1.00  0.00    -0.229 OA
HETATM    6  O2  UNL     1      21.504  61.716  10.206  1.00  0.00    -0.228 OA
HETATM    7  C9  UNL     1      21.817  62.996  10.732  1.00  0.00     0.109 C 
HETATM    8  C10 UNL     1      20.611  63.866  10.736  1.00  0.00     0.024 C 
HETATM    9  C11 UNL     1      19.752  63.705  12.005  1.00  0.00     0.008 C 
HETATM   10  C12 UNL     1      19.699  62.299  12.482  1.00  0.00     0.001 C 
HETATM   11  C13 UNL     1      21.072  61.662  12.623  1.00  0.00     0.009 C 
HETATM   12  C14 UNL     1      22.070  62.696  12.225  1.00  0.00     0.034 C 
HETATM   13  C15 UNL     1      23.461  62.375  12.599  1.00  0.00    -0.016 C 
HETATM   14  C16 UNL     1      23.881  60.959  12.280  1.00  0.00     0.018 C 
HETATM   15  C18 UNL     1      24.468  63.394  12.171  1.00  0.00     0.012 C 
HETATM   16  C19 UNL     1      23.819  64.325  11.168  1.00  0.00     0.010 C 
HETATM   17  C20 UNL     1      23.071  63.439  10.165  1.00  0.00     0.036 C 
HETATM   18  C21 UNL     1      19.693  63.797   9.579  1.00  0.00     0.008 C 
HETATM   19  C22 UNL     1      19.452  62.534   8.878  1.00  0.00     0.008 C 
HETATM   20  C23 UNL     1      20.365  62.171   7.754  1.00  0.00     0.019 C 
HETATM   21  C24 UNL     1      20.103  63.022   6.517  1.00  0.00     0.013 C 
ENDROOT
BRANCH   1  22
HETATM   22  C2  UNL     1      24.735  64.028   8.591  1.00  0.00    -0.027 C 
HETATM   23  C1  UNL     1      25.305  64.890   7.783  1.00  0.00     0.008 C 
ENDBRANCH   1  22
BRANCH   1  24
HETATM   24  C4  UNL     1      22.961  65.563   8.792  1.00  0.00     0.009 C 
HETATM   25  C5  UNL     1      22.039  65.859   7.595  1.00  0.00     0.006 C 
ENDBRANCH   1  24
BRANCH  13  26
HETATM   26  C17 UNL     1      23.496  62.463  14.142  1.00  0.00     0.173 C 
BRANCH  26  27
HETATM   27  O3  UNL     1      23.734  61.157  14.630  1.00  0.00    -0.400 OA
ATOM     28  H3  UNL     1      23.863  61.227  15.568  1.00  0.00     0.209 HD
ENDBRANCH  26  27
ENDBRANCH  13  26
TORSDOF 4
ENDMDL
MODEL 2
REMARK VINA RESULT: -6.633033801      1.788      5.213
REMARK  4 active torsions:
REMARK  status: ('A' for Active; 'I' for Inactive)
REMARK    1  A    between atoms: C2_2  and  C3_3 
REMARK    2  A    between atoms: C3_3  and  C4_4 
REMARK    3  A    between atoms: C15_17  and  C17_19 
REMARK    4  A    between atoms: C17_19  and  O3_20 
ROOT
HETATM    1  C3  UNL     1      19.110  63.260  10.037  1.00  0.00    -0.014 C 
HETATM    2  C6  UNL     1      19.142  61.957  10.734  1.00  0.00     0.055 C 
HETATM    3  C7  UNL     1      20.427  61.164  10.670  1.00  0.00     0.097 C 
HETATM    4  C8  UNL     1      19.976  59.724  10.292  1.00  0.00     0.050 C 
HETATM    5  O1  UNL     1      21.233  61.502   9.606  1.00  0.00    -0.229 OA
HETATM    6  O2  UNL     1      22.169  62.335   9.797  1.00  0.00    -0.228 OA
HETATM    7  C9  UNL     1      21.660  63.657   9.878  1.00  0.00     0.109 C 
HETATM    8  C10 UNL     1      21.963  64.250  11.207  1.00  0.00     0.024 C 
HETATM    9  C11 UNL     1      23.347  64.926  11.268  1.00  0.00     0.008 C 
HETATM   10  C12 UNL     1      24.376  64.186  10.492  1.00  0.00     0.001 C 
HETATM   11  C13 UNL     1      23.943  63.870   9.070  1.00  0.00     0.009 C 
HETATM   12  C14 UNL     1      22.570  64.430   8.903  1.00  0.00     0.034 C 
HETATM   13  C15 UNL     1      22.112  64.506   7.502  1.00  0.00    -0.016 C 
HETATM   14  C16 UNL     1      22.369  63.256   6.694  1.00  0.00     0.018 C 
HETATM   15  C18 UNL     1      20.724  65.036   7.334  1.00  0.00     0.012 C 
HETATM   16  C19 UNL     1      20.039  65.038   8.684  1.00  0.00     0.010 C 
HETATM   17  C20 UNL     1      20.325  63.675   9.325  1.00  0.00     0.036 C 
HETATM   18  C21 UNL     1      21.849  63.389  12.403  1.00  0.00     0.008 C 
HETATM   19  C22 UNL     1      22.199  61.968  12.349  1.00  0.00     0.008 C 
HETATM   20  C23 UNL     1      21.133  60.998  11.956  1.00  0.00     0.019 C 
HETATM   21  C24 UNL     1      20.108  60.805  13.067  1.00  0.00     0.013 C 
ENDROOT
BRANCH   1  22
HETATM   22  C2  UNL     1      18.048  63.158   8.947  1.00  0.00    -0.027 C 
HETATM   23  C1  UNL     1      18.008  62.138   8.123  1.00  0.00     0.008 C 
ENDBRANCH   1  22
BRANCH   1  24
HETATM   24  C4  UNL     1      18.486  64.353  10.927  1.00  0.00     0.009 C 
HETATM   25  C5  UNL     1      18.099  63.721  12.277  1.00  0.00     0.006 C 
ENDBRANCH   1  24
BRANCH  13  26
HETATM   26  C17 UNL     1      22.992  65.593   6.845  1.00  0.00     0.173 C 
BRANCH  26  27
HETATM   27  O3  UNL     1      23.592  65.012   5.703  1.00  0.00    -0.400 OA
ATOM     28  H3  UNL     1      23.038  65.218   4.960  1.00  0.00     0.209 HD
ENDBRANCH  26  27
ENDBRANCH  13  26
TORSDOF 4
ENDMDL
MODEL 3
REMARK VINA RESULT: -6.582380078      1.922      3.435
REMARK  4 active torsions:
REMARK  status: ('A' for Active; 'I' for Inactive)
REMARK    1  A    between atoms: C2_2  and  C3_3 
REMARK    2  A    between atoms: C3_3  and  C4_4 
REMARK    3  A    between atoms: C15_17  and  C17_19 
REMARK    4  A    between atoms: C17_19  and  O3_20 
ROOT
HETATM    1  C3  UNL     1      20.787  63.539  11.013  1.00  0.00    -0.014 C 
HETATM    2  C6  UNL     1      19.762  62.615  10.483  1.00  0.00     0.055 C 
HETATM    3  C7  UNL     1      19.943  61.140  10.762  1.00  0.00     0.097 C 
HETATM    4  C8  UNL     1      19.714  60.455   9.384  1.00  0.00     0.050 C 
HETATM    5  O1  UNL     1      21.243  60.787  11.047  1.00  0.00    -0.229 OA
HETATM    6  O2  UNL     1      21.593  60.699  12.261  1.00  0.00    -0.228 OA
HETATM    7  C9  UNL     1      21.781  61.987  12.826  1.00  0.00     0.109 C 
HETATM    8  C10 UNL     1      20.845  62.199  13.961  1.00  0.00     0.024 C 
HETATM    9  C11 UNL     1      21.393  61.679  15.304  1.00  0.00     0.008 C 
HETATM   10  C12 UNL     1      22.163  60.417  15.155  1.00  0.00     0.001 C 
HETATM   11  C13 UNL     1      23.232  60.491  14.078  1.00  0.00     0.009 C 
HETATM   12  C14 UNL     1      23.165  61.863  13.497  1.00  0.00     0.034 C 
HETATM   13  C15 UNL     1      24.328  62.229  12.666  1.00  0.00    -0.016 C 
HETATM   14  C16 UNL     1      24.750  61.164  11.681  1.00  0.00     0.018 C 
HETATM   15  C18 UNL     1      24.248  63.591  12.055  1.00  0.00     0.012 C 
HETATM   16  C19 UNL     1      22.827  64.099  12.187  1.00  0.00     0.010 C 
HETATM   17  C20 UNL     1      21.908  62.950  11.756  1.00  0.00     0.036 C 
HETATM   18  C21 UNL     1      19.462  61.693  13.833  1.00  0.00     0.008 C 
HETATM   19  C22 UNL     1      19.173  60.451  13.114  1.00  0.00     0.008 C 
HETATM   20  C23 UNL     1      18.926  60.533  11.643  1.00  0.00     0.019 C 
HETATM   21  C24 UNL     1      17.566  61.145  11.332  1.00  0.00     0.013 C 
ENDROOT
BRANCH   1  22
HETATM   22  C2  UNL     1      21.441  64.216   9.813  1.00  0.00    -0.027 C 
HETATM   23  C1  UNL     1      21.870  63.523   8.786  1.00  0.00     0.008 C 
ENDBRANCH   1  22
BRANCH   1  24
HETATM   24  C4  UNL     1      20.137  64.758  11.697  1.00  0.00     0.009 C 
HETATM   25  C5  UNL     1      18.637  64.770  11.350  1.00  0.00     0.006 C 
ENDBRANCH   1  24
BRANCH  13  26
HETATM   26  C17 UNL     1      25.510  62.349  13.654  1.00  0.00     0.173 C 
BRANCH  26  27
HETATM   27  O3  UNL     1      26.485  61.404  13.257  1.00  0.00    -0.400 OA
ATOM     28  H3  UNL     1      27.113  61.861  12.711  1.00  0.00     0.209 HD
ENDBRANCH  26  27
ENDBRANCH  13  26
TORSDOF 4
ENDMDL
MODEL 4
REMARK VINA RESULT: -6.508360047      1.694      4.392
REMARK  4 active torsions:
REMARK  status: ('A' for Active; 'I' for Inactive)
REMARK    1  A    between atoms: C2_2  and  C3_3 
REMARK    2  A    between atoms: C3_3  and  C4_4 
REMARK    3  A    between atoms: C15_17  and  C17_19 
REMARK    4  A    between atoms: C17_19  and  O3_20 
ROOT
HETATM    1  C3  UNL     1      19.627  61.747  10.313  1.00  0.00    -0.014 C 
HETATM    2  C6  UNL     1      18.623  62.803  10.065  1.00  0.00     0.055 C 
HETATM    3  C7  UNL     1      19.082  64.239  10.168  1.00  0.00     0.097 C 
HETATM    4  C8  UNL     1      17.999  64.930  11.047  1.00  0.00     0.050 C 
HETATM    5  O1  UNL     1      20.218  64.403  10.928  1.00  0.00    -0.229 OA
HETATM    6  O2  UNL     1      21.338  64.458  10.338  1.00  0.00    -0.228 OA
HETATM    7  C9  UNL     1      21.755  63.165   9.929  1.00  0.00     0.109 C 
HETATM    8  C10 UNL     1      21.900  63.109   8.451  1.00  0.00     0.024 C 
HETATM    9  C11 UNL     1      23.288  63.564   7.960  1.00  0.00     0.008 C 
HETATM   10  C12 UNL     1      23.830  64.697   8.754  1.00  0.00     0.001 C 
HETATM   11  C13 UNL     1      23.792  64.452  10.253  1.00  0.00     0.009 C 
HETATM   12  C14 UNL     1      23.204  63.095  10.453  1.00  0.00     0.034 C 
HETATM   13  C15 UNL     1      23.381  62.550  11.813  1.00  0.00    -0.016 C 
HETATM   14  C16 UNL     1      23.065  63.528  12.921  1.00  0.00     0.018 C 
HETATM   15  C18 UNL     1      22.764  61.206  12.026  1.00  0.00     0.012 C 
HETATM   16  C19 UNL     1      21.829  60.913  10.871  1.00  0.00     0.010 C 
HETATM   17  C20 UNL     1      20.988  62.177  10.654  1.00  0.00     0.036 C 
HETATM   18  C21 UNL     1      20.897  63.810   7.620  1.00  0.00     0.008 C 
HETATM   19  C22 UNL     1      20.296  65.070   8.061  1.00  0.00     0.008 C 
HETATM   20  C23 UNL     1      19.065  65.002   8.904  1.00  0.00     0.019 C 
HETATM   21  C24 UNL     1      17.845  64.591   8.089  1.00  0.00     0.013 C 
ENDROOT
BRANCH   1  22
HETATM   22  C2  UNL     1      19.159  60.963  11.534  1.00  0.00    -0.027 C 
HETATM   23  C1  UNL     1      18.726  61.571  12.613  1.00  0.00     0.008 C 
ENDBRANCH   1  22
BRANCH   1  24
HETATM   24  C4  UNL     1      19.556  60.647   9.235  1.00  0.00     0.009 C 
HETATM   25  C5  UNL     1      18.236  60.809   8.459  1.00  0.00     0.006 C 
ENDBRANCH   1  24
BRANCH  13  26
HETATM   26  C17 UNL     1      24.896  62.274  11.945  1.00  0.00     0.173 C 
BRANCH  26  27
HETATM   27  O3  UNL     1      25.281  62.668  13.248  1.00  0.00    -0.400 OA
ATOM     28  H3  UNL     1      25.737  61.933  13.640  1.00  0.00     0.209 HD
ENDBRANCH  26  27
ENDBRANCH  13  26
TORSDOF 4
ENDMDL
MODEL 5
REMARK VINA RESULT: -6.474105623      1.863      4.965
REMARK  4 active torsions:
REMARK  status: ('A' for Active; 'I' for Inactive)
REMARK    1  A    between atoms: C2_2  and  C3_3 
REMARK    2  A    between atoms: C3_3  and  C4_4 
REMARK    3  A    between atoms: C15_17  and  C17_19 
REMARK    4  A    between atoms: C17_19  and  O3_20 
ROOT
HETATM    1  C3  UNL     1      22.025  62.994  11.514  1.00  0.00    -0.014 C 
HETATM    2  C6  UNL     1      20.667  63.230  12.047  1.00  0.00     0.055 C 
HETATM    3  C7  UNL     1      19.686  63.958  11.157  1.00  0.00     0.097 C 
HETATM    4  C8  UNL     1      19.059  65.044  12.079  1.00  0.00     0.050 C 
HETATM    5  O1  UNL     1      20.286  64.721  10.181  1.00  0.00    -0.229 OA
HETATM    6  O2  UNL     1      20.424  64.223   9.024  1.00  0.00    -0.228 OA
HETATM    7  C9  UNL     1      21.491  63.289   9.001  1.00  0.00     0.109 C 
HETATM    8  C10 UNL     1      20.993  61.938   8.631  1.00  0.00     0.024 C 
HETATM    9  C11 UNL     1      20.939  61.708   7.108  1.00  0.00     0.008 C 
HETATM   10  C12 UNL     1      20.521  62.923   6.363  1.00  0.00     0.001 C 
HETATM   11  C13 UNL     1      21.319  64.161   6.737  1.00  0.00     0.009 C 
HETATM   12  C14 UNL     1      22.309  63.739   7.772  1.00  0.00     0.034 C 
HETATM   13  C15 UNL     1      23.380  64.721   8.025  1.00  0.00    -0.016 C 
HETATM   14  C16 UNL     1      22.897  66.144   8.180  1.00  0.00     0.018 C 
HETATM   15  C18 UNL     1      24.353  64.316   9.085  1.00  0.00     0.012 C 
HETATM   16  C19 UNL     1      23.776  63.144   9.850  1.00  0.00     0.010 C 
HETATM   17  C20 UNL     1      22.319  63.500  10.167  1.00  0.00     0.036 C 
HETATM   18  C21 UNL     1      19.695  61.494   9.182  1.00  0.00     0.008 C 
HETATM   19  C22 UNL     1      18.598  62.441   9.392  1.00  0.00     0.008 C 
HETATM   20  C23 UNL     1      18.532  63.159  10.700  1.00  0.00     0.019 C 
HETATM   21  C24 UNL     1      18.083  62.238  11.827  1.00  0.00     0.013 C 
ENDROOT
BRANCH   1  22
HETATM   22  C2  UNL     1      22.997  63.743  12.420  1.00  0.00    -0.027 C 
HETATM   23  C1  UNL     1      23.829  63.103  13.207  1.00  0.00     0.008 C 
ENDBRANCH   1  22
BRANCH   1  24
HETATM   24  C4  UNL     1      22.478  61.542  11.764  1.00  0.00     0.009 C 
HETATM   25  C5  UNL     1      21.333  60.788  12.464  1.00  0.00     0.006 C 
ENDBRANCH   1  24
BRANCH  13  26
HETATM   26  C17 UNL     1      24.235  64.728   6.738  1.00  0.00     0.173 C 
BRANCH  26  27
HETATM   27  O3  UNL     1      25.581  64.535   7.128  1.00  0.00    -0.400 OA
ATOM     28  H3  UNL     1      25.596  64.504   8.077  1.00  0.00     0.209 HD
ENDBRANCH  26  27
ENDBRANCH  13  26
TORSDOF 4
ENDMDL
