MODEL 1
REMARK VINA RESULT: -6.974983485      0.000      0.000
REMARK  6 active torsions:
REMARK  status: ('A' for Active; 'I' for Inactive)
REMARK    1  A    between atoms: C2_2  and  C5_5 
REMARK    2  A    between atoms: C5_5  and  O2_7 
REMARK    3  A    between atoms: O2_7  and  C6_8 
REMARK    4  A    between atoms: C6_8  and  C7_9 
REMARK    5  A    between atoms: C7_9  and  C8_10 
REMARK    6  A    between atoms: C8_10  and  C9_11 
ROOT
HETATM    1  C6  UNL     1      22.293  62.468   9.500  1.00  0.00     0.075 C 
HETATM    2  C10 UNL     1      21.207  63.568   9.205  1.00  0.00     0.039 C 
HETATM    3  C11 UNL     1      20.263  63.684  10.337  1.00  0.00     0.004 C 
HETATM    4  C12 UNL     1      20.886  64.334  11.552  1.00  0.00     0.010 C 
HETATM    5  C13 UNL     1      22.353  63.898  11.628  1.00  0.00    -0.037 C 
HETATM    6  C14 UNL     1      23.161  65.023  11.130  1.00  0.00     0.015 C 
HETATM    7  C15 UNL     1      22.629  63.764  13.107  1.00  0.00     0.010 C 
HETATM    8  C16 UNL     1      22.435  62.458  13.733  1.00  0.00     0.006 C 
HETATM    9  C17 UNL     1      22.881  61.257  12.971  1.00  0.00    -0.010 C 
HETATM   10  C18 UNL     1      23.700  60.272  13.712  1.00  0.00     0.005 C 
HETATM   11  C19 UNL     1      25.171  60.325  13.408  1.00  0.00     0.000 C 
HETATM   12  C20 UNL     1      25.555  61.738  13.081  1.00  0.00     0.000 C 
HETATM   13  C21 UNL     1      24.877  62.177  11.776  1.00  0.00     0.005 C 
HETATM   14  C22 UNL     1      23.496  61.668  11.612  1.00  0.00    -0.003 C 
HETATM   15  C23 UNL     1      22.482  62.566  10.976  1.00  0.00     0.033 C 
ENDROOT
BRANCH   1  16
HETATM   16  O2  UNL     1      23.271  62.838   8.633  1.00  0.00    -0.309 OA
BRANCH  16  17
HETATM   17  C5  UNL     1      23.336  63.570   7.513  1.00  0.00     0.267 C 
HETATM   18  O1  UNL     1      22.714  63.103   6.536  1.00  0.00    -0.264 OA
BRANCH  17  19
HETATM   19  C2  UNL     1      24.091  64.864   7.397  1.00  0.00     0.037 C 
HETATM   20  C1  UNL     1      23.212  66.038   7.735  1.00  0.00     0.025 C 
HETATM   21  C3  UNL     1      24.526  65.030   5.950  1.00  0.00     0.025 C 
HETATM   22  C4  UNL     1      25.330  64.860   8.256  1.00  0.00     0.025 C 
ENDBRANCH  17  19
ENDBRANCH  16  17
ENDBRANCH   1  16
BRANCH   1  23
HETATM   23  C7  UNL     1      21.547  61.202   9.152  1.00  0.00     0.040 C 
BRANCH  23  24
HETATM   24  C8  UNL     1      20.284  61.301   8.399  1.00  0.00     0.018 C 
BRANCH  24  25
HETATM   25  C9  UNL     1      19.273  60.356   9.119  1.00  0.00     0.115 C 
HETATM   26 CL1  UNL     1      19.937  59.942  10.699  1.00  0.00    -0.130 Cl
ENDBRANCH  24  25
ENDBRANCH  23  24
ENDBRANCH   1  23
TORSDOF 6
ENDMDL
MODEL 2
REMARK VINA RESULT: -6.972809810      2.163      5.442
REMARK  6 active torsions:
REMARK  status: ('A' for Active; 'I' for Inactive)
REMARK    1  A    between atoms: C2_2  and  C5_5 
REMARK    2  A    between atoms: C5_5  and  O2_7 
REMARK    3  A    between atoms: O2_7  and  C6_8 
REMARK    4  A    between atoms: C6_8  and  C7_9 
REMARK    5  A    between atoms: C7_9  and  C8_10 
REMARK    6  A    between atoms: C8_10  and  C9_11 
ROOT
HETATM    1  C6  UNL     1      20.840  63.318  11.038  1.00  0.00     0.075 C 
HETATM    2  C10 UNL     1      19.715  62.220  10.994  1.00  0.00     0.039 C 
HETATM    3  C11 UNL     1      19.049  62.209   9.673  1.00  0.00     0.004 C 
HETATM    4  C12 UNL     1      19.930  61.644   8.581  1.00  0.00     0.010 C 
HETATM    5  C13 UNL     1      21.377  62.057   8.871  1.00  0.00    -0.037 C 
HETATM    6  C14 UNL     1      22.050  60.882   9.447  1.00  0.00     0.015 C 
HETATM    7  C15 UNL     1      21.978  62.299   7.507  1.00  0.00     0.010 C 
HETATM    8  C16 UNL     1      21.932  63.653   6.960  1.00  0.00     0.006 C 
HETATM    9  C17 UNL     1      22.195  64.783   7.895  1.00  0.00    -0.010 C 
HETATM   10  C18 UNL     1      23.162  65.806   7.438  1.00  0.00     0.005 C 
HETATM   11  C19 UNL     1      24.526  65.703   8.059  1.00  0.00     0.000 C 
HETATM   12  C20 UNL     1      24.825  64.261   8.350  1.00  0.00     0.000 C 
HETATM   13  C21 UNL     1      23.870  63.736   9.430  1.00  0.00     0.005 C 
HETATM   14  C22 UNL     1      22.488  64.256   9.321  1.00  0.00    -0.003 C 
HETATM   15  C23 UNL     1      21.357  63.331   9.639  1.00  0.00     0.033 C 
ENDROOT
BRANCH   1  16
HETATM   16  O2  UNL     1      21.597  62.864  12.070  1.00  0.00    -0.309 OA
BRANCH  16  17
HETATM   17  C5  UNL     1      22.771  63.200  12.621  1.00  0.00     0.267 C 
HETATM   18  O1  UNL     1      23.003  64.425  12.675  1.00  0.00    -0.264 OA
BRANCH  17  19
HETATM   19  C2  UNL     1      23.767  62.205  13.148  1.00  0.00     0.037 C 
HETATM   20  C1  UNL     1      23.779  60.953  12.312  1.00  0.00     0.025 C 
HETATM   21  C3  UNL     1      23.339  61.804  14.551  1.00  0.00     0.025 C 
HETATM   22  C4  UNL     1      25.149  62.800  13.237  1.00  0.00     0.025 C 
ENDBRANCH  17  19
ENDBRANCH  16  17
ENDBRANCH   1  16
BRANCH   1  23
HETATM   23  C7  UNL     1      20.036  64.568  11.310  1.00  0.00     0.040 C 
BRANCH  23  24
HETATM   24  C8  UNL     1      18.991  64.533  12.348  1.00  0.00     0.018 C 
BRANCH  24  25
HETATM   25  C9  UNL     1      17.853  65.478  11.853  1.00  0.00     0.115 C 
HETATM   26 CL1  UNL     1      17.894  65.512  10.091  1.00  0.00    -0.130 Cl
ENDBRANCH  24  25
ENDBRANCH  23  24
ENDBRANCH   1  23
TORSDOF 6
ENDMDL
MODEL 3
REMARK VINA RESULT: -6.292545885      2.056      4.917
REMARK  6 active torsions:
REMARK  status: ('A' for Active; 'I' for Inactive)
REMARK    1  A    between atoms: C2_2  and  C5_5 
REMARK    2  A    between atoms: C5_5  and  O2_7 
REMARK    3  A    between atoms: O2_7  and  C6_8 
REMARK    4  A    between atoms: C6_8  and  C7_9 
REMARK    5  A    between atoms: C7_9  and  C8_10 
REMARK    6  A    between atoms: C8_10  and  C9_11 
ROOT
HETATM    1  C6  UNL     1      22.350  62.795  10.181  1.00  0.00     0.075 C 
HETATM    2  C10 UNL     1      22.728  61.408  10.821  1.00  0.00     0.039 C 
HETATM    3  C11 UNL     1      21.743  61.027  11.855  1.00  0.00     0.004 C 
HETATM    4  C12 UNL     1      20.408  60.623  11.269  1.00  0.00     0.010 C 
HETATM    5  C13 UNL     1      20.146  61.492  10.034  1.00  0.00    -0.037 C 
HETATM    6  C14 UNL     1      20.444  60.663   8.856  1.00  0.00     0.015 C 
HETATM    7  C15 UNL     1      18.655  61.731  10.054  1.00  0.00     0.010 C 
HETATM    8  C16 UNL     1      18.152  62.924  10.731  1.00  0.00     0.006 C 
HETATM    9  C17 UNL     1      18.918  64.190  10.553  1.00  0.00    -0.010 C 
HETATM   10  C18 UNL     1      18.132  65.393  10.199  1.00  0.00     0.005 C 
HETATM   11  C19 UNL     1      18.211  65.792   8.752  1.00  0.00     0.000 C 
HETATM   12  C20 UNL     1      18.383  64.560   7.912  1.00  0.00     0.000 C 
HETATM   13  C21 UNL     1      19.742  63.910   8.207  1.00  0.00     0.005 C 
HETATM   14  C22 UNL     1      20.142  63.965   9.632  1.00  0.00    -0.003 C 
HETATM   15  C23 UNL     1      20.859  62.786  10.211  1.00  0.00     0.033 C 
ENDROOT
BRANCH   1  16
HETATM   16  O2  UNL     1      23.037  62.729   9.011  1.00  0.00    -0.309 OA
BRANCH  16  17
HETATM   17  C5  UNL     1      23.058  63.428   7.869  1.00  0.00     0.267 C 
HETATM   18  O1  UNL     1      22.425  62.919   6.921  1.00  0.00    -0.264 OA
BRANCH  17  19
HETATM   19  C2  UNL     1      23.779  64.736   7.696  1.00  0.00     0.037 C 
HETATM   20  C1  UNL     1      22.953  65.884   8.211  1.00  0.00     0.025 C 
HETATM   21  C3  UNL     1      23.992  64.966   6.209  1.00  0.00     0.025 C 
HETATM   22  C4  UNL     1      25.133  64.712   8.361  1.00  0.00     0.025 C 
ENDBRANCH  17  19
ENDBRANCH  16  17
ENDBRANCH   1  16
BRANCH   1  23
HETATM   23  C7  UNL     1      22.888  63.762  11.208  1.00  0.00     0.040 C 
BRANCH  23  24
HETATM   24  C8  UNL     1      24.301  63.661  11.614  1.00  0.00     0.018 C 
BRANCH  24  25
HETATM   25  C9  UNL     1      24.295  63.194  13.101  1.00  0.00     0.115 C 
HETATM   26 CL1  UNL     1      25.641  62.080  13.333  1.00  0.00    -0.130 Cl
ENDBRANCH  24  25
ENDBRANCH  23  24
ENDBRANCH   1  23
TORSDOF 6
ENDMDL
MODEL 4
REMARK VINA RESULT: -6.286033902      2.318      4.841
REMARK  6 active torsions:
REMARK  status: ('A' for Active; 'I' for Inactive)
REMARK    1  A    between atoms: C2_2  and  C5_5 
REMARK    2  A    between atoms: C5_5  and  O2_7 
REMARK    3  A    between atoms: O2_7  and  C6_8 
REMARK    4  A    between atoms: C6_8  and  C7_9 
REMARK    5  A    between atoms: C7_9  and  C8_10 
REMARK    6  A    between atoms: C8_10  and  C9_11 
ROOT
HETATM    1  C6  UNL     1      22.154  63.609  10.859  1.00  0.00     0.075 C 
HETATM    2  C10 UNL     1      22.770  62.286  10.273  1.00  0.00     0.039 C 
HETATM    3  C11 UNL     1      22.142  61.100  10.893  1.00  0.00     0.004 C 
HETATM    4  C12 UNL     1      20.719  60.884  10.430  1.00  0.00     0.010 C 
HETATM    5  C13 UNL     1      20.070  62.257  10.221  1.00  0.00    -0.037 C 
HETATM    6  C14 UNL     1      20.063  62.512   8.772  1.00  0.00     0.015 C 
HETATM    7  C15 UNL     1      18.636  62.064  10.654  1.00  0.00     0.010 C 
HETATM    8  C16 UNL     1      18.286  62.352  12.043  1.00  0.00     0.006 C 
HETATM    9  C17 UNL     1      18.903  63.554  12.673  1.00  0.00    -0.010 C 
HETATM   10  C18 UNL     1      17.986  64.461  13.399  1.00  0.00     0.005 C 
HETATM   11  C19 UNL     1      17.629  65.718  12.658  1.00  0.00     0.000 C 
HETATM   12  C20 UNL     1      17.618  65.433  11.184  1.00  0.00     0.000 C 
HETATM   13  C21 UNL     1      19.036  65.094  10.706  1.00  0.00     0.005 C 
HETATM   14  C22 UNL     1      19.823  64.287  11.668  1.00  0.00    -0.003 C 
HETATM   15  C23 UNL     1      20.736  63.233  11.127  1.00  0.00     0.033 C 
ENDROOT
BRANCH   1  16
HETATM   16  O2  UNL     1      22.481  64.495   9.883  1.00  0.00    -0.309 OA
BRANCH  16  17
HETATM   17  C5  UNL     1      23.285  64.492   8.812  1.00  0.00     0.267 C 
HETATM   18  O1  UNL     1      24.500  64.356   9.060  1.00  0.00    -0.264 OA
BRANCH  17  19
HETATM   19  C2  UNL     1      22.801  64.639   7.397  1.00  0.00     0.037 C 
HETATM   20  C1  UNL     1      22.629  63.296   6.738  1.00  0.00     0.025 C 
HETATM   21  C3  UNL     1      23.860  65.393   6.610  1.00  0.00     0.025 C 
HETATM   22  C4  UNL     1      21.521  65.433   7.330  1.00  0.00     0.025 C 
ENDBRANCH  17  19
ENDBRANCH  16  17
ENDBRANCH   1  16
BRANCH   1  23
HETATM   23  C7  UNL     1      22.911  63.750  12.158  1.00  0.00     0.040 C 
BRANCH  23  24
HETATM   24  C8  UNL     1      24.343  63.402  12.192  1.00  0.00     0.018 C 
BRANCH  24  25
HETATM   25  C9  UNL     1      24.549  62.528  13.467  1.00  0.00     0.115 C 
HETATM   26 CL1  UNL     1      25.966  61.511  13.213  1.00  0.00    -0.130 Cl
ENDBRANCH  24  25
ENDBRANCH  23  24
ENDBRANCH   1  23
TORSDOF 6
ENDMDL
MODEL 5
REMARK VINA RESULT: -6.249632129      2.508      4.959
REMARK  6 active torsions:
REMARK  status: ('A' for Active; 'I' for Inactive)
REMARK    1  A    between atoms: C2_2  and  C5_5 
REMARK    2  A    between atoms: C5_5  and  O2_7 
REMARK    3  A    between atoms: O2_7  and  C6_8 
REMARK    4  A    between atoms: C6_8  and  C7_9 
REMARK    5  A    between atoms: C7_9  and  C8_10 
REMARK    6  A    between atoms: C8_10  and  C9_11 
ROOT
HETATM    1  C6  UNL     1      20.647  61.632  11.490  1.00  0.00     0.075 C 
HETATM    2  C10 UNL     1      19.727  62.460  10.519  1.00  0.00     0.039 C 
HETATM    3  C11 UNL     1      20.053  63.900  10.595  1.00  0.00     0.004 C 
HETATM    4  C12 UNL     1      21.380  64.233   9.951  1.00  0.00     0.010 C 
HETATM    5  C13 UNL     1      22.341  63.065  10.203  1.00  0.00    -0.037 C 
HETATM    6  C14 UNL     1      22.404  62.286   8.956  1.00  0.00     0.015 C 
HETATM    7  C15 UNL     1      23.687  63.721  10.395  1.00  0.00     0.010 C 
HETATM    8  C16 UNL     1      24.101  64.069  11.752  1.00  0.00     0.006 C 
HETATM    9  C17 UNL     1      23.795  63.094  12.837  1.00  0.00    -0.010 C 
HETATM   10  C18 UNL     1      24.906  62.759  13.756  1.00  0.00     0.005 C 
HETATM   11  C19 UNL     1      25.553  61.428  13.500  1.00  0.00     0.000 C 
HETATM   12  C20 UNL     1      25.490  61.125  12.031  1.00  0.00     0.000 C 
HETATM   13  C21 UNL     1      24.030  60.933  11.599  1.00  0.00     0.005 C 
HETATM   14  C22 UNL     1      23.076  61.848  12.265  1.00  0.00    -0.003 C 
HETATM   15  C23 UNL     1      21.933  62.386  11.463  1.00  0.00     0.033 C 
ENDROOT
BRANCH   1  16
HETATM   16  O2  UNL     1      20.540  60.392  10.945  1.00  0.00    -0.309 OA
BRANCH  16  17
HETATM   17  C5  UNL     1      19.672  59.769  10.138  1.00  0.00     0.267 C 
HETATM   18  O1  UNL     1      19.868  59.933   8.917  1.00  0.00    -0.264 OA
BRANCH  17  19
HETATM   19  C2  UNL     1      18.530  58.922  10.626  1.00  0.00     0.037 C 
HETATM   20  C1  UNL     1      18.929  58.113  11.831  1.00  0.00     0.025 C 
HETATM   21  C3  UNL     1      18.165  57.939   9.526  1.00  0.00     0.025 C 
HETATM   22  C4  UNL     1      17.311  59.757  10.925  1.00  0.00     0.025 C 
ENDBRANCH  17  19
ENDBRANCH  16  17
ENDBRANCH   1  16
BRANCH   1  23
HETATM   23  C7  UNL     1      19.951  61.833  12.815  1.00  0.00     0.040 C 
BRANCH  23  24
HETATM   24  C8  UNL     1      20.188  60.865  13.901  1.00  0.00     0.018 C 
BRANCH  24  25
HETATM   25  C9  UNL     1      20.319  61.703  15.210  1.00  0.00     0.115 C 
HETATM   26 CL1  UNL     1      22.003  61.651  15.730  1.00  0.00    -0.130 Cl
ENDBRANCH  24  25
ENDBRANCH  23  24
ENDBRANCH   1  23
TORSDOF 6
ENDMDL
