MODEL 1
REMARK VINA RESULT: -7.067507313      0.000      0.000
REMARK  3 active torsions:
REMARK  status: ('A' for Active; 'I' for Inactive)
REMARK    1  A    between atoms: C2_2  and  N1_3 
REMARK    2  A    between atoms: C4_7  and  N3_8 
REMARK       I    between atoms: N3_8  and  C5_10 
REMARK       I    between atoms: C5_10  and  N4_12 
REMARK    3  A    between atoms: C10_17  and  C11_18 
ROOT
HETATM    1  N3  UNL     1      21.016  60.425  12.496  1.00  0.00    -0.305 N 
ATOM      2  H3  UNL     1      21.400  59.663  11.935  1.00  0.00     0.171 HD
HETATM    3  C5  UNL     1      20.500  61.530  11.817  1.00  0.00     0.323 C 
HETATM    4  O1  UNL     1      20.008  62.502  12.518  1.00  0.00    -0.247 OA
HETATM    5  N4  UNL     1      20.462  61.727  10.433  1.00  0.00    -0.325 N 
HETATM    6  C6  UNL     1      20.939  60.708   9.522  1.00  0.00     0.128 C 
HETATM    7  C7  UNL     1      21.886  61.472   8.576  1.00  0.00     0.020 C 
HETATM    8  C8  UNL     1      22.379  62.763   9.224  1.00  0.00     0.004 C 
HETATM    9  C9  UNL     1      21.242  63.757   9.441  1.00  0.00     0.030 C 
HETATM   10  C10 UNL     1      20.033  62.948   9.773  1.00  0.00     0.122 C 
ENDROOT
BRANCH   1  11
HETATM   11  C4  UNL     1      21.044  60.283  13.886  1.00  0.00     0.082 A 
HETATM   12  C3  UNL     1      20.118  59.867  14.795  1.00  0.00     0.139 A 
HETATM   13  N2  UNL     1      20.615  60.027  16.003  1.00  0.00    -0.307 N 
HETATM   14  N1  UNL     1      21.823  60.530  15.912  1.00  0.00    -0.290 N 
ATOM     15  H2  UNL     1      20.135  59.796  16.873  1.00  0.00     0.186 HD
HETATM   16  C17 UNL     1      22.172  60.720  14.619  1.00  0.00     0.081 A 
HETATM   17  C18 UNL     1      23.459  61.131  14.142  1.00  0.00    -0.049 C 
HETATM   18  C19 UNL     1      23.689  62.594  13.866  1.00  0.00     0.036 C 
HETATM   19  C22 UNL     1      24.297  60.364  13.224  1.00  0.00     0.036 C 
HETATM   20  C20 UNL     1      25.095  62.627  13.310  1.00  0.00     0.005 C 
HETATM   21  C21 UNL     1      25.628  61.196  13.317  1.00  0.00     0.005 C 
BRANCH  14  22
HETATM   22  C2  UNL     1      22.614  60.770  17.128  1.00  0.00     0.145 C 
HETATM   23  C1  UNL     1      21.960  61.811  18.003  1.00  0.00     0.028 C 
ENDBRANCH  14  22
ENDBRANCH   1  11
BRANCH  10  24
HETATM   24  C11 UNL     1      18.951  63.651  10.416  1.00  0.00    -0.035 A 
HETATM   25  C12 UNL     1      19.121  64.869  11.018  1.00  0.00     0.012 A 
HETATM   26  C13 UNL     1      18.073  65.561  11.619  1.00  0.00     0.043 A 
HETATM   27  C14 UNL     1      16.792  65.016  11.623  1.00  0.00     0.116 A 
HETATM   28  F1  UNL     1      15.765  65.707  12.218  1.00  0.00    -0.206 F 
HETATM   29  C15 UNL     1      16.609  63.792  11.020  1.00  0.00     0.043 A 
HETATM   30  C16 UNL     1      17.666  63.127  10.431  1.00  0.00     0.012 A 
ENDBRANCH  10  24
TORSDOF 3
ENDMDL
MODEL 2
REMARK VINA RESULT: -6.863864830      3.203      6.885
REMARK  3 active torsions:
REMARK  status: ('A' for Active; 'I' for Inactive)
REMARK    1  A    between atoms: C2_2  and  N1_3 
REMARK    2  A    between atoms: C4_7  and  N3_8 
REMARK       I    between atoms: N3_8  and  C5_10 
REMARK       I    between atoms: C5_10  and  N4_12 
REMARK    3  A    between atoms: C10_17  and  C11_18 
ROOT
HETATM    1  N3  UNL     1      19.849  63.628  11.932  1.00  0.00    -0.305 N 
ATOM      2  H3  UNL     1      19.600  62.807  12.483  1.00  0.00     0.171 HD
HETATM    3  C5  UNL     1      21.132  63.673  11.384  1.00  0.00     0.323 C 
HETATM    4  O1  UNL     1      21.460  64.710  10.681  1.00  0.00    -0.247 OA
HETATM    5  N4  UNL     1      22.139  62.712  11.517  1.00  0.00    -0.325 N 
HETATM    6  C6  UNL     1      21.904  61.481  12.240  1.00  0.00     0.128 C 
HETATM    7  C7  UNL     1      23.099  61.386  13.208  1.00  0.00     0.020 C 
HETATM    8  C8  UNL     1      23.722  62.759  13.440  1.00  0.00     0.004 C 
HETATM    9  C9  UNL     1      24.358  63.315  12.169  1.00  0.00     0.030 C 
HETATM   10  C10 UNL     1      23.503  62.857  11.036  1.00  0.00     0.122 C 
ENDROOT
BRANCH   1  11
HETATM   11  C4  UNL     1      18.882  64.626  11.782  1.00  0.00     0.082 A 
HETATM   12  C3  UNL     1      18.538  65.706  12.540  1.00  0.00     0.139 A 
HETATM   13  N2  UNL     1      17.476  66.270  12.007  1.00  0.00    -0.307 N 
HETATM   14  N1  UNL     1      17.118  65.600  10.937  1.00  0.00    -0.290 N 
ATOM     15  H2  UNL     1      17.004  67.099  12.369  1.00  0.00     0.186 HD
HETATM   16  C17 UNL     1      17.948  64.554  10.722  1.00  0.00     0.081 A 
HETATM   17  C18 UNL     1      17.936  63.685   9.584  1.00  0.00    -0.049 C 
HETATM   18  C19 UNL     1      17.183  62.383   9.680  1.00  0.00     0.036 C 
HETATM   19  C22 UNL     1      19.058  63.487   8.669  1.00  0.00     0.036 C 
HETATM   20  C20 UNL     1      17.465  61.718   8.351  1.00  0.00     0.005 C 
HETATM   21  C21 UNL     1      18.338  62.668   7.535  1.00  0.00     0.005 C 
BRANCH  14  22
HETATM   22  C2  UNL     1      15.973  66.051  10.134  1.00  0.00     0.145 C 
HETATM   23  C1  UNL     1      14.714  65.315  10.521  1.00  0.00     0.028 C 
ENDBRANCH  14  22
ENDBRANCH   1  11
BRANCH  10  24
HETATM   24  C11 UNL     1      23.647  63.577   9.795  1.00  0.00    -0.035 A 
HETATM   25  C12 UNL     1      24.521  64.621   9.649  1.00  0.00     0.012 A 
HETATM   26  C13 UNL     1      24.680  65.303   8.445  1.00  0.00     0.043 A 
HETATM   27  C14 UNL     1      23.934  64.929   7.331  1.00  0.00     0.116 A 
HETATM   28  F1  UNL     1      24.099  65.608   6.148  1.00  0.00    -0.206 F 
HETATM   29  C15 UNL     1      23.054  63.880   7.466  1.00  0.00     0.043 A 
HETATM   30  C16 UNL     1      22.916  63.221   8.671  1.00  0.00     0.012 A 
ENDBRANCH  10  24
TORSDOF 3
ENDMDL
MODEL 3
REMARK VINA RESULT: -6.830713054      3.169      6.961
REMARK  3 active torsions:
REMARK  status: ('A' for Active; 'I' for Inactive)
REMARK    1  A    between atoms: C2_2  and  N1_3 
REMARK    2  A    between atoms: C4_7  and  N3_8 
REMARK       I    between atoms: N3_8  and  C5_10 
REMARK       I    between atoms: C5_10  and  N4_12 
REMARK    3  A    between atoms: C10_17  and  C11_18 
ROOT
HETATM    1  N3  UNL     1      19.831  63.595  11.957  1.00  0.00    -0.305 N 
ATOM      2  H3  UNL     1      19.590  62.784  12.527  1.00  0.00     0.171 HD
HETATM    3  C5  UNL     1      21.110  63.637  11.401  1.00  0.00     0.323 C 
HETATM    4  O1  UNL     1      21.427  64.660  10.674  1.00  0.00    -0.247 OA
HETATM    5  N4  UNL     1      22.125  62.686  11.550  1.00  0.00    -0.325 N 
HETATM    6  C6  UNL     1      21.902  61.469  12.301  1.00  0.00     0.128 C 
HETATM    7  C7  UNL     1      23.103  61.405  13.265  1.00  0.00     0.020 C 
HETATM    8  C8  UNL     1      23.718  62.787  13.463  1.00  0.00     0.004 C 
HETATM    9  C9  UNL     1      24.343  63.318  12.177  1.00  0.00     0.030 C 
HETATM   10  C10 UNL     1      23.485  62.829  11.059  1.00  0.00     0.122 C 
ENDROOT
BRANCH   1  11
HETATM   11  C4  UNL     1      18.855  64.583  11.790  1.00  0.00     0.082 A 
HETATM   12  C3  UNL     1      18.528  65.694  12.509  1.00  0.00     0.139 A 
HETATM   13  N2  UNL     1      17.449  66.231  11.981  1.00  0.00    -0.307 N 
HETATM   14  N1  UNL     1      17.066  65.514  10.952  1.00  0.00    -0.290 N 
ATOM     15  H2  UNL     1      16.984  67.073  12.320  1.00  0.00     0.186 HD
HETATM   16  C17 UNL     1      17.894  64.461  10.761  1.00  0.00     0.081 A 
HETATM   17  C18 UNL     1      17.855  63.544   9.661  1.00  0.00    -0.049 C 
HETATM   18  C19 UNL     1      17.110  62.246   9.835  1.00  0.00     0.036 C 
HETATM   19  C22 UNL     1      18.952  63.310   8.726  1.00  0.00     0.036 C 
HETATM   20  C20 UNL     1      17.358  61.523   8.529  1.00  0.00     0.005 C 
HETATM   21  C21 UNL     1      18.205  62.440   7.648  1.00  0.00     0.005 C 
BRANCH  14  22
HETATM   22  C2  UNL     1      15.897  65.926  10.161  1.00  0.00     0.145 C 
HETATM   23  C1  UNL     1      16.315  66.718   8.947  1.00  0.00     0.028 C 
ENDBRANCH  14  22
ENDBRANCH   1  11
BRANCH  10  24
HETATM   24  C11 UNL     1      23.618  63.523   9.801  1.00  0.00    -0.035 A 
HETATM   25  C12 UNL     1      22.903  63.170   8.689  1.00  0.00     0.012 A 
HETATM   26  C13 UNL     1      23.012  63.853   7.480  1.00  0.00     0.043 A 
HETATM   27  C14 UNL     1      23.875  64.939   7.370  1.00  0.00     0.116 A 
HETATM   28  F1  UNL     1      23.975  65.606   6.174  1.00  0.00    -0.206 F 
HETATM   29  C15 UNL     1      24.599  65.304   8.483  1.00  0.00     0.043 A 
HETATM   30  C16 UNL     1      24.471  64.610   9.670  1.00  0.00     0.012 A 
ENDBRANCH  10  24
TORSDOF 3
ENDMDL
MODEL 4
REMARK VINA RESULT: -6.670792931      2.996      7.410
REMARK  3 active torsions:
REMARK  status: ('A' for Active; 'I' for Inactive)
REMARK    1  A    between atoms: C2_2  and  N1_3 
REMARK    2  A    between atoms: C4_7  and  N3_8 
REMARK       I    between atoms: N3_8  and  C5_10 
REMARK       I    between atoms: C5_10  and  N4_12 
REMARK    3  A    between atoms: C10_17  and  C11_18 
ROOT
HETATM    1  N3  UNL     1      20.599  60.993   9.541  1.00  0.00    -0.305 N 
ATOM      2  H3  UNL     1      19.804  60.364   9.420  1.00  0.00     0.171 HD
HETATM    3  C5  UNL     1      21.103  61.156  10.832  1.00  0.00     0.323 C 
HETATM    4  O1  UNL     1      22.113  61.950  10.997  1.00  0.00    -0.247 OA
HETATM    5  N4  UNL     1      20.627  60.560  12.004  1.00  0.00    -0.325 N 
HETATM    6  C6  UNL     1      19.530  59.617  11.969  1.00  0.00     0.128 C 
HETATM    7  C7  UNL     1      18.564  60.133  13.053  1.00  0.00     0.020 C 
HETATM    8  C8  UNL     1      18.806  61.612  13.339  1.00  0.00     0.004 C 
HETATM    9  C9  UNL     1      20.177  61.852  13.964  1.00  0.00     0.030 C 
HETATM   10  C10 UNL     1      21.101  60.857  13.345  1.00  0.00     0.122 C 
ENDROOT
BRANCH   1  11
HETATM   11  C4  UNL     1      21.102  61.626   8.401  1.00  0.00     0.082 A 
HETATM   12  C3  UNL     1      22.102  61.311   7.530  1.00  0.00     0.139 A 
HETATM   13  N2  UNL     1      22.248  62.306   6.681  1.00  0.00    -0.307 N 
HETATM   14  N1  UNL     1      21.383  63.251   6.967  1.00  0.00    -0.290 N 
ATOM     15  H2  UNL     1      22.926  62.337   5.920  1.00  0.00     0.186 HD
HETATM   16  C17 UNL     1      20.624  62.905   8.032  1.00  0.00     0.081 A 
HETATM   17  C18 UNL     1      19.501  63.634   8.542  1.00  0.00    -0.049 C 
HETATM   18  C19 UNL     1      19.724  64.591   9.684  1.00  0.00     0.036 C 
HETATM   19  C22 UNL     1      18.142  63.109   8.654  1.00  0.00     0.036 C 
HETATM   20  C20 UNL     1      18.331  65.093   9.995  1.00  0.00     0.005 C 
HETATM   21  C21 UNL     1      17.371  64.434   9.007  1.00  0.00     0.005 C 
BRANCH  14  22
HETATM   22  C2  UNL     1      21.317  64.463   6.138  1.00  0.00     0.145 C 
HETATM   23  C1  UNL     1      22.436  65.415   6.479  1.00  0.00     0.028 C 
ENDBRANCH  14  22
ENDBRANCH   1  11
BRANCH  10  24
HETATM   24  C11 UNL     1      22.511  61.141  13.455  1.00  0.00    -0.035 A 
HETATM   25  C12 UNL     1      23.467  60.169  13.327  1.00  0.00     0.012 A 
HETATM   26  C13 UNL     1      24.830  60.444  13.409  1.00  0.00     0.043 A 
HETATM   27  C14 UNL     1      25.264  61.748  13.629  1.00  0.00     0.116 A 
HETATM   28  F1  UNL     1      26.611  62.009  13.707  1.00  0.00    -0.206 F 
HETATM   29  C15 UNL     1      24.311  62.733  13.757  1.00  0.00     0.043 A 
HETATM   30  C16 UNL     1      22.966  62.433  13.672  1.00  0.00     0.012 A 
ENDBRANCH  10  24
TORSDOF 3
ENDMDL
MODEL 5
REMARK VINA RESULT: -6.659272070      2.548      4.213
REMARK  3 active torsions:
REMARK  status: ('A' for Active; 'I' for Inactive)
REMARK    1  A    between atoms: C2_2  and  N1_3 
REMARK    2  A    between atoms: C4_7  and  N3_8 
REMARK       I    between atoms: N3_8  and  C5_10 
REMARK       I    between atoms: C5_10  and  N4_12 
REMARK    3  A    between atoms: C10_17  and  C11_18 
ROOT
HETATM    1  N3  UNL     1      21.765  60.077  13.882  1.00  0.00    -0.305 N 
ATOM      2  H3  UNL     1      22.499  59.481  14.265  1.00  0.00     0.171 HD
HETATM    3  C5  UNL     1      22.130  61.002  12.901  1.00  0.00     0.323 C 
HETATM    4  O1  UNL     1      21.207  61.763  12.406  1.00  0.00    -0.247 OA
HETATM    5  N4  UNL     1      23.412  61.219  12.384  1.00  0.00    -0.325 N 
HETATM    6  C6  UNL     1      24.535  60.415  12.813  1.00  0.00     0.128 C 
HETATM    7  C7  UNL     1      25.616  61.452  13.176  1.00  0.00     0.020 C 
HETATM    8  C8  UNL     1      24.989  62.811  13.474  1.00  0.00     0.004 C 
HETATM    9  C9  UNL     1      24.337  63.418  12.236  1.00  0.00     0.030 C 
HETATM   10  C10 UNL     1      23.770  62.279  11.457  1.00  0.00     0.122 C 
ENDROOT
BRANCH   1  11
HETATM   11  C4  UNL     1      20.469  59.909  14.377  1.00  0.00     0.082 A 
HETATM   12  C3  UNL     1      19.285  59.585  13.785  1.00  0.00     0.139 A 
HETATM   13  N2  UNL     1      18.330  59.666  14.687  1.00  0.00    -0.307 N 
HETATM   14  N1  UNL     1      18.847  60.030  15.836  1.00  0.00    -0.290 N 
ATOM     15  H2  UNL     1      17.342  59.476  14.518  1.00  0.00     0.186 HD
HETATM   16  C17 UNL     1      20.184  60.202  15.731  1.00  0.00     0.081 A 
HETATM   17  C18 UNL     1      21.089  60.474  16.808  1.00  0.00    -0.049 C 
HETATM   18  C19 UNL     1      21.462  61.906  17.091  1.00  0.00     0.036 C 
HETATM   19  C22 UNL     1      22.224  59.633  17.182  1.00  0.00     0.036 C 
HETATM   20  C20 UNL     1      22.473  61.790  18.209  1.00  0.00     0.005 C 
HETATM   21  C21 UNL     1      22.619  60.308  18.547  1.00  0.00     0.005 C 
BRANCH  14  22
HETATM   22  C2  UNL     1      17.988  60.158  17.023  1.00  0.00     0.145 C 
HETATM   23  C1  UNL     1      17.547  61.587  17.221  1.00  0.00     0.028 C 
ENDBRANCH  14  22
ENDBRANCH   1  11
BRANCH  10  24
HETATM   24  C11 UNL     1      22.764  62.611  10.479  1.00  0.00    -0.035 A 
HETATM   25  C12 UNL     1      22.146  63.832  10.447  1.00  0.00     0.012 A 
HETATM   26  C13 UNL     1      21.191  64.165   9.490  1.00  0.00     0.043 A 
HETATM   27  C14 UNL     1      20.831  63.238   8.515  1.00  0.00     0.116 A 
HETATM   28  F1  UNL     1      19.889  63.576   7.575  1.00  0.00    -0.206 F 
HETATM   29  C15 UNL     1      21.447  62.007   8.537  1.00  0.00     0.043 A 
HETATM   30  C16 UNL     1      22.391  61.704   9.498  1.00  0.00     0.012 A 
ENDBRANCH  10  24
TORSDOF 3
ENDMDL
