MODEL 1
REMARK VINA RESULT: -7.981814367      0.000      0.000
REMARK  4 active torsions:
REMARK  status: ('A' for Active; 'I' for Inactive)
REMARK    1  A    between atoms: C6_6  and  C7_7 
REMARK    2  A    between atoms: N1_10  and  C8_11 
REMARK    3  A    between atoms: C8_11  and  O3_12 
REMARK    4  A    between atoms: C8_11  and  C9_14 
REMARK       I    between atoms: N2_19  and  C14_20 
REMARK       I    between atoms: C14_20  and  N3_22 
ROOT
HETATM    1  C9  UNL     1       3.506 -10.172 -24.701  1.00  0.00     0.163 C 
HETATM    2  C10 UNL     1       2.268  -9.701 -25.509  1.00  0.00     0.034 C 
HETATM    3  C11 UNL     1       1.027 -10.064 -24.774  1.00  0.00     0.004 C 
HETATM    4  C12 UNL     1       1.102 -11.407 -24.140  1.00  0.00     0.020 C 
HETATM    5  C13 UNL     1       2.229 -12.284 -24.660  1.00  0.00     0.128 C 
HETATM    6  N2  UNL     1       3.486 -11.578 -24.756  1.00  0.00    -0.322 N 
HETATM    7  C14 UNL     1       4.664 -12.318 -24.943  1.00  0.00     0.321 C 
HETATM    8  O4  UNL     1       5.734 -11.590 -25.037  1.00  0.00    -0.247 OA
HETATM    9  N3  UNL     1       4.884 -13.687 -25.047  1.00  0.00    -0.334 N 
HETATM   10  C15 UNL     1       3.945 -14.776 -24.993  1.00  0.00     0.127 C 
HETATM   11  C16 UNL     1       4.690 -16.034 -25.462  1.00  0.00     0.022 C 
HETATM   12  C17 UNL     1       5.855 -15.440 -26.210  1.00  0.00     0.022 C 
HETATM   13  C18 UNL     1       6.217 -14.294 -25.254  1.00  0.00     0.127 C 
ENDROOT
BRANCH   1  14
HETATM   14  C8  UNL     1       3.583  -9.399 -23.496  1.00  0.00     0.138 C 
BRANCH  14  15
HETATM   15  N1  UNL     1       3.775  -8.087 -23.132  1.00  0.00    -0.345 N 
HETATM   16  C2  UNL     1       3.006  -6.978 -23.683  1.00  0.00     0.083 C 
HETATM   17  C1  UNL     1       1.934  -6.550 -22.699  1.00  0.00     0.032 C 
HETATM   18  C3  UNL     1       3.950  -5.754 -23.792  1.00  0.00     0.025 C 
HETATM   19  C4  UNL     1       5.377  -6.148 -24.025  1.00  0.00     0.004 C 
HETATM   20  C5  UNL     1       5.958  -7.031 -22.927  1.00  0.00     0.036 C 
HETATM   21  C6  UNL     1       4.766  -7.628 -22.191  1.00  0.00     0.187 C 
BRANCH  21  22
HETATM   22  C7  UNL     1       5.175  -8.413 -21.077  1.00  0.00     0.196 C 
HETATM   23  O1  UNL     1       6.090  -9.313 -21.267  1.00  0.00    -0.646 OA
HETATM   24  O2  UNL     1       4.749  -8.377 -19.748  1.00  0.00    -0.646 OA
ENDBRANCH  21  22
ENDBRANCH  14  15
BRANCH  14  25
HETATM   25  O3  UNL     1       3.415 -10.192 -22.441  1.00  0.00    -0.348 OA
ATOM     26  H3  UNL     1       2.873  -9.789 -21.773  1.00  0.00     0.219 HD
ENDBRANCH  14  25
ENDBRANCH   1  14
TORSDOF 4
ENDMDL
MODEL 2
REMARK VINA RESULT: -7.886340746      1.227      1.702
REMARK  4 active torsions:
REMARK  status: ('A' for Active; 'I' for Inactive)
REMARK    1  A    between atoms: C6_6  and  C7_7 
REMARK    2  A    between atoms: N1_10  and  C8_11 
REMARK    3  A    between atoms: C8_11  and  O3_12 
REMARK    4  A    between atoms: C8_11  and  C9_14 
REMARK       I    between atoms: N2_19  and  C14_20 
REMARK       I    between atoms: C14_20  and  N3_22 
ROOT
HETATM    1  C9  UNL     1       4.160  -9.794 -24.598  1.00  0.00     0.163 C 
HETATM    2  C10 UNL     1       3.046  -9.131 -25.451  1.00  0.00     0.034 C 
HETATM    3  C11 UNL     1       1.738  -9.279 -24.760  1.00  0.00     0.004 C 
HETATM    4  C12 UNL     1       1.567 -10.612 -24.123  1.00  0.00     0.020 C 
HETATM    5  C13 UNL     1       2.552 -11.666 -24.601  1.00  0.00     0.128 C 
HETATM    6  N2  UNL     1       3.910 -11.178 -24.653  1.00  0.00    -0.322 N 
HETATM    7  C14 UNL     1       4.956 -12.104 -24.796  1.00  0.00     0.321 C 
HETATM    8  O4  UNL     1       6.134 -11.564 -24.852  1.00  0.00    -0.247 OA
HETATM    9  N3  UNL     1       4.950 -13.492 -24.891  1.00  0.00    -0.334 N 
HETATM   10  C15 UNL     1       3.842 -14.409 -24.869  1.00  0.00     0.127 C 
HETATM   11  C16 UNL     1       4.385 -15.776 -25.310  1.00  0.00     0.022 C 
HETATM   12  C17 UNL     1       5.658 -15.389 -26.016  1.00  0.00     0.022 C 
HETATM   13  C18 UNL     1       6.170 -14.312 -25.049  1.00  0.00     0.127 C 
ENDROOT
BRANCH   1  14
HETATM   14  C8  UNL     1       4.322  -9.036 -23.393  1.00  0.00     0.138 C 
BRANCH  14  15
HETATM   15  N1  UNL     1       4.715  -7.771 -23.024  1.00  0.00    -0.345 N 
HETATM   16  C2  UNL     1       3.872  -6.856 -22.263  1.00  0.00     0.083 C 
HETATM   17  C1  UNL     1       4.295  -6.848 -20.808  1.00  0.00     0.032 C 
HETATM   18  C3  UNL     1       4.162  -5.419 -22.765  1.00  0.00     0.025 C 
HETATM   19  C4  UNL     1       4.568  -5.383 -24.206  1.00  0.00     0.004 C 
HETATM   20  C5  UNL     1       5.821  -6.195 -24.511  1.00  0.00     0.036 C 
HETATM   21  C6  UNL     1       5.984  -7.171 -23.354  1.00  0.00     0.187 C 
BRANCH  21  22
HETATM   22  C7  UNL     1       7.176  -7.938 -23.476  1.00  0.00     0.196 C 
HETATM   23  O1  UNL     1       8.072  -7.543 -24.327  1.00  0.00    -0.646 OA
HETATM   24  O2  UNL     1       7.573  -9.094 -22.801  1.00  0.00    -0.646 OA
ENDBRANCH  21  22
ENDBRANCH  14  15
BRANCH  14  25
HETATM   25  O3  UNL     1       3.988  -9.783 -22.343  1.00  0.00    -0.348 OA
ATOM     26  H3  UNL     1       3.835 -10.690 -22.584  1.00  0.00     0.219 HD
ENDBRANCH  14  25
ENDBRANCH   1  14
TORSDOF 4
ENDMDL
MODEL 3
REMARK VINA RESULT: -7.818666444      2.109      3.824
REMARK  4 active torsions:
REMARK  status: ('A' for Active; 'I' for Inactive)
REMARK    1  A    between atoms: C6_6  and  C7_7 
REMARK    2  A    between atoms: N1_10  and  C8_11 
REMARK    3  A    between atoms: C8_11  and  O3_12 
REMARK    4  A    between atoms: C8_11  and  C9_14 
REMARK       I    between atoms: N2_19  and  C14_20 
REMARK       I    between atoms: C14_20  and  N3_22 
ROOT
HETATM    1  C9  UNL     1       3.848 -10.236 -23.101  1.00  0.00     0.163 C 
HETATM    2  C10 UNL     1       4.931  -9.650 -22.157  1.00  0.00     0.034 C 
HETATM    3  C11 UNL     1       5.863  -8.795 -22.940  1.00  0.00     0.004 C 
HETATM    4  C12 UNL     1       6.191  -9.368 -24.273  1.00  0.00     0.020 C 
HETATM    5  C13 UNL     1       5.840 -10.838 -24.428  1.00  0.00     0.128 C 
HETATM    6  N2  UNL     1       4.520 -11.152 -23.932  1.00  0.00    -0.322 N 
HETATM    7  C14 UNL     1       3.951 -12.392 -24.263  1.00  0.00     0.321 C 
HETATM    8  O4  UNL     1       2.774 -12.584 -23.753  1.00  0.00    -0.247 OA
HETATM    9  N3  UNL     1       4.426 -13.445 -25.037  1.00  0.00    -0.334 N 
HETATM   10  C15 UNL     1       5.672 -13.578 -25.742  1.00  0.00     0.127 C 
HETATM   11  C16 UNL     1       5.791 -15.049 -26.168  1.00  0.00     0.022 C 
HETATM   12  C17 UNL     1       4.821 -15.720 -25.231  1.00  0.00     0.022 C 
HETATM   13  C18 UNL     1       3.676 -14.698 -25.272  1.00  0.00     0.127 C 
ENDROOT
BRANCH   1  14
HETATM   14  C8  UNL     1       3.019  -9.162 -23.564  1.00  0.00     0.138 C 
BRANCH  14  15
HETATM   15  N1  UNL     1       2.072  -8.946 -24.537  1.00  0.00    -0.345 N 
HETATM   16  C2  UNL     1       1.407 -10.020 -25.266  1.00  0.00     0.083 C 
HETATM   17  C1  UNL     1       0.020 -10.251 -24.700  1.00  0.00     0.032 C 
HETATM   18  C3  UNL     1       1.164  -9.528 -26.715  1.00  0.00     0.025 C 
HETATM   19  C4  UNL     1       2.203  -8.551 -27.173  1.00  0.00     0.004 C 
HETATM   20  C5  UNL     1       2.288  -7.297 -26.312  1.00  0.00     0.036 C 
HETATM   21  C6  UNL     1       1.630  -7.650 -24.985  1.00  0.00     0.187 C 
BRANCH  21  22
HETATM   22  C7  UNL     1       1.567  -6.526 -24.114  1.00  0.00     0.196 C 
HETATM   23  O1  UNL     1       2.194  -5.446 -24.464  1.00  0.00    -0.646 OA
HETATM   24  O2  UNL     1       0.911  -6.375 -22.891  1.00  0.00    -0.646 OA
ENDBRANCH  21  22
ENDBRANCH  14  15
BRANCH  14  25
HETATM   25  O3  UNL     1       3.240  -8.075 -22.828  1.00  0.00    -0.348 OA
ATOM     26  H3  UNL     1       2.821  -8.129 -21.977  1.00  0.00     0.219 HD
ENDBRANCH  14  25
ENDBRANCH   1  14
TORSDOF 4
ENDMDL
MODEL 4
REMARK VINA RESULT: -7.706528577      2.315      3.799
REMARK  4 active torsions:
REMARK  status: ('A' for Active; 'I' for Inactive)
REMARK    1  A    between atoms: C6_6  and  C7_7 
REMARK    2  A    between atoms: N1_10  and  C8_11 
REMARK    3  A    between atoms: C8_11  and  O3_12 
REMARK    4  A    between atoms: C8_11  and  C9_14 
REMARK       I    between atoms: N2_19  and  C14_20 
REMARK       I    between atoms: C14_20  and  N3_22 
ROOT
HETATM    1  C9  UNL     1       3.685  -9.766 -23.792  1.00  0.00     0.163 C 
HETATM    2  C10 UNL     1       4.374  -9.158 -22.542  1.00  0.00     0.034 C 
HETATM    3  C11 UNL     1       5.613  -8.447 -22.955  1.00  0.00     0.004 C 
HETATM    4  C12 UNL     1       6.370  -9.170 -24.010  1.00  0.00     0.020 C 
HETATM    5  C13 UNL     1       5.964 -10.623 -24.190  1.00  0.00     0.128 C 
HETATM    6  N2  UNL     1       4.531 -10.802 -24.230  1.00  0.00    -0.322 N 
HETATM    7  C14 UNL     1       4.015 -12.029 -24.672  1.00  0.00     0.321 C 
HETATM    8  O4  UNL     1       2.720 -12.094 -24.651  1.00  0.00    -0.247 OA
HETATM    9  N3  UNL     1       4.646 -13.184 -25.125  1.00  0.00    -0.334 N 
HETATM   10  C15 UNL     1       6.048 -13.465 -25.276  1.00  0.00     0.127 C 
HETATM   11  C16 UNL     1       6.177 -14.976 -25.521  1.00  0.00     0.022 C 
HETATM   12  C17 UNL     1       4.861 -15.486 -24.994  1.00  0.00     0.022 C 
HETATM   13  C18 UNL     1       3.925 -14.404 -25.549  1.00  0.00     0.127 C 
ENDROOT
BRANCH   1  14
HETATM   14  C8  UNL     1       3.206  -8.694 -24.614  1.00  0.00     0.138 C 
BRANCH  14  15
HETATM   15  N1  UNL     1       2.903  -7.359 -24.483  1.00  0.00    -0.345 N 
HETATM   16  C2  UNL     1       3.910  -6.306 -24.439  1.00  0.00     0.083 C 
HETATM   17  C1  UNL     1       4.001  -5.617 -25.787  1.00  0.00     0.032 C 
HETATM   18  C3  UNL     1       3.405  -5.207 -23.470  1.00  0.00     0.025 C 
HETATM   19  C4  UNL     1       2.537  -5.757 -22.380  1.00  0.00     0.004 C 
HETATM   20  C5  UNL     1       1.292  -6.474 -22.888  1.00  0.00     0.036 C 
HETATM   21  C6  UNL     1       1.572  -6.824 -24.344  1.00  0.00     0.187 C 
BRANCH  21  22
HETATM   22  C7  UNL     1       0.443  -7.428 -24.966  1.00  0.00     0.196 C 
HETATM   23  O1  UNL     1      -0.402  -6.658 -25.577  1.00  0.00    -0.646 OA
HETATM   24  O2  UNL     1       0.073  -8.772 -25.042  1.00  0.00    -0.646 OA
ENDBRANCH  21  22
ENDBRANCH  14  15
BRANCH  14  25
HETATM   25  O3  UNL     1       3.010  -9.132 -25.855  1.00  0.00    -0.348 OA
ATOM     26  H3  UNL     1       3.606  -8.729 -26.476  1.00  0.00     0.219 HD
ENDBRANCH  14  25
ENDBRANCH   1  14
TORSDOF 4
ENDMDL
MODEL 5
REMARK VINA RESULT: -7.671645495      1.924      3.919
REMARK  4 active torsions:
REMARK  status: ('A' for Active; 'I' for Inactive)
REMARK    1  A    between atoms: C6_6  and  C7_7 
REMARK    2  A    between atoms: N1_10  and  C8_11 
REMARK    3  A    between atoms: C8_11  and  O3_12 
REMARK    4  A    between atoms: C8_11  and  C9_14 
REMARK       I    between atoms: N2_19  and  C14_20 
REMARK       I    between atoms: C14_20  and  N3_22 
ROOT
HETATM    1  C9  UNL     1       5.502  -9.834 -22.068  1.00  0.00     0.163 C 
HETATM    2  C10 UNL     1       6.788 -10.001 -21.216  1.00  0.00     0.034 C 
HETATM    3  C11 UNL     1       7.969  -9.569 -22.010  1.00  0.00     0.004 C 
HETATM    4  C12 UNL     1       7.895  -9.992 -23.434  1.00  0.00     0.020 C 
HETATM    5  C13 UNL     1       6.863 -11.071 -23.715  1.00  0.00     0.128 C 
HETATM    6  N2  UNL     1       5.590 -10.802 -23.086  1.00  0.00    -0.322 N 
HETATM    7  C14 UNL     1       4.469 -11.548 -23.484  1.00  0.00     0.321 C 
HETATM    8  O4  UNL     1       3.381 -11.244 -22.846  1.00  0.00    -0.247 OA
HETATM    9  N3  UNL     1       4.322 -12.552 -24.436  1.00  0.00    -0.334 N 
HETATM   10  C15 UNL     1       5.300 -13.136 -25.314  1.00  0.00     0.127 C 
HETATM   11  C16 UNL     1       4.660 -14.390 -25.925  1.00  0.00     0.022 C 
HETATM   12  C17 UNL     1       3.544 -14.671 -24.953  1.00  0.00     0.022 C 
HETATM   13  C18 UNL     1       3.043 -13.240 -24.716  1.00  0.00     0.127 C 
ENDROOT
BRANCH   1  14
HETATM   14  C8  UNL     1       5.277  -8.435 -22.283  1.00  0.00     0.138 C 
BRANCH  14  15
HETATM   15  N1  UNL     1       5.271  -7.548 -23.334  1.00  0.00    -0.345 N 
HETATM   16  C2  UNL     1       6.421  -6.733 -23.705  1.00  0.00     0.083 C 
HETATM   17  C1  UNL     1       7.125  -7.342 -24.902  1.00  0.00     0.032 C 
HETATM   18  C3  UNL     1       5.890  -5.369 -24.214  1.00  0.00     0.025 C 
HETATM   19  C4  UNL     1       4.599  -4.976 -23.563  1.00  0.00     0.004 C 
HETATM   20  C5  UNL     1       3.470  -5.975 -23.785  1.00  0.00     0.036 C 
HETATM   21  C6  UNL     1       4.138  -7.285 -24.185  1.00  0.00     0.187 C 
BRANCH  21  22
HETATM   22  C7  UNL     1       3.180  -8.286 -24.506  1.00  0.00     0.196 C 
HETATM   23  O1  UNL     1       2.121  -8.379 -23.763  1.00  0.00    -0.646 OA
HETATM   24  O2  UNL     1       3.179  -9.229 -25.535  1.00  0.00    -0.646 OA
ENDBRANCH  21  22
ENDBRANCH  14  15
BRANCH  14  25
HETATM   25  O3  UNL     1       4.988  -7.844 -21.126  1.00  0.00    -0.348 OA
ATOM     26  H3  UNL     1       4.398  -8.366 -20.595  1.00  0.00     0.219 HD
ENDBRANCH  14  25
ENDBRANCH   1  14
TORSDOF 4
ENDMDL
