MODEL 1
REMARK VINA RESULT: -8.734474671      0.000      0.000
REMARK  3 active torsions:
REMARK  status: ('A' for Active; 'I' for Inactive)
REMARK    1  A    between atoms: C9_11  and  C10_12 
REMARK    2  A    between atoms: C10_12  and  O1_13 
REMARK       I    between atoms: N3_16  and  C12_17 
REMARK       I    between atoms: C12_17  and  N4_19 
REMARK    3  A    between atoms: N4_19  and  C13_21 
ROOT
HETATM    1  C1  UNL     1       2.483  -7.742 -25.475  1.00  0.00     0.273 C 
HETATM    2  N1  UNL     1       2.636  -7.608 -24.017  1.00  0.00    -0.065 N 
HETATM    3  C2  UNL     1       1.319  -7.428 -23.439  1.00  0.00     0.239 A 
HETATM    4  C3  UNL     1       1.677  -5.982 -23.165  1.00  0.00     0.061 A 
HETATM    5  C4  UNL     1       3.071  -6.310 -23.679  1.00  0.00     0.192 A 
HETATM    6  C5  UNL     1       4.061  -6.167 -22.586  1.00  0.00     0.035 C 
HETATM    7  C6  UNL     1       5.467  -6.606 -22.983  1.00  0.00     0.029 C 
HETATM    8  C7  UNL     1       5.553  -8.062 -22.665  1.00  0.00     0.078 C 
HETATM    9  C8  UNL     1       5.081  -8.398 -21.329  1.00  0.00     0.072 C 
HETATM   10  N2  UNL     1       4.717  -8.662 -20.257  1.00  0.00    -0.196 NA
HETATM   11  C9  UNL     1       6.936  -8.654 -22.792  1.00  0.00     0.052 C 
HETATM   12  C11 UNL     1       6.560 -10.137 -22.935  1.00  0.00     0.136 C 
HETATM   13  N3  UNL     1       5.368 -10.076 -23.808  1.00  0.00    -0.326 N 
HETATM   14  C12 UNL     1       4.958 -11.201 -24.562  1.00  0.00     0.319 C 
HETATM   15  O2  UNL     1       3.942 -11.075 -25.289  1.00  0.00    -0.247 OA
HETATM   16  N4  UNL     1       5.667 -12.443 -24.507  1.00  0.00    -0.338 N 
ATOM     17  H4  UNL     1       6.492 -12.535 -23.914  1.00  0.00     0.164 HD
HETATM   18  C18 UNL     1       4.768  -8.792 -23.760  1.00  0.00     0.138 C 
HETATM   19  C19 UNL     1       3.337  -8.705 -23.389  1.00  0.00     0.264 C 
ENDROOT
BRANCH  11  20
HETATM   20  C10 UNL     1       7.680  -8.173 -23.994  1.00  0.00     0.172 C 
BRANCH  20  21
HETATM   21  O1  UNL     1       8.709  -7.340 -23.552  1.00  0.00    -0.400 OA
ATOM     22  H1  UNL     1       8.760  -6.602 -24.149  1.00  0.00     0.209 HD
ENDBRANCH  20  21
ENDBRANCH  11  20
BRANCH  16  23
HETATM   23  C13 UNL     1       5.218 -13.553 -25.284  1.00  0.00     0.086 C 
HETATM   24  C14 UNL     1       3.887 -14.099 -24.822  1.00  0.00     0.025 C 
HETATM   25  C15 UNL     1       3.860 -15.462 -25.499  1.00  0.00     0.002 C 
HETATM   26  C16 UNL     1       5.300 -15.933 -25.506  1.00  0.00     0.002 C 
HETATM   27  C17 UNL     1       6.129 -14.752 -25.045  1.00  0.00     0.025 C 
ENDBRANCH  16  23
TORSDOF 3
ENDMDL
MODEL 2
REMARK VINA RESULT: -7.643613241      1.952      4.216
REMARK  3 active torsions:
REMARK  status: ('A' for Active; 'I' for Inactive)
REMARK    1  A    between atoms: C9_11  and  C10_12 
REMARK    2  A    between atoms: C10_12  and  O1_13 
REMARK       I    between atoms: N3_16  and  C12_17 
REMARK       I    between atoms: C12_17  and  N4_19 
REMARK    3  A    between atoms: N4_19  and  C13_21 
ROOT
HETATM    1  C1  UNL     1       4.494  -7.740 -21.592  1.00  0.00     0.273 C 
HETATM    2  N1  UNL     1       4.264  -6.970 -22.825  1.00  0.00    -0.065 N 
HETATM    3  C2  UNL     1       5.292  -5.952 -22.920  1.00  0.00     0.239 A 
HETATM    4  C3  UNL     1       4.238  -4.911 -22.600  1.00  0.00     0.061 A 
HETATM    5  C4  UNL     1       3.219  -6.040 -22.644  1.00  0.00     0.192 A 
HETATM    6  C5  UNL     1       2.273  -5.825 -23.764  1.00  0.00     0.035 C 
HETATM    7  C6  UNL     1       1.298  -6.981 -23.963  1.00  0.00     0.029 C 
HETATM    8  C7  UNL     1       1.962  -7.928 -24.906  1.00  0.00     0.078 C 
HETATM    9  C8  UNL     1       2.512  -7.283 -26.091  1.00  0.00     0.072 C 
HETATM   10  N2  UNL     1       2.939  -6.769 -27.042  1.00  0.00    -0.196 NA
HETATM   11  C9  UNL     1       1.079  -9.048 -25.400  1.00  0.00     0.052 C 
HETATM   12  C11 UNL     1       2.165 -10.042 -25.845  1.00  0.00     0.136 C 
HETATM   13  N3  UNL     1       3.175  -9.904 -24.775  1.00  0.00    -0.326 N 
HETATM   14  C12 UNL     1       4.118 -10.930 -24.527  1.00  0.00     0.319 C 
HETATM   15  O2  UNL     1       4.941 -10.750 -23.595  1.00  0.00    -0.247 OA
HETATM   16  N4  UNL     1       4.143 -12.133 -25.301  1.00  0.00    -0.338 N 
ATOM     17  H4  UNL     1       3.469 -12.271 -26.054  1.00  0.00     0.164 HD
HETATM   18  C18 UNL     1       3.032  -8.667 -24.097  1.00  0.00     0.138 C 
HETATM   19  C19 UNL     1       4.210  -7.772 -24.026  1.00  0.00     0.264 C 
ENDROOT
BRANCH  11  20
HETATM   20  C10 UNL     1       0.219  -9.641 -24.332  1.00  0.00     0.172 C 
BRANCH  20  21
HETATM   21  O1  UNL     1      -1.060  -9.811 -24.863  1.00  0.00    -0.400 OA
ATOM     22  H1  UNL     1      -1.597 -10.224 -24.197  1.00  0.00     0.209 HD
ENDBRANCH  20  21
ENDBRANCH  11  20
BRANCH  16  23
HETATM   23  C13 UNL     1       5.113 -13.142 -25.017  1.00  0.00     0.086 C 
HETATM   24  C14 UNL     1       6.136 -13.306 -26.117  1.00  0.00     0.025 C 
HETATM   25  C15 UNL     1       6.745 -14.658 -25.774  1.00  0.00     0.002 C 
HETATM   26  C16 UNL     1       5.605 -15.475 -25.201  1.00  0.00     0.002 C 
HETATM   27  C17 UNL     1       4.448 -14.514 -25.025  1.00  0.00     0.025 C 
ENDBRANCH  16  23
TORSDOF 3
ENDMDL
MODEL 3
REMARK VINA RESULT: -7.603159217      2.441      5.454
REMARK  3 active torsions:
REMARK  status: ('A' for Active; 'I' for Inactive)
REMARK    1  A    between atoms: C9_11  and  C10_12 
REMARK    2  A    between atoms: C10_12  and  O1_13 
REMARK       I    between atoms: N3_16  and  C12_17 
REMARK       I    between atoms: C12_17  and  N4_19 
REMARK    3  A    between atoms: N4_19  and  C13_21 
ROOT
HETATM    1  C1  UNL     1       5.343 -13.232 -24.324  1.00  0.00     0.273 C 
HETATM    2  N1  UNL     1       6.266 -12.125 -24.619  1.00  0.00    -0.065 N 
HETATM    3  C2  UNL     1       7.012 -12.464 -25.814  1.00  0.00     0.239 A 
HETATM    4  C3  UNL     1       8.238 -12.669 -24.947  1.00  0.00     0.061 A 
HETATM    5  C4  UNL     1       7.396 -12.181 -23.777  1.00  0.00     0.192 A 
HETATM    6  C5  UNL     1       7.945 -10.907 -23.256  1.00  0.00     0.035 C 
HETATM    7  C6  UNL     1       7.083 -10.279 -22.165  1.00  0.00     0.029 C 
HETATM    8  C7  UNL     1       6.104  -9.396 -22.866  1.00  0.00     0.078 C 
HETATM    9  C8  UNL     1       6.714  -8.513 -23.851  1.00  0.00     0.072 C 
HETATM   10  N2  UNL     1       7.204  -7.800 -24.627  1.00  0.00    -0.196 NA
HETATM   11  C9  UNL     1       5.284  -8.516 -21.953  1.00  0.00     0.052 C 
HETATM   12  C11 UNL     1       4.109  -8.208 -22.896  1.00  0.00     0.136 C 
HETATM   13  N3  UNL     1       3.891  -9.509 -23.563  1.00  0.00    -0.326 N 
HETATM   14  C12 UNL     1       2.650  -9.819 -24.167  1.00  0.00     0.319 C 
HETATM   15  O2  UNL     1       2.532 -10.947 -24.707  1.00  0.00    -0.247 OA
HETATM   16  N4  UNL     1       1.560  -8.892 -24.168  1.00  0.00    -0.338 N 
ATOM     17  H4  UNL     1       1.665  -7.979 -23.725  1.00  0.00     0.164 HD
HETATM   18  C18 UNL     1       5.052 -10.320 -23.485  1.00  0.00     0.138 C 
HETATM   19  C19 UNL     1       5.627 -10.835 -24.749  1.00  0.00     0.264 C 
ENDROOT
BRANCH  11  20
HETATM   20  C10 UNL     1       4.810  -9.216 -20.722  1.00  0.00     0.172 C 
BRANCH  20  21
HETATM   21  O1  UNL     1       4.695  -8.263 -19.709  1.00  0.00    -0.400 OA
ATOM     22  H1  UNL     1       5.136  -7.474 -20.003  1.00  0.00     0.209 HD
ENDBRANCH  20  21
ENDBRANCH  11  20
BRANCH  16  23
HETATM   23  C13 UNL     1       0.325  -9.246 -24.790  1.00  0.00     0.086 C 
HETATM   24  C14 UNL     1      -0.118 -10.655 -24.466  1.00  0.00     0.025 C 
HETATM   25  C15 UNL     1      -1.165 -10.904 -25.542  1.00  0.00     0.002 C 
HETATM   26  C16 UNL     1      -0.667 -10.161 -26.765  1.00  0.00     0.002 C 
HETATM   27  C17 UNL     1       0.515  -9.336 -26.300  1.00  0.00     0.025 C 
ENDBRANCH  16  23
TORSDOF 3
ENDMDL
MODEL 4
REMARK VINA RESULT: -7.472303454      2.669      4.350
REMARK  3 active torsions:
REMARK  status: ('A' for Active; 'I' for Inactive)
REMARK    1  A    between atoms: C9_11  and  C10_12 
REMARK    2  A    between atoms: C10_12  and  O1_13 
REMARK       I    between atoms: N3_16  and  C12_17 
REMARK       I    between atoms: C12_17  and  N4_19 
REMARK    3  A    between atoms: N4_19  and  C13_21 
ROOT
HETATM    1  C1  UNL     1       4.311  -5.801 -25.195  1.00  0.00     0.273 C 
HETATM    2  N1  UNL     1       4.773  -6.112 -23.833  1.00  0.00    -0.065 N 
HETATM    3  C2  UNL     1       4.664  -4.909 -23.032  1.00  0.00     0.239 A 
HETATM    4  C3  UNL     1       6.176  -4.808 -23.045  1.00  0.00     0.061 A 
HETATM    5  C4  UNL     1       6.182  -6.141 -23.779  1.00  0.00     0.192 A 
HETATM    6  C5  UNL     1       6.829  -7.177 -22.941  1.00  0.00     0.035 C 
HETATM    7  C6  UNL     1       6.759  -8.575 -23.546  1.00  0.00     0.029 C 
HETATM    8  C7  UNL     1       5.489  -9.181 -23.048  1.00  0.00     0.078 C 
HETATM    9  C8  UNL     1       5.302  -9.047 -21.610  1.00  0.00     0.072 C 
HETATM   10  N2  UNL     1       5.161  -8.951 -20.460  1.00  0.00    -0.196 NA
HETATM   11  C9  UNL     1       5.324 -10.648 -23.365  1.00  0.00     0.052 C 
HETATM   12  C11 UNL     1       3.798 -10.764 -23.216  1.00  0.00     0.136 C 
HETATM   13  N3  UNL     1       3.326  -9.504 -23.829  1.00  0.00    -0.326 N 
HETATM   14  C12 UNL     1       2.003  -9.382 -24.316  1.00  0.00     0.319 C 
HETATM   15  O2  UNL     1       1.673  -8.286 -24.833  1.00  0.00    -0.247 OA
HETATM   16  N4  UNL     1       1.066 -10.460 -24.229  1.00  0.00    -0.338 N 
ATOM     17  H4  UNL     1       1.344 -11.347 -23.808  1.00  0.00     0.164 HD
HETATM   18  C18 UNL     1       4.356  -8.529 -23.845  1.00  0.00     0.138 C 
HETATM   19  C19 UNL     1       4.084  -7.220 -23.209  1.00  0.00     0.264 C 
ENDROOT
BRANCH  11  20
HETATM   20  C10 UNL     1       5.753 -11.008 -24.750  1.00  0.00     0.172 C 
BRANCH  20  21
HETATM   21  O1  UNL     1       5.134 -12.212 -25.087  1.00  0.00    -0.400 OA
ATOM     22  H1  UNL     1       4.398 -12.011 -25.653  1.00  0.00     0.209 HD
ENDBRANCH  20  21
ENDBRANCH  11  20
BRANCH  16  23
HETATM   23  C13 UNL     1      -0.260 -10.293 -24.732  1.00  0.00     0.086 C 
HETATM   24  C14 UNL     1      -1.210 -11.373 -24.269  1.00  0.00     0.025 C 
HETATM   25  C15 UNL     1      -2.366 -11.208 -25.244  1.00  0.00     0.002 C 
HETATM   26  C16 UNL     1      -1.727 -10.792 -26.554  1.00  0.00     0.002 C 
HETATM   27  C17 UNL     1      -0.271 -10.516 -26.240  1.00  0.00     0.025 C 
ENDBRANCH  16  23
TORSDOF 3
ENDMDL
MODEL 5
REMARK VINA RESULT: -7.304598703      2.056      4.237
REMARK  3 active torsions:
REMARK  status: ('A' for Active; 'I' for Inactive)
REMARK    1  A    between atoms: C9_11  and  C10_12 
REMARK    2  A    between atoms: C10_12  and  O1_13 
REMARK       I    between atoms: N3_16  and  C12_17 
REMARK       I    between atoms: C12_17  and  N4_19 
REMARK    3  A    between atoms: N4_19  and  C13_21 
ROOT
HETATM    1  C1  UNL     1       4.228  -7.001 -20.997  1.00  0.00     0.273 C 
HETATM    2  N1  UNL     1       4.187  -6.220 -22.243  1.00  0.00    -0.065 N 
HETATM    3  C2  UNL     1       5.214  -5.199 -22.171  1.00  0.00     0.239 A 
HETATM    4  C3  UNL     1       4.121  -4.163 -22.006  1.00  0.00     0.061 A 
HETATM    5  C4  UNL     1       3.124  -5.293 -22.217  1.00  0.00     0.192 A 
HETATM    6  C5  UNL     1       2.361  -5.069 -23.466  1.00  0.00     0.035 C 
HETATM    7  C6  UNL     1       1.431  -6.224 -23.822  1.00  0.00     0.029 C 
HETATM    8  C7  UNL     1       2.234  -7.162 -24.661  1.00  0.00     0.078 C 
HETATM    9  C8  UNL     1       2.957  -6.505 -25.742  1.00  0.00     0.072 C 
HETATM   10  N2  UNL     1       3.523  -5.982 -26.612  1.00  0.00    -0.196 NA
HETATM   11  C9  UNL     1       1.440  -8.279 -25.294  1.00  0.00     0.052 C 
HETATM   12  C11 UNL     1       2.584  -9.266 -25.577  1.00  0.00     0.136 C 
HETATM   13  N3  UNL     1       3.418  -9.138 -24.363  1.00  0.00    -0.326 N 
HETATM   14  C12 UNL     1       4.314 -10.164 -23.983  1.00  0.00     0.319 C 
HETATM   15  O2  UNL     1       4.985  -9.991 -22.935  1.00  0.00    -0.247 OA
HETATM   16  N4  UNL     1       4.461 -11.360 -24.755  1.00  0.00    -0.338 N 
ATOM     17  H4  UNL     1       3.911 -11.492 -25.604  1.00  0.00     0.164 HD
HETATM   18  C18 UNL     1       3.169  -7.907 -23.704  1.00  0.00     0.138 C 
HETATM   19  C19 UNL     1       4.320  -7.010 -23.446  1.00  0.00     0.264 C 
ENDROOT
BRANCH  11  20
HETATM   20  C10 UNL     1       0.429  -8.882 -24.377  1.00  0.00     0.172 C 
BRANCH  20  21
HETATM   21  O1  UNL     1      -0.723  -9.138 -25.123  1.00  0.00    -0.400 OA
ATOM     22  H1  UNL     1      -0.480  -9.129 -26.041  1.00  0.00     0.209 HD
ENDBRANCH  20  21
ENDBRANCH  11  20
BRANCH  16  23
HETATM   23  C13 UNL     1       5.379 -12.370 -24.335  1.00  0.00     0.086 C 
HETATM   24  C14 UNL     1       6.718 -12.279 -25.029  1.00  0.00     0.025 C 
HETATM   25  C15 UNL     1       7.312 -13.649 -24.738  1.00  0.00     0.002 C 
HETATM   26  C16 UNL     1       6.134 -14.603 -24.739  1.00  0.00     0.002 C 
HETATM   27  C17 UNL     1       4.894 -13.736 -24.806  1.00  0.00     0.025 C 
ENDBRANCH  16  23
TORSDOF 3
ENDMDL
