MODEL 1
REMARK VINA RESULT: -7.967954571      0.000      0.000
REMARK  7 active torsions:
REMARK  status: ('A' for Active; 'I' for Inactive)
REMARK    1  A    between atoms: C1_2  and  C2_4 
REMARK    2  A    between atoms: N1_8  and  C6_9 
REMARK    3  A    between atoms: C6_9  and  O3_10 
REMARK    4  A    between atoms: C6_9  and  N2_12 
REMARK    5  A    between atoms: N3_15  and  C9_16 
REMARK    6  A    between atoms: C9_16  and  N4_18 
REMARK    7  A    between atoms: N4_18  and  C10_20 
ROOT
HETATM    1  N2  UNL     1       6.131 -11.453 -24.314  1.00  0.00    -0.344 N 
HETATM    2  C7  UNL     1       6.190 -10.040 -24.411  1.00  0.00     0.146 C 
HETATM    3  C8  UNL     1       4.860  -9.406 -24.069  1.00  0.00     0.145 C 
HETATM    4  N3  UNL     1       3.702 -10.068 -24.576  1.00  0.00    -0.355 N 
HETATM    5  C15 UNL     1       3.866 -11.447 -25.038  1.00  0.00     0.145 C 
HETATM    6  C16 UNL     1       4.826 -12.089 -24.042  1.00  0.00     0.146 C 
ENDROOT
BRANCH   1   7
HETATM    7  C6  UNL     1       7.244 -12.295 -24.480  1.00  0.00     0.218 C 
BRANCH   7   8
HETATM    8  N1  UNL     1       7.276 -13.561 -25.063  1.00  0.00    -0.333 N 
HETATM    9  C2  UNL     1       7.735 -13.759 -26.471  1.00  0.00     0.188 C 
HETATM   10  C3  UNL     1       6.784 -14.782 -26.981  1.00  0.00     0.038 C 
HETATM   11  C4  UNL     1       5.992 -15.294 -25.781  1.00  0.00     0.022 C 
HETATM   12  C5  UNL     1       6.971 -14.888 -24.646  1.00  0.00     0.127 C 
BRANCH   9  13
HETATM   13  C1  UNL     1       9.147 -14.156 -26.426  1.00  0.00     0.197 C 
HETATM   14  O1  UNL     1      10.040 -13.340 -26.087  1.00  0.00    -0.646 OA
HETATM   15  O2  UNL     1       9.493 -15.466 -26.768  1.00  0.00    -0.646 OA
ENDBRANCH   9  13
ENDBRANCH   7   8
BRANCH   7  16
HETATM   16  O3  UNL     1       8.386 -11.836 -24.034  1.00  0.00    -0.332 OA
ATOM     17  H3  UNL     1       8.433 -10.898 -23.890  1.00  0.00     0.220 HD
ENDBRANCH   7  16
ENDBRANCH   1   7
BRANCH   4  18
HETATM   18  C9  UNL     1       2.451  -9.418 -24.603  1.00  0.00     0.170 C 
HETATM   19  S1  UNL     1       2.325  -8.005 -23.809  1.00  0.00    -0.041 SA
BRANCH  18  20
HETATM   20  N4  UNL     1       1.354  -9.953 -25.278  1.00  0.00    -0.362 N 
ATOM     21  H4  UNL     1       1.430  -9.952 -26.295  1.00  0.00     0.162 HD
BRANCH  20  22
HETATM   22  C10 UNL     1       0.149 -10.499 -24.767  1.00  0.00     0.083 C 
HETATM   23  C11 UNL     1      -1.004 -10.584 -25.743  1.00  0.00     0.025 C 
HETATM   24  C12 UNL     1      -2.067 -11.142 -24.774  1.00  0.00     0.002 C 
HETATM   25  C13 UNL     1      -1.286 -12.117 -23.892  1.00  0.00     0.002 C 
HETATM   26  C14 UNL     1       0.195 -11.902 -24.250  1.00  0.00     0.025 C 
ENDBRANCH  20  22
ENDBRANCH  18  20
ENDBRANCH   4  18
TORSDOF 7
ENDMDL
MODEL 2
REMARK VINA RESULT: -7.770687610      0.840      1.226
REMARK  7 active torsions:
REMARK  status: ('A' for Active; 'I' for Inactive)
REMARK    1  A    between atoms: C1_2  and  C2_4 
REMARK    2  A    between atoms: N1_8  and  C6_9 
REMARK    3  A    between atoms: C6_9  and  O3_10 
REMARK    4  A    between atoms: C6_9  and  N2_12 
REMARK    5  A    between atoms: N3_15  and  C9_16 
REMARK    6  A    between atoms: C9_16  and  N4_18 
REMARK    7  A    between atoms: N4_18  and  C10_20 
ROOT
HETATM    1  N2  UNL     1       6.437 -11.404 -24.171  1.00  0.00    -0.344 N 
HETATM    2  C7  UNL     1       6.551 -10.000 -24.010  1.00  0.00     0.146 C 
HETATM    3  C8  UNL     1       5.256  -9.392 -23.520  1.00  0.00     0.145 C 
HETATM    4  N3  UNL     1       4.060  -9.908 -24.107  1.00  0.00    -0.355 N 
HETATM    5  C15 UNL     1       4.158 -11.184 -24.817  1.00  0.00     0.145 C 
HETATM    6  C16 UNL     1       5.113 -12.032 -23.982  1.00  0.00     0.146 C 
ENDROOT
BRANCH   1   7
HETATM    7  C6  UNL     1       7.511 -12.241 -24.520  1.00  0.00     0.218 C 
BRANCH   7   8
HETATM    8  N1  UNL     1       7.451 -13.516 -25.082  1.00  0.00    -0.333 N 
HETATM    9  C2  UNL     1       7.868 -13.765 -26.494  1.00  0.00     0.188 C 
HETATM   10  C3  UNL     1       6.845 -14.733 -26.969  1.00  0.00     0.038 C 
HETATM   11  C4  UNL     1       6.046 -15.175 -25.746  1.00  0.00     0.022 C 
HETATM   12  C5  UNL     1       7.071 -14.813 -24.636  1.00  0.00     0.127 C 
BRANCH   9  13
HETATM   13  C1  UNL     1       9.253 -14.249 -26.470  1.00  0.00     0.197 C 
HETATM   14  O1  UNL     1      10.202 -13.486 -26.160  1.00  0.00    -0.646 OA
HETATM   15  O2  UNL     1       9.508 -15.583 -26.799  1.00  0.00    -0.646 OA
ENDBRANCH   9  13
ENDBRANCH   7   8
BRANCH   7  16
HETATM   16  O3  UNL     1       8.709 -11.767 -24.290  1.00  0.00    -0.332 OA
ATOM     17  H3  UNL     1       8.782 -11.138 -23.581  1.00  0.00     0.220 HD
ENDBRANCH   7  16
ENDBRANCH   1   7
BRANCH   4  18
HETATM   18  C9  UNL     1       2.837  -9.220 -23.978  1.00  0.00     0.170 C 
HETATM   19  S1  UNL     1       2.905  -7.621 -23.691  1.00  0.00    -0.041 SA
BRANCH  18  20
HETATM   20  N4  UNL     1       1.608  -9.869 -24.088  1.00  0.00    -0.362 N 
ATOM     21  H4  UNL     1       1.379 -10.493 -23.314  1.00  0.00     0.162 HD
BRANCH  20  22
HETATM   22  C10 UNL     1       0.627  -9.797 -25.109  1.00  0.00     0.083 C 
HETATM   23  C11 UNL     1       1.134  -9.446 -26.490  1.00  0.00     0.025 C 
HETATM   24  C12 UNL     1      -0.225  -9.413 -27.219  1.00  0.00     0.002 C 
HETATM   25  C13 UNL     1      -1.010 -10.562 -26.585  1.00  0.00     0.002 C 
HETATM   26  C14 UNL     1      -0.157 -11.039 -25.396  1.00  0.00     0.025 C 
ENDBRANCH  20  22
ENDBRANCH  18  20
ENDBRANCH   4  18
TORSDOF 7
ENDMDL
MODEL 3
REMARK VINA RESULT: -7.705950912      1.760      2.545
REMARK  7 active torsions:
REMARK  status: ('A' for Active; 'I' for Inactive)
REMARK    1  A    between atoms: C1_2  and  C2_4 
REMARK    2  A    between atoms: N1_8  and  C6_9 
REMARK    3  A    between atoms: C6_9  and  O3_10 
REMARK    4  A    between atoms: C6_9  and  N2_12 
REMARK    5  A    between atoms: N3_15  and  C9_16 
REMARK    6  A    between atoms: C9_16  and  N4_18 
REMARK    7  A    between atoms: N4_18  and  C10_20 
ROOT
HETATM    1  N2  UNL     1       6.705 -11.283 -24.485  1.00  0.00    -0.344 N 
HETATM    2  C7  UNL     1       5.323 -11.540 -24.674  1.00  0.00     0.146 C 
HETATM    3  C8  UNL     1       4.502 -10.276 -24.543  1.00  0.00     0.145 C 
HETATM    4  N3  UNL     1       4.885  -9.387 -23.494  1.00  0.00    -0.355 N 
HETATM    5  C15 UNL     1       6.210  -9.577 -22.904  1.00  0.00     0.145 C 
HETATM    6  C16 UNL     1       7.122  -9.927 -24.076  1.00  0.00     0.146 C 
ENDROOT
BRANCH   1   7
HETATM    7  C6  UNL     1       7.709 -12.253 -24.647  1.00  0.00     0.218 C 
BRANCH   7   8
HETATM    8  N1  UNL     1       7.568 -13.556 -25.122  1.00  0.00    -0.333 N 
HETATM    9  C2  UNL     1       7.969 -13.926 -26.513  1.00  0.00     0.188 C 
HETATM   10  C3  UNL     1       6.885 -14.857 -26.926  1.00  0.00     0.038 C 
HETATM   11  C4  UNL     1       6.060 -15.163 -25.679  1.00  0.00     0.022 C 
HETATM   12  C5  UNL     1       7.107 -14.794 -24.592  1.00  0.00     0.127 C 
BRANCH   9  13
HETATM   13  C1  UNL     1       9.319 -14.495 -26.450  1.00  0.00     0.197 C 
HETATM   14  O1  UNL     1       9.539 -15.685 -26.791  1.00  0.00    -0.646 OA
HETATM   15  O2  UNL     1      10.372 -13.692 -26.004  1.00  0.00    -0.646 OA
ENDBRANCH   9  13
ENDBRANCH   7   8
BRANCH   7  16
HETATM   16  O3  UNL     1       8.920 -11.889 -24.310  1.00  0.00    -0.332 OA
ATOM     17  H3  UNL     1       9.161 -10.993 -24.515  1.00  0.00     0.220 HD
ENDBRANCH   7  16
ENDBRANCH   1   7
BRANCH   4  18
HETATM   18  C9  UNL     1       4.022  -8.356 -23.069  1.00  0.00     0.170 C 
HETATM   19  S1  UNL     1       4.705  -7.009 -22.468  1.00  0.00    -0.041 SA
BRANCH  18  20
HETATM   20  N4  UNL     1       2.635  -8.473 -23.150  1.00  0.00    -0.362 N 
ATOM     21  H4  UNL     1       2.199  -8.984 -22.383  1.00  0.00     0.162 HD
BRANCH  20  22
HETATM   22  C10 UNL     1       1.737  -7.992 -24.136  1.00  0.00     0.083 C 
HETATM   23  C11 UNL     1       0.679  -8.968 -24.601  1.00  0.00     0.025 C 
HETATM   24  C12 UNL     1       0.016  -8.077 -25.671  1.00  0.00     0.002 C 
HETATM   25  C13 UNL     1       0.039  -6.678 -25.051  1.00  0.00     0.002 C 
HETATM   26  C14 UNL     1       0.899  -6.804 -23.781  1.00  0.00     0.025 C 
ENDBRANCH  20  22
ENDBRANCH  18  20
ENDBRANCH   4  18
TORSDOF 7
ENDMDL
MODEL 4
REMARK VINA RESULT: -7.687218094      1.754      2.392
REMARK  7 active torsions:
REMARK  status: ('A' for Active; 'I' for Inactive)
REMARK    1  A    between atoms: C1_2  and  C2_4 
REMARK    2  A    between atoms: N1_8  and  C6_9 
REMARK    3  A    between atoms: C6_9  and  O3_10 
REMARK    4  A    between atoms: C6_9  and  N2_12 
REMARK    5  A    between atoms: N3_15  and  C9_16 
REMARK    6  A    between atoms: C9_16  and  N4_18 
REMARK    7  A    between atoms: N4_18  and  C10_20 
ROOT
HETATM    1  N2  UNL     1       7.009 -11.344 -23.878  1.00  0.00    -0.344 N 
HETATM    2  C7  UNL     1       7.371 -10.340 -22.945  1.00  0.00     0.146 C 
HETATM    3  C8  UNL     1       6.152  -9.647 -22.377  1.00  0.00     0.145 C 
HETATM    4  N3  UNL     1       5.107  -9.359 -23.305  1.00  0.00    -0.355 N 
HETATM    5  C15 UNL     1       5.135 -10.063 -24.588  1.00  0.00     0.145 C 
HETATM    6  C16 UNL     1       5.587 -11.481 -24.253  1.00  0.00     0.146 C 
ENDROOT
BRANCH   1   7
HETATM    7  C6  UNL     1       7.930 -12.212 -24.489  1.00  0.00     0.218 C 
BRANCH   7   8
HETATM    8  N1  UNL     1       7.677 -13.456 -25.066  1.00  0.00    -0.333 N 
HETATM    9  C2  UNL     1       8.078 -13.758 -26.473  1.00  0.00     0.188 C 
HETATM   10  C3  UNL     1       6.921 -14.544 -26.978  1.00  0.00     0.038 C 
HETATM   11  C4  UNL     1       6.036 -14.860 -25.776  1.00  0.00     0.022 C 
HETATM   12  C5  UNL     1       7.083 -14.678 -24.642  1.00  0.00     0.127 C 
BRANCH   9  13
HETATM   13  C1  UNL     1       9.364 -14.461 -26.428  1.00  0.00     0.197 C 
HETATM   14  O1  UNL     1       9.462 -15.660 -26.793  1.00  0.00    -0.646 OA
HETATM   15  O2  UNL     1      10.493 -13.777 -25.969  1.00  0.00    -0.646 OA
ENDBRANCH   9  13
ENDBRANCH   7   8
BRANCH   7  16
HETATM   16  O3  UNL     1       9.174 -11.804 -24.519  1.00  0.00    -0.332 OA
ATOM     17  H3  UNL     1       9.312 -10.873 -24.398  1.00  0.00     0.220 HD
ENDBRANCH   7  16
ENDBRANCH   1   7
BRANCH   4  18
HETATM   18  C9  UNL     1       4.081  -8.448 -22.978  1.00  0.00     0.170 C 
HETATM   19  S1  UNL     1       4.523  -7.028 -22.322  1.00  0.00    -0.041 SA
BRANCH  18  20
HETATM   20  N4  UNL     1       2.735  -8.740 -23.200  1.00  0.00    -0.362 N 
ATOM     21  H4  UNL     1       2.337  -9.442 -22.576  1.00  0.00     0.162 HD
BRANCH  20  22
HETATM   22  C10 UNL     1       1.835  -8.212 -24.159  1.00  0.00     0.083 C 
HETATM   23  C11 UNL     1       0.764  -9.158 -24.654  1.00  0.00     0.025 C 
HETATM   24  C12 UNL     1       0.102  -8.219 -25.683  1.00  0.00     0.002 C 
HETATM   25  C13 UNL     1       0.143  -6.847 -25.007  1.00  0.00     0.002 C 
HETATM   26  C14 UNL     1       1.011  -7.031 -23.750  1.00  0.00     0.025 C 
ENDBRANCH  20  22
ENDBRANCH  18  20
ENDBRANCH   4  18
TORSDOF 7
ENDMDL
MODEL 5
REMARK VINA RESULT: -7.622839164      1.281      2.087
REMARK  7 active torsions:
REMARK  status: ('A' for Active; 'I' for Inactive)
REMARK    1  A    between atoms: C1_2  and  C2_4 
REMARK    2  A    between atoms: N1_8  and  C6_9 
REMARK    3  A    between atoms: C6_9  and  O3_10 
REMARK    4  A    between atoms: C6_9  and  N2_12 
REMARK    5  A    between atoms: N3_15  and  C9_16 
REMARK    6  A    between atoms: C9_16  and  N4_18 
REMARK    7  A    between atoms: N4_18  and  C10_20 
ROOT
HETATM    1  N2  UNL     1       5.027 -11.521 -24.316  1.00  0.00    -0.344 N 
HETATM    2  C7  UNL     1       3.749 -12.123 -24.444  1.00  0.00     0.146 C 
HETATM    3  C8  UNL     1       2.690 -11.103 -24.796  1.00  0.00     0.145 C 
HETATM    4  N3  UNL     1       2.779  -9.849 -24.119  1.00  0.00    -0.355 N 
HETATM    5  C15 UNL     1       4.045  -9.532 -23.459  1.00  0.00     0.145 C 
HETATM    6  C16 UNL     1       5.126 -10.051 -24.401  1.00  0.00     0.146 C 
ENDROOT
BRANCH   1   7
HETATM    7  C6  UNL     1       6.212 -12.243 -24.090  1.00  0.00     0.218 C 
BRANCH   7   8
HETATM    8  N1  UNL     1       6.703 -13.325 -24.819  1.00  0.00    -0.333 N 
HETATM    9  C2  UNL     1       7.429 -13.130 -26.110  1.00  0.00     0.188 C 
HETATM   10  C3  UNL     1       6.911 -14.246 -26.945  1.00  0.00     0.038 C 
HETATM   11  C4  UNL     1       6.110 -15.160 -26.022  1.00  0.00     0.022 C 
HETATM   12  C5  UNL     1       6.726 -14.739 -24.659  1.00  0.00     0.127 C 
BRANCH   9  13
HETATM   13  C1  UNL     1       8.866 -13.154 -25.820  1.00  0.00     0.197 C 
HETATM   14  O1  UNL     1       9.607 -14.056 -26.287  1.00  0.00    -0.646 OA
HETATM   15  O2  UNL     1       9.411 -12.154 -25.010  1.00  0.00    -0.646 OA
ENDBRANCH   9  13
ENDBRANCH   7   8
BRANCH   7  16
HETATM   16  O3  UNL     1       6.940 -11.851 -23.075  1.00  0.00    -0.332 OA
ATOM     17  H3  UNL     1       6.503 -11.309 -22.430  1.00  0.00     0.220 HD
ENDBRANCH   7  16
ENDBRANCH   1   7
BRANCH   4  18
HETATM   18  C9  UNL     1       1.691  -8.951 -24.115  1.00  0.00     0.170 C 
HETATM   19  S1  UNL     1       2.001  -7.403 -23.729  1.00  0.00    -0.041 SA
BRANCH  18  20
HETATM   20  N4  UNL     1       0.394  -9.359 -24.425  1.00  0.00    -0.362 N 
ATOM     21  H4  UNL     1      -0.158  -9.683 -23.630  1.00  0.00     0.162 HD
BRANCH  20  22
HETATM   22  C10 UNL     1      -0.275  -9.395 -25.674  1.00  0.00     0.083 C 
HETATM   23  C11 UNL     1       0.510  -8.884 -26.861  1.00  0.00     0.025 C 
HETATM   24  C12 UNL     1      -0.590  -9.038 -27.931  1.00  0.00     0.002 C 
HETATM   25  C13 UNL     1      -1.298 -10.339 -27.547  1.00  0.00     0.002 C 
HETATM   26  C14 UNL     1      -0.721 -10.733 -26.176  1.00  0.00     0.025 C 
ENDBRANCH  20  22
ENDBRANCH  18  20
ENDBRANCH   4  18
TORSDOF 7
ENDMDL
