MODEL 1
REMARK VINA RESULT: -8.353929824      0.000      0.000
REMARK  2 active torsions:
REMARK  status: ('A' for Active; 'I' for Inactive)
REMARK       I    between atoms: C1_2  and  N1_3 
REMARK       I    between atoms: C1_2  and  N2_11 
REMARK    1  A    between atoms: N1_3  and  C2_5 
REMARK       I    between atoms: N3_18  and  C14_19 
REMARK       I    between atoms: C14_19  and  N4_21 
REMARK    2  A    between atoms: N4_21  and  C15_23 
ROOT
HETATM    1  O1  UNL     1       2.875 -14.001 -24.486  1.00  0.00    -0.247 OA
HETATM    2  C1  UNL     1       3.313 -12.835 -24.515  1.00  0.00     0.318 C 
HETATM    3  N1  UNL     1       2.414 -11.753 -24.521  1.00  0.00    -0.338 N 
ATOM      4  H1  UNL     1       2.772 -10.798 -24.546  1.00  0.00     0.164 HD
HETATM    5  N2  UNL     1       4.705 -12.602 -24.543  1.00  0.00    -0.334 N 
HETATM    6  C8  UNL     1       5.583 -13.744 -24.545  1.00  0.00     0.128 C 
HETATM    7  C9  UNL     1       6.911 -13.410 -23.948  1.00  0.00     0.033 C 
HETATM    8  C10 UNL     1       7.449 -12.232 -24.733  1.00  0.00    -0.005 C 
HETATM    9  C11 UNL     1       6.636 -11.046 -24.355  1.00  0.00     0.033 C 
HETATM   10  C12 UNL     1       5.186 -11.252 -24.568  1.00  0.00     0.128 C 
HETATM   11  C13 UNL     1       7.674 -12.460 -26.196  1.00  0.00     0.139 C 
HETATM   12  N3  UNL     1       9.036 -12.898 -25.864  1.00  0.00    -0.333 N 
HETATM   13  C14 UNL     1       9.961 -13.761 -26.492  1.00  0.00     0.318 C 
HETATM   14  O2  UNL     1       9.691 -14.339 -27.559  1.00  0.00    -0.247 OA
HETATM   15  N4  UNL     1      11.231 -13.976 -25.893  1.00  0.00    -0.334 N 
ATOM     16  H4  UNL     1      11.457 -13.503 -25.019  1.00  0.00     0.164 HD
HETATM   17  C18 UNL     1       8.940 -12.065 -24.681  1.00  0.00     0.139 C 
ENDROOT
BRANCH  15  18
HETATM   18  C15 UNL     1      12.205 -14.846 -26.495  1.00  0.00     0.133 C 
HETATM   19  C16 UNL     1      13.563 -14.723 -25.868  1.00  0.00     0.195 C 
HETATM   20  O3  UNL     1      13.777 -13.588 -26.666  1.00  0.00    -0.387 OA
HETATM   21  C17 UNL     1      12.976 -14.177 -27.632  1.00  0.00     0.195 C 
ENDBRANCH  15  18
BRANCH   3  22
HETATM   22  C2  UNL     1       1.004 -11.981 -24.493  1.00  0.00     0.086 C 
HETATM   23  C3  UNL     1       0.530 -12.273 -23.065  1.00  0.00     0.025 C 
HETATM   24  C4  UNL     1      -0.847 -12.906 -23.202  1.00  0.00     0.002 C 
HETATM   25  C5  UNL     1      -1.661 -12.255 -24.293  1.00  0.00     0.000 C 
HETATM   26  C6  UNL     1      -1.200 -10.858 -24.607  1.00  0.00     0.002 C 
HETATM   27  C7  UNL     1       0.242 -10.763 -24.961  1.00  0.00     0.025 C 
ENDBRANCH   3  22
TORSDOF 2
ENDMDL
MODEL 2
REMARK VINA RESULT: -7.804485416      4.317      9.627
REMARK  2 active torsions:
REMARK  status: ('A' for Active; 'I' for Inactive)
REMARK       I    between atoms: C1_2  and  N1_3 
REMARK       I    between atoms: C1_2  and  N2_11 
REMARK    1  A    between atoms: N1_3  and  C2_5 
REMARK       I    between atoms: N3_18  and  C14_19 
REMARK       I    between atoms: C14_19  and  N4_21 
REMARK    2  A    between atoms: N4_21  and  C15_23 
ROOT
HETATM    1  O1  UNL     1       9.511 -11.619 -24.392  1.00  0.00    -0.247 OA
HETATM    2  C1  UNL     1       8.419 -12.063 -24.799  1.00  0.00     0.318 C 
HETATM    3  N1  UNL     1       8.400 -13.128 -25.717  1.00  0.00    -0.338 N 
ATOM      4  H1  UNL     1       7.508 -13.491 -26.052  1.00  0.00     0.164 HD
HETATM    5  N2  UNL     1       7.210 -11.497 -24.342  1.00  0.00    -0.334 N 
HETATM    6  C8  UNL     1       7.284 -10.401 -23.410  1.00  0.00     0.128 C 
HETATM    7  C9  UNL     1       6.062 -10.331 -22.554  1.00  0.00     0.033 C 
HETATM    8  C10 UNL     1       4.882 -10.243 -23.500  1.00  0.00    -0.005 C 
HETATM    9  C11 UNL     1       4.733 -11.575 -24.140  1.00  0.00     0.033 C 
HETATM   10  C12 UNL     1       5.967 -12.029 -24.819  1.00  0.00     0.128 C 
HETATM   11  C13 UNL     1       4.850  -9.050 -24.404  1.00  0.00     0.139 C 
HETATM   12  N3  UNL     1       4.100  -8.342 -23.357  1.00  0.00    -0.333 N 
HETATM   13  C14 UNL     1       3.954  -6.979 -23.018  1.00  0.00     0.318 C 
HETATM   14  O2  UNL     1       4.527  -6.083 -23.661  1.00  0.00    -0.247 OA
HETATM   15  N4  UNL     1       3.132  -6.620 -21.916  1.00  0.00    -0.334 N 
ATOM     16  H4  UNL     1       2.659  -7.352 -21.387  1.00  0.00     0.164 HD
HETATM   17  C18 UNL     1       3.641  -9.641 -22.907  1.00  0.00     0.139 C 
ENDROOT
BRANCH  15  18
HETATM   18  C15 UNL     1       2.953  -5.245 -21.533  1.00  0.00     0.133 C 
HETATM   19  C16 UNL     1       4.169  -4.661 -20.874  1.00  0.00     0.195 C 
HETATM   20  O3  UNL     1       3.755  -5.267 -19.678  1.00  0.00    -0.387 OA
HETATM   21  C17 UNL     1       2.447  -5.091 -20.099  1.00  0.00     0.195 C 
ENDBRANCH  15  18
BRANCH   3  22
HETATM   22  C2  UNL     1       9.620 -13.706 -26.184  1.00  0.00     0.086 C 
HETATM   23  C3  UNL     1       9.514 -15.234 -26.232  1.00  0.00     0.025 C 
HETATM   24  C4  UNL     1      10.942 -15.751 -26.317  1.00  0.00     0.002 C 
HETATM   25  C5  UNL     1      11.801 -14.893 -27.213  1.00  0.00     0.000 C 
HETATM   26  C6  UNL     1      10.994 -14.102 -28.206  1.00  0.00     0.002 C 
HETATM   27  C7  UNL     1       9.941 -13.251 -27.589  1.00  0.00     0.025 C 
ENDBRANCH   3  22
TORSDOF 2
ENDMDL
MODEL 3
REMARK VINA RESULT: -7.635724457      6.227      9.931
REMARK  2 active torsions:
REMARK  status: ('A' for Active; 'I' for Inactive)
REMARK       I    between atoms: C1_2  and  N1_3 
REMARK       I    between atoms: C1_2  and  N2_11 
REMARK    1  A    between atoms: N1_3  and  C2_5 
REMARK       I    between atoms: N3_18  and  C14_19 
REMARK       I    between atoms: C14_19  and  N4_21 
REMARK    2  A    between atoms: N4_21  and  C15_23 
ROOT
HETATM    1  O1  UNL     1       3.404 -11.562 -23.743  1.00  0.00    -0.247 OA
HETATM    2  C1  UNL     1       4.508 -11.000 -23.883  1.00  0.00     0.318 C 
HETATM    3  N1  UNL     1       5.626 -11.752 -24.285  1.00  0.00    -0.338 N 
ATOM      4  H1  UNL     1       6.529 -11.293 -24.400  1.00  0.00     0.164 HD
HETATM    5  N2  UNL     1       4.633  -9.616 -23.638  1.00  0.00    -0.334 N 
HETATM    6  C8  UNL     1       3.460  -8.892 -23.218  1.00  0.00     0.128 C 
HETATM    7  C9  UNL     1       3.542  -7.452 -23.606  1.00  0.00     0.033 C 
HETATM    8  C10 UNL     1       4.826  -6.920 -23.007  1.00  0.00    -0.005 C 
HETATM    9  C11 UNL     1       5.949  -7.510 -23.782  1.00  0.00     0.033 C 
HETATM   10  C12 UNL     1       5.910  -8.989 -23.814  1.00  0.00     0.128 C 
HETATM   11  C13 UNL     1       4.932  -6.977 -21.514  1.00  0.00     0.139 C 
HETATM   12  N3  UNL     1       4.326  -5.639 -21.474  1.00  0.00    -0.333 N 
HETATM   13  C14 UNL     1       3.566  -4.944 -20.507  1.00  0.00     0.318 C 
HETATM   14  O2  UNL     1       3.278  -5.459 -19.413  1.00  0.00    -0.247 OA
HETATM   15  N4  UNL     1       3.120  -3.625 -20.787  1.00  0.00    -0.334 N 
ATOM     16  H4  UNL     1       3.355  -3.199 -21.683  1.00  0.00     0.164 HD
HETATM   17  C18 UNL     1       4.861  -5.433 -22.805  1.00  0.00     0.139 C 
ENDROOT
BRANCH  15  18
HETATM   18  C15 UNL     1       2.344  -2.878 -19.835  1.00  0.00     0.133 C 
HETATM   19  C16 UNL     1       2.106  -1.459 -20.262  1.00  0.00     0.195 C 
HETATM   20  O3  UNL     1       3.385  -1.148 -19.777  1.00  0.00    -0.387 OA
HETATM   21  C17 UNL     1       3.208  -2.133 -18.819  1.00  0.00     0.195 C 
ENDBRANCH  15  18
BRANCH   3  22
HETATM   22  C2  UNL     1       5.506 -13.153 -24.535  1.00  0.00     0.086 C 
HETATM   23  C3  UNL     1       4.949 -13.409 -25.940  1.00  0.00     0.025 C 
HETATM   24  C4  UNL     1       4.469 -14.852 -25.943  1.00  0.00     0.002 C 
HETATM   25  C5  UNL     1       5.401 -15.760 -25.180  1.00  0.00     0.000 C 
HETATM   26  C6  UNL     1       6.793 -15.200 -25.069  1.00  0.00     0.002 C 
HETATM   27  C7  UNL     1       6.852 -13.839 -24.472  1.00  0.00     0.025 C 
ENDBRANCH   3  22
TORSDOF 2
ENDMDL
MODEL 4
REMARK VINA RESULT: -7.630506338      5.892      7.102
REMARK  2 active torsions:
REMARK  status: ('A' for Active; 'I' for Inactive)
REMARK       I    between atoms: C1_2  and  N1_3 
REMARK       I    between atoms: C1_2  and  N2_11 
REMARK    1  A    between atoms: N1_3  and  C2_5 
REMARK       I    between atoms: N3_18  and  C14_19 
REMARK       I    between atoms: C14_19  and  N4_21 
REMARK    2  A    between atoms: N4_21  and  C15_23 
ROOT
HETATM    1  O1  UNL     1       4.212  -7.495 -18.922  1.00  0.00    -0.247 OA
HETATM    2  C1  UNL     1       4.264  -6.943 -20.039  1.00  0.00     0.318 C 
HETATM    3  N1  UNL     1       3.757  -5.641 -20.196  1.00  0.00    -0.338 N 
ATOM      4  H1  UNL     1       3.799  -5.189 -21.109  1.00  0.00     0.164 HD
HETATM    5  N2  UNL     1       4.829  -7.623 -21.138  1.00  0.00    -0.334 N 
HETATM    6  C8  UNL     1       5.326  -8.959 -20.927  1.00  0.00     0.128 C 
HETATM    7  C9  UNL     1       6.411  -9.295 -21.898  1.00  0.00     0.033 C 
HETATM    8  C10 UNL     1       5.832  -9.076 -23.279  1.00  0.00    -0.005 C 
HETATM    9  C11 UNL     1       5.695  -7.609 -23.470  1.00  0.00     0.033 C 
HETATM   10  C12 UNL     1       4.887  -6.965 -22.411  1.00  0.00     0.128 C 
HETATM   11  C13 UNL     1       4.648  -9.919 -23.640  1.00  0.00     0.139 C 
HETATM   12  N3  UNL     1       5.587 -10.922 -24.161  1.00  0.00    -0.333 N 
HETATM   13  C14 UNL     1       5.518 -12.322 -24.334  1.00  0.00     0.318 C 
HETATM   14  O2  UNL     1       4.504 -12.967 -24.020  1.00  0.00    -0.247 OA
HETATM   15  N4  UNL     1       6.633 -13.012 -24.881  1.00  0.00    -0.334 N 
ATOM     16  H4  UNL     1       7.467 -12.486 -25.142  1.00  0.00     0.164 HD
HETATM   17  C18 UNL     1       6.519  -9.833 -24.379  1.00  0.00     0.139 C 
ENDROOT
BRANCH  15  18
HETATM   18  C15 UNL     1       6.610 -14.437 -25.076  1.00  0.00     0.133 C 
HETATM   19  C16 UNL     1       7.861 -14.957 -25.723  1.00  0.00     0.195 C 
HETATM   20  O3  UNL     1       7.325 -14.569 -26.961  1.00  0.00    -0.387 OA
HETATM   21  C17 UNL     1       6.067 -14.839 -26.446  1.00  0.00     0.195 C 
ENDBRANCH  15  18
BRANCH   3  22
HETATM   22  C2  UNL     1       3.184  -4.946 -19.087  1.00  0.00     0.086 C 
HETATM   23  C3  UNL     1       3.177  -3.434 -19.338  1.00  0.00     0.025 C 
HETATM   24  C4  UNL     1       2.962  -2.785 -17.979  1.00  0.00     0.002 C 
HETATM   25  C5  UNL     1       1.970  -3.550 -17.138  1.00  0.00     0.000 C 
HETATM   26  C6  UNL     1       1.045  -4.402 -17.965  1.00  0.00     0.002 C 
HETATM   27  C7  UNL     1       1.745  -5.354 -18.867  1.00  0.00     0.025 C 
ENDBRANCH   3  22
TORSDOF 2
ENDMDL
MODEL 5
REMARK VINA RESULT: -7.595583605      5.824      9.781
REMARK  2 active torsions:
REMARK  status: ('A' for Active; 'I' for Inactive)
REMARK       I    between atoms: C1_2  and  N1_3 
REMARK       I    between atoms: C1_2  and  N2_11 
REMARK    1  A    between atoms: N1_3  and  C2_5 
REMARK       I    between atoms: N3_18  and  C14_19 
REMARK       I    between atoms: C14_19  and  N4_21 
REMARK    2  A    between atoms: N4_21  and  C15_23 
ROOT
HETATM    1  O1  UNL     1       3.487 -11.956 -24.216  1.00  0.00    -0.247 OA
HETATM    2  C1  UNL     1       4.526 -11.282 -24.364  1.00  0.00     0.318 C 
HETATM    3  N1  UNL     1       5.599 -11.813 -25.101  1.00  0.00    -0.338 N 
ATOM      4  H1  UNL     1       6.450 -11.263 -25.223  1.00  0.00     0.164 HD
HETATM    5  N2  UNL     1       4.622  -9.996 -23.794  1.00  0.00    -0.334 N 
HETATM    6  C8  UNL     1       3.498  -9.502 -23.040  1.00  0.00     0.128 C 
HETATM    7  C9  UNL     1       3.447  -8.009 -23.053  1.00  0.00     0.033 C 
HETATM    8  C10 UNL     1       4.785  -7.531 -22.528  1.00  0.00    -0.005 C 
HETATM    9  C11 UNL     1       5.795  -7.813 -23.581  1.00  0.00     0.033 C 
HETATM   10  C12 UNL     1       5.823  -9.236 -23.985  1.00  0.00     0.128 C 
HETATM   11  C13 UNL     1       5.131  -7.943 -21.131  1.00  0.00     0.139 C 
HETATM   12  N3  UNL     1       4.475  -6.714 -20.663  1.00  0.00    -0.333 N 
HETATM   13  C14 UNL     1       3.848  -6.347 -19.452  1.00  0.00     0.318 C 
HETATM   14  O2  UNL     1       3.764  -7.137 -18.496  1.00  0.00    -0.247 OA
HETATM   15  N4  UNL     1       3.300  -5.043 -19.319  1.00  0.00    -0.334 N 
ATOM     16  H4  UNL     1       3.368  -4.391 -20.100  1.00  0.00     0.164 HD
HETATM   17  C18 UNL     1       4.780  -6.142 -21.959  1.00  0.00     0.139 C 
ENDROOT
BRANCH  15  18
HETATM   18  C15 UNL     1       2.652  -4.623 -18.106  1.00  0.00     0.133 C 
HETATM   19  C16 UNL     1       1.206  -4.272 -18.309  1.00  0.00     0.195 C 
HETATM   20  O3  UNL     1       1.625  -3.013 -18.767  1.00  0.00    -0.387 OA
HETATM   21  C17 UNL     1       2.701  -3.110 -17.900  1.00  0.00     0.195 C 
ENDBRANCH  15  18
BRANCH   3  22
HETATM   22  C2  UNL     1       5.509 -13.115 -25.682  1.00  0.00     0.086 C 
HETATM   23  C3  UNL     1       6.793 -13.460 -26.444  1.00  0.00     0.025 C 
HETATM   24  C4  UNL     1       6.440 -14.629 -27.351  1.00  0.00     0.002 C 
HETATM   25  C5  UNL     1       5.519 -15.613 -26.673  1.00  0.00     0.000 C 
HETATM   26  C6  UNL     1       5.593 -15.536 -25.172  1.00  0.00     0.002 C 
HETATM   27  C7  UNL     1       5.336 -14.178 -24.622  1.00  0.00     0.025 C 
ENDBRANCH   3  22
TORSDOF 2
ENDMDL
