MODEL 1
REMARK VINA RESULT: -6.928704067      0.000      0.000
REMARK  7 active torsions:
REMARK  status: ('A' for Active; 'I' for Inactive)
REMARK    1  A    between atoms: C2_2  and  C5_5 
REMARK    2  A    between atoms: C6_6  and  C7_7 
REMARK    3  A    between atoms: C8_8  and  C9_9 
REMARK       I    between atoms: C9_9  and  N1_11 
REMARK    4  A    between atoms: N1_11  and  C10_13 
REMARK    5  A    between atoms: C10_13  and  O2_14 
REMARK    6  A    between atoms: C10_13  and  C15_19 
REMARK    7  A    between atoms: O2_14  and  C11_15 
ROOT
HETATM    1  C10 UNL     1       4.295  -6.213 -21.041  1.00  0.00     0.248 C 
ENDROOT
BRANCH   1   2
HETATM    2  N1  UNL     1       4.391  -7.385 -21.899  1.00  0.00    -0.322 N 
HETATM    3  C9  UNL     1       4.853  -8.654 -21.463  1.00  0.00     0.299 C 
HETATM    4  O1  UNL     1       5.218  -8.841 -20.262  1.00  0.00    -0.258 OA
ATOM      5  H1  UNL     1       4.108  -7.287 -22.875  1.00  0.00     0.166 HD
BRANCH   3   6
HETATM    6  C8  UNL     1       4.935  -9.789 -22.337  1.00  0.00     0.009 C 
HETATM    7  C7  UNL     1       5.004 -10.753 -23.059  1.00  0.00    -0.005 C 
BRANCH   7   8
HETATM    8  C6  UNL     1       5.099 -11.894 -23.890  1.00  0.00    -0.014 C 
HETATM    9  C5  UNL     1       5.183 -12.881 -24.582  1.00  0.00    -0.084 C 
BRANCH   9  10
HETATM   10  C2  UNL     1       5.288 -14.099 -25.407  1.00  0.00     0.013 C 
HETATM   11  C1  UNL     1       6.364 -15.025 -24.865  1.00  0.00     0.028 C 
HETATM   12  C3  UNL     1       3.973 -14.815 -25.320  1.00  0.00     0.028 C 
HETATM   13  C4  UNL     1       5.657 -13.731 -26.825  1.00  0.00     0.028 C 
ENDBRANCH   9  10
ENDBRANCH   7   8
ENDBRANCH   3   6
ENDBRANCH   1   2
BRANCH   1  14
HETATM   14  O2  UNL     1       3.160  -6.092 -20.363  1.00  0.00    -0.355 OA
BRANCH  14  15
HETATM   15  C11 UNL     1       3.037  -5.633 -19.134  1.00  0.00     0.052 C 
HETATM   16  C12 UNL     1       3.346  -4.191 -18.870  1.00  0.00     0.045 C 
HETATM   17  C13 UNL     1       1.543  -5.787 -18.766  1.00  0.00     0.045 C 
HETATM   18  C14 UNL     1       3.758  -6.444 -18.066  1.00  0.00     0.045 C 
ENDBRANCH  14  15
ENDBRANCH   1  14
BRANCH   1  19
HETATM   19  C15 UNL     1       4.711  -5.026 -21.879  1.00  0.00     0.137 C 
HETATM   20  C16 UNL     1       3.557  -4.686 -22.795  1.00  0.00     0.137 C 
HETATM   21  S1  UNL     1       3.984  -3.326 -23.874  1.00  0.00     0.018 S 
HETATM   22  O3  UNL     1       3.939  -1.868 -23.022  1.00  0.00    -0.258 OA
HETATM   23  C17 UNL     1       5.632  -3.640 -24.489  1.00  0.00     0.128 C 
HETATM   24  C18 UNL     1       5.959  -5.058 -23.984  1.00  0.00     0.127 C 
HETATM   25  N2  UNL     1       5.912  -5.189 -22.586  1.00  0.00    -0.411 N 
ATOM     26  H2  UNL     1       6.767  -5.406 -22.074  1.00  0.00     0.153 HD
ENDBRANCH   1  19
TORSDOF 7
ENDMDL
MODEL 2
REMARK VINA RESULT: -6.596860611      2.143      4.045
REMARK  7 active torsions:
REMARK  status: ('A' for Active; 'I' for Inactive)
REMARK    1  A    between atoms: C2_2  and  C5_5 
REMARK    2  A    between atoms: C6_6  and  C7_7 
REMARK    3  A    between atoms: C8_8  and  C9_9 
REMARK       I    between atoms: C9_9  and  N1_11 
REMARK    4  A    between atoms: N1_11  and  C10_13 
REMARK    5  A    between atoms: C10_13  and  O2_14 
REMARK    6  A    between atoms: C10_13  and  C15_19 
REMARK    7  A    between atoms: O2_14  and  C11_15 
ROOT
HETATM    1  C10 UNL     1       4.308  -6.381 -22.058  1.00  0.00     0.248 C 
ENDROOT
BRANCH   1   2
HETATM    2  N1  UNL     1       4.695  -7.721 -22.475  1.00  0.00    -0.322 N 
HETATM    3  C9  UNL     1       4.040  -8.453 -23.500  1.00  0.00     0.299 C 
HETATM    4  O1  UNL     1       3.052  -7.964 -24.127  1.00  0.00    -0.258 OA
ATOM      5  H1  UNL     1       5.484  -8.160 -22.002  1.00  0.00     0.166 HD
BRANCH   3   6
HETATM    6  C8  UNL     1       4.447  -9.775 -23.887  1.00  0.00     0.009 C 
HETATM    7  C7  UNL     1       4.797 -10.879 -24.222  1.00  0.00    -0.005 C 
BRANCH   7   8
HETATM    8  C6  UNL     1       5.208 -12.167 -24.640  1.00  0.00    -0.014 C 
HETATM    9  C5  UNL     1       5.563 -13.259 -25.016  1.00  0.00    -0.084 C 
BRANCH   9  10
HETATM   10  C2  UNL     1       5.999 -14.583 -25.496  1.00  0.00     0.013 C 
HETATM   11  C1  UNL     1       6.378 -14.525 -26.966  1.00  0.00     0.028 C 
HETATM   12  C3  UNL     1       7.224 -14.961 -24.716  1.00  0.00     0.028 C 
HETATM   13  C4  UNL     1       4.879 -15.584 -25.340  1.00  0.00     0.028 C 
ENDBRANCH   9  10
ENDBRANCH   7   8
ENDBRANCH   3   6
ENDBRANCH   1   2
BRANCH   1  14
HETATM   14  O2  UNL     1       5.289  -5.487 -22.025  1.00  0.00    -0.355 OA
BRANCH  14  15
HETATM   15  C11 UNL     1       5.549  -4.587 -22.952  1.00  0.00     0.052 C 
HETATM   16  C12 UNL     1       4.620  -3.420 -23.102  1.00  0.00     0.045 C 
HETATM   17  C13 UNL     1       6.909  -3.958 -22.571  1.00  0.00     0.045 C 
HETATM   18  C14 UNL     1       5.787  -5.146 -24.348  1.00  0.00     0.045 C 
ENDBRANCH  14  15
ENDBRANCH   1  14
BRANCH   1  19
HETATM   19  C15 UNL     1       3.494  -6.538 -20.794  1.00  0.00     0.137 C 
HETATM   20  C16 UNL     1       3.064  -5.158 -20.353  1.00  0.00     0.137 C 
HETATM   21  S1  UNL     1       2.145  -5.240 -18.822  1.00  0.00     0.018 S 
HETATM   22  O3  UNL     1       0.579  -5.803 -19.110  1.00  0.00    -0.258 OA
HETATM   23  C17 UNL     1       3.023  -6.358 -17.741  1.00  0.00     0.128 C 
HETATM   24  C18 UNL     1       4.329  -6.667 -18.497  1.00  0.00     0.127 C 
HETATM   25  N2  UNL     1       4.130  -7.245 -19.762  1.00  0.00    -0.411 N 
ATOM     26  H2  UNL     1       4.453  -8.197 -19.934  1.00  0.00     0.153 HD
ENDBRANCH   1  19
TORSDOF 7
ENDMDL
MODEL 3
REMARK VINA RESULT: -6.457230887      2.227      4.098
REMARK  7 active torsions:
REMARK  status: ('A' for Active; 'I' for Inactive)
REMARK    1  A    between atoms: C2_2  and  C5_5 
REMARK    2  A    between atoms: C6_6  and  C7_7 
REMARK    3  A    between atoms: C8_8  and  C9_9 
REMARK       I    between atoms: C9_9  and  N1_11 
REMARK    4  A    between atoms: N1_11  and  C10_13 
REMARK    5  A    between atoms: C10_13  and  O2_14 
REMARK    6  A    between atoms: C10_13  and  C15_19 
REMARK    7  A    between atoms: O2_14  and  C11_15 
ROOT
HETATM    1  C10 UNL     1       3.982  -5.337 -21.564  1.00  0.00     0.248 C 
ENDROOT
BRANCH   1   2
HETATM    2  N1  UNL     1       4.352  -6.677 -21.993  1.00  0.00    -0.322 N 
HETATM    3  C9  UNL     1       4.128  -7.183 -23.301  1.00  0.00     0.299 C 
HETATM    4  O1  UNL     1       3.575  -6.470 -24.193  1.00  0.00    -0.258 OA
ATOM      5  H1  UNL     1       4.801  -7.290 -21.313  1.00  0.00     0.166 HD
BRANCH   3   6
HETATM    6  C8  UNL     1       4.506  -8.511 -23.691  1.00  0.00     0.009 C 
HETATM    7  C7  UNL     1       4.811  -9.628 -24.028  1.00  0.00    -0.005 C 
BRANCH   7   8
HETATM    8  C6  UNL     1       5.145 -10.945 -24.424  1.00  0.00    -0.014 C 
HETATM    9  C5  UNL     1       5.410 -12.072 -24.768  1.00  0.00    -0.084 C 
BRANCH   9  10
HETATM   10  C2  UNL     1       5.711 -13.453 -25.191  1.00  0.00     0.013 C 
HETATM   11  C1  UNL     1       5.962 -13.514 -26.688  1.00  0.00     0.028 C 
HETATM   12  C3  UNL     1       6.972 -13.871 -24.493  1.00  0.00     0.028 C 
HETATM   13  C4  UNL     1       4.544 -14.357 -24.874  1.00  0.00     0.028 C 
ENDBRANCH   9  10
ENDBRANCH   7   8
ENDBRANCH   3   6
ENDBRANCH   1   2
BRANCH   1  14
HETATM   14  O2  UNL     1       4.975  -4.458 -21.511  1.00  0.00    -0.355 OA
BRANCH  14  15
HETATM   15  C11 UNL     1       5.273  -3.568 -22.438  1.00  0.00     0.052 C 
HETATM   16  C12 UNL     1       6.089  -4.004 -23.617  1.00  0.00     0.045 C 
HETATM   17  C13 UNL     1       3.927  -3.109 -23.041  1.00  0.00     0.045 C 
HETATM   18  C14 UNL     1       5.897  -2.280 -21.919  1.00  0.00     0.045 C 
ENDBRANCH  14  15
ENDBRANCH   1  14
BRANCH   1  19
HETATM   19  C15 UNL     1       3.154  -5.497 -20.309  1.00  0.00     0.137 C 
HETATM   20  C16 UNL     1       3.250  -4.204 -19.531  1.00  0.00     0.137 C 
HETATM   21  S1  UNL     1       2.350  -4.323 -17.992  1.00  0.00     0.018 S 
HETATM   22  O3  UNL     1       0.689  -4.207 -18.276  1.00  0.00    -0.258 OA
HETATM   23  C17 UNL     1       2.751  -5.907 -17.268  1.00  0.00     0.128 C 
HETATM   24  C18 UNL     1       3.862  -6.465 -18.177  1.00  0.00     0.127 C 
HETATM   25  N2  UNL     1       3.479  -6.610 -19.520  1.00  0.00    -0.411 N 
ATOM     26  H2  UNL     1       3.437  -7.543 -19.931  1.00  0.00     0.153 HD
ENDBRANCH   1  19
TORSDOF 7
ENDMDL
MODEL 4
REMARK VINA RESULT: -6.372747832      3.582      5.017
REMARK  7 active torsions:
REMARK  status: ('A' for Active; 'I' for Inactive)
REMARK    1  A    between atoms: C2_2  and  C5_5 
REMARK    2  A    between atoms: C6_6  and  C7_7 
REMARK    3  A    between atoms: C8_8  and  C9_9 
REMARK       I    between atoms: C9_9  and  N1_11 
REMARK    4  A    between atoms: N1_11  and  C10_13 
REMARK    5  A    between atoms: C10_13  and  O2_14 
REMARK    6  A    between atoms: C10_13  and  C15_19 
REMARK    7  A    between atoms: O2_14  and  C11_15 
ROOT
HETATM    1  C10 UNL     1       4.040  -8.986 -24.027  1.00  0.00     0.248 C 
ENDROOT
BRANCH   1   2
HETATM    2  N1  UNL     1       5.197  -9.727 -24.509  1.00  0.00    -0.322 N 
HETATM    3  C9  UNL     1       5.430 -11.100 -24.237  1.00  0.00     0.299 C 
HETATM    4  O1  UNL     1       4.617 -11.777 -23.536  1.00  0.00    -0.258 OA
ATOM      5  H1  UNL     1       5.881  -9.228 -25.078  1.00  0.00     0.166 HD
BRANCH   3   6
HETATM    6  C8  UNL     1       6.583 -11.801 -24.728  1.00  0.00     0.009 C 
HETATM    7  C7  UNL     1       7.548 -12.386 -25.154  1.00  0.00    -0.005 C 
BRANCH   7   8
HETATM    8  C6  UNL     1       8.667 -13.078 -25.674  1.00  0.00    -0.014 C 
HETATM    9  C5  UNL     1       9.613 -13.687 -26.112  1.00  0.00    -0.084 C 
BRANCH   9  10
HETATM   10  C2  UNL     1      10.760 -14.451 -26.638  1.00  0.00     0.013 C 
HETATM   11  C1  UNL     1      12.000 -14.212 -25.793  1.00  0.00     0.028 C 
HETATM   12  C3  UNL     1      10.410 -15.907 -26.545  1.00  0.00     0.028 C 
HETATM   13  C4  UNL     1      11.065 -14.016 -28.052  1.00  0.00     0.028 C 
ENDBRANCH   9  10
ENDBRANCH   7   8
ENDBRANCH   3   6
ENDBRANCH   1   2
BRANCH   1  14
HETATM   14  O2  UNL     1       3.179  -8.600 -24.960  1.00  0.00    -0.355 OA
BRANCH  14  15
HETATM   15  C11 UNL     1       1.972  -9.093 -25.154  1.00  0.00     0.052 C 
HETATM   16  C12 UNL     1       0.789  -8.311 -24.670  1.00  0.00     0.045 C 
HETATM   17  C13 UNL     1       1.784  -9.181 -26.685  1.00  0.00     0.045 C 
HETATM   18  C14 UNL     1       1.777 -10.528 -24.682  1.00  0.00     0.045 C 
ENDBRANCH  14  15
ENDBRANCH   1  14
BRANCH   1  19
HETATM   19  C15 UNL     1       4.568  -7.909 -23.107  1.00  0.00     0.137 C 
HETATM   20  C16 UNL     1       3.439  -6.936 -22.849  1.00  0.00     0.137 C 
HETATM   21  S1  UNL     1       3.992  -5.586 -21.817  1.00  0.00     0.018 S 
HETATM   22  O3  UNL     1       4.125  -6.095 -20.211  1.00  0.00    -0.258 OA
HETATM   23  C17 UNL     1       5.582  -5.062 -22.441  1.00  0.00     0.128 C 
HETATM   24  C18 UNL     1       5.760  -5.869 -23.740  1.00  0.00     0.127 C 
HETATM   25  N2  UNL     1       5.728  -7.261 -23.555  1.00  0.00    -0.411 N 
ATOM     26  H2  UNL     1       6.565  -7.811 -23.749  1.00  0.00     0.153 HD
ENDBRANCH   1  19
TORSDOF 7
ENDMDL
MODEL 5
REMARK VINA RESULT: -6.344423506      4.013      5.706
REMARK  7 active torsions:
REMARK  status: ('A' for Active; 'I' for Inactive)
REMARK    1  A    between atoms: C2_2  and  C5_5 
REMARK    2  A    between atoms: C6_6  and  C7_7 
REMARK    3  A    between atoms: C8_8  and  C9_9 
REMARK       I    between atoms: C9_9  and  N1_11 
REMARK    4  A    between atoms: N1_11  and  C10_13 
REMARK    5  A    between atoms: C10_13  and  O2_14 
REMARK    6  A    between atoms: C10_13  and  C15_19 
REMARK    7  A    between atoms: O2_14  and  C11_15 
ROOT
HETATM    1  C10 UNL     1       2.882 -10.063 -24.762  1.00  0.00     0.248 C 
ENDROOT
BRANCH   1   2
HETATM    2  N1  UNL     1       4.163 -10.619 -25.168  1.00  0.00    -0.322 N 
HETATM    3  C9  UNL     1       4.637 -11.897 -24.770  1.00  0.00     0.299 C 
HETATM    4  O1  UNL     1       3.945 -12.646 -24.015  1.00  0.00    -0.258 OA
ATOM      5  H1  UNL     1       4.758 -10.056 -25.777  1.00  0.00     0.166 HD
BRANCH   3   6
HETATM    6  C8  UNL     1       5.908 -12.415 -25.189  1.00  0.00     0.009 C 
HETATM    7  C7  UNL     1       6.975 -12.862 -25.530  1.00  0.00    -0.005 C 
BRANCH   7   8
HETATM    8  C6  UNL     1       8.232 -13.391 -25.907  1.00  0.00    -0.014 C 
HETATM    9  C5  UNL     1       9.296 -13.862 -26.232  1.00  0.00    -0.084 C 
BRANCH   9  10
HETATM   10  C2  UNL     1      10.585 -14.457 -26.632  1.00  0.00     0.013 C 
HETATM   11  C1  UNL     1      11.687 -14.049 -25.670  1.00  0.00     0.028 C 
HETATM   12  C3  UNL     1      10.433 -15.948 -26.558  1.00  0.00     0.028 C 
HETATM   13  C4  UNL     1      10.968 -13.981 -28.013  1.00  0.00     0.028 C 
ENDBRANCH   9  10
ENDBRANCH   7   8
ENDBRANCH   3   6
ENDBRANCH   1   2
BRANCH   1  14
HETATM   14  O2  UNL     1       2.138  -9.563 -25.742  1.00  0.00    -0.355 OA
BRANCH  14  15
HETATM   15  C11 UNL     1       0.827  -9.426 -25.728  1.00  0.00     0.052 C 
HETATM   16  C12 UNL     1       0.239  -8.191 -25.116  1.00  0.00     0.045 C 
HETATM   17  C13 UNL     1       0.385  -9.378 -27.208  1.00  0.00     0.045 C 
HETATM   18  C14 UNL     1       0.060 -10.612 -25.158  1.00  0.00     0.045 C 
ENDBRANCH  14  15
ENDBRANCH   1  14
BRANCH   1  19
HETATM   19  C15 UNL     1       3.157  -9.149 -23.590  1.00  0.00     0.137 C 
HETATM   20  C16 UNL     1       3.880  -7.931 -24.120  1.00  0.00     0.137 C 
HETATM   21  S1  UNL     1       4.305  -6.818 -22.788  1.00  0.00     0.018 S 
HETATM   22  O3  UNL     1       2.936  -5.972 -22.274  1.00  0.00    -0.258 OA
HETATM   23  C17 UNL     1       4.960  -7.814 -21.458  1.00  0.00     0.128 C 
HETATM   24  C18 UNL     1       5.067  -9.227 -22.063  1.00  0.00     0.127 C 
HETATM   25  N2  UNL     1       3.844  -9.743 -22.521  1.00  0.00    -0.411 N 
ATOM     26  H2  UNL     1       3.447 -10.567 -22.068  1.00  0.00     0.153 HD
ENDBRANCH   1  19
TORSDOF 7
ENDMDL
