MODEL 1
REMARK VINA RESULT: -9.995185663      0.000      0.000
REMARK  7 active torsions:
REMARK  status: ('A' for Active; 'I' for Inactive)
REMARK    1  A    between atoms: C2_3  and  N2_4 
REMARK    2  A    between atoms: N2_4  and  C3_5 
REMARK    3  A    between atoms: C3_5  and  N3_7 
REMARK    4  A    between atoms: N3_7  and  C4_9 
REMARK    5  A    between atoms: C7_12  and  S2_13 
REMARK    6  A    between atoms: S2_13  and  N4_16 
REMARK    7  A    between atoms: N4_16  and  C8_18 
ROOT
HETATM    1  C4  UNL     1       7.156 -10.610 -23.062  1.00  0.00     0.035 A 
HETATM    2  C5  UNL     1       8.447 -10.363 -23.455  1.00  0.00     0.031 A 
HETATM    3  C6  UNL     1       9.110 -11.164 -24.403  1.00  0.00     0.027 A 
HETATM    4  C7  UNL     1       8.467 -12.235 -24.970  1.00  0.00     0.080 A 
HETATM    5  C13 UNL     1       7.183 -12.508 -24.602  1.00  0.00     0.027 A 
HETATM    6  C14 UNL     1       6.548 -11.719 -23.676  1.00  0.00     0.031 A 
ENDROOT
BRANCH   1   7
HETATM    7  N3  UNL     1       6.417  -9.841 -22.153  1.00  0.00    -0.322 N 
ATOM      8  H3  UNL     1       6.686  -9.827 -21.170  1.00  0.00     0.169 HD
BRANCH   7   9
HETATM    9  C3  UNL     1       5.272  -9.065 -22.597  1.00  0.00     0.253 C 
HETATM   10  S1  UNL     1       5.556  -7.407 -22.618  1.00  0.00    -0.025 SA
BRANCH   9  11
HETATM   11  N2  UNL     1       4.138  -9.535 -22.989  1.00  0.00    -0.341 NA
BRANCH  11  12
HETATM   12  C2  UNL     1       3.133 -10.051 -23.361  1.00  0.00     0.265 A 
HETATM   13  N1  UNL     1       2.082  -9.414 -23.974  1.00  0.00    -0.309 N 
HETATM   14  C1  UNL     1       1.963  -8.004 -24.298  1.00  0.00     0.161 C 
HETATM   15  C20 UNL     1       1.154 -10.343 -24.230  1.00  0.00     0.064 A 
HETATM   16  C15 UNL     1       1.587 -11.572 -23.793  1.00  0.00     0.062 A 
HETATM   17  C19 UNL     1      -0.109 -10.247 -24.838  1.00  0.00     0.032 A 
HETATM   18  N6  UNL     1       2.789 -11.396 -23.264  1.00  0.00    -0.314 N 
HETATM   19  C16 UNL     1       0.784 -12.711 -23.950  1.00  0.00     0.032 A 
ATOM     20  H6  UNL     1       3.369 -12.128 -22.854  1.00  0.00     0.170 HD
HETATM   21  C17 UNL     1      -0.443 -12.580 -24.548  1.00  0.00     0.002 A 
HETATM   22  C18 UNL     1      -0.901 -11.349 -24.998  1.00  0.00     0.002 A 
ENDBRANCH  11  12
ENDBRANCH   9  11
ENDBRANCH   7   9
ENDBRANCH   1   7
BRANCH   4  23
HETATM   23  S2  UNL     1       9.327 -13.226 -26.158  1.00  0.00     0.263 S 
HETATM   24  O1  UNL     1       9.511 -12.359 -27.379  1.00  0.00    -0.200 OA
HETATM   25  O2  UNL     1       8.344 -14.338 -26.575  1.00  0.00    -0.200 OA
BRANCH  23  26
HETATM   26  N4  UNL     1      10.724 -13.904 -25.531  1.00  0.00    -0.281 N 
ATOM     27  H4  UNL     1      10.609 -14.565 -24.763  1.00  0.00     0.179 HD
BRANCH  26  28
HETATM   28  C8  UNL     1      11.912 -13.674 -25.919  1.00  0.00     0.045 A 
HETATM   29  C9  UNL     1      12.373 -13.765 -27.196  1.00  0.00     0.047 A 
HETATM   30  C10 UNL     1      13.719 -13.481 -27.476  1.00  0.00     0.090 A 
HETATM   31  N5  UNL     1      14.587 -13.116 -26.522  1.00  0.00    -0.375 N 
HETATM   32  C11 UNL     1      14.172 -13.014 -25.242  1.00  0.00     0.090 A 
ATOM     33  H5  UNL     1      15.558 -12.916 -26.763  1.00  0.00     0.164 HD
HETATM   34  C12 UNL     1      12.869 -13.286 -24.957  1.00  0.00     0.047 A 
ENDBRANCH  26  28
ENDBRANCH  23  26
ENDBRANCH   4  23
TORSDOF 7
ENDMDL
MODEL 2
REMARK VINA RESULT: -9.392633699      1.261      1.941
REMARK  7 active torsions:
REMARK  status: ('A' for Active; 'I' for Inactive)
REMARK    1  A    between atoms: C2_3  and  N2_4 
REMARK    2  A    between atoms: N2_4  and  C3_5 
REMARK    3  A    between atoms: C3_5  and  N3_7 
REMARK    4  A    between atoms: N3_7  and  C4_9 
REMARK    5  A    between atoms: C7_12  and  S2_13 
REMARK    6  A    between atoms: S2_13  and  N4_16 
REMARK    7  A    between atoms: N4_16  and  C8_18 
ROOT
HETATM    1  C4  UNL     1       6.748 -10.724 -23.343  1.00  0.00     0.035 A 
HETATM    2  C5  UNL     1       8.080 -10.469 -23.547  1.00  0.00     0.031 A 
HETATM    3  C6  UNL     1       8.863 -11.229 -24.435  1.00  0.00     0.027 A 
HETATM    4  C7  UNL     1       8.300 -12.266 -25.134  1.00  0.00     0.080 A 
HETATM    5  C13 UNL     1       6.978 -12.547 -24.954  1.00  0.00     0.027 A 
HETATM    6  C14 UNL     1       6.226 -11.798 -24.084  1.00  0.00     0.031 A 
ENDROOT
BRANCH   1   7
HETATM    7  N3  UNL     1       5.895  -9.994 -22.505  1.00  0.00    -0.322 N 
ATOM      8  H3  UNL     1       5.887 -10.185 -21.503  1.00  0.00     0.169 HD
BRANCH   7   9
HETATM    9  C3  UNL     1       5.022  -8.967 -23.047  1.00  0.00     0.253 C 
HETATM   10  S1  UNL     1       5.415  -7.415 -22.532  1.00  0.00    -0.025 SA
BRANCH   9  11
HETATM   11  N2  UNL     1       4.053  -9.150 -23.877  1.00  0.00    -0.341 NA
BRANCH  11  12
HETATM   12  C2  UNL     1       3.152  -9.226 -24.649  1.00  0.00     0.265 A 
HETATM   13  N1  UNL     1       2.159 -10.175 -24.634  1.00  0.00    -0.309 N 
HETATM   14  C1  UNL     1       1.989 -11.270 -23.696  1.00  0.00     0.161 C 
HETATM   15  C20 UNL     1       1.348  -9.912 -25.664  1.00  0.00     0.064 A 
HETATM   16  C15 UNL     1       1.798  -8.807 -26.346  1.00  0.00     0.062 A 
HETATM   17  C19 UNL     1       0.184 -10.557 -26.115  1.00  0.00     0.032 A 
HETATM   18  N6  UNL     1       2.895  -8.390 -25.731  1.00  0.00    -0.314 N 
HETATM   19  C16 UNL     1       1.111  -8.332 -27.473  1.00  0.00     0.032 A 
ATOM     20  H6  UNL     1       3.459  -7.585 -26.005  1.00  0.00     0.170 HD
HETATM   21  C17 UNL     1      -0.021  -8.987 -27.884  1.00  0.00     0.002 A 
HETATM   22  C18 UNL     1      -0.496 -10.104 -27.211  1.00  0.00     0.002 A 
ENDBRANCH  11  12
ENDBRANCH   9  11
ENDBRANCH   7   9
ENDBRANCH   1   7
BRANCH   4  23
HETATM   23  S2  UNL     1       9.310 -13.207 -26.243  1.00  0.00     0.263 S 
HETATM   24  O1  UNL     1       9.520 -12.341 -27.460  1.00  0.00    -0.200 OA
HETATM   25  O2  UNL     1       8.440 -14.390 -26.711  1.00  0.00    -0.200 OA
BRANCH  23  26
HETATM   26  N4  UNL     1      10.702 -13.778 -25.507  1.00  0.00    -0.281 N 
ATOM     27  H4  UNL     1      10.582 -14.315 -24.648  1.00  0.00     0.179 HD
BRANCH  26  28
HETATM   28  C8  UNL     1      11.893 -13.608 -25.916  1.00  0.00     0.045 A 
HETATM   29  C9  UNL     1      12.327 -13.719 -27.201  1.00  0.00     0.047 A 
HETATM   30  C10 UNL     1      13.680 -13.502 -27.504  1.00  0.00     0.090 A 
HETATM   31  N5  UNL     1      14.582 -13.185 -26.565  1.00  0.00    -0.375 N 
HETATM   32  C11 UNL     1      14.196 -13.065 -25.278  1.00  0.00     0.090 A 
ATOM     33  H5  UNL     1      15.558 -13.033 -26.822  1.00  0.00     0.164 HD
HETATM   34  C12 UNL     1      12.886 -13.272 -24.970  1.00  0.00     0.047 A 
ENDBRANCH  26  28
ENDBRANCH  23  26
ENDBRANCH   4  23
TORSDOF 7
ENDMDL
MODEL 3
REMARK VINA RESULT: -9.277508285      3.789      5.637
REMARK  7 active torsions:
REMARK  status: ('A' for Active; 'I' for Inactive)
REMARK    1  A    between atoms: C2_3  and  N2_4 
REMARK    2  A    between atoms: N2_4  and  C3_5 
REMARK    3  A    between atoms: C3_5  and  N3_7 
REMARK    4  A    between atoms: N3_7  and  C4_9 
REMARK    5  A    between atoms: C7_12  and  S2_13 
REMARK    6  A    between atoms: S2_13  and  N4_16 
REMARK    7  A    between atoms: N4_16  and  C8_18 
ROOT
HETATM    1  C4  UNL     1       2.480 -13.200 -24.175  1.00  0.00     0.035 A 
HETATM    2  C5  UNL     1       3.186 -12.097 -23.767  1.00  0.00     0.031 A 
HETATM    3  C6  UNL     1       4.583 -12.007 -23.905  1.00  0.00     0.027 A 
HETATM    4  C7  UNL     1       5.289 -13.042 -24.463  1.00  0.00     0.080 A 
HETATM    5  C13 UNL     1       4.617 -14.153 -24.880  1.00  0.00     0.027 A 
HETATM    6  C14 UNL     1       3.254 -14.229 -24.739  1.00  0.00     0.031 A 
ENDROOT
BRANCH   1   7
HETATM    7  N3  UNL     1       1.089 -13.351 -24.105  1.00  0.00    -0.322 N 
ATOM      8  H3  UNL     1       0.690 -14.274 -23.935  1.00  0.00     0.169 HD
BRANCH   7   9
HETATM    9  C3  UNL     1       0.208 -12.208 -24.272  1.00  0.00     0.253 C 
HETATM   10  S1  UNL     1      -1.217 -12.327 -23.386  1.00  0.00    -0.025 SA
BRANCH   9  11
HETATM   11  N2  UNL     1       0.448 -11.157 -24.978  1.00  0.00    -0.341 NA
BRANCH  11  12
HETATM   12  C2  UNL     1       0.759 -10.209 -25.625  1.00  0.00     0.265 A 
HETATM   13  N1  UNL     1       0.230  -9.860 -26.844  1.00  0.00    -0.309 N 
HETATM   14  C1  UNL     1      -0.801 -10.550 -27.597  1.00  0.00     0.161 C 
HETATM   15  C20 UNL     1       0.847  -8.739 -27.234  1.00  0.00     0.064 A 
HETATM   16  C15 UNL     1       1.767  -8.356 -26.288  1.00  0.00     0.062 A 
HETATM   17  C19 UNL     1       0.699  -7.954 -28.390  1.00  0.00     0.032 A 
HETATM   18  N6  UNL     1       1.715  -9.249 -25.309  1.00  0.00    -0.314 N 
HETATM   19  C16 UNL     1       2.546  -7.204 -26.471  1.00  0.00     0.032 A 
ATOM     20  H6  UNL     1       2.283  -9.234 -24.463  1.00  0.00     0.170 HD
HETATM   21  C17 UNL     1       2.374  -6.462 -27.611  1.00  0.00     0.002 A 
HETATM   22  C18 UNL     1       1.450  -6.829 -28.581  1.00  0.00     0.002 A 
ENDBRANCH  11  12
ENDBRANCH   9  11
ENDBRANCH   7   9
ENDBRANCH   1   7
BRANCH   4  23
HETATM   23  S2  UNL     1       7.046 -12.901 -24.622  1.00  0.00     0.263 S 
HETATM   24  O1  UNL     1       7.304 -12.353 -26.003  1.00  0.00    -0.200 OA
HETATM   25  O2  UNL     1       7.590 -14.344 -24.632  1.00  0.00    -0.200 OA
BRANCH  23  26
HETATM   26  N4  UNL     1       7.732 -12.042 -23.359  1.00  0.00    -0.281 N 
ATOM     27  H4  UNL     1       8.321 -12.566 -22.711  1.00  0.00     0.179 HD
BRANCH  26  28
HETATM   28  C8  UNL     1       7.591 -10.800 -23.129  1.00  0.00     0.045 A 
HETATM   29  C9  UNL     1       7.652  -9.799 -24.049  1.00  0.00     0.047 A 
HETATM   30  C10 UNL     1       7.477  -8.466 -23.647  1.00  0.00     0.090 A 
HETATM   31  N5  UNL     1       7.247  -8.128 -22.369  1.00  0.00    -0.375 N 
HETATM   32  C11 UNL     1       7.179  -9.089 -21.424  1.00  0.00     0.090 A 
ATOM     33  H5  UNL     1       7.123  -7.149 -22.113  1.00  0.00     0.164 HD
HETATM   34  C12 UNL     1       7.347 -10.386 -21.802  1.00  0.00     0.047 A 
ENDBRANCH  26  28
ENDBRANCH  23  26
ENDBRANCH   4  23
TORSDOF 7
ENDMDL
MODEL 4
REMARK VINA RESULT: -9.250791487      5.362      9.280
REMARK  7 active torsions:
REMARK  status: ('A' for Active; 'I' for Inactive)
REMARK    1  A    between atoms: C2_3  and  N2_4 
REMARK    2  A    between atoms: N2_4  and  C3_5 
REMARK    3  A    between atoms: C3_5  and  N3_7 
REMARK    4  A    between atoms: N3_7  and  C4_9 
REMARK    5  A    between atoms: C7_12  and  S2_13 
REMARK    6  A    between atoms: S2_13  and  N4_16 
REMARK    7  A    between atoms: N4_16  and  C8_18 
ROOT
HETATM    1  C4  UNL     1      -0.713 -10.983 -25.488  1.00  0.00     0.035 A 
HETATM    2  C5  UNL     1      -0.831 -10.915 -26.852  1.00  0.00     0.031 A 
HETATM    3  C6  UNL     1      -0.288  -9.856 -27.601  1.00  0.00     0.027 A 
HETATM    4  C7  UNL     1       0.388  -8.843 -26.971  1.00  0.00     0.080 A 
HETATM    5  C13 UNL     1       0.524  -8.879 -25.615  1.00  0.00     0.027 A 
HETATM    6  C14 UNL     1      -0.011  -9.919 -24.896  1.00  0.00     0.031 A 
ENDROOT
BRANCH   1   7
HETATM    7  N3  UNL     1      -1.194 -12.019 -24.676  1.00  0.00    -0.322 N 
ATOM      8  H3  UNL     1      -2.163 -12.323 -24.766  1.00  0.00     0.169 HD
BRANCH   7   9
HETATM    9  C3  UNL     1      -0.326 -12.666 -23.706  1.00  0.00     0.253 C 
HETATM   10  S1  UNL     1      -1.108 -13.060 -22.270  1.00  0.00    -0.025 SA
BRANCH   9  11
HETATM   11  N2  UNL     1       0.913 -12.975 -23.877  1.00  0.00    -0.341 NA
BRANCH  11  12
HETATM   12  C2  UNL     1       2.051 -13.221 -24.119  1.00  0.00     0.265 A 
HETATM   13  N1  UNL     1       3.115 -12.375 -23.922  1.00  0.00    -0.309 N 
HETATM   14  C1  UNL     1       3.092 -11.026 -23.387  1.00  0.00     0.161 C 
HETATM   15  C20 UNL     1       4.214 -13.026 -24.320  1.00  0.00     0.064 A 
HETATM   16  C15 UNL     1       3.879 -14.280 -24.771  1.00  0.00     0.062 A 
HETATM   17  C19 UNL     1       5.564 -12.638 -24.340  1.00  0.00     0.032 A 
HETATM   18  N6  UNL     1       2.565 -14.400 -24.650  1.00  0.00    -0.314 N 
HETATM   19  C16 UNL     1       4.865 -15.158 -25.244  1.00  0.00     0.032 A 
ATOM     20  H6  UNL     1       2.019 -15.223 -24.904  1.00  0.00     0.170 HD
HETATM   21  C17 UNL     1       6.173 -14.745 -25.249  1.00  0.00     0.002 A 
HETATM   22  C18 UNL     1       6.536 -13.483 -24.798  1.00  0.00     0.002 A 
ENDBRANCH  11  12
ENDBRANCH   9  11
ENDBRANCH   7   9
ENDBRANCH   1   7
BRANCH   4  23
HETATM   23  S2  UNL     1       1.059  -7.521 -27.939  1.00  0.00     0.263 S 
HETATM   24  O1  UNL     1       2.250  -6.999 -27.175  1.00  0.00    -0.200 OA
HETATM   25  O2  UNL     1       0.008  -6.393 -27.907  1.00  0.00    -0.200 OA
BRANCH  23  26
HETATM   26  N4  UNL     1       1.355  -7.980 -29.523  1.00  0.00    -0.281 N 
ATOM     27  H4  UNL     1       1.259  -8.971 -29.741  1.00  0.00     0.179 HD
BRANCH  26  28
HETATM   28  C8  UNL     1       1.687  -7.211 -30.479  1.00  0.00     0.045 A 
HETATM   29  C9  UNL     1       0.986  -7.003 -31.626  1.00  0.00     0.047 A 
HETATM   30  C10 UNL     1       1.479  -6.121 -32.599  1.00  0.00     0.090 A 
HETATM   31  N5  UNL     1       2.635  -5.459 -32.445  1.00  0.00    -0.375 N 
HETATM   32  C11 UNL     1       3.363  -5.635 -31.323  1.00  0.00     0.090 A 
ATOM     33  H5  UNL     1       2.963  -4.825 -33.174  1.00  0.00     0.164 HD
HETATM   34  C12 UNL     1       2.895  -6.489 -30.371  1.00  0.00     0.047 A 
ENDBRANCH  26  28
ENDBRANCH  23  26
ENDBRANCH   4  23
TORSDOF 7
ENDMDL
MODEL 5
REMARK VINA RESULT: -9.154112491      4.791      7.757
REMARK  7 active torsions:
REMARK  status: ('A' for Active; 'I' for Inactive)
REMARK    1  A    between atoms: C2_3  and  N2_4 
REMARK    2  A    between atoms: N2_4  and  C3_5 
REMARK    3  A    between atoms: C3_5  and  N3_7 
REMARK    4  A    between atoms: N3_7  and  C4_9 
REMARK    5  A    between atoms: C7_12  and  S2_13 
REMARK    6  A    between atoms: S2_13  and  N4_16 
REMARK    7  A    between atoms: N4_16  and  C8_18 
ROOT
HETATM    1  C4  UNL     1       1.123  -9.557 -25.114  1.00  0.00     0.035 A 
HETATM    2  C5  UNL     1       2.056  -9.211 -26.058  1.00  0.00     0.031 A 
HETATM    3  C6  UNL     1       2.795  -8.017 -25.981  1.00  0.00     0.027 A 
HETATM    4  C7  UNL     1       2.598  -7.151 -24.936  1.00  0.00     0.080 A 
HETATM    5  C13 UNL     1       1.678  -7.465 -23.979  1.00  0.00     0.027 A 
HETATM    6  C14 UNL     1       0.963  -8.633 -24.067  1.00  0.00     0.031 A 
ENDROOT
BRANCH   1   7
HETATM    7  N3  UNL     1       0.373 -10.741 -25.101  1.00  0.00    -0.322 N 
ATOM      8  H3  UNL     1      -0.506 -10.786 -25.615  1.00  0.00     0.169 HD
BRANCH   7   9
HETATM    9  C3  UNL     1       0.835 -11.904 -24.363  1.00  0.00     0.253 C 
HETATM   10  S1  UNL     1      -0.393 -12.695 -23.528  1.00  0.00    -0.025 SA
BRANCH   9  11
HETATM   11  N2  UNL     1       2.038 -12.365 -24.339  1.00  0.00    -0.341 NA
BRANCH  11  12
HETATM   12  C2  UNL     1       3.166 -12.738 -24.393  1.00  0.00     0.265 A 
HETATM   13  N1  UNL     1       4.270 -12.011 -24.023  1.00  0.00    -0.309 N 
HETATM   14  C1  UNL     1       4.311 -10.659 -23.497  1.00  0.00     0.161 C 
HETATM   15  C20 UNL     1       5.340 -12.785 -24.237  1.00  0.00     0.064 A 
HETATM   16  C15 UNL     1       4.947 -14.002 -24.739  1.00  0.00     0.062 A 
HETATM   17  C19 UNL     1       6.710 -12.548 -24.035  1.00  0.00     0.032 A 
HETATM   18  N6  UNL     1       3.625 -13.976 -24.834  1.00  0.00    -0.314 N 
HETATM   19  C16 UNL     1       5.893 -14.991 -25.046  1.00  0.00     0.032 A 
ATOM     20  H6  UNL     1       3.040 -14.738 -25.176  1.00  0.00     0.170 HD
HETATM   21  C17 UNL     1       7.222 -14.724 -24.836  1.00  0.00     0.002 A 
HETATM   22  C18 UNL     1       7.644 -13.502 -24.330  1.00  0.00     0.002 A 
ENDBRANCH  11  12
ENDBRANCH   9  11
ENDBRANCH   7   9
ENDBRANCH   1   7
BRANCH   4  23
HETATM   23  S2  UNL     1       3.542  -5.655 -24.865  1.00  0.00     0.263 S 
HETATM   24  O1  UNL     1       2.740  -4.687 -24.032  1.00  0.00    -0.200 OA
HETATM   25  O2  UNL     1       3.539  -5.082 -26.297  1.00  0.00    -0.200 OA
BRANCH  23  26
HETATM   26  N4  UNL     1       5.116  -5.920 -24.360  1.00  0.00    -0.281 N 
ATOM     27  H4  UNL     1       5.848  -5.394 -24.838  1.00  0.00     0.179 HD
BRANCH  26  28
HETATM   28  C8  UNL     1       5.488  -6.713 -23.439  1.00  0.00     0.045 A 
HETATM   29  C9  UNL     1       4.854  -6.923 -22.254  1.00  0.00     0.047 A 
HETATM   30  C10 UNL     1       5.385  -7.833 -21.327  1.00  0.00     0.090 A 
HETATM   31  N5  UNL     1       6.512  -8.520 -21.564  1.00  0.00    -0.375 N 
HETATM   32  C11 UNL     1       7.174  -8.342 -22.726  1.00  0.00     0.090 A 
ATOM     33  H5  UNL     1       6.869  -9.175 -20.867  1.00  0.00     0.164 HD
HETATM   34  C12 UNL     1       6.669  -7.461 -23.634  1.00  0.00     0.047 A 
ENDBRANCH  26  28
ENDBRANCH  23  26
ENDBRANCH   4  23
TORSDOF 7
ENDMDL
