MODEL 1
REMARK VINA RESULT: -10.538346572      0.000      0.000
REMARK  4 active torsions:
REMARK  status: ('A' for Active; 'I' for Inactive)
REMARK    1  A    between atoms: C4_6  and  C5_7 
REMARK    2  A    between atoms: C4_6  and  C15_17 
REMARK    3  A    between atoms: C20_26  and  C21_27 
REMARK       I    between atoms: C21_27  and  N3_29 
REMARK    4  A    between atoms: N3_29  and  C22_31 
ROOT
HETATM    1  C1  UNL     1      -1.305 -10.618 -27.502  1.00  0.00     0.014 C 
HETATM    2  C2  UNL     1      -0.323 -10.107 -27.018  1.00  0.00    -0.091 C 
HETATM    3  C3  UNL     1       0.900  -9.492 -26.438  1.00  0.00     0.180 C 
HETATM    4  N1  UNL     1       1.757 -10.447 -25.893  1.00  0.00    -0.371 N 
ATOM      5  H1  UNL     1       2.225 -11.101 -26.520  1.00  0.00     0.157 HD
HETATM    6  C4  UNL     1       2.001 -10.543 -24.524  1.00  0.00     0.183 C 
HETATM    7  N2  UNL     1       1.638  -9.416 -23.714  1.00  0.00    -0.324 N 
ATOM      8  H2  UNL     1       1.752  -9.467 -22.703  1.00  0.00     0.165 HD
HETATM    9  C19 UNL     1       1.130  -8.247 -24.293  1.00  0.00     0.236 C 
HETATM   10  O2  UNL     1       1.265  -7.142 -23.677  1.00  0.00    -0.272 OA
HETATM   11  C20 UNL     1       0.456  -8.353 -25.599  1.00  0.00     0.204 C 
ENDROOT
BRANCH  11  12
HETATM   12  C21 UNL     1       0.627  -7.037 -26.293  1.00  0.00     0.238 C 
HETATM   13  O3  UNL     1      -0.374  -6.348 -26.686  1.00  0.00    -0.272 OA
HETATM   14  N3  UNL     1       1.896  -6.479 -26.554  1.00  0.00    -0.326 N 
ATOM     15  H3  UNL     1       2.397  -6.054 -25.774  1.00  0.00     0.169 HD
BRANCH  14  16
HETATM   16  C22 UNL     1       2.460  -6.470 -27.695  1.00  0.00     0.037 A 
HETATM   17  C23 UNL     1       3.100  -5.323 -28.107  1.00  0.00     0.046 A 
HETATM   18  C24 UNL     1       3.703  -5.354 -29.357  1.00  0.00     0.090 A 
HETATM   19  N4  UNL     1       3.680  -6.441 -30.142  1.00  0.00    -0.375 N 
HETATM   20  C25 UNL     1       3.059  -7.540 -29.730  1.00  0.00     0.090 A 
ATOM     21  H4  UNL     1       4.137  -6.422 -31.054  1.00  0.00     0.164 HD
HETATM   22  C26 UNL     1       2.436  -7.585 -28.503  1.00  0.00     0.046 A 
ENDBRANCH  14  16
ENDBRANCH  11  12
BRANCH   6  23
HETATM   23  C5  UNL     1       3.479 -10.764 -24.325  1.00  0.00    -0.002 A 
HETATM   24  C6  UNL     1       4.040 -12.022 -24.385  1.00  0.00     0.013 A 
HETATM   25  C7  UNL     1       5.391 -12.245 -24.205  1.00  0.00     0.013 A 
HETATM   26  C8  UNL     1       6.238 -11.186 -23.955  1.00  0.00    -0.026 A 
HETATM   27  C9  UNL     1       7.592 -11.404 -23.774  1.00  0.00     0.012 A 
HETATM   28  C13 UNL     1       5.682  -9.927 -23.895  1.00  0.00    -0.025 A 
HETATM   29  C10 UNL     1       8.445 -10.350 -23.526  1.00  0.00     0.001 A 
HETATM   30  C11 UNL     1       7.892  -9.079 -23.464  1.00  0.00     0.001 A 
HETATM   31  C12 UNL     1       6.542  -8.868 -23.644  1.00  0.00     0.012 A 
HETATM   32  C14 UNL     1       4.327  -9.705 -24.076  1.00  0.00     0.024 A 
ENDBRANCH   6  23
BRANCH   6  33
HETATM   33  C15 UNL     1       1.347 -11.736 -23.908  1.00  0.00     0.106 A 
HETATM   34  C16 UNL     1       0.328 -12.510 -24.436  1.00  0.00     0.039 A 
HETATM   35  C17 UNL     1       0.069 -13.474 -23.515  1.00  0.00     0.027 A 
HETATM   36  C18 UNL     1       0.924 -13.275 -22.454  1.00  0.00     0.142 A 
HETATM   37  O1  UNL     1       1.656 -12.225 -22.752  1.00  0.00    -0.322 OA
ENDBRANCH   6  33
TORSDOF 4
ENDMDL
MODEL 2
REMARK VINA RESULT: -10.435269678      0.634      1.307
REMARK  4 active torsions:
REMARK  status: ('A' for Active; 'I' for Inactive)
REMARK    1  A    between atoms: C4_6  and  C5_7 
REMARK    2  A    between atoms: C4_6  and  C15_17 
REMARK    3  A    between atoms: C20_26  and  C21_27 
REMARK       I    between atoms: C21_27  and  N3_29 
REMARK    4  A    between atoms: N3_29  and  C22_31 
ROOT
HETATM    1  C1  UNL     1      -1.189 -10.723 -27.688  1.00  0.00     0.014 C 
HETATM    2  C2  UNL     1      -0.270 -10.134 -27.170  1.00  0.00    -0.091 C 
HETATM    3  C3  UNL     1       0.878  -9.423 -26.548  1.00  0.00     0.180 C 
HETATM    4  N1  UNL     1       1.734 -10.297 -25.881  1.00  0.00    -0.371 N 
ATOM      5  H1  UNL     1       2.276 -10.966 -26.428  1.00  0.00     0.157 HD
HETATM    6  C4  UNL     1       1.880 -10.293 -24.495  1.00  0.00     0.183 C 
HETATM    7  N2  UNL     1       1.408  -9.136 -23.791  1.00  0.00    -0.324 N 
ATOM      8  H2  UNL     1       1.449  -9.117 -22.772  1.00  0.00     0.165 HD
HETATM    9  C19 UNL     1       0.892  -8.033 -24.481  1.00  0.00     0.236 C 
HETATM   10  O2  UNL     1       0.931  -6.885 -23.934  1.00  0.00    -0.272 OA
HETATM   11  C20 UNL     1       0.323  -8.256 -25.822  1.00  0.00     0.204 C 
ENDROOT
BRANCH  11  12
HETATM   12  C21 UNL     1       0.485  -6.980 -26.589  1.00  0.00     0.238 C 
HETATM   13  O3  UNL     1      -0.508  -6.392 -27.137  1.00  0.00    -0.272 OA
HETATM   14  N3  UNL     1       1.737  -6.352 -26.754  1.00  0.00    -0.326 N 
ATOM     15  H3  UNL     1       2.119  -5.840 -25.959  1.00  0.00     0.169 HD
BRANCH  14  16
HETATM   16  C22 UNL     1       2.423  -6.378 -27.826  1.00  0.00     0.037 A 
HETATM   17  C23 UNL     1       3.126  -5.252 -28.189  1.00  0.00     0.046 A 
HETATM   18  C24 UNL     1       3.862  -5.321 -29.363  1.00  0.00     0.090 A 
HETATM   19  N4  UNL     1       3.903  -6.425 -30.124  1.00  0.00    -0.375 N 
HETATM   20  C25 UNL     1       3.220  -7.503 -29.760  1.00  0.00     0.090 A 
ATOM     21  H4  UNL     1       4.458  -6.435 -30.980  1.00  0.00     0.164 HD
HETATM   22  C26 UNL     1       2.465  -7.510 -28.609  1.00  0.00     0.046 A 
ENDBRANCH  14  16
ENDBRANCH  11  12
BRANCH   6  23
HETATM   23  C5  UNL     1       3.348 -10.427 -24.177  1.00  0.00    -0.002 A 
HETATM   24  C6  UNL     1       3.973  -9.597 -23.270  1.00  0.00     0.013 A 
HETATM   25  C7  UNL     1       5.315  -9.704 -22.965  1.00  0.00     0.013 A 
HETATM   26  C8  UNL     1       6.087 -10.670 -23.574  1.00  0.00    -0.026 A 
HETATM   27  C9  UNL     1       7.433 -10.781 -23.272  1.00  0.00     0.012 A 
HETATM   28  C13 UNL     1       5.467 -11.502 -24.481  1.00  0.00    -0.025 A 
HETATM   29  C10 UNL     1       8.210 -11.746 -23.877  1.00  0.00     0.001 A 
HETATM   30  C11 UNL     1       7.591 -12.587 -24.790  1.00  0.00     0.001 A 
HETATM   31  C12 UNL     1       6.250 -12.472 -25.088  1.00  0.00     0.012 A 
HETATM   32  C14 UNL     1       4.121 -11.394 -24.786  1.00  0.00     0.024 A 
ENDBRANCH   6  23
BRANCH   6  33
HETATM   33  C15 UNL     1       1.237 -11.475 -23.847  1.00  0.00     0.106 A 
HETATM   34  C16 UNL     1      -0.016 -12.006 -24.107  1.00  0.00     0.039 A 
HETATM   35  C17 UNL     1      -0.157 -13.068 -23.273  1.00  0.00     0.027 A 
HETATM   36  C18 UNL     1       0.997 -13.168 -22.528  1.00  0.00     0.142 A 
HETATM   37  O1  UNL     1       1.783 -12.189 -22.919  1.00  0.00    -0.322 OA
ENDBRANCH   6  33
TORSDOF 4
ENDMDL
MODEL 3
REMARK VINA RESULT: -10.125541619      1.309      2.104
REMARK  4 active torsions:
REMARK  status: ('A' for Active; 'I' for Inactive)
REMARK    1  A    between atoms: C4_6  and  C5_7 
REMARK    2  A    between atoms: C4_6  and  C15_17 
REMARK    3  A    between atoms: C20_26  and  C21_27 
REMARK       I    between atoms: C21_27  and  N3_29 
REMARK    4  A    between atoms: N3_29  and  C22_31 
ROOT
HETATM    1  C1  UNL     1      -0.832  -9.615 -27.342  1.00  0.00     0.014 C 
HETATM    2  C2  UNL     1       0.255  -9.429 -26.847  1.00  0.00    -0.091 C 
HETATM    3  C3  UNL     1       1.602  -9.216 -26.256  1.00  0.00     0.180 C 
HETATM    4  N1  UNL     1       2.174 -10.409 -25.816  1.00  0.00    -0.371 N 
ATOM      5  H1  UNL     1       2.444 -11.108 -26.509  1.00  0.00     0.157 HD
HETATM    6  C4  UNL     1       2.393 -10.685 -24.468  1.00  0.00     0.183 C 
HETATM    7  N2  UNL     1       2.353  -9.576 -23.559  1.00  0.00    -0.324 N 
ATOM      8  H2  UNL     1       2.455  -9.744 -22.558  1.00  0.00     0.165 HD
HETATM    9  C19 UNL     1       2.174  -8.268 -24.025  1.00  0.00     0.236 C 
HETATM   10  O2  UNL     1       2.606  -7.297 -23.325  1.00  0.00    -0.272 OA
HETATM   11  C20 UNL     1       1.488  -8.077 -25.314  1.00  0.00     0.204 C 
ENDROOT
BRANCH  11  12
HETATM   12  C21 UNL     1       2.002  -6.800 -25.904  1.00  0.00     0.238 C 
HETATM   13  O3  UNL     1       1.629  -5.658 -25.467  1.00  0.00    -0.272 OA
HETATM   14  N3  UNL     1       2.924  -6.777 -26.971  1.00  0.00    -0.326 N 
ATOM     15  H3  UNL     1       3.899  -6.991 -26.760  1.00  0.00     0.169 HD
BRANCH  14  16
HETATM   16  C22 UNL     1       2.625  -6.509 -28.179  1.00  0.00     0.037 A 
HETATM   17  C23 UNL     1       2.848  -5.235 -28.647  1.00  0.00     0.046 A 
HETATM   18  C24 UNL     1       2.510  -4.983 -29.970  1.00  0.00     0.090 A 
HETATM   19  N4  UNL     1       1.990  -5.923 -30.773  1.00  0.00    -0.375 N 
HETATM   20  C25 UNL     1       1.781  -7.148 -30.305  1.00  0.00     0.090 A 
ATOM     21  H4  UNL     1       1.755  -5.698 -31.739  1.00  0.00     0.164 HD
HETATM   22  C26 UNL     1       2.090  -7.473 -29.003  1.00  0.00     0.046 A 
ENDBRANCH  14  16
ENDBRANCH  11  12
BRANCH   6  23
HETATM   23  C5  UNL     1       3.758 -11.310 -24.331  1.00  0.00    -0.002 A 
HETATM   24  C6  UNL     1       4.819 -10.623 -23.782  1.00  0.00     0.013 A 
HETATM   25  C7  UNL     1       6.077 -11.178 -23.648  1.00  0.00     0.013 A 
HETATM   26  C8  UNL     1       6.310 -12.469 -24.071  1.00  0.00    -0.026 A 
HETATM   27  C9  UNL     1       7.569 -13.030 -23.939  1.00  0.00     0.012 A 
HETATM   28  C13 UNL     1       5.252 -13.160 -24.620  1.00  0.00    -0.025 A 
HETATM   29  C10 UNL     1       7.808 -14.321 -24.358  1.00  0.00     0.001 A 
HETATM   30  C11 UNL     1       6.746 -15.023 -24.911  1.00  0.00     0.001 A 
HETATM   31  C12 UNL     1       5.495 -14.459 -25.041  1.00  0.00     0.012 A 
HETATM   32  C14 UNL     1       3.992 -12.602 -24.753  1.00  0.00     0.024 A 
ENDBRANCH   6  23
BRANCH   6  33
HETATM   33  C15 UNL     1       1.446 -11.708 -23.931  1.00  0.00     0.106 A 
HETATM   34  C16 UNL     1       0.231 -12.102 -24.468  1.00  0.00     0.039 A 
HETATM   35  C17 UNL     1      -0.262 -13.051 -23.631  1.00  0.00     0.027 A 
HETATM   36  C18 UNL     1       0.648 -13.219 -22.611  1.00  0.00     0.142 A 
HETATM   37  O1  UNL     1       1.639 -12.389 -22.850  1.00  0.00    -0.322 OA
ENDBRANCH   6  33
TORSDOF 4
ENDMDL
MODEL 4
REMARK VINA RESULT: -9.948440286      1.913      2.846
REMARK  4 active torsions:
REMARK  status: ('A' for Active; 'I' for Inactive)
REMARK    1  A    between atoms: C4_6  and  C5_7 
REMARK    2  A    between atoms: C4_6  and  C15_17 
REMARK    3  A    between atoms: C20_26  and  C21_27 
REMARK       I    between atoms: C21_27  and  N3_29 
REMARK    4  A    between atoms: N3_29  and  C22_31 
ROOT
HETATM    1  C1  UNL     1      -0.107  -7.084 -27.468  1.00  0.00     0.014 C 
HETATM    2  C2  UNL     1       0.871  -7.166 -26.762  1.00  0.00    -0.091 C 
HETATM    3  C3  UNL     1       2.086  -7.276 -25.914  1.00  0.00     0.180 C 
HETATM    4  N1  UNL     1       2.537  -8.592 -25.814  1.00  0.00    -0.371 N 
ATOM      5  H1  UNL     1       2.917  -9.044 -26.646  1.00  0.00     0.157 HD
HETATM    6  C4  UNL     1       2.489  -9.314 -24.624  1.00  0.00     0.183 C 
HETATM    7  N2  UNL     1       2.303  -8.568 -23.413  1.00  0.00    -0.324 N 
ATOM      8  H2  UNL     1       2.210  -9.063 -22.527  1.00  0.00     0.165 HD
HETATM    9  C19 UNL     1       2.246  -7.169 -23.430  1.00  0.00     0.236 C 
HETATM   10  O2  UNL     1       2.560  -6.523 -22.380  1.00  0.00    -0.272 OA
HETATM   11  C20 UNL     1       1.822  -6.505 -24.675  1.00  0.00     0.204 C 
ENDROOT
BRANCH  11  12
HETATM   12  C21 UNL     1       2.468  -5.154 -24.699  1.00  0.00     0.238 C 
HETATM   13  O3  UNL     1       1.797  -4.084 -24.510  1.00  0.00    -0.272 OA
HETATM   14  N3  UNL     1       3.848  -4.981 -24.930  1.00  0.00    -0.326 N 
ATOM     15  H3  UNL     1       4.488  -5.196 -24.165  1.00  0.00     0.169 HD
BRANCH  14  16
HETATM   16  C22 UNL     1       4.352  -4.575 -26.026  1.00  0.00     0.037 A 
HETATM   17  C23 UNL     1       5.618  -4.035 -26.011  1.00  0.00     0.046 A 
HETATM   18  C24 UNL     1       6.133  -3.604 -27.227  1.00  0.00     0.090 A 
HETATM   19  N4  UNL     1       5.446  -3.703 -28.375  1.00  0.00    -0.375 N 
HETATM   20  C25 UNL     1       4.227  -4.227 -28.372  1.00  0.00     0.090 A 
ATOM     21  H4  UNL     1       5.861  -3.376 -29.248  1.00  0.00     0.164 HD
HETATM   22  C26 UNL     1       3.649  -4.675 -27.205  1.00  0.00     0.046 A 
ENDBRANCH  14  16
ENDBRANCH  11  12
BRANCH   6  23
HETATM   23  C5  UNL     1       3.789 -10.064 -24.477  1.00  0.00    -0.002 A 
HETATM   24  C6  UNL     1       4.952  -9.432 -24.091  1.00  0.00     0.013 A 
HETATM   25  C7  UNL     1       6.152 -10.101 -23.951  1.00  0.00     0.013 A 
HETATM   26  C8  UNL     1       6.220 -11.456 -24.198  1.00  0.00    -0.026 A 
HETATM   27  C9  UNL     1       7.420 -12.131 -24.059  1.00  0.00     0.012 A 
HETATM   28  C13 UNL     1       5.060 -12.091 -24.584  1.00  0.00    -0.025 A 
HETATM   29  C10 UNL     1       7.495 -13.486 -24.304  1.00  0.00     0.001 A 
HETATM   30  C11 UNL     1       6.329 -14.132 -24.692  1.00  0.00     0.001 A 
HETATM   31  C12 UNL     1       5.137 -13.454 -24.830  1.00  0.00     0.012 A 
HETATM   32  C14 UNL     1       3.858 -11.419 -24.724  1.00  0.00     0.024 A 
ENDBRANCH   6  23
BRANCH   6  33
HETATM   33  C15 UNL     1       1.434 -10.372 -24.636  1.00  0.00     0.106 A 
HETATM   34  C16 UNL     1       0.433 -10.557 -25.575  1.00  0.00     0.039 A 
HETATM   35  C17 UNL     1      -0.277 -11.639 -25.161  1.00  0.00     0.027 A 
HETATM   36  C18 UNL     1       0.296 -12.090 -23.993  1.00  0.00     0.142 A 
HETATM   37  O1  UNL     1       1.308 -11.290 -23.737  1.00  0.00    -0.322 OA
ENDBRANCH   6  33
TORSDOF 4
ENDMDL
MODEL 5
REMARK VINA RESULT: -9.923020496      3.008      4.185
REMARK  4 active torsions:
REMARK  status: ('A' for Active; 'I' for Inactive)
REMARK    1  A    between atoms: C4_6  and  C5_7 
REMARK    2  A    between atoms: C4_6  and  C15_17 
REMARK    3  A    between atoms: C20_26  and  C21_27 
REMARK       I    between atoms: C21_27  and  N3_29 
REMARK    4  A    between atoms: N3_29  and  C22_31 
ROOT
HETATM    1  C1  UNL     1       0.195  -7.485 -27.049  1.00  0.00     0.014 C 
HETATM    2  C2  UNL     1       1.231  -7.656 -26.452  1.00  0.00    -0.091 C 
HETATM    3  C3  UNL     1       2.516  -7.878 -25.737  1.00  0.00     0.180 C 
HETATM    4  N1  UNL     1       2.837  -9.231 -25.646  1.00  0.00    -0.371 N 
ATOM      5  H1  UNL     1       3.073  -9.738 -26.500  1.00  0.00     0.157 HD
HETATM    6  C4  UNL     1       2.848  -9.921 -24.435  1.00  0.00     0.183 C 
HETATM    7  N2  UNL     1       2.876  -9.135 -23.236  1.00  0.00    -0.324 N 
ATOM      8  H2  UNL     1       2.832  -9.600 -22.330  1.00  0.00     0.165 HD
HETATM    9  C19 UNL     1       2.962  -7.739 -23.291  1.00  0.00     0.236 C 
HETATM   10  O2  UNL     1       3.457  -7.109 -22.301  1.00  0.00    -0.272 OA
HETATM   11  C20 UNL     1       2.472  -7.059 -24.502  1.00  0.00     0.204 C 
ENDROOT
BRANCH  11  12
HETATM   12  C21 UNL     1       3.248  -5.785 -24.638  1.00  0.00     0.238 C 
HETATM   13  O3  UNL     1       4.520  -5.780 -24.752  1.00  0.00    -0.272 OA
HETATM   14  N3  UNL     1       2.626  -4.519 -24.649  1.00  0.00    -0.326 N 
ATOM     15  H3  UNL     1       2.144  -4.235 -25.502  1.00  0.00     0.169 HD
BRANCH  14  16
HETATM   16  C22 UNL     1       2.624  -3.707 -23.669  1.00  0.00     0.037 A 
HETATM   17  C23 UNL     1       1.786  -2.616 -23.718  1.00  0.00     0.046 A 
HETATM   18  C24 UNL     1       1.812  -1.754 -22.630  1.00  0.00     0.090 A 
HETATM   19  N4  UNL     1       2.607  -1.957 -21.568  1.00  0.00    -0.375 N 
HETATM   20  C25 UNL     1       3.408  -3.016 -21.537  1.00  0.00     0.090 A 
ATOM     21  H4  UNL     1       2.595  -1.301 -20.788  1.00  0.00     0.164 HD
HETATM   22  C26 UNL     1       3.439  -3.914 -22.579  1.00  0.00     0.046 A 
ENDBRANCH  14  16
ENDBRANCH  11  12
BRANCH   6  23
HETATM   23  C5  UNL     1       4.071 -10.801 -24.407  1.00  0.00    -0.002 A 
HETATM   24  C6  UNL     1       5.304 -10.319 -24.023  1.00  0.00     0.013 A 
HETATM   25  C7  UNL     1       6.436 -11.109 -23.991  1.00  0.00     0.013 A 
HETATM   26  C8  UNL     1       6.361 -12.438 -24.350  1.00  0.00    -0.026 A 
HETATM   27  C9  UNL     1       7.493 -13.234 -24.319  1.00  0.00     0.012 A 
HETATM   28  C13 UNL     1       5.131 -12.925 -24.734  1.00  0.00    -0.025 A 
HETATM   29  C10 UNL     1       7.424 -14.564 -24.676  1.00  0.00     0.001 A 
HETATM   30  C11 UNL     1       6.188 -15.061 -25.063  1.00  0.00     0.001 A 
HETATM   31  C12 UNL     1       5.064 -14.263 -25.093  1.00  0.00     0.012 A 
HETATM   32  C14 UNL     1       3.997 -12.131 -24.766  1.00  0.00     0.024 A 
ENDBRANCH   6  23
BRANCH   6  33
HETATM   33  C15 UNL     1       1.694 -10.861 -24.299  1.00  0.00     0.106 A 
HETATM   34  C16 UNL     1       0.558 -10.926 -25.088  1.00  0.00     0.039 A 
HETATM   35  C17 UNL     1      -0.198 -11.932 -24.579  1.00  0.00     0.027 A 
HETATM   36  C18 UNL     1       0.480 -12.458 -23.502  1.00  0.00     0.142 A 
HETATM   37  O1  UNL     1       1.597 -11.774 -23.391  1.00  0.00    -0.322 OA
ENDBRANCH   6  33
TORSDOF 4
ENDMDL
