MODEL 1
REMARK VINA RESULT: -10.904260209      0.000      0.000
REMARK  4 active torsions:
REMARK  status: ('A' for Active; 'I' for Inactive)
REMARK       I    between atoms: C1_2  and  N1_3 
REMARK    1  A    between atoms: C1_2  and  C20_34 
REMARK    2  A    between atoms: N1_3  and  C2_5 
REMARK    3  A    between atoms: C5_8  and  C6_9 
REMARK    4  A    between atoms: C10_15  and  C11_16 
REMARK       I    between atoms: C11_16  and  N3_18 
ROOT
HETATM    1  C6  UNL     1       7.338 -11.206 -24.370  1.00  0.00     0.006 A 
HETATM    2  C7  UNL     1       8.355 -10.411 -23.872  1.00  0.00     0.031 A 
HETATM    3  C8  UNL     1       9.667 -10.779 -24.062  1.00  0.00     0.089 A 
HETATM    4  N2  UNL     1       9.954 -11.910 -24.733  1.00  0.00    -0.363 N 
ATOM      5  H2  UNL     1      10.931 -12.169 -24.866  1.00  0.00     0.165 HD
HETATM    6  C9  UNL     1       8.991 -12.713 -25.236  1.00  0.00     0.077 A 
HETATM    7  C10 UNL     1       9.027 -13.894 -25.946  1.00  0.00     0.076 A 
HETATM    8  C17 UNL     1       7.719 -14.264 -26.200  1.00  0.00     0.108 A 
HETATM    9  N5  UNL     1       6.919 -13.320 -25.650  1.00  0.00    -0.362 N 
ATOM     10  H5  UNL     1       5.900 -13.336 -25.683  1.00  0.00     0.165 HD
HETATM   11  C18 UNL     1       7.647 -12.359 -25.055  1.00  0.00     0.071 A 
ENDROOT
BRANCH   1  12
HETATM   12  C5  UNL     1       5.958 -10.834 -24.167  1.00  0.00    -0.008 A 
HETATM   13  C4  UNL     1       5.010 -11.805 -23.931  1.00  0.00     0.017 A 
HETATM   14  C3  UNL     1       3.670 -11.479 -23.737  1.00  0.00     0.049 A 
HETATM   15  C2  UNL     1       3.303 -10.151 -23.784  1.00  0.00     0.107 A 
HETATM   16  N6  UNL     1       4.249  -9.214 -24.016  1.00  0.00    -0.351 N 
HETATM   17  C19 UNL     1       5.539  -9.510 -24.205  1.00  0.00     0.102 A 
ATOM     18  H6  UNL     1       3.965  -8.235 -24.048  1.00  0.00     0.166 HD
BRANCH  15  19
HETATM   19  N1  UNL     1       2.071  -9.798 -23.610  1.00  0.00    -0.309 N 
HETATM   20  C1  UNL     1       1.382  -9.078 -24.604  1.00  0.00     0.257 C 
HETATM   21  O1  UNL     1       1.563  -7.845 -24.719  1.00  0.00    -0.267 OA
ATOM     22  H1  UNL     1       1.593 -10.044 -22.742  1.00  0.00     0.170 HD
BRANCH  20  23
HETATM   23  C20 UNL     1       0.460  -9.769 -25.496  1.00  0.00     0.035 A 
HETATM   24  C21 UNL     1      -0.401 -10.744 -25.012  1.00  0.00     0.034 A 
HETATM   25  C22 UNL     1      -1.276 -11.407 -25.828  1.00  0.00     0.088 A 
HETATM   26  N7  UNL     1      -1.282 -11.083 -27.136  1.00  0.00    -0.375 N 
HETATM   27  C23 UNL     1      -0.465 -10.149 -27.632  1.00  0.00     0.088 A 
ATOM     28  H7  UNL     1      -1.926 -11.564 -27.764  1.00  0.00     0.164 HD
HETATM   29  C24 UNL     1       0.420  -9.471 -26.840  1.00  0.00     0.034 A 
ENDBRANCH  20  23
ENDBRANCH  15  19
ENDBRANCH   1  12
BRANCH   7  30
HETATM   30  C11 UNL     1      10.235 -14.588 -26.335  1.00  0.00     0.259 C 
HETATM   31  O2  UNL     1      10.506 -15.720 -25.864  1.00  0.00    -0.267 OA
HETATM   32  N3  UNL     1      11.161 -14.016 -27.267  1.00  0.00    -0.323 N 
HETATM   33  C12 UNL     1      12.306 -13.569 -26.912  1.00  0.00     0.037 A 
ATOM     34  H3  UNL     1      10.897 -13.963 -28.251  1.00  0.00     0.169 HD
HETATM   35  C13 UNL     1      13.154 -13.028 -27.854  1.00  0.00     0.046 A 
HETATM   36  C16 UNL     1      12.709 -13.620 -25.595  1.00  0.00     0.046 A 
HETATM   37  C14 UNL     1      14.394 -12.551 -27.439  1.00  0.00     0.090 A 
HETATM   38  N4  UNL     1      14.749 -12.620 -26.134  1.00  0.00    -0.375 N 
HETATM   39  C15 UNL     1      13.942 -13.143 -25.193  1.00  0.00     0.090 A 
ATOM     40  H4  UNL     1      15.662 -12.263 -25.854  1.00  0.00     0.164 HD
ENDBRANCH   7  30
TORSDOF 4
ENDMDL
MODEL 2
REMARK VINA RESULT: -10.523115110      0.722      1.023
REMARK  4 active torsions:
REMARK  status: ('A' for Active; 'I' for Inactive)
REMARK       I    between atoms: C1_2  and  N1_3 
REMARK    1  A    between atoms: C1_2  and  C20_34 
REMARK    2  A    between atoms: N1_3  and  C2_5 
REMARK    3  A    between atoms: C5_8  and  C6_9 
REMARK    4  A    between atoms: C10_15  and  C11_16 
REMARK       I    between atoms: C11_16  and  N3_18 
ROOT
HETATM    1  C6  UNL     1       7.081 -10.797 -24.340  1.00  0.00     0.006 A 
HETATM    2  C7  UNL     1       8.109 -10.093 -23.737  1.00  0.00     0.031 A 
HETATM    3  C8  UNL     1       9.393 -10.585 -23.779  1.00  0.00     0.089 A 
HETATM    4  N2  UNL     1       9.642 -11.748 -24.409  1.00  0.00    -0.363 N 
ATOM      5  H2  UNL     1      10.600 -12.100 -24.432  1.00  0.00     0.165 HD
HETATM    6  C9  UNL     1       8.668 -12.466 -25.011  1.00  0.00     0.077 A 
HETATM    7  C10 UNL     1       8.670 -13.656 -25.705  1.00  0.00     0.076 A 
HETATM    8  C17 UNL     1       7.368 -13.906 -26.099  1.00  0.00     0.108 A 
HETATM    9  N5  UNL     1       6.606 -12.882 -25.646  1.00  0.00    -0.362 N 
ATOM     10  H5  UNL     1       5.600 -12.804 -25.791  1.00  0.00     0.165 HD
HETATM   11  C18 UNL     1       7.352 -11.984 -24.980  1.00  0.00     0.071 A 
ENDROOT
BRANCH   1  12
HETATM   12  C5  UNL     1       5.729 -10.294 -24.292  1.00  0.00    -0.008 A 
HETATM   13  C4  UNL     1       5.500  -8.952 -24.077  1.00  0.00     0.017 A 
HETATM   14  C3  UNL     1       4.207  -8.437 -24.020  1.00  0.00     0.049 A 
HETATM   15  C2  UNL     1       3.146  -9.303 -24.184  1.00  0.00     0.107 A 
HETATM   16  N6  UNL     1       3.393 -10.615 -24.394  1.00  0.00    -0.351 N 
HETATM   17  C19 UNL     1       4.628 -11.125 -24.451  1.00  0.00     0.102 A 
ATOM     18  H6  UNL     1       2.601 -11.245 -24.514  1.00  0.00     0.166 HD
BRANCH  15  19
HETATM   19  N1  UNL     1       1.927  -8.872 -24.139  1.00  0.00    -0.309 N 
HETATM   20  C1  UNL     1       1.236  -8.550 -25.322  1.00  0.00     0.257 C 
HETATM   21  O1  UNL     1       1.445  -7.453 -25.887  1.00  0.00    -0.267 OA
ATOM     22  H1  UNL     1       1.463  -8.765 -23.237  1.00  0.00     0.170 HD
BRANCH  20  23
HETATM   23  C20 UNL     1       0.278  -9.493 -25.885  1.00  0.00     0.035 A 
HETATM   24  C21 UNL     1      -0.388 -10.401 -25.073  1.00  0.00     0.034 A 
HETATM   25  C22 UNL     1      -1.291 -11.295 -25.576  1.00  0.00     0.088 A 
HETATM   26  N7  UNL     1      -1.524 -11.272 -26.904  1.00  0.00    -0.375 N 
HETATM   27  C23 UNL     1      -0.899 -10.410 -27.712  1.00  0.00     0.088 A 
ATOM     28  H7  UNL     1      -2.194 -11.931 -27.303  1.00  0.00     0.164 HD
HETATM   29  C24 UNL     1       0.009  -9.505 -27.236  1.00  0.00     0.034 A 
ENDBRANCH  20  23
ENDBRANCH  15  19
ENDBRANCH   1  12
BRANCH   7  30
HETATM   30  C11 UNL     1       9.842 -14.466 -25.955  1.00  0.00     0.259 C 
HETATM   31  O2  UNL     1      10.057 -15.508 -25.288  1.00  0.00    -0.267 OA
HETATM   32  N3  UNL     1      10.794 -14.115 -26.966  1.00  0.00    -0.323 N 
HETATM   33  C12 UNL     1      11.960 -13.667 -26.688  1.00  0.00     0.037 A 
ATOM     34  H3  UNL     1      10.532 -14.225 -27.946  1.00  0.00     0.169 HD
HETATM   35  C13 UNL     1      12.833 -13.345 -27.704  1.00  0.00     0.046 A 
HETATM   36  C16 UNL     1      12.361 -13.503 -25.379  1.00  0.00     0.046 A 
HETATM   37  C14 UNL     1      14.095 -12.862 -27.371  1.00  0.00     0.090 A 
HETATM   38  N4  UNL     1      14.447 -12.715 -26.072  1.00  0.00    -0.375 N 
HETATM   39  C15 UNL     1      13.616 -13.022 -25.060  1.00  0.00     0.090 A 
ATOM     40  H4  UNL     1      15.377 -12.359 -25.853  1.00  0.00     0.164 HD
ENDBRANCH   7  30
TORSDOF 4
ENDMDL
MODEL 3
REMARK VINA RESULT: -10.369629871      3.662      5.195
REMARK  4 active torsions:
REMARK  status: ('A' for Active; 'I' for Inactive)
REMARK       I    between atoms: C1_2  and  N1_3 
REMARK    1  A    between atoms: C1_2  and  C20_34 
REMARK    2  A    between atoms: N1_3  and  C2_5 
REMARK    3  A    between atoms: C5_8  and  C6_9 
REMARK    4  A    between atoms: C10_15  and  C11_16 
REMARK       I    between atoms: C11_16  and  N3_18 
ROOT
HETATM    1  C6  UNL     1       5.808 -10.633 -23.711  1.00  0.00     0.006 A 
HETATM    2  C7  UNL     1       4.770 -11.516 -23.954  1.00  0.00     0.031 A 
HETATM    3  C8  UNL     1       5.028 -12.728 -24.553  1.00  0.00     0.089 A 
HETATM    4  N2  UNL     1       6.289 -13.047 -24.899  1.00  0.00    -0.363 N 
ATOM      5  H2  UNL     1       6.464 -13.949 -25.342  1.00  0.00     0.165 HD
HETATM    6  C9  UNL     1       7.330 -12.215 -24.679  1.00  0.00     0.077 A 
HETATM    7  C10 UNL     1       8.681 -12.311 -24.933  1.00  0.00     0.076 A 
HETATM    8  C17 UNL     1       9.270 -11.143 -24.485  1.00  0.00     0.108 A 
HETATM    9  N5  UNL     1       8.286 -10.365 -23.974  1.00  0.00    -0.362 N 
ATOM     10  H5  UNL     1       8.431  -9.440 -23.570  1.00  0.00     0.165 HD
HETATM   11  C18 UNL     1       7.091 -10.975 -24.070  1.00  0.00     0.071 A 
ENDROOT
BRANCH   1  12
HETATM   12  C5  UNL     1       5.546  -9.356 -23.092  1.00  0.00    -0.008 A 
HETATM   13  C4  UNL     1       5.057  -8.312 -23.847  1.00  0.00     0.017 A 
HETATM   14  C3  UNL     1       4.799  -7.065 -23.280  1.00  0.00     0.049 A 
HETATM   15  C2  UNL     1       5.045  -6.892 -21.935  1.00  0.00     0.107 A 
HETATM   16  N6  UNL     1       5.524  -7.928 -21.213  1.00  0.00    -0.351 N 
HETATM   17  C19 UNL     1       5.777  -9.131 -21.742  1.00  0.00     0.102 A 
ATOM     18  H6  UNL     1       5.701  -7.787 -20.219  1.00  0.00     0.166 HD
BRANCH  15  19
HETATM   19  N1  UNL     1       4.821  -5.753 -21.363  1.00  0.00    -0.309 N 
HETATM   20  C1  UNL     1       3.531  -5.417 -20.912  1.00  0.00     0.257 C 
HETATM   21  O1  UNL     1       2.673  -5.008 -21.726  1.00  0.00    -0.267 OA
ATOM     22  H1  UNL     1       5.588  -5.092 -21.238  1.00  0.00     0.170 HD
BRANCH  20  23
HETATM   23  C20 UNL     1       3.198  -5.545 -19.499  1.00  0.00     0.035 A 
HETATM   24  C21 UNL     1       2.077  -4.918 -18.974  1.00  0.00     0.034 A 
HETATM   25  C22 UNL     1       1.741  -5.022 -17.652  1.00  0.00     0.088 A 
HETATM   26  N7  UNL     1       2.540  -5.763 -16.859  1.00  0.00    -0.375 N 
HETATM   27  C23 UNL     1       3.627  -6.379 -17.335  1.00  0.00     0.088 A 
ATOM     28  H7  UNL     1       2.310  -5.855 -15.869  1.00  0.00     0.164 HD
HETATM   29  C24 UNL     1       3.986  -6.291 -18.652  1.00  0.00     0.034 A 
ENDBRANCH  20  23
ENDBRANCH  15  19
ENDBRANCH   1  12
BRANCH   7  30
HETATM   30  C11 UNL     1       9.327 -13.445 -25.557  1.00  0.00     0.259 C 
HETATM   31  O2  UNL     1       9.142 -14.609 -25.122  1.00  0.00    -0.267 OA
HETATM   32  N3  UNL     1      10.194 -13.286 -26.686  1.00  0.00    -0.323 N 
HETATM   33  C12 UNL     1      11.463 -13.432 -26.606  1.00  0.00     0.037 A 
ATOM     34  H3  UNL     1       9.783 -13.048 -27.589  1.00  0.00     0.169 HD
HETATM   35  C13 UNL     1      12.246 -13.266 -27.727  1.00  0.00     0.046 A 
HETATM   36  C16 UNL     1      12.063 -13.758 -25.408  1.00  0.00     0.046 A 
HETATM   37  C14 UNL     1      13.623 -13.433 -27.609  1.00  0.00     0.090 A 
HETATM   38  N4  UNL     1      14.171 -13.751 -26.413  1.00  0.00    -0.375 N 
HETATM   39  C15 UNL     1      13.431 -13.920 -25.302  1.00  0.00     0.090 A 
ATOM     40  H4  UNL     1      15.182 -13.868 -26.352  1.00  0.00     0.164 HD
ENDBRANCH   7  30
TORSDOF 4
ENDMDL
MODEL 4
REMARK VINA RESULT: -10.213897521      2.992      4.681
REMARK  4 active torsions:
REMARK  status: ('A' for Active; 'I' for Inactive)
REMARK       I    between atoms: C1_2  and  N1_3 
REMARK    1  A    between atoms: C1_2  and  C20_34 
REMARK    2  A    between atoms: N1_3  and  C2_5 
REMARK    3  A    between atoms: C5_8  and  C6_9 
REMARK    4  A    between atoms: C10_15  and  C11_16 
REMARK       I    between atoms: C11_16  and  N3_18 
ROOT
HETATM    1  C6  UNL     1       5.441 -11.785 -24.374  1.00  0.00     0.006 A 
HETATM    2  C7  UNL     1       4.651 -12.917 -24.469  1.00  0.00     0.031 A 
HETATM    3  C8  UNL     1       5.216 -14.118 -24.830  1.00  0.00     0.089 A 
HETATM    4  N2  UNL     1       6.535 -14.186 -25.087  1.00  0.00    -0.363 N 
ATOM      5  H2  UNL     1       6.939 -15.084 -25.353  1.00  0.00     0.165 HD
HETATM    6  C9  UNL     1       7.342 -13.105 -25.005  1.00  0.00     0.077 A 
HETATM    7  C10 UNL     1       8.692 -12.921 -25.212  1.00  0.00     0.076 A 
HETATM    8  C17 UNL     1       8.968 -11.587 -24.976  1.00  0.00     0.108 A 
HETATM    9  N5  UNL     1       7.802 -10.988 -24.635  1.00  0.00    -0.362 N 
ATOM     10  H5  UNL     1       7.707  -9.998 -24.406  1.00  0.00     0.165 HD
HETATM   11  C18 UNL     1       6.788 -11.870 -24.639  1.00  0.00     0.071 A 
ENDROOT
BRANCH   1  12
HETATM   12  C5  UNL     1       4.855 -10.518 -24.006  1.00  0.00    -0.008 A 
HETATM   13  C4  UNL     1       3.896  -9.942 -24.811  1.00  0.00     0.017 A 
HETATM   14  C3  UNL     1       3.316  -8.718 -24.487  1.00  0.00     0.049 A 
HETATM   15  C2  UNL     1       3.723  -8.083 -23.332  1.00  0.00     0.107 A 
HETATM   16  N6  UNL     1       4.664  -8.665 -22.557  1.00  0.00    -0.351 N 
HETATM   17  C19 UNL     1       5.231  -9.839 -22.854  1.00  0.00     0.102 A 
ATOM     18  H6  UNL     1       4.957  -8.186 -21.706  1.00  0.00     0.166 HD
BRANCH  15  19
HETATM   19  N1  UNL     1       3.213  -6.945 -22.988  1.00  0.00    -0.309 N 
HETATM   20  C1  UNL     1       3.908  -6.079 -22.124  1.00  0.00     0.257 C 
HETATM   21  O1  UNL     1       3.896  -6.289 -20.890  1.00  0.00    -0.267 OA
ATOM     22  H1  UNL     1       2.299  -6.672 -23.348  1.00  0.00     0.170 HD
BRANCH  20  23
HETATM   23  C20 UNL     1       4.640  -4.941 -22.666  1.00  0.00     0.035 A 
HETATM   24  C21 UNL     1       5.407  -4.131 -21.840  1.00  0.00     0.034 A 
HETATM   25  C22 UNL     1       6.103  -3.058 -22.323  1.00  0.00     0.088 A 
HETATM   26  N7  UNL     1       6.025  -2.802 -23.644  1.00  0.00    -0.375 N 
HETATM   27  C23 UNL     1       5.295  -3.564 -24.465  1.00  0.00     0.088 A 
ATOM     28  H7  UNL     1       6.535  -2.006 -24.027  1.00  0.00     0.164 HD
HETATM   29  C24 UNL     1       4.589  -4.643 -24.009  1.00  0.00     0.034 A 
ENDBRANCH  20  23
ENDBRANCH  15  19
ENDBRANCH   1  12
BRANCH   7  30
HETATM   30  C11 UNL     1       9.618 -13.962 -25.603  1.00  0.00     0.259 C 
HETATM   31  O2  UNL     1       9.666 -15.049 -24.976  1.00  0.00    -0.267 OA
HETATM   32  N3  UNL     1      10.508 -13.793 -26.713  1.00  0.00    -0.323 N 
HETATM   33  C12 UNL     1      11.769 -13.626 -26.565  1.00  0.00     0.037 A 
ATOM     34  H3  UNL     1      10.123 -13.807 -27.657  1.00  0.00     0.169 HD
HETATM   35  C13 UNL     1      12.575 -13.469 -27.671  1.00  0.00     0.046 A 
HETATM   36  C16 UNL     1      12.337 -13.603 -25.308  1.00  0.00     0.046 A 
HETATM   37  C14 UNL     1      13.942 -13.290 -27.479  1.00  0.00     0.090 A 
HETATM   38  N4  UNL     1      14.458 -13.273 -26.227  1.00  0.00    -0.375 N 
HETATM   39  C15 UNL     1      13.695 -13.424 -25.129  1.00  0.00     0.090 A 
ATOM     40  H4  UNL     1      15.463 -13.140 -26.112  1.00  0.00     0.164 HD
ENDBRANCH   7  30
TORSDOF 4
ENDMDL
MODEL 5
REMARK VINA RESULT: -10.113018545      2.406      3.627
REMARK  4 active torsions:
REMARK  status: ('A' for Active; 'I' for Inactive)
REMARK       I    between atoms: C1_2  and  N1_3 
REMARK    1  A    between atoms: C1_2  and  C20_34 
REMARK    2  A    between atoms: N1_3  and  C2_5 
REMARK    3  A    between atoms: C5_8  and  C6_9 
REMARK    4  A    between atoms: C10_15  and  C11_16 
REMARK       I    between atoms: C11_16  and  N3_18 
ROOT
HETATM    1  C6  UNL     1       5.570 -12.709 -24.726  1.00  0.00     0.006 A 
HETATM    2  C7  UNL     1       4.954 -13.946 -24.795  1.00  0.00     0.031 A 
HETATM    3  C8  UNL     1       5.693 -15.061 -25.117  1.00  0.00     0.089 A 
HETATM    4  N2  UNL     1       7.010 -14.942 -25.362  1.00  0.00    -0.363 N 
ATOM      5  H2  UNL     1       7.544 -15.778 -25.599  1.00  0.00     0.165 HD
HETATM    6  C9  UNL     1       7.650 -13.753 -25.304  1.00  0.00     0.077 A 
HETATM    7  C10 UNL     1       8.962 -13.380 -25.505  1.00  0.00     0.076 A 
HETATM    8  C17 UNL     1       9.038 -12.014 -25.304  1.00  0.00     0.108 A 
HETATM    9  N5  UNL     1       7.793 -11.583 -24.991  1.00  0.00    -0.362 N 
ATOM     10  H5  UNL     1       7.552 -10.612 -24.790  1.00  0.00     0.165 HD
HETATM   11  C18 UNL     1       6.918 -12.603 -24.978  1.00  0.00     0.071 A 
ENDROOT
BRANCH   1  12
HETATM   12  C5  UNL     1       4.802 -11.531 -24.398  1.00  0.00    -0.008 A 
HETATM   13  C4  UNL     1       3.462 -11.645 -24.093  1.00  0.00     0.017 A 
HETATM   14  C3  UNL     1       2.693 -10.527 -23.778  1.00  0.00     0.049 A 
HETATM   15  C2  UNL     1       3.301  -9.290 -23.777  1.00  0.00     0.107 A 
HETATM   16  N6  UNL     1       4.615  -9.200 -24.079  1.00  0.00    -0.351 N 
HETATM   17  C19 UNL     1       5.368 -10.263 -24.384  1.00  0.00     0.102 A 
ATOM     18  H6  UNL     1       5.053  -8.280 -24.075  1.00  0.00     0.166 HD
BRANCH  15  19
HETATM   19  N1  UNL     1       2.628  -8.222 -23.492  1.00  0.00    -0.309 N 
HETATM   20  C1  UNL     1       3.288  -7.015 -23.196  1.00  0.00     0.257 C 
HETATM   21  O1  UNL     1       3.774  -6.834 -22.057  1.00  0.00    -0.267 OA
ATOM     22  H1  UNL     1       1.608  -8.256 -23.481  1.00  0.00     0.170 HD
BRANCH  20  23
HETATM   23  C20 UNL     1       3.403  -5.980 -24.215  1.00  0.00     0.035 A 
HETATM   24  C21 UNL     1       3.032  -6.230 -25.529  1.00  0.00     0.034 A 
HETATM   25  C22 UNL     1       3.130  -5.276 -26.503  1.00  0.00     0.088 A 
HETATM   26  N7  UNL     1       3.604  -4.065 -26.150  1.00  0.00    -0.375 N 
HETATM   27  C23 UNL     1       3.969  -3.793 -24.893  1.00  0.00     0.088 A 
ATOM     28  H7  UNL     1       3.686  -3.337 -26.860  1.00  0.00     0.164 HD
HETATM   29  C24 UNL     1       3.882  -4.728 -23.899  1.00  0.00     0.034 A 
ENDBRANCH  20  23
ENDBRANCH  15  19
ENDBRANCH   1  12
BRANCH   7  30
HETATM   30  C11 UNL     1      10.034 -14.285 -25.860  1.00  0.00     0.259 C 
HETATM   31  O2  UNL     1      10.197 -15.363 -25.237  1.00  0.00    -0.267 OA
HETATM   32  N3  UNL     1      10.942 -13.987 -26.927  1.00  0.00    -0.323 N 
HETATM   33  C12 UNL     1      12.161 -13.657 -26.721  1.00  0.00     0.037 A 
ATOM     34  H3  UNL     1      10.604 -14.041 -27.888  1.00  0.00     0.169 HD
HETATM   35  C13 UNL     1      12.988 -13.381 -27.788  1.00  0.00     0.046 A 
HETATM   36  C16 UNL     1      12.665 -13.573 -25.440  1.00  0.00     0.046 A 
HETATM   37  C14 UNL     1      14.310 -13.026 -27.533  1.00  0.00     0.090 A 
HETATM   38  N4  UNL     1      14.763 -12.954 -26.260  1.00  0.00    -0.375 N 
HETATM   39  C15 UNL     1      13.978 -13.218 -25.199  1.00  0.00     0.090 A 
ATOM     40  H4  UNL     1      15.734 -12.691 -26.098  1.00  0.00     0.164 HD
ENDBRANCH   7  30
TORSDOF 4
ENDMDL
