MODEL 1
REMARK VINA RESULT: -9.634319058      0.000      0.000
REMARK  4 active torsions:
REMARK  status: ('A' for Active; 'I' for Inactive)
REMARK       I    between atoms: C1_2  and  N1_3 
REMARK    1  A    between atoms: C1_2  and  C9_12 
REMARK    2  A    between atoms: N1_3  and  C2_5 
REMARK       I    between atoms: N2_19  and  C15_20 
REMARK       I    between atoms: C15_20  and  N3_22 
REMARK    3  A    between atoms: N3_22  and  C16_24 
REMARK    4  A    between atoms: C23_31  and  O4_32 
ROOT
HETATM    1  C9  UNL     1       1.561 -10.146 -24.631  1.00  0.00     0.321 C 
HETATM    2  O2  UNL     1       0.443 -10.370 -23.820  1.00  0.00    -0.350 OA
HETATM    3  C10 UNL     1      -0.017 -11.632 -24.205  1.00  0.00     0.147 C 
HETATM    4  C11 UNL     1      -0.660 -12.331 -23.051  1.00  0.00     0.034 C 
HETATM    5  C12 UNL     1       0.099 -13.592 -22.797  1.00  0.00     0.005 C 
HETATM    6  C13 UNL     1       1.406 -13.469 -23.550  1.00  0.00     0.028 C 
HETATM    7  C14 UNL     1       1.205 -12.426 -24.623  1.00  0.00     0.121 C 
HETATM    8  N2  UNL     1       2.245 -11.413 -24.627  1.00  0.00    -0.292 N 
HETATM    9  C15 UNL     1       3.625 -11.651 -24.612  1.00  0.00     0.321 C 
HETATM   10  O3  UNL     1       4.378 -10.611 -24.570  1.00  0.00    -0.247 OA
HETATM   11  N3  UNL     1       4.279 -12.889 -24.637  1.00  0.00    -0.338 N 
ATOM     12  H3  UNL     1       3.724 -13.744 -24.673  1.00  0.00     0.164 HD
ENDROOT
BRANCH   1  13
HETATM   13  C1  UNL     1       1.147  -9.693 -25.957  1.00  0.00     0.267 C 
HETATM   14  O1  UNL     1       0.048 -10.151 -26.437  1.00  0.00    -0.269 OA
HETATM   15  N1  UNL     1       1.882  -8.773 -26.763  1.00  0.00    -0.352 N 
ATOM     16  H1  UNL     1       2.761  -8.386 -26.419  1.00  0.00     0.163 HD
BRANCH  15  17
HETATM   17  C2  UNL     1       1.382  -8.381 -28.079  1.00  0.00     0.089 C 
HETATM   18  C3  UNL     1       0.678  -7.053 -27.956  1.00  0.00     0.030 C 
HETATM   19  C4  UNL     1       1.543  -6.038 -28.666  1.00  0.00    -0.012 C 
HETATM   20  C5  UNL     1       1.403  -6.244 -30.139  1.00  0.00     0.005 C 
HETATM   21  C8  UNL     1       2.930  -6.674 -28.458  1.00  0.00     0.011 C 
HETATM   22  C6  UNL     1       1.928  -7.666 -30.323  1.00  0.00     0.007 C 
HETATM   23  C7  UNL     1       2.541  -8.048 -28.996  1.00  0.00     0.009 C 
ENDBRANCH  15  17
ENDBRANCH   1  13
BRANCH  11  24
HETATM   24  C16 UNL     1       5.727 -12.988 -24.614  1.00  0.00     0.094 C 
HETATM   25  C17 UNL     1       6.387 -12.312 -25.791  1.00  0.00     0.012 C 
HETATM   26  C18 UNL     1       6.129 -12.993 -27.099  1.00  0.00     0.011 C 
HETATM   27  C25 UNL     1       7.892 -12.384 -25.506  1.00  0.00     0.044 C 
HETATM   28  C19 UNL     1       6.621 -14.418 -27.010  1.00  0.00    -0.011 C 
HETATM   29  C20 UNL     1       5.873 -15.120 -25.908  1.00  0.00     0.011 C 
HETATM   30  C24 UNL     1       8.112 -14.484 -26.739  1.00  0.00     0.042 C 
HETATM   31  C21 UNL     1       6.149 -14.429 -24.576  1.00  0.00     0.012 C 
HETATM   32  C22 UNL     1       7.628 -14.547 -24.330  1.00  0.00     0.044 C 
HETATM   33  C23 UNL     1       8.379 -13.802 -25.432  1.00  0.00     0.059 C 
BRANCH  33  34
HETATM   34  O4  UNL     1       9.724 -13.775 -25.101  1.00  0.00    -0.390 OA
ATOM     35  H4  UNL     1      10.228 -13.980 -25.879  1.00  0.00     0.210 HD
ENDBRANCH  33  34
ENDBRANCH  11  24
TORSDOF 4
ENDMDL
MODEL 2
REMARK VINA RESULT: -9.333062400      1.054      1.279
REMARK  4 active torsions:
REMARK  status: ('A' for Active; 'I' for Inactive)
REMARK       I    between atoms: C1_2  and  N1_3 
REMARK    1  A    between atoms: C1_2  and  C9_12 
REMARK    2  A    between atoms: N1_3  and  C2_5 
REMARK       I    between atoms: N2_19  and  C15_20 
REMARK       I    between atoms: C15_20  and  N3_22 
REMARK    3  A    between atoms: N3_22  and  C16_24 
REMARK    4  A    between atoms: C23_31  and  O4_32 
ROOT
HETATM    1  C9  UNL     1       1.695  -9.143 -24.416  1.00  0.00     0.321 C 
HETATM    2  O2  UNL     1       0.565  -9.585 -23.719  1.00  0.00    -0.350 OA
HETATM    3  C10 UNL     1       0.087 -10.657 -24.477  1.00  0.00     0.147 C 
HETATM    4  C11 UNL     1      -0.579 -11.666 -23.599  1.00  0.00     0.034 C 
HETATM    5  C12 UNL     1       0.156 -12.958 -23.744  1.00  0.00     0.005 C 
HETATM    6  C13 UNL     1       1.472 -12.633 -24.416  1.00  0.00     0.028 C 
HETATM    7  C14 UNL     1       1.300 -11.306 -25.115  1.00  0.00     0.121 C 
HETATM    8  N2  UNL     1       2.357 -10.362 -24.801  1.00  0.00    -0.292 N 
HETATM    9  C15 UNL     1       3.733 -10.620 -24.854  1.00  0.00     0.321 C 
HETATM   10  O3  UNL     1       4.503  -9.658 -24.489  1.00  0.00    -0.247 OA
HETATM   11  N3  UNL     1       4.366 -11.802 -25.258  1.00  0.00    -0.338 N 
ATOM     12  H3  UNL     1       3.796 -12.593 -25.559  1.00  0.00     0.164 HD
ENDROOT
BRANCH   1  13
HETATM   13  C1  UNL     1       1.302  -8.294 -25.539  1.00  0.00     0.267 C 
HETATM   14  O1  UNL     1       0.266  -7.550 -25.400  1.00  0.00    -0.269 OA
HETATM   15  N1  UNL     1       1.992  -8.234 -26.786  1.00  0.00    -0.352 N 
ATOM     16  H1  UNL     1       2.820  -8.810 -26.937  1.00  0.00     0.163 HD
BRANCH  15  17
HETATM   17  C2  UNL     1       1.518  -7.350 -27.850  1.00  0.00     0.089 C 
HETATM   18  C3  UNL     1       2.455  -6.172 -27.955  1.00  0.00     0.030 C 
HETATM   19  C4  UNL     1       3.199  -6.326 -29.261  1.00  0.00    -0.012 C 
HETATM   20  C5  UNL     1       2.268  -5.989 -30.379  1.00  0.00     0.005 C 
HETATM   21  C8  UNL     1       3.197  -7.861 -29.391  1.00  0.00     0.011 C 
HETATM   22  C6  UNL     1       1.172  -7.041 -30.222  1.00  0.00     0.007 C 
HETATM   23  C7  UNL     1       1.692  -8.021 -29.197  1.00  0.00     0.009 C 
ENDBRANCH  15  17
ENDBRANCH   1  13
BRANCH  11  24
HETATM   24  C16 UNL     1       5.812 -11.931 -25.260  1.00  0.00     0.094 C 
HETATM   25  C17 UNL     1       6.360 -12.435 -26.573  1.00  0.00     0.012 C 
HETATM   26  C18 UNL     1       6.000 -13.858 -26.871  1.00  0.00     0.011 C 
HETATM   27  C25 UNL     1       7.885 -12.351 -26.433  1.00  0.00     0.044 C 
HETATM   28  C19 UNL     1       6.515 -14.733 -25.753  1.00  0.00    -0.011 C 
HETATM   29  C20 UNL     1       5.872 -14.298 -24.463  1.00  0.00     0.011 C 
HETATM   30  C24 UNL     1       8.023 -14.655 -25.625  1.00  0.00     0.042 C 
HETATM   31  C21 UNL     1       6.253 -12.853 -24.159  1.00  0.00     0.012 C 
HETATM   32  C22 UNL     1       7.748 -12.826 -24.006  1.00  0.00     0.044 C 
HETATM   33  C23 UNL     1       8.393 -13.233 -25.329  1.00  0.00     0.059 C 
BRANCH  33  34
HETATM   34  O4  UNL     1       9.761 -13.040 -25.225  1.00  0.00    -0.390 OA
ATOM     35  H4  UNL     1       9.914 -12.245 -24.729  1.00  0.00     0.210 HD
ENDBRANCH  33  34
ENDBRANCH  11  24
TORSDOF 4
ENDMDL
MODEL 3
REMARK VINA RESULT: -9.270263127      1.288      1.737
REMARK  4 active torsions:
REMARK  status: ('A' for Active; 'I' for Inactive)
REMARK       I    between atoms: C1_2  and  N1_3 
REMARK    1  A    between atoms: C1_2  and  C9_12 
REMARK    2  A    between atoms: N1_3  and  C2_5 
REMARK       I    between atoms: N2_19  and  C15_20 
REMARK       I    between atoms: C15_20  and  N3_22 
REMARK    3  A    between atoms: N3_22  and  C16_24 
REMARK    4  A    between atoms: C23_31  and  O4_32 
ROOT
HETATM    1  C9  UNL     1       2.617  -9.816 -23.838  1.00  0.00     0.321 C 
HETATM    2  O2  UNL     1       1.667 -10.469 -23.044  1.00  0.00    -0.350 OA
HETATM    3  C10 UNL     1       1.136 -11.455 -23.879  1.00  0.00     0.147 C 
HETATM    4  C11 UNL     1       0.713 -12.646 -23.083  1.00  0.00     0.034 C 
HETATM    5  C12 UNL     1       1.498 -13.823 -23.564  1.00  0.00     0.005 C 
HETATM    6  C13 UNL     1       2.644 -13.271 -24.384  1.00  0.00     0.028 C 
HETATM    7  C14 UNL     1       2.254 -11.876 -24.812  1.00  0.00     0.121 C 
HETATM    8  N2  UNL     1       3.281 -10.891 -24.528  1.00  0.00    -0.292 N 
HETATM    9  C15 UNL     1       4.639 -11.001 -24.854  1.00  0.00     0.321 C 
HETATM   10  O3  UNL     1       5.393 -10.034 -24.469  1.00  0.00    -0.247 OA
HETATM   11  N3  UNL     1       5.269 -12.039 -25.552  1.00  0.00    -0.338 N 
ATOM     12  H3  UNL     1       4.711 -12.827 -25.880  1.00  0.00     0.164 HD
ENDROOT
BRANCH   1  13
HETATM   13  C1  UNL     1       1.967  -8.849 -24.720  1.00  0.00     0.267 C 
HETATM   14  O1  UNL     1       1.006  -8.146 -24.243  1.00  0.00    -0.269 OA
HETATM   15  N1  UNL     1       2.326  -8.630 -26.083  1.00  0.00    -0.352 N 
ATOM     16  H1  UNL     1       3.084  -9.170 -26.501  1.00  0.00     0.163 HD
BRANCH  15  17
HETATM   17  C2  UNL     1       1.613  -7.637 -26.884  1.00  0.00     0.089 C 
HETATM   18  C3  UNL     1       2.510  -6.441 -27.084  1.00  0.00     0.030 C 
HETATM   19  C4  UNL     1       2.900  -6.432 -28.544  1.00  0.00    -0.012 C 
HETATM   20  C5  UNL     1       1.723  -5.983 -29.346  1.00  0.00     0.005 C 
HETATM   21  C8  UNL     1       2.844  -7.942 -28.846  1.00  0.00     0.011 C 
HETATM   22  C6  UNL     1       0.687  -7.062 -29.042  1.00  0.00     0.007 C 
HETATM   23  C7  UNL     1       1.434  -8.146 -28.300  1.00  0.00     0.009 C 
ENDBRANCH  15  17
ENDBRANCH   1  13
BRANCH  11  24
HETATM   24  C16 UNL     1       6.696 -12.023 -25.819  1.00  0.00     0.094 C 
HETATM   25  C17 UNL     1       7.111 -13.010 -26.884  1.00  0.00     0.012 C 
HETATM   26  C18 UNL     1       6.969 -14.441 -26.467  1.00  0.00     0.011 C 
HETATM   27  C25 UNL     1       8.598 -12.733 -27.133  1.00  0.00     0.044 C 
HETATM   28  C19 UNL     1       7.803 -14.671 -25.229  1.00  0.00    -0.011 C 
HETATM   29  C20 UNL     1       7.306 -13.764 -24.135  1.00  0.00     0.011 C 
HETATM   30  C24 UNL     1       9.274 -14.407 -25.483  1.00  0.00     0.042 C 
HETATM   31  C21 UNL     1       7.464 -12.308 -24.561  1.00  0.00     0.012 C 
HETATM   32  C22 UNL     1       8.936 -12.079 -24.769  1.00  0.00     0.044 C 
HETATM   33  C23 UNL     1       9.425 -12.976 -25.904  1.00  0.00     0.059 C 
BRANCH  33  34
HETATM   34  O4  UNL     1      10.735 -12.633 -26.197  1.00  0.00    -0.390 OA
ATOM     35  H4  UNL     1      10.876 -12.759 -27.128  1.00  0.00     0.210 HD
ENDBRANCH  33  34
ENDBRANCH  11  24
TORSDOF 4
ENDMDL
MODEL 4
REMARK VINA RESULT: -9.018676313      2.979      3.762
REMARK  4 active torsions:
REMARK  status: ('A' for Active; 'I' for Inactive)
REMARK       I    between atoms: C1_2  and  N1_3 
REMARK    1  A    between atoms: C1_2  and  C9_12 
REMARK    2  A    between atoms: N1_3  and  C2_5 
REMARK       I    between atoms: N2_19  and  C15_20 
REMARK       I    between atoms: C15_20  and  N3_22 
REMARK    3  A    between atoms: N3_22  and  C16_24 
REMARK    4  A    between atoms: C23_31  and  O4_32 
ROOT
HETATM    1  C9  UNL     1       0.575  -7.909 -24.996  1.00  0.00     0.321 C 
HETATM    2  O2  UNL     1      -0.503  -8.796 -24.895  1.00  0.00    -0.350 OA
HETATM    3  C10 UNL     1      -0.084  -9.933 -25.590  1.00  0.00     0.147 C 
HETATM    4  C11 UNL     1      -0.698 -11.162 -25.005  1.00  0.00     0.034 C 
HETATM    5  C12 UNL     1       0.407 -12.049 -24.533  1.00  0.00     0.005 C 
HETATM    6  C13 UNL     1       1.658 -11.198 -24.497  1.00  0.00     0.028 C 
HETATM    7  C14 UNL     1       1.419 -10.017 -25.408  1.00  0.00     0.121 C 
HETATM    8  N2  UNL     1       1.726  -8.746 -24.777  1.00  0.00    -0.292 N 
HETATM    9  C15 UNL     1       2.904  -8.435 -24.085  1.00  0.00     0.321 C 
HETATM   10  O3  UNL     1       2.956  -7.264 -23.558  1.00  0.00    -0.247 OA
HETATM   11  N3  UNL     1       4.029  -9.249 -23.903  1.00  0.00    -0.338 N 
ATOM     12  H3  UNL     1       4.035 -10.186 -24.305  1.00  0.00     0.164 HD
ENDROOT
BRANCH   1  13
HETATM   13  C1  UNL     1       0.564  -7.235 -26.293  1.00  0.00     0.267 C 
HETATM   14  O1  UNL     1      -0.534  -6.699 -26.685  1.00  0.00    -0.269 OA
HETATM   15  N1  UNL     1       1.692  -7.131 -27.159  1.00  0.00    -0.352 N 
ATOM     16  H1  UNL     1       2.583  -7.544 -26.884  1.00  0.00     0.163 HD
BRANCH  15  17
HETATM   17  C2  UNL     1       1.578  -6.434 -28.439  1.00  0.00     0.089 C 
HETATM   18  C3  UNL     1       2.866  -5.695 -28.705  1.00  0.00     0.030 C 
HETATM   19  C4  UNL     1       3.541  -6.405 -29.855  1.00  0.00    -0.012 C 
HETATM   20  C5  UNL     1       2.811  -6.069 -31.114  1.00  0.00     0.005 C 
HETATM   21  C8  UNL     1       3.013  -7.835 -29.636  1.00  0.00     0.011 C 
HETATM   22  C6  UNL     1       1.416  -6.628 -30.843  1.00  0.00     0.007 C 
HETATM   23  C7  UNL     1       1.541  -7.438 -29.573  1.00  0.00     0.009 C 
ENDBRANCH  15  17
ENDBRANCH   1  13
BRANCH  11  24
HETATM   24  C16 UNL     1       5.187  -8.793 -23.156  1.00  0.00     0.094 C 
HETATM   25  C17 UNL     1       6.380  -8.497 -24.033  1.00  0.00     0.012 C 
HETATM   26  C18 UNL     1       6.977  -9.714 -24.669  1.00  0.00     0.011 C 
HETATM   27  C25 UNL     1       7.428  -7.887 -23.095  1.00  0.00     0.044 C 
HETATM   28  C19 UNL     1       7.393 -10.676 -23.581  1.00  0.00    -0.011 C 
HETATM   29  C20 UNL     1       6.174 -11.058 -22.783  1.00  0.00     0.011 C 
HETATM   30  C24 UNL     1       8.438 -10.073 -22.663  1.00  0.00     0.042 C 
HETATM   31  C21 UNL     1       5.577  -9.816 -22.127  1.00  0.00     0.012 C 
HETATM   32  C22 UNL     1       6.630  -9.270 -21.203  1.00  0.00     0.044 C 
HETATM   33  C23 UNL     1       7.848  -8.852 -22.024  1.00  0.00     0.059 C 
BRANCH  33  34
HETATM   34  O4  UNL     1       8.736  -8.198 -21.185  1.00  0.00    -0.390 OA
ATOM     35  H4  UNL     1       9.372  -7.740 -21.722  1.00  0.00     0.210 HD
ENDBRANCH  33  34
ENDBRANCH  11  24
TORSDOF 4
ENDMDL
MODEL 5
REMARK VINA RESULT: -8.947126909      4.573      5.445
REMARK  4 active torsions:
REMARK  status: ('A' for Active; 'I' for Inactive)
REMARK       I    between atoms: C1_2  and  N1_3 
REMARK    1  A    between atoms: C1_2  and  C9_12 
REMARK    2  A    between atoms: N1_3  and  C2_5 
REMARK       I    between atoms: N2_19  and  C15_20 
REMARK       I    between atoms: C15_20  and  N3_22 
REMARK    3  A    between atoms: N3_22  and  C16_24 
REMARK    4  A    between atoms: C23_31  and  O4_32 
ROOT
HETATM    1  C9  UNL     1       4.908  -7.547 -22.678  1.00  0.00     0.321 C 
HETATM    2  O2  UNL     1       3.536  -7.374 -22.461  1.00  0.00    -0.350 OA
HETATM    3  C10 UNL     1       2.974  -7.425 -23.739  1.00  0.00     0.147 C 
HETATM    4  C11 UNL     1       1.592  -7.989 -23.682  1.00  0.00     0.034 C 
HETATM    5  C12 UNL     1       1.565  -9.227 -24.517  1.00  0.00     0.005 C 
HETATM    6  C13 UNL     1       3.008  -9.607 -24.771  1.00  0.00     0.028 C 
HETATM    7  C14 UNL     1       3.840  -8.366 -24.553  1.00  0.00     0.121 C 
HETATM    8  N2  UNL     1       4.968  -8.592 -23.667  1.00  0.00    -0.292 N 
HETATM    9  C15 UNL     1       5.898  -9.634 -23.768  1.00  0.00     0.321 C 
HETATM   10  O3  UNL     1       6.796  -9.682 -22.851  1.00  0.00    -0.247 OA
HETATM   11  N3  UNL     1       5.963 -10.629 -24.752  1.00  0.00    -0.338 N 
ATOM     12  H3  UNL     1       5.272 -10.631 -25.503  1.00  0.00     0.164 HD
ENDROOT
BRANCH   1  13
HETATM   13  C1  UNL     1       5.521  -6.288 -23.099  1.00  0.00     0.267 C 
HETATM   14  O1  UNL     1       6.382  -6.324 -24.050  1.00  0.00    -0.269 OA
HETATM   15  N1  UNL     1       5.230  -5.016 -22.525  1.00  0.00    -0.352 N 
ATOM     16  H1  UNL     1       4.551  -4.944 -21.766  1.00  0.00     0.163 HD
BRANCH  15  17
HETATM   17  C2  UNL     1       5.897  -3.813 -23.018  1.00  0.00     0.089 C 
HETATM   18  C3  UNL     1       4.851  -2.845 -23.513  1.00  0.00     0.030 C 
HETATM   19  C4  UNL     1       4.836  -1.690 -22.540  1.00  0.00    -0.012 C 
HETATM   20  C5  UNL     1       6.055  -0.859 -22.772  1.00  0.00     0.005 C 
HETATM   21  C8  UNL     1       5.272  -2.416 -21.253  1.00  0.00     0.011 C 
HETATM   22  C6  UNL     1       7.184  -1.842 -22.469  1.00  0.00     0.007 C 
HETATM   23  C7  UNL     1       6.517  -3.054 -21.862  1.00  0.00     0.009 C 
ENDBRANCH  15  17
ENDBRANCH   1  13
BRANCH  11  24
HETATM   24  C16 UNL     1       6.987 -11.658 -24.732  1.00  0.00     0.094 C 
HETATM   25  C17 UNL     1       7.480 -12.031 -26.108  1.00  0.00     0.012 C 
HETATM   26  C18 UNL     1       6.458 -12.739 -26.943  1.00  0.00     0.011 C 
HETATM   27  C25 UNL     1       8.649 -12.995 -25.871  1.00  0.00     0.044 C 
HETATM   28  C19 UNL     1       6.022 -13.990 -26.220  1.00  0.00    -0.011 C 
HETATM   29  C20 UNL     1       5.423 -13.599 -24.895  1.00  0.00     0.011 C 
HETATM   30  C24 UNL     1       7.178 -14.945 -25.997  1.00  0.00     0.042 C 
HETATM   31  C21 UNL     1       6.472 -12.890 -24.044  1.00  0.00     0.012 C 
HETATM   32  C22 UNL     1       7.582 -13.879 -23.819  1.00  0.00     0.044 C 
HETATM   33  C23 UNL     1       8.207 -14.243 -25.164  1.00  0.00     0.059 C 
BRANCH  33  34
HETATM   34  O4  UNL     1       9.331 -15.018 -24.926  1.00  0.00    -0.390 OA
ATOM     35  H4  UNL     1       9.813 -15.103 -25.740  1.00  0.00     0.210 HD
ENDBRANCH  33  34
ENDBRANCH  11  24
TORSDOF 4
ENDMDL
