MODEL 1
REMARK VINA RESULT: -9.417488155      0.000      0.000
REMARK  7 active torsions:
REMARK  status: ('A' for Active; 'I' for Inactive)
REMARK    1  A    between atoms: C2_2  and  O1_3 
REMARK    2  A    between atoms: O1_3  and  C3_4 
REMARK       I    between atoms: C3_4  and  N1_6 
REMARK    3  A    between atoms: N1_6  and  C4_8 
REMARK    4  A    between atoms: C7_11  and  C8_12 
REMARK    5  A    between atoms: C9_13  and  C10_14 
REMARK    6  A    between atoms: C14_18  and  C15_19 
REMARK       I    between atoms: C15_19  and  N2_21 
REMARK    7  A    between atoms: C20_29  and  C21_30 
ROOT
HETATM    1  C10 UNL     1       4.912  -7.958 -23.472  1.00  0.00     0.019 A 
HETATM    2  C11 UNL     1       5.233  -7.172 -22.383  1.00  0.00     0.020 A 
HETATM    3  C12 UNL     1       4.525  -6.014 -22.073  1.00  0.00     0.002 A 
HETATM    4  C13 UNL     1       3.486  -5.689 -22.909  1.00  0.00     0.017 A 
HETATM    5  C14 UNL     1       3.156  -6.482 -24.015  1.00  0.00     0.033 A 
HETATM    6  C22 UNL     1       3.874  -7.609 -24.285  1.00  0.00     0.037 A 
ENDROOT
BRANCH   1   7
HETATM    7  C9  UNL     1       5.663  -9.162 -23.780  1.00  0.00    -0.061 C 
HETATM    8  C8  UNL     1       6.300 -10.158 -24.023  1.00  0.00    -0.060 C 
BRANCH   8   9
HETATM    9  C7  UNL     1       7.083 -11.342 -24.301  1.00  0.00     0.033 A 
HETATM   10  C6  UNL     1       6.499 -12.590 -24.228  1.00  0.00     0.026 A 
HETATM   11  C5  UNL     1       7.287 -13.696 -24.501  1.00  0.00     0.050 A 
HETATM   12  C4  UNL     1       8.608 -13.595 -24.838  1.00  0.00     0.109 A 
HETATM   13  N5  UNL     1       9.165 -12.374 -24.906  1.00  0.00    -0.351 N 
HETATM   14  C23 UNL     1       8.414 -11.291 -24.643  1.00  0.00     0.110 A 
ATOM     15  H5  UNL     1      10.149 -12.270 -25.155  1.00  0.00     0.166 HD
BRANCH  12  16
HETATM   16  N1  UNL     1       9.330 -14.617 -25.089  1.00  0.00    -0.288 N 
HETATM   17  C3  UNL     1      10.548 -14.602 -25.781  1.00  0.00     0.366 C 
HETATM   18  O2  UNL     1      10.629 -15.265 -26.871  1.00  0.00    -0.238 OA
ATOM     19  H1  UNL     1       8.992 -15.521 -24.758  1.00  0.00     0.172 HD
BRANCH  17  20
HETATM   20  O1  UNL     1      11.686 -13.925 -25.387  1.00  0.00    -0.304 OA
BRANCH  20  21
HETATM   21  C2  UNL     1      12.787 -13.679 -26.212  1.00  0.00     0.176 C 
HETATM   22  C1  UNL     1      14.043 -13.425 -25.418  1.00  0.00     0.034 C 
ENDBRANCH  20  21
ENDBRANCH  17  20
ENDBRANCH  12  16
ENDBRANCH   8   9
ENDBRANCH   1   7
BRANCH   5  23
HETATM   23  C15 UNL     1       2.050  -6.075 -24.846  1.00  0.00     0.256 C 
HETATM   24  O3  UNL     1       1.227  -5.241 -24.400  1.00  0.00    -0.267 OA
HETATM   25  N2  UNL     1       1.873  -6.606 -26.170  1.00  0.00    -0.322 N 
HETATM   26  C16 UNL     1       1.174  -7.661 -26.388  1.00  0.00     0.053 A 
ATOM     27  H2  UNL     1       2.315  -6.132 -26.958  1.00  0.00     0.169 HD
HETATM   28  C17 UNL     1       0.543  -8.358 -25.357  1.00  0.00     0.047 A 
HETATM   29  C20 UNL     1       1.044  -8.116 -27.681  1.00  0.00     0.071 A 
HETATM   30  C18 UNL     1      -0.201  -9.486 -25.621  1.00  0.00     0.090 A 
HETATM   31  N3  UNL     1      -0.316  -9.913 -26.874  1.00  0.00    -0.374 N 
HETATM   32  C19 UNL     1       0.282  -9.255 -27.868  1.00  0.00     0.106 A 
ATOM     33  H3  UNL     1      -0.865 -10.748 -27.077  1.00  0.00     0.164 HD
BRANCH  29  34
HETATM   34  C21 UNL     1       1.675  -7.431 -28.776  1.00  0.00     0.268 C 
HETATM   35  N4  UNL     1       2.925  -7.885 -29.271  1.00  0.00    -0.057 NA
HETATM   36  O4  UNL     1       1.144  -6.435 -29.308  1.00  0.00    -0.271 OA
ENDBRANCH  29  34
ENDBRANCH   5  23
TORSDOF 7
ENDMDL
MODEL 2
REMARK VINA RESULT: -9.410595474      2.522      4.234
REMARK  7 active torsions:
REMARK  status: ('A' for Active; 'I' for Inactive)
REMARK    1  A    between atoms: C2_2  and  O1_3 
REMARK    2  A    between atoms: O1_3  and  C3_4 
REMARK       I    between atoms: C3_4  and  N1_6 
REMARK    3  A    between atoms: N1_6  and  C4_8 
REMARK    4  A    between atoms: C7_11  and  C8_12 
REMARK    5  A    between atoms: C9_13  and  C10_14 
REMARK    6  A    between atoms: C14_18  and  C15_19 
REMARK       I    between atoms: C15_19  and  N2_21 
REMARK    7  A    between atoms: C20_29  and  C21_30 
ROOT
HETATM    1  C10 UNL     1       2.423 -12.912 -24.251  1.00  0.00     0.019 A 
HETATM    2  C11 UNL     1       1.699 -13.872 -23.573  1.00  0.00     0.020 A 
HETATM    3  C12 UNL     1       0.378 -13.665 -23.185  1.00  0.00     0.002 A 
HETATM    4  C13 UNL     1      -0.172 -12.449 -23.509  1.00  0.00     0.017 A 
HETATM    5  C14 UNL     1       0.558 -11.472 -24.196  1.00  0.00     0.033 A 
HETATM    6  C22 UNL     1       1.849 -11.714 -24.560  1.00  0.00     0.037 A 
ENDROOT
BRANCH   1   7
HETATM    7  C9  UNL     1       3.799 -13.147 -24.648  1.00  0.00    -0.061 C 
HETATM    8  C8  UNL     1       4.938 -13.353 -24.991  1.00  0.00    -0.060 C 
BRANCH   8   9
HETATM    9  C7  UNL     1       6.294 -13.617 -25.420  1.00  0.00     0.033 A 
HETATM   10  C6  UNL     1       7.167 -14.280 -24.583  1.00  0.00     0.026 A 
HETATM   11  C5  UNL     1       8.455 -14.512 -25.034  1.00  0.00     0.050 A 
HETATM   12  C4  UNL     1       8.888 -14.112 -26.268  1.00  0.00     0.109 A 
HETATM   13  N5  UNL     1       8.028 -13.467 -27.075  1.00  0.00    -0.351 N 
HETATM   14  C23 UNL     1       6.774 -13.235 -26.651  1.00  0.00     0.110 A 
ATOM     15  H5  UNL     1       8.324 -13.158 -28.000  1.00  0.00     0.166 HD
BRANCH  12  16
HETATM   16  N1  UNL     1      10.076 -14.328 -26.680  1.00  0.00    -0.288 N 
HETATM   17  C3  UNL     1      11.178 -13.491 -26.459  1.00  0.00     0.366 C 
HETATM   18  O2  UNL     1      11.766 -12.988 -27.477  1.00  0.00    -0.238 OA
ATOM     19  H1  UNL     1      10.238 -15.181 -27.214  1.00  0.00     0.172 HD
BRANCH  17  20
HETATM   20  O1  UNL     1      11.693 -13.153 -25.222  1.00  0.00    -0.304 OA
BRANCH  20  21
HETATM   21  C2  UNL     1      12.941 -12.558 -25.020  1.00  0.00     0.176 C 
HETATM   22  C1  UNL     1      14.073 -13.535 -25.219  1.00  0.00     0.034 C 
ENDBRANCH  20  21
ENDBRANCH  17  20
ENDBRANCH  12  16
ENDBRANCH   8   9
ENDBRANCH   1   7
BRANCH   5  23
HETATM   23  C15 UNL     1      -0.091 -10.221 -24.502  1.00  0.00     0.256 C 
HETATM   24  O3  UNL     1      -1.289 -10.229 -24.873  1.00  0.00    -0.267 OA
HETATM   25  N2  UNL     1       0.607  -8.969 -24.391  1.00  0.00    -0.322 N 
HETATM   26  C16 UNL     1       1.247  -8.460 -25.383  1.00  0.00     0.053 A 
ATOM     27  H2  UNL     1       0.595  -8.471 -23.501  1.00  0.00     0.169 HD
HETATM   28  C17 UNL     1       1.304  -9.089 -26.628  1.00  0.00     0.047 A 
HETATM   29  C20 UNL     1       1.893  -7.258 -25.210  1.00  0.00     0.071 A 
HETATM   30  C18 UNL     1       1.996  -8.520 -27.673  1.00  0.00     0.090 A 
HETATM   31  N3  UNL     1       2.616  -7.359 -27.489  1.00  0.00    -0.374 N 
HETATM   32  C19 UNL     1       2.568  -6.749 -26.305  1.00  0.00     0.106 A 
ATOM     33  H3  UNL     1       3.131  -6.931 -28.259  1.00  0.00     0.164 HD
BRANCH  29  34
HETATM   34  C21 UNL     1       1.862  -6.574 -23.946  1.00  0.00     0.268 C 
HETATM   35  N4  UNL     1       2.321  -7.227 -22.773  1.00  0.00    -0.057 NA
HETATM   36  O4  UNL     1       1.436  -5.404 -23.855  1.00  0.00    -0.271 OA
ENDBRANCH  29  34
ENDBRANCH   5  23
TORSDOF 7
ENDMDL
MODEL 3
REMARK VINA RESULT: -9.317044114      3.423      4.992
REMARK  7 active torsions:
REMARK  status: ('A' for Active; 'I' for Inactive)
REMARK    1  A    between atoms: C2_2  and  O1_3 
REMARK    2  A    between atoms: O1_3  and  C3_4 
REMARK       I    between atoms: C3_4  and  N1_6 
REMARK    3  A    between atoms: N1_6  and  C4_8 
REMARK    4  A    between atoms: C7_11  and  C8_12 
REMARK    5  A    between atoms: C9_13  and  C10_14 
REMARK    6  A    between atoms: C14_18  and  C15_19 
REMARK       I    between atoms: C15_19  and  N2_21 
REMARK    7  A    between atoms: C20_29  and  C21_30 
ROOT
HETATM    1  C10 UNL     1       5.555 -13.765 -25.216  1.00  0.00     0.019 A 
HETATM    2  C11 UNL     1       4.824 -14.936 -25.222  1.00  0.00     0.020 A 
HETATM    3  C12 UNL     1       3.494 -14.980 -24.811  1.00  0.00     0.002 A 
HETATM    4  C13 UNL     1       2.942 -13.792 -24.396  1.00  0.00     0.017 A 
HETATM    5  C14 UNL     1       3.680 -12.602 -24.388  1.00  0.00     0.033 A 
HETATM    6  C22 UNL     1       4.980 -12.602 -24.798  1.00  0.00     0.037 A 
ENDROOT
BRANCH   1   7
HETATM    7  C9  UNL     1       6.941 -13.741 -25.647  1.00  0.00    -0.061 C 
HETATM    8  C8  UNL     1       8.088 -13.728 -26.022  1.00  0.00    -0.060 C 
BRANCH   8   9
HETATM    9  C7  UNL     1       9.457 -13.728 -26.491  1.00  0.00     0.033 A 
HETATM   10  C6  UNL     1      10.344 -14.680 -26.035  1.00  0.00     0.026 A 
HETATM   11  C5  UNL     1      11.644 -14.642 -26.511  1.00  0.00     0.050 A 
HETATM   12  C4  UNL     1      12.074 -13.704 -27.408  1.00  0.00     0.109 A 
HETATM   13  N5  UNL     1      11.200 -12.781 -27.845  1.00  0.00    -0.351 N 
HETATM   14  C23 UNL     1       9.934 -12.806 -27.392  1.00  0.00     0.110 A 
ATOM     15  H5  UNL     1      11.494 -12.070 -28.514  1.00  0.00     0.166 HD
BRANCH  12  16
HETATM   16  N1  UNL     1      13.273 -13.673 -27.844  1.00  0.00    -0.288 N 
HETATM   17  C3  UNL     1      14.331 -12.961 -27.263  1.00  0.00     0.366 C 
HETATM   18  O2  UNL     1      14.897 -12.050 -27.958  1.00  0.00    -0.238 OA
ATOM     19  H1  UNL     1      13.479 -14.211 -28.685  1.00  0.00     0.172 HD
BRANCH  17  20
HETATM   20  O1  UNL     1      14.825 -13.158 -25.988  1.00  0.00    -0.304 OA
BRANCH  20  21
HETATM   21  C2  UNL     1      14.032 -13.322 -24.849  1.00  0.00     0.176 C 
HETATM   22  C1  UNL     1      13.217 -12.090 -24.545  1.00  0.00     0.034 C 
ENDBRANCH  20  21
ENDBRANCH  17  20
ENDBRANCH  12  16
ENDBRANCH   8   9
ENDBRANCH   1   7
BRANCH   5  23
HETATM   23  C15 UNL     1       3.030 -11.396 -23.939  1.00  0.00     0.256 C 
HETATM   24  O3  UNL     1       3.425 -10.847 -22.883  1.00  0.00    -0.267 OA
HETATM   25  N2  UNL     1       1.941 -10.814 -24.674  1.00  0.00    -0.322 N 
HETATM   26  C16 UNL     1       0.718 -11.127 -24.434  1.00  0.00     0.053 A 
ATOM     27  H2  UNL     1       2.144 -10.134 -25.407  1.00  0.00     0.169 HD
HETATM   28  C17 UNL     1       0.370 -12.049 -23.447  1.00  0.00     0.047 A 
HETATM   29  C20 UNL     1      -0.277 -10.531 -25.175  1.00  0.00     0.071 A 
HETATM   30  C18 UNL     1      -0.950 -12.364 -23.211  1.00  0.00     0.090 A 
HETATM   31  N3  UNL     1      -1.899 -11.781 -23.936  1.00  0.00    -0.374 N 
HETATM   32  C19 UNL     1      -1.578 -10.898 -24.882  1.00  0.00     0.106 A 
ATOM     33  H3  UNL     1      -2.879 -12.010 -23.768  1.00  0.00     0.164 HD
BRANCH  29  34
HETATM   34  C21 UNL     1       0.033  -9.575 -26.203  1.00  0.00     0.268 C 
HETATM   35  N4  UNL     1       0.687  -8.360 -25.870  1.00  0.00    -0.057 NA
HETATM   36  O4  UNL     1      -0.263  -9.790 -27.396  1.00  0.00    -0.271 OA
ENDBRANCH  29  34
ENDBRANCH   5  23
TORSDOF 7
ENDMDL
MODEL 4
REMARK VINA RESULT: -9.111538154      2.491      4.780
REMARK  7 active torsions:
REMARK  status: ('A' for Active; 'I' for Inactive)
REMARK    1  A    between atoms: C2_2  and  O1_3 
REMARK    2  A    between atoms: O1_3  and  C3_4 
REMARK       I    between atoms: C3_4  and  N1_6 
REMARK    3  A    between atoms: N1_6  and  C4_8 
REMARK    4  A    between atoms: C7_11  and  C8_12 
REMARK    5  A    between atoms: C9_13  and  C10_14 
REMARK    6  A    between atoms: C14_18  and  C15_19 
REMARK       I    between atoms: C15_19  and  N2_21 
REMARK    7  A    between atoms: C20_29  and  C21_30 
ROOT
HETATM    1  C10 UNL     1       2.556 -10.097 -24.722  1.00  0.00     0.019 A 
HETATM    2  C11 UNL     1       1.347 -10.585 -25.178  1.00  0.00     0.020 A 
HETATM    3  C12 UNL     1       0.195  -9.804 -25.198  1.00  0.00     0.002 A 
HETATM    4  C13 UNL     1       0.320  -8.516 -24.738  1.00  0.00     0.017 A 
HETATM    5  C14 UNL     1       1.543  -8.017 -24.274  1.00  0.00     0.033 A 
HETATM    6  C22 UNL     1       2.649  -8.814 -24.271  1.00  0.00     0.037 A 
ENDROOT
BRANCH   1   7
HETATM    7  C9  UNL     1       3.746 -10.928 -24.709  1.00  0.00    -0.061 C 
HETATM    8  C8  UNL     1       4.731 -11.625 -24.714  1.00  0.00    -0.060 C 
BRANCH   8   9
HETATM    9  C7  UNL     1       5.904 -12.473 -24.741  1.00  0.00     0.033 A 
HETATM   10  C6  UNL     1       5.764 -13.845 -24.773  1.00  0.00     0.026 A 
HETATM   11  C5  UNL     1       6.913 -14.618 -24.799  1.00  0.00     0.050 A 
HETATM   12  C4  UNL     1       8.168 -14.074 -24.794  1.00  0.00     0.109 A 
HETATM   13  N5  UNL     1       8.291 -12.736 -24.764  1.00  0.00    -0.351 N 
HETATM   14  C23 UNL     1       7.184 -11.973 -24.739  1.00  0.00     0.110 A 
ATOM     15  H5  UNL     1       9.214 -12.305 -24.760  1.00  0.00     0.166 HD
BRANCH  12  16
HETATM   16  N1  UNL     1       9.224 -14.790 -24.818  1.00  0.00    -0.288 N 
HETATM   17  C3  UNL     1      10.348 -14.554 -25.620  1.00  0.00     0.366 C 
HETATM   18  O2  UNL     1      10.678 -15.448 -26.471  1.00  0.00    -0.238 OA
ATOM     19  H1  UNL     1       9.252 -15.602 -24.202  1.00  0.00     0.172 HD
BRANCH  17  20
HETATM   20  O1  UNL     1      11.143 -13.426 -25.573  1.00  0.00    -0.304 OA
BRANCH  20  21
HETATM   21  C2  UNL     1      12.385 -13.306 -26.203  1.00  0.00     0.176 C 
HETATM   22  C1  UNL     1      13.514 -13.191 -25.210  1.00  0.00     0.034 C 
ENDBRANCH  20  21
ENDBRANCH  17  20
ENDBRANCH  12  16
ENDBRANCH   8   9
ENDBRANCH   1   7
BRANCH   5  23
HETATM   23  C15 UNL     1       1.595  -6.654 -23.807  1.00  0.00     0.256 C 
HETATM   24  O3  UNL     1       0.839  -5.800 -24.331  1.00  0.00    -0.267 OA
HETATM   25  N2  UNL     1       2.492  -6.255 -22.757  1.00  0.00    -0.322 N 
HETATM   26  C16 UNL     1       3.678  -5.829 -23.005  1.00  0.00     0.053 A 
ATOM     27  H2  UNL     1       2.178  -6.312 -21.787  1.00  0.00     0.169 HD
HETATM   28  C17 UNL     1       4.170  -5.727 -24.307  1.00  0.00     0.047 A 
HETATM   29  C20 UNL     1       4.486  -5.463 -21.953  1.00  0.00     0.071 A 
HETATM   30  C18 UNL     1       5.446  -5.266 -24.544  1.00  0.00     0.090 A 
HETATM   31  N3  UNL     1       6.214  -4.917 -23.517  1.00  0.00    -0.374 N 
HETATM   32  C19 UNL     1       5.755  -5.010 -22.269  1.00  0.00     0.106 A 
ATOM     33  H3  UNL     1       7.161  -4.575 -23.684  1.00  0.00     0.164 HD
BRANCH  29  34
HETATM   34  C21 UNL     1       4.023  -5.551 -20.595  1.00  0.00     0.268 C 
HETATM   35  N4  UNL     1       3.295  -4.476 -20.021  1.00  0.00    -0.057 NA
HETATM   36  O4  UNL     1       4.248  -6.563 -19.900  1.00  0.00    -0.271 OA
ENDBRANCH  29  34
ENDBRANCH   5  23
TORSDOF 7
ENDMDL
MODEL 5
REMARK VINA RESULT: -9.056516489      2.421      4.186
REMARK  7 active torsions:
REMARK  status: ('A' for Active; 'I' for Inactive)
REMARK    1  A    between atoms: C2_2  and  O1_3 
REMARK    2  A    between atoms: O1_3  and  C3_4 
REMARK       I    between atoms: C3_4  and  N1_6 
REMARK    3  A    between atoms: N1_6  and  C4_8 
REMARK    4  A    between atoms: C7_11  and  C8_12 
REMARK    5  A    between atoms: C9_13  and  C10_14 
REMARK    6  A    between atoms: C14_18  and  C15_19 
REMARK       I    between atoms: C15_19  and  N2_21 
REMARK    7  A    between atoms: C20_29  and  C21_30 
ROOT
HETATM    1  C10 UNL     1       2.832 -12.795 -24.269  1.00  0.00     0.019 A 
HETATM    2  C11 UNL     1       2.283 -14.052 -24.105  1.00  0.00     0.020 A 
HETATM    3  C12 UNL     1       0.909 -14.251 -24.012  1.00  0.00     0.002 A 
HETATM    4  C13 UNL     1       0.120 -13.129 -24.090  1.00  0.00     0.017 A 
HETATM    5  C14 UNL     1       0.672 -11.853 -24.256  1.00  0.00     0.033 A 
HETATM    6  C22 UNL     1       2.023 -11.700 -24.344  1.00  0.00     0.037 A 
ENDROOT
BRANCH   1   7
HETATM    7  C9  UNL     1       4.269 -12.608 -24.365  1.00  0.00    -0.061 C 
HETATM    8  C8  UNL     1       5.462 -12.459 -24.460  1.00  0.00    -0.060 C 
BRANCH   8   9
HETATM    9  C7  UNL     1       6.894 -12.295 -24.597  1.00  0.00     0.033 A 
HETATM   10  C6  UNL     1       7.525 -11.218 -24.010  1.00  0.00     0.026 A 
HETATM   11  C5  UNL     1       8.896 -11.102 -24.167  1.00  0.00     0.050 A 
HETATM   12  C4  UNL     1       9.638 -12.006 -24.875  1.00  0.00     0.109 A 
HETATM   13  N5  UNL     1       9.011 -13.051 -25.442  1.00  0.00    -0.351 N 
HETATM   14  C23 UNL     1       7.680 -13.178 -25.298  1.00  0.00     0.110 A 
ATOM     15  H5  UNL     1       9.539 -13.741 -25.975  1.00  0.00     0.166 HD
BRANCH  12  16
HETATM   16  N1  UNL     1      10.901 -11.894 -25.017  1.00  0.00    -0.288 N 
HETATM   17  C3  UNL     1      11.788 -12.950 -25.267  1.00  0.00     0.366 C 
HETATM   18  O2  UNL     1      12.704 -13.183 -24.407  1.00  0.00    -0.238 OA
ATOM     19  H1  UNL     1      11.299 -10.958 -24.942  1.00  0.00     0.172 HD
BRANCH  17  20
HETATM   20  O1  UNL     1      11.760 -13.774 -26.375  1.00  0.00    -0.304 OA
BRANCH  20  21
HETATM   21  C2  UNL     1      12.479 -13.543 -27.551  1.00  0.00     0.176 C 
HETATM   22  C1  UNL     1      13.967 -13.501 -27.306  1.00  0.00     0.034 C 
ENDBRANCH  20  21
ENDBRANCH  17  20
ENDBRANCH  12  16
ENDBRANCH   8   9
ENDBRANCH   1   7
BRANCH   5  23
HETATM   23  C15 UNL     1      -0.222 -10.724 -24.331  1.00  0.00     0.256 C 
HETATM   24  O3  UNL     1      -1.458 -10.918 -24.246  1.00  0.00    -0.267 OA
HETATM   25  N2  UNL     1       0.274  -9.386 -24.500  1.00  0.00    -0.322 N 
HETATM   26  C16 UNL     1       0.438  -8.867 -25.665  1.00  0.00     0.053 A 
ATOM     27  H2  UNL     1       0.502  -8.833 -23.674  1.00  0.00     0.169 HD
HETATM   28  C17 UNL     1       0.146  -9.568 -26.835  1.00  0.00     0.047 A 
HETATM   29  C20 UNL     1       0.916  -7.581 -25.757  1.00  0.00     0.071 A 
HETATM   30  C18 UNL     1       0.331  -8.987 -28.069  1.00  0.00     0.090 A 
HETATM   31  N3  UNL     1       0.794  -7.744 -28.141  1.00  0.00    -0.374 N 
HETATM   32  C19 UNL     1       1.077  -7.064 -27.030  1.00  0.00     0.106 A 
ATOM     33  H3  UNL     1       0.934  -7.306 -29.052  1.00  0.00     0.164 HD
BRANCH  29  34
HETATM   34  C21 UNL     1       1.232  -6.819 -24.579  1.00  0.00     0.268 C 
HETATM   35  N4  UNL     1       1.828  -7.456 -23.459  1.00  0.00    -0.057 NA
HETATM   36  O4  UNL     1       0.991  -5.596 -24.516  1.00  0.00    -0.271 OA
ENDBRANCH  29  34
ENDBRANCH   5  23
TORSDOF 7
ENDMDL
