MODEL 1
REMARK VINA RESULT: -8.692401477      0.000      0.000
REMARK  7 active torsions:
REMARK  status: ('A' for Active; 'I' for Inactive)
REMARK    1  A    between atoms: N1_1  and  S1_4 
REMARK    2  A    between atoms: S1_4  and  C1_7 
REMARK    3  A    between atoms: C6_12  and  C7_13 
REMARK       I    between atoms: C7_13  and  N2_15 
REMARK    4  A    between atoms: N2_15  and  C8_17 
REMARK    5  A    between atoms: C11_20  and  C12_21 
REMARK    6  A    between atoms: C14_23  and  C15_24 
REMARK    7  A    between atoms: C22_31  and  O4_32 
ROOT
HETATM    1  C8  UNL     1       3.369  -9.974 -24.747  1.00  0.00     0.107 A 
HETATM    2  C9  UNL     1       2.631 -11.090 -24.406  1.00  0.00     0.049 A 
HETATM    3  C10 UNL     1       3.249 -12.313 -24.249  1.00  0.00     0.013 A 
HETATM    4  C11 UNL     1       4.608 -12.452 -24.427  1.00  0.00    -0.032 A 
HETATM    5  C23 UNL     1       5.303 -11.311 -24.766  1.00  0.00     0.097 A 
HETATM    6  N3  UNL     1       4.706 -10.109 -24.922  1.00  0.00    -0.352 N 
ATOM      7  H3  UNL     1       5.268  -9.296 -25.174  1.00  0.00     0.166 HD
ENDROOT
BRANCH   1   8
HETATM    8  N2  UNL     1       2.774  -8.827 -24.891  1.00  0.00    -0.309 N 
HETATM    9  C7  UNL     1       2.889  -7.842 -23.844  1.00  0.00     0.258 C 
HETATM   10  O3  UNL     1       2.037  -7.871 -22.983  1.00  0.00    -0.267 OA
ATOM     11  H2  UNL     1       2.234  -8.627 -25.733  1.00  0.00     0.170 HD
BRANCH   9  12
HETATM   12  C6  UNL     1       4.000  -6.886 -23.877  1.00  0.00     0.055 A 
HETATM   13  C1  UNL     1       5.050  -6.927 -23.005  1.00  0.00     0.095 A 
HETATM   14  C2  UNL     1       6.051  -5.978 -23.116  1.00  0.00     0.026 A 
HETATM   15  C3  UNL     1       6.057  -4.980 -24.062  1.00  0.00     0.002 A 
HETATM   16  C4  UNL     1       4.976  -4.972 -24.928  1.00  0.00     0.001 A 
HETATM   17  C5  UNL     1       3.980  -5.884 -24.849  1.00  0.00     0.018 A 
BRANCH  13  18
HETATM   18  S1  UNL     1       5.192  -8.123 -21.755  1.00  0.00     0.257 S 
HETATM   19  O1  UNL     1       4.666  -7.583 -20.468  1.00  0.00    -0.201 OA
HETATM   20  O2  UNL     1       4.542  -9.409 -22.087  1.00  0.00    -0.201 OA
BRANCH  18  21
HETATM   21  N1  UNL     1       6.909  -8.449 -21.508  1.00  0.00    -0.324 N 
ATOM     22  H12 UNL     1       7.342  -8.740 -20.631  1.00  0.00     0.169 HD
ATOM     23  H11 UNL     1       7.371  -8.290 -22.403  1.00  0.00     0.169 HD
ENDBRANCH  18  21
ENDBRANCH  13  18
ENDBRANCH   9  12
ENDBRANCH   1   8
BRANCH   4  24
HETATM   24  C12 UNL     1       5.301 -13.730 -24.259  1.00  0.00     0.078 C 
HETATM   25  C13 UNL     1       6.675 -13.832 -24.841  1.00  0.00    -0.066 C 
HETATM   26  C14 UNL     1       7.698 -13.026 -25.017  1.00  0.00     0.015 C 
HETATM   27  C21 UNL     1       6.359 -15.252 -25.095  1.00  0.00     0.067 C 
HETATM   28  C22 UNL     1       4.901 -14.800 -25.284  1.00  0.00     0.134 C 
BRANCH  26  29
HETATM   29  C15 UNL     1       8.948 -13.414 -25.636  1.00  0.00    -0.036 A 
HETATM   30  C16 UNL     1       9.456 -12.600 -26.661  1.00  0.00     0.011 A 
HETATM   31  C17 UNL     1      10.642 -12.946 -27.294  1.00  0.00     0.001 A 
HETATM   32  C18 UNL     1      11.342 -14.075 -26.944  1.00  0.00     0.000 A 
HETATM   33  C19 UNL     1      10.868 -14.890 -25.944  1.00  0.00     0.001 A 
HETATM   34  C20 UNL     1       9.675 -14.530 -25.317  1.00  0.00     0.011 A 
ENDBRANCH  26  29
BRANCH  28  35
HETATM   35  O4  UNL     1       4.742 -14.352 -26.573  1.00  0.00    -0.394 OA
ATOM     36  H4  UNL     1       4.080 -14.803 -27.083  1.00  0.00     0.210 HD
ENDBRANCH  28  35
ENDBRANCH   4  24
TORSDOF 7
ENDMDL
MODEL 2
REMARK VINA RESULT: -8.690458630      2.910      4.761
REMARK  7 active torsions:
REMARK  status: ('A' for Active; 'I' for Inactive)
REMARK    1  A    between atoms: N1_1  and  S1_4 
REMARK    2  A    between atoms: S1_4  and  C1_7 
REMARK    3  A    between atoms: C6_12  and  C7_13 
REMARK       I    between atoms: C7_13  and  N2_15 
REMARK    4  A    between atoms: N2_15  and  C8_17 
REMARK    5  A    between atoms: C11_20  and  C12_21 
REMARK    6  A    between atoms: C14_23  and  C15_24 
REMARK    7  A    between atoms: C22_31  and  O4_32 
ROOT
HETATM    1  C8  UNL     1       4.819  -5.937 -23.983  1.00  0.00     0.107 A 
HETATM    2  C9  UNL     1       6.177  -5.704 -23.887  1.00  0.00     0.049 A 
HETATM    3  C10 UNL     1       7.053  -6.754 -23.709  1.00  0.00     0.013 A 
HETATM    4  C11 UNL     1       6.601  -8.052 -23.623  1.00  0.00    -0.032 A 
HETATM    5  C23 UNL     1       5.238  -8.236 -23.725  1.00  0.00     0.097 A 
HETATM    6  N3  UNL     1       4.373  -7.214 -23.899  1.00  0.00    -0.352 N 
ATOM      7  H3  UNL     1       3.373  -7.405 -23.968  1.00  0.00     0.166 HD
ENDROOT
BRANCH   1   8
HETATM    8  N2  UNL     1       4.004  -4.938 -24.151  1.00  0.00    -0.309 N 
HETATM    9  C7  UNL     1       3.086  -4.598 -23.092  1.00  0.00     0.258 C 
HETATM   10  O3  UNL     1       2.002  -5.139 -23.127  1.00  0.00    -0.267 OA
ATOM     11  H2  UNL     1       4.014  -4.402 -25.019  1.00  0.00     0.170 HD
BRANCH   9  12
HETATM   12  C6  UNL     1       3.502  -3.645 -22.060  1.00  0.00     0.055 A 
HETATM   13  C1  UNL     1       3.671  -3.985 -20.749  1.00  0.00     0.095 A 
HETATM   14  C2  UNL     1       4.067  -3.013 -19.848  1.00  0.00     0.026 A 
HETATM   15  C3  UNL     1       4.304  -1.702 -20.193  1.00  0.00     0.002 A 
HETATM   16  C4  UNL     1       4.122  -1.395 -21.532  1.00  0.00     0.001 A 
HETATM   17  C5  UNL     1       3.737  -2.322 -22.439  1.00  0.00     0.018 A 
BRANCH  13  18
HETATM   18  S1  UNL     1       3.415  -5.596 -20.152  1.00  0.00     0.257 S 
HETATM   19  O1  UNL     1       1.969  -5.950 -20.241  1.00  0.00    -0.201 OA
HETATM   20  O2  UNL     1       4.245  -6.618 -20.824  1.00  0.00    -0.201 OA
BRANCH  18  21
HETATM   21  N1  UNL     1       3.840  -5.614 -18.439  1.00  0.00    -0.324 N 
ATOM     22  H12 UNL     1       4.707  -5.979 -18.042  1.00  0.00     0.169 HD
ATOM     23  H11 UNL     1       3.058  -5.194 -17.937  1.00  0.00     0.169 HD
ENDBRANCH  18  21
ENDBRANCH  13  18
ENDBRANCH   9  12
ENDBRANCH   1   8
BRANCH   4  24
HETATM   24  C12 UNL     1       7.500  -9.194 -23.445  1.00  0.00     0.078 C 
HETATM   25  C13 UNL     1       6.951 -10.542 -23.786  1.00  0.00    -0.066 C 
HETATM   26  C14 UNL     1       6.111 -11.034 -24.669  1.00  0.00     0.015 C 
HETATM   27  C21 UNL     1       7.806 -11.060 -22.698  1.00  0.00     0.067 C 
HETATM   28  C22 UNL     1       7.582  -9.708 -22.002  1.00  0.00     0.134 C 
BRANCH  26  29
HETATM   29  C15 UNL     1       5.753 -12.434 -24.767  1.00  0.00    -0.036 A 
HETATM   30  C16 UNL     1       6.779 -13.361 -25.005  1.00  0.00     0.011 A 
HETATM   31  C17 UNL     1       6.477 -14.710 -25.125  1.00  0.00     0.001 A 
HETATM   32  C18 UNL     1       5.187 -15.172 -25.017  1.00  0.00     0.000 A 
HETATM   33  C19 UNL     1       4.163 -14.286 -24.784  1.00  0.00     0.001 A 
HETATM   34  C20 UNL     1       4.481 -12.933 -24.665  1.00  0.00     0.011 A 
ENDBRANCH  26  29
BRANCH  28  35
HETATM   35  O4  UNL     1       6.388  -9.754 -21.323  1.00  0.00    -0.394 OA
ATOM     36  H4  UNL     1       5.960 -10.602 -21.307  1.00  0.00     0.210 HD
ENDBRANCH  28  35
ENDBRANCH   4  24
TORSDOF 7
ENDMDL
MODEL 3
REMARK VINA RESULT: -8.631767567      3.604      5.363
REMARK  7 active torsions:
REMARK  status: ('A' for Active; 'I' for Inactive)
REMARK    1  A    between atoms: N1_1  and  S1_4 
REMARK    2  A    between atoms: S1_4  and  C1_7 
REMARK    3  A    between atoms: C6_12  and  C7_13 
REMARK       I    between atoms: C7_13  and  N2_15 
REMARK    4  A    between atoms: N2_15  and  C8_17 
REMARK    5  A    between atoms: C11_20  and  C12_21 
REMARK    6  A    between atoms: C14_23  and  C15_24 
REMARK    7  A    between atoms: C22_31  and  O4_32 
ROOT
HETATM    1  C8  UNL     1       4.997  -6.046 -23.748  1.00  0.00     0.107 A 
HETATM    2  C9  UNL     1       6.363  -5.846 -23.718  1.00  0.00     0.049 A 
HETATM    3  C10 UNL     1       7.224  -6.922 -23.701  1.00  0.00     0.013 A 
HETATM    4  C11 UNL     1       6.749  -8.215 -23.715  1.00  0.00    -0.032 A 
HETATM    5  C23 UNL     1       5.379  -8.366 -23.744  1.00  0.00     0.097 A 
HETATM    6  N3  UNL     1       4.528  -7.317 -23.761  1.00  0.00    -0.352 N 
ATOM      7  H3  UNL     1       3.522  -7.483 -23.783  1.00  0.00     0.166 HD
ENDROOT
BRANCH   1   8
HETATM    8  N2  UNL     1       4.196  -5.021 -23.764  1.00  0.00    -0.309 N 
HETATM    9  C7  UNL     1       3.052  -5.014 -22.885  1.00  0.00     0.258 C 
HETATM   10  O3  UNL     1       2.028  -5.481 -23.333  1.00  0.00    -0.267 OA
ATOM     11  H2  UNL     1       4.374  -4.235 -24.388  1.00  0.00     0.170 HD
BRANCH   9  12
HETATM   12  C6  UNL     1       3.187  -4.459 -21.535  1.00  0.00     0.055 A 
HETATM   13  C1  UNL     1       3.142  -3.121 -21.268  1.00  0.00     0.095 A 
HETATM   14  C2  UNL     1       3.281  -2.693 -19.960  1.00  0.00     0.026 A 
HETATM   15  C3  UNL     1       3.464  -3.542 -18.893  1.00  0.00     0.002 A 
HETATM   16  C4  UNL     1       3.503  -4.891 -19.204  1.00  0.00     0.001 A 
HETATM   17  C5  UNL     1       3.371  -5.344 -20.472  1.00  0.00     0.018 A 
BRANCH  13  18
HETATM   18  S1  UNL     1       2.916  -1.919 -22.501  1.00  0.00     0.257 S 
HETATM   19  O1  UNL     1       2.774  -0.570 -21.881  1.00  0.00    -0.201 OA
HETATM   20  O2  UNL     1       3.981  -1.914 -23.527  1.00  0.00    -0.201 OA
BRANCH  18  21
HETATM   21  N1  UNL     1       1.393  -2.265 -23.323  1.00  0.00    -0.324 N 
ATOM     22  H12 UNL     1       0.598  -2.764 -22.923  1.00  0.00     0.169 HD
ATOM     23  H11 UNL     1       1.468  -1.872 -24.261  1.00  0.00     0.169 HD
ENDBRANCH  18  21
ENDBRANCH  13  18
ENDBRANCH   9  12
ENDBRANCH   1   8
BRANCH   4  24
HETATM   24  C12 UNL     1       7.631  -9.384 -23.709  1.00  0.00     0.078 C 
HETATM   25  C13 UNL     1       7.001 -10.704 -24.019  1.00  0.00    -0.066 C 
HETATM   26  C14 UNL     1       6.031 -11.140 -24.791  1.00  0.00     0.015 C 
HETATM   27  C21 UNL     1       7.985 -11.286 -23.083  1.00  0.00     0.067 C 
HETATM   28  C22 UNL     1       7.900  -9.958 -22.312  1.00  0.00     0.134 C 
BRANCH  26  29
HETATM   29  C15 UNL     1       5.623 -12.526 -24.890  1.00  0.00    -0.036 A 
HETATM   30  C16 UNL     1       6.589 -13.471 -25.268  1.00  0.00     0.011 A 
HETATM   31  C17 UNL     1       6.235 -14.807 -25.393  1.00  0.00     0.001 A 
HETATM   32  C18 UNL     1       4.952 -15.238 -25.156  1.00  0.00     0.000 A 
HETATM   33  C19 UNL     1       3.986 -14.334 -24.785  1.00  0.00     0.001 A 
HETATM   34  C20 UNL     1       4.355 -12.994 -24.662  1.00  0.00     0.011 A 
ENDBRANCH  26  29
BRANCH  28  35
HETATM   35  O4  UNL     1       6.813 -10.005 -21.473  1.00  0.00    -0.394 OA
ATOM     36  H4  UNL     1       6.784  -9.330 -20.804  1.00  0.00     0.210 HD
ENDBRANCH  28  35
ENDBRANCH   4  24
TORSDOF 7
ENDMDL
MODEL 4
REMARK VINA RESULT: -8.605999995      2.243      3.412
REMARK  7 active torsions:
REMARK  status: ('A' for Active; 'I' for Inactive)
REMARK    1  A    between atoms: N1_1  and  S1_4 
REMARK    2  A    between atoms: S1_4  and  C1_7 
REMARK    3  A    between atoms: C6_12  and  C7_13 
REMARK       I    between atoms: C7_13  and  N2_15 
REMARK    4  A    between atoms: N2_15  and  C8_17 
REMARK    5  A    between atoms: C11_20  and  C12_21 
REMARK    6  A    between atoms: C14_23  and  C15_24 
REMARK    7  A    between atoms: C22_31  and  O4_32 
ROOT
HETATM    1  C8  UNL     1       6.867 -10.034 -23.233  1.00  0.00     0.107 A 
HETATM    2  C9  UNL     1       5.983 -11.082 -23.398  1.00  0.00     0.049 A 
HETATM    3  C10 UNL     1       6.385 -12.241 -24.026  1.00  0.00     0.013 A 
HETATM    4  C11 UNL     1       7.670 -12.385 -24.501  1.00  0.00    -0.032 A 
HETATM    5  C23 UNL     1       8.518 -11.313 -24.314  1.00  0.00     0.097 A 
HETATM    6  N3  UNL     1       8.131 -10.174 -23.700  1.00  0.00    -0.352 N 
ATOM      7  H3  UNL     1       8.799  -9.411 -23.587  1.00  0.00     0.166 HD
ENDROOT
BRANCH   1   8
HETATM    8  N2  UNL     1       6.474  -8.947 -22.639  1.00  0.00    -0.309 N 
HETATM    9  C7  UNL     1       5.980  -7.852 -23.438  1.00  0.00     0.258 C 
HETATM   10  O3  UNL     1       6.801  -7.038 -23.799  1.00  0.00    -0.267 OA
ATOM     11  H2  UNL     1       6.515  -8.868 -21.622  1.00  0.00     0.170 HD
BRANCH   9  12
HETATM   12  C6  UNL     1       4.552  -7.787 -23.760  1.00  0.00     0.055 A 
HETATM   13  C1  UNL     1       3.633  -7.160 -22.970  1.00  0.00     0.095 A 
HETATM   14  C2  UNL     1       2.305  -7.153 -23.359  1.00  0.00     0.026 A 
HETATM   15  C3  UNL     1       1.843  -7.748 -24.510  1.00  0.00     0.002 A 
HETATM   16  C4  UNL     1       2.805  -8.374 -25.286  1.00  0.00     0.001 A 
HETATM   17  C5  UNL     1       4.112  -8.400 -24.935  1.00  0.00     0.018 A 
BRANCH  13  18
HETATM   18  S1  UNL     1       4.053  -6.360 -21.487  1.00  0.00     0.257 S 
HETATM   19  O1  UNL     1       2.857  -5.675 -20.918  1.00  0.00    -0.201 OA
HETATM   20  O2  UNL     1       4.669  -7.255 -20.484  1.00  0.00    -0.201 OA
BRANCH  18  21
HETATM   21  N1  UNL     1       5.231  -5.100 -21.864  1.00  0.00    -0.324 N 
ATOM     22  H12 UNL     1       6.123  -5.239 -22.340  1.00  0.00     0.169 HD
ATOM     23  H11 UNL     1       4.845  -4.223 -21.516  1.00  0.00     0.169 HD
ENDBRANCH  18  21
ENDBRANCH  13  18
ENDBRANCH   9  12
ENDBRANCH   1   8
BRANCH   4  24
HETATM   24  C12 UNL     1       8.138 -13.604 -25.164  1.00  0.00     0.078 C 
HETATM   25  C13 UNL     1       9.563 -13.617 -25.619  1.00  0.00    -0.066 C 
HETATM   26  C14 UNL     1      10.704 -13.121 -25.196  1.00  0.00     0.015 C 
HETATM   27  C21 UNL     1       9.098 -14.463 -26.738  1.00  0.00     0.067 C 
HETATM   28  C22 UNL     1       7.772 -13.689 -26.651  1.00  0.00     0.134 C 
BRANCH  26  29
HETATM   29  C15 UNL     1      11.974 -13.301 -25.868  1.00  0.00    -0.036 A 
HETATM   30  C16 UNL     1      13.135 -13.336 -25.082  1.00  0.00     0.011 A 
HETATM   31  C17 UNL     1      14.375 -13.487 -25.688  1.00  0.00     0.001 A 
HETATM   32  C18 UNL     1      14.501 -13.605 -27.051  1.00  0.00     0.000 A 
HETATM   33  C19 UNL     1      13.380 -13.573 -27.845  1.00  0.00     0.001 A 
HETATM   34  C20 UNL     1      12.141 -13.421 -27.223  1.00  0.00     0.011 A 
ENDBRANCH  26  29
BRANCH  28  35
HETATM   35  O4  UNL     1       7.898 -12.517 -27.359  1.00  0.00    -0.394 OA
ATOM     36  H4  UNL     1       7.896 -11.723 -26.837  1.00  0.00     0.210 HD
ENDBRANCH  28  35
ENDBRANCH   4  24
TORSDOF 7
ENDMDL
MODEL 5
REMARK VINA RESULT: -8.599236349      3.547      8.989
REMARK  7 active torsions:
REMARK  status: ('A' for Active; 'I' for Inactive)
REMARK    1  A    between atoms: N1_1  and  S1_4 
REMARK    2  A    between atoms: S1_4  and  C1_7 
REMARK    3  A    between atoms: C6_12  and  C7_13 
REMARK       I    between atoms: C7_13  and  N2_15 
REMARK    4  A    between atoms: N2_15  and  C8_17 
REMARK    5  A    between atoms: C11_20  and  C12_21 
REMARK    6  A    between atoms: C14_23  and  C15_24 
REMARK    7  A    between atoms: C22_31  and  O4_32 
ROOT
HETATM    1  C8  UNL     1       6.678  -9.387 -24.075  1.00  0.00     0.107 A 
HETATM    2  C9  UNL     1       7.068  -8.180 -23.529  1.00  0.00     0.049 A 
HETATM    3  C10 UNL     1       6.155  -7.158 -23.372  1.00  0.00     0.013 A 
HETATM    4  C11 UNL     1       4.840  -7.314 -23.752  1.00  0.00    -0.032 A 
HETATM    5  C23 UNL     1       4.497  -8.535 -24.293  1.00  0.00     0.097 A 
HETATM    6  N3  UNL     1       5.385  -9.541 -24.450  1.00  0.00    -0.352 N 
ATOM      7  H3  UNL     1       5.079 -10.425 -24.855  1.00  0.00     0.166 HD
ENDROOT
BRANCH   1   8
HETATM    8  N2  UNL     1       7.549 -10.341 -24.217  1.00  0.00    -0.309 N 
HETATM    9  C7  UNL     1       7.280 -11.628 -23.624  1.00  0.00     0.258 C 
HETATM   10  O3  UNL     1       7.684 -11.794 -22.494  1.00  0.00    -0.267 OA
ATOM     11  H2  UNL     1       8.411 -10.182 -24.740  1.00  0.00     0.170 HD
BRANCH   9  12
HETATM   12  C6  UNL     1       6.553 -12.638 -24.399  1.00  0.00     0.055 A 
HETATM   13  C1  UNL     1       7.139 -13.411 -25.359  1.00  0.00     0.095 A 
HETATM   14  C2  UNL     1       6.368 -14.337 -26.039  1.00  0.00     0.026 A 
HETATM   15  C3  UNL     1       5.026 -14.532 -25.806  1.00  0.00     0.002 A 
HETATM   16  C4  UNL     1       4.468 -13.730 -24.825  1.00  0.00     0.001 A 
HETATM   17  C5  UNL     1       5.193 -12.815 -24.141  1.00  0.00     0.018 A 
BRANCH  13  18
HETATM   18  S1  UNL     1       8.822 -13.289 -25.772  1.00  0.00     0.257 S 
HETATM   19  O1  UNL     1       9.478 -12.239 -24.940  1.00  0.00    -0.201 OA
HETATM   20  O2  UNL     1       9.553 -14.571 -25.668  1.00  0.00    -0.201 OA
BRANCH  18  21
HETATM   21  N1  UNL     1       8.932 -12.753 -27.450  1.00  0.00    -0.324 N 
ATOM     22  H12 UNL     1       8.232 -12.203 -27.949  1.00  0.00     0.169 HD
ATOM     23  H11 UNL     1       9.821 -13.100 -27.812  1.00  0.00     0.169 HD
ENDBRANCH  18  21
ENDBRANCH  13  18
ENDBRANCH   9  12
ENDBRANCH   1   8
BRANCH   4  24
HETATM   24  C12 UNL     1       3.839  -6.257 -23.592  1.00  0.00     0.078 C 
HETATM   25  C13 UNL     1       3.547  -5.814 -22.194  1.00  0.00    -0.066 C 
HETATM   26  C14 UNL     1       4.225  -5.674 -21.077  1.00  0.00     0.015 C 
HETATM   27  C21 UNL     1       2.164  -5.584 -22.658  1.00  0.00     0.067 C 
HETATM   28  C22 UNL     1       2.389  -6.758 -23.625  1.00  0.00     0.134 C 
BRANCH  26  29
HETATM   29  C15 UNL     1       3.658  -5.210 -19.828  1.00  0.00    -0.036 A 
HETATM   30  C16 UNL     1       3.561  -6.124 -18.768  1.00  0.00     0.011 A 
HETATM   31  C17 UNL     1       3.006  -5.725 -17.560  1.00  0.00     0.001 A 
HETATM   32  C18 UNL     1       2.542  -4.446 -17.368  1.00  0.00     0.000 A 
HETATM   33  C19 UNL     1       2.624  -3.530 -18.389  1.00  0.00     0.001 A 
HETATM   34  C20 UNL     1       3.184  -3.944 -19.598  1.00  0.00     0.011 A 
ENDBRANCH  26  29
BRANCH  28  35
HETATM   35  O4  UNL     1       2.155  -7.934 -22.954  1.00  0.00    -0.394 OA
ATOM     36  H4  UNL     1       1.345  -8.377 -23.178  1.00  0.00     0.210 HD
ENDBRANCH  28  35
ENDBRANCH   4  24
TORSDOF 7
ENDMDL
