MODEL 1
REMARK VINA RESULT: -9.021586567      0.000      0.000
REMARK  6 active torsions:
REMARK  status: ('A' for Active; 'I' for Inactive)
REMARK       I    between atoms: N1_2  and  C2_4 
REMARK    1  A    between atoms: C2_4  and  C3_6 
REMARK    2  A    between atoms: N2_10  and  C7_11 
REMARK    3  A    between atoms: C7_11  and  O2_12 
REMARK    4  A    between atoms: C7_11  and  N3_14 
REMARK    5  A    between atoms: C10_17  and  C11_18 
REMARK       I    between atoms: C11_18  and  N4_20 
REMARK    6  A    between atoms: N4_20  and  C12_22 
ROOT
HETATM    1  N3  UNL     1       4.831  -7.803 -21.168  1.00  0.00    -0.347 N 
HETATM    2  C8  UNL     1       4.596  -7.693 -22.577  1.00  0.00     0.127 C 
HETATM    3  C9  UNL     1       4.992  -9.091 -23.144  1.00  0.00     0.034 C 
HETATM    4  C10 UNL     1       6.505  -9.145 -22.966  1.00  0.00     0.081 C 
HETATM    5  C22 UNL     1       6.725  -9.371 -21.491  1.00  0.00     0.034 C 
HETATM    6  C23 UNL     1       5.582  -8.960 -20.643  1.00  0.00     0.127 C 
ENDROOT
BRANCH   1   7
HETATM    7  C7  UNL     1       4.384  -6.863 -20.239  1.00  0.00     0.217 C 
BRANCH   7   8
HETATM    8  N2  UNL     1       3.768  -5.627 -20.431  1.00  0.00    -0.347 N 
HETATM    9  C6  UNL     1       3.839  -4.853 -21.628  1.00  0.00     0.126 C 
HETATM   10  C5  UNL     1       3.373  -3.404 -21.328  1.00  0.00     0.021 C 
HETATM   11  C4  UNL     1       4.035  -3.012 -20.028  1.00  0.00     0.017 C 
HETATM   12  C3  UNL     1       3.329  -3.722 -18.903  1.00  0.00     0.096 C 
HETATM   13  C24 UNL     1       2.979  -5.105 -19.293  1.00  0.00     0.140 C 
BRANCH  12  14
HETATM   14  C2  UNL     1       2.048  -2.963 -18.650  1.00  0.00     0.223 C 
HETATM   15  N1  UNL     1       0.863  -3.652 -18.350  1.00  0.00    -0.365 N 
HETATM   16  C1  UNL     1      -0.361  -2.920 -18.109  1.00  0.00     0.149 C 
ATOM     17  H1  UNL     1       0.865  -4.672 -18.301  1.00  0.00     0.161 HD
HETATM   18  O1  UNL     1       2.032  -1.705 -18.709  1.00  0.00    -0.273 OA
ENDBRANCH  12  14
ENDBRANCH   7   8
BRANCH   7  19
HETATM   19  O2  UNL     1       4.595  -7.234 -18.991  1.00  0.00    -0.333 OA
ATOM     20  H2  UNL     1       5.425  -6.982 -18.604  1.00  0.00     0.220 HD
ENDBRANCH   7  19
ENDBRANCH   1   7
BRANCH   4  21
HETATM   21  C11 UNL     1       6.974 -10.327 -23.730  1.00  0.00     0.222 C 
HETATM   22  O3  UNL     1       8.212 -10.375 -23.968  1.00  0.00    -0.273 OA
HETATM   23  N4  UNL     1       6.067 -11.332 -24.157  1.00  0.00    -0.351 N 
ATOM     24  H4  UNL     1       5.081 -11.219 -23.923  1.00  0.00     0.163 HD
BRANCH  23  25
HETATM   25  C12 UNL     1       6.452 -12.490 -24.894  1.00  0.00     0.034 C 
HETATM   26  C13 UNL     1       7.466 -12.199 -25.979  1.00  0.00     0.035 C 
HETATM   27  C14 UNL     1       7.806 -13.500 -26.669  1.00  0.00    -0.012 C 
HETATM   28  C15 UNL     1       6.560 -14.071 -27.289  1.00  0.00     0.009 C 
HETATM   29  C19 UNL     1       8.475 -14.476 -25.728  1.00  0.00     0.009 C 
HETATM   30  C16 UNL     1       5.623 -14.448 -26.168  1.00  0.00    -0.012 C 
HETATM   31  C17 UNL     1       6.241 -15.394 -25.189  1.00  0.00     0.009 C 
HETATM   32  C21 UNL     1       5.219 -13.165 -25.472  1.00  0.00     0.035 C 
HETATM   33  C18 UNL     1       7.493 -14.767 -24.617  1.00  0.00    -0.012 C 
HETATM   34  C20 UNL     1       7.120 -13.485 -23.961  1.00  0.00     0.035 C 
ENDBRANCH  23  25
ENDBRANCH   4  21
TORSDOF 6
ENDMDL
MODEL 2
REMARK VINA RESULT: -8.992643378      1.502      2.367
REMARK  6 active torsions:
REMARK  status: ('A' for Active; 'I' for Inactive)
REMARK       I    between atoms: N1_2  and  C2_4 
REMARK    1  A    between atoms: C2_4  and  C3_6 
REMARK    2  A    between atoms: N2_10  and  C7_11 
REMARK    3  A    between atoms: C7_11  and  O2_12 
REMARK    4  A    between atoms: C7_11  and  N3_14 
REMARK    5  A    between atoms: C10_17  and  C11_18 
REMARK       I    between atoms: C11_18  and  N4_20 
REMARK    6  A    between atoms: N4_20  and  C12_22 
ROOT
HETATM    1  N3  UNL     1       4.472  -7.310 -21.644  1.00  0.00    -0.347 N 
HETATM    2  C8  UNL     1       3.807  -7.512 -22.897  1.00  0.00     0.127 C 
HETATM    3  C9  UNL     1       3.862  -9.055 -23.117  1.00  0.00     0.034 C 
HETATM    4  C10 UNL     1       5.338  -9.340 -23.366  1.00  0.00     0.081 C 
HETATM    5  C22 UNL     1       6.000  -9.228 -22.014  1.00  0.00     0.034 C 
HETATM    6  C23 UNL     1       5.237  -8.417 -21.037  1.00  0.00     0.127 C 
ENDROOT
BRANCH   1   7
HETATM    7  C7  UNL     1       4.442  -6.103 -20.945  1.00  0.00     0.217 C 
BRANCH   7   8
HETATM    8  N2  UNL     1       3.936  -5.805 -19.681  1.00  0.00    -0.347 N 
HETATM    9  C6  UNL     1       3.933  -6.697 -18.568  1.00  0.00     0.126 C 
HETATM   10  C5  UNL     1       2.957  -6.163 -17.487  1.00  0.00     0.021 C 
HETATM   11  C4  UNL     1       1.712  -5.729 -18.224  1.00  0.00     0.017 C 
HETATM   12  C3  UNL     1       2.008  -4.433 -18.932  1.00  0.00     0.096 C 
HETATM   13  C24 UNL     1       3.372  -4.448 -19.506  1.00  0.00     0.140 C 
BRANCH  12  14
HETATM   14  C2  UNL     1       1.946  -3.346 -17.886  1.00  0.00     0.223 C 
HETATM   15  N1  UNL     1       3.042  -2.492 -17.684  1.00  0.00    -0.365 N 
HETATM   16  C1  UNL     1       2.977  -1.453 -16.680  1.00  0.00     0.149 C 
ATOM     17  H1  UNL     1       3.886  -2.606 -18.247  1.00  0.00     0.161 HD
HETATM   18  O1  UNL     1       0.912  -3.197 -17.184  1.00  0.00    -0.273 OA
ENDBRANCH  12  14
ENDBRANCH   7   8
BRANCH   7  19
HETATM   19  O2  UNL     1       4.985  -5.107 -21.618  1.00  0.00    -0.333 OA
ATOM     20  H2  UNL     1       5.932  -5.111 -21.699  1.00  0.00     0.220 HD
ENDBRANCH   7  19
ENDBRANCH   1   7
BRANCH   4  21
HETATM   21  C11 UNL     1       5.420 -10.741 -23.850  1.00  0.00     0.222 C 
HETATM   22  O3  UNL     1       4.440 -11.482 -23.563  1.00  0.00    -0.273 OA
HETATM   23  N4  UNL     1       6.543 -11.197 -24.589  1.00  0.00    -0.351 N 
ATOM     24  H4  UNL     1       7.293 -10.533 -24.779  1.00  0.00     0.163 HD
BRANCH  23  25
HETATM   25  C12 UNL     1       6.685 -12.527 -25.080  1.00  0.00     0.034 C 
HETATM   26  C13 UNL     1       5.406 -13.089 -25.661  1.00  0.00     0.035 C 
HETATM   27  C14 UNL     1       5.690 -14.487 -26.164  1.00  0.00    -0.012 C 
HETATM   28  C15 UNL     1       6.136 -15.345 -25.012  1.00  0.00     0.009 C 
HETATM   29  C19 UNL     1       6.692 -14.482 -27.296  1.00  0.00     0.009 C 
HETATM   30  C16 UNL     1       7.467 -14.815 -24.536  1.00  0.00    -0.012 C 
HETATM   31  C17 UNL     1       8.492 -14.764 -25.622  1.00  0.00     0.009 C 
HETATM   32  C21 UNL     1       7.222 -13.428 -23.981  1.00  0.00     0.035 C 
HETATM   33  C18 UNL     1       7.976 -13.901 -26.751  1.00  0.00    -0.012 C 
HETATM   34  C20 UNL     1       7.695 -12.542 -26.215  1.00  0.00     0.035 C 
ENDBRANCH  23  25
ENDBRANCH   4  21
TORSDOF 6
ENDMDL
MODEL 3
REMARK VINA RESULT: -8.980367905      2.184      3.434
REMARK  6 active torsions:
REMARK  status: ('A' for Active; 'I' for Inactive)
REMARK       I    between atoms: N1_2  and  C2_4 
REMARK    1  A    between atoms: C2_4  and  C3_6 
REMARK    2  A    between atoms: N2_10  and  C7_11 
REMARK    3  A    between atoms: C7_11  and  O2_12 
REMARK    4  A    between atoms: C7_11  and  N3_14 
REMARK    5  A    between atoms: C10_17  and  C11_18 
REMARK       I    between atoms: C11_18  and  N4_20 
REMARK    6  A    between atoms: N4_20  and  C12_22 
ROOT
HETATM    1  N3  UNL     1       4.164  -7.384 -22.382  1.00  0.00    -0.347 N 
HETATM    2  C8  UNL     1       3.948  -7.760 -23.747  1.00  0.00     0.127 C 
HETATM    3  C9  UNL     1       4.464  -9.229 -23.828  1.00  0.00     0.034 C 
HETATM    4  C10 UNL     1       5.973  -9.100 -23.653  1.00  0.00     0.081 C 
HETATM    5  C22 UNL     1       6.182  -8.812 -22.187  1.00  0.00     0.034 C 
HETATM    6  C23 UNL     1       4.993  -8.240 -21.512  1.00  0.00     0.127 C 
ENDROOT
BRANCH   1   7
HETATM    7  C7  UNL     1       3.626  -6.231 -21.809  1.00  0.00     0.217 C 
BRANCH   7   8
HETATM    8  N2  UNL     1       4.247  -5.047 -21.410  1.00  0.00    -0.347 N 
HETATM    9  C6  UNL     1       3.749  -4.156 -20.414  1.00  0.00     0.126 C 
HETATM   10  C5  UNL     1       4.486  -2.796 -20.530  1.00  0.00     0.021 C 
HETATM   11  C4  UNL     1       4.538  -2.472 -22.005  1.00  0.00     0.017 C 
HETATM   12  C3  UNL     1       5.574  -3.355 -22.649  1.00  0.00     0.096 C 
HETATM   13  C24 UNL     1       5.525  -4.721 -22.082  1.00  0.00     0.140 C 
BRANCH  12  14
HETATM   14  C2  UNL     1       6.919  -2.754 -22.319  1.00  0.00     0.223 C 
HETATM   15  N1  UNL     1       7.940  -3.552 -21.779  1.00  0.00    -0.365 N 
HETATM   16  C1  UNL     1       9.226  -2.970 -21.465  1.00  0.00     0.149 C 
ATOM     17  H1  UNL     1       7.774  -4.544 -21.608  1.00  0.00     0.161 HD
HETATM   18  O1  UNL     1       7.136  -1.531 -22.523  1.00  0.00    -0.273 OA
ENDBRANCH  12  14
ENDBRANCH   7   8
BRANCH   7  19
HETATM   19  O2  UNL     1       2.322  -6.308 -21.629  1.00  0.00    -0.333 OA
ATOM     20  H2  UNL     1       1.774  -5.889 -22.282  1.00  0.00     0.220 HD
ENDBRANCH   7  19
ENDBRANCH   1   7
BRANCH   4  21
HETATM   21  C11 UNL     1       6.549 -10.425 -23.991  1.00  0.00     0.222 C 
HETATM   22  O3  UNL     1       7.711 -10.650 -23.555  1.00  0.00    -0.273 OA
HETATM   23  N4  UNL     1       5.818 -11.369 -24.760  1.00  0.00    -0.351 N 
ATOM     24  H4  UNL     1       4.883 -11.109 -25.074  1.00  0.00     0.163 HD
BRANCH  23  25
HETATM   25  C12 UNL     1       6.312 -12.656 -25.121  1.00  0.00     0.034 C 
HETATM   26  C13 UNL     1       6.949 -13.396 -23.965  1.00  0.00     0.035 C 
HETATM   27  C14 UNL     1       7.411 -14.746 -24.466  1.00  0.00    -0.012 C 
HETATM   28  C15 UNL     1       8.430 -14.546 -25.554  1.00  0.00     0.009 C 
HETATM   29  C19 UNL     1       6.251 -15.603 -24.919  1.00  0.00     0.009 C 
HETATM   30  C16 UNL     1       7.727 -13.906 -26.727  1.00  0.00    -0.012 C 
HETATM   31  C17 UNL     1       6.552 -14.699 -27.202  1.00  0.00     0.009 C 
HETATM   32  C21 UNL     1       7.283 -12.528 -26.282  1.00  0.00     0.035 C 
HETATM   33  C18 UNL     1       5.578 -14.875 -26.059  1.00  0.00    -0.012 C 
HETATM   34  C20 UNL     1       5.159 -13.529 -25.585  1.00  0.00     0.035 C 
ENDBRANCH  23  25
ENDBRANCH   4  21
TORSDOF 6
ENDMDL
MODEL 4
REMARK VINA RESULT: -8.944406435      1.288      2.219
REMARK  6 active torsions:
REMARK  status: ('A' for Active; 'I' for Inactive)
REMARK       I    between atoms: N1_2  and  C2_4 
REMARK    1  A    between atoms: C2_4  and  C3_6 
REMARK    2  A    between atoms: N2_10  and  C7_11 
REMARK    3  A    between atoms: C7_11  and  O2_12 
REMARK    4  A    between atoms: C7_11  and  N3_14 
REMARK    5  A    between atoms: C10_17  and  C11_18 
REMARK       I    between atoms: C11_18  and  N4_20 
REMARK    6  A    between atoms: N4_20  and  C12_22 
ROOT
HETATM    1  N3  UNL     1       4.689  -7.306 -21.951  1.00  0.00    -0.347 N 
HETATM    2  C8  UNL     1       4.702  -7.399 -23.380  1.00  0.00     0.127 C 
HETATM    3  C9  UNL     1       5.052  -8.892 -23.665  1.00  0.00     0.034 C 
HETATM    4  C10 UNL     1       6.502  -9.023 -23.216  1.00  0.00     0.081 C 
HETATM    5  C22 UNL     1       6.453  -9.032 -21.708  1.00  0.00     0.034 C 
HETATM    6  C23 UNL     1       5.229  -8.416 -21.143  1.00  0.00     0.127 C 
ENDROOT
BRANCH   1   7
HETATM    7  C7  UNL     1       4.186  -6.204 -21.258  1.00  0.00     0.217 C 
BRANCH   7   8
HETATM    8  N2  UNL     1       3.893  -6.046 -19.904  1.00  0.00    -0.347 N 
HETATM    9  C6  UNL     1       4.142  -7.021 -18.893  1.00  0.00     0.126 C 
HETATM   10  C5  UNL     1       3.340  -6.652 -17.617  1.00  0.00     0.021 C 
HETATM   11  C4  UNL     1       1.960  -6.258 -18.089  1.00  0.00     0.017 C 
HETATM   12  C3  UNL     1       2.045  -4.891 -18.716  1.00  0.00     0.096 C 
HETATM   13  C24 UNL     1       3.285  -4.755 -19.512  1.00  0.00     0.140 C 
BRANCH  12  14
HETATM   14  C2  UNL     1       2.102  -3.898 -17.580  1.00  0.00     0.223 C 
HETATM   15  N1  UNL     1       1.219  -4.012 -16.494  1.00  0.00    -0.365 N 
HETATM   16  C1  UNL     1       1.278  -3.058 -15.409  1.00  0.00     0.149 C 
ATOM     17  H1  UNL     1       0.535  -4.769 -16.471  1.00  0.00     0.161 HD
HETATM   18  O1  UNL     1       2.940  -2.958 -17.598  1.00  0.00    -0.273 OA
ENDBRANCH  12  14
ENDBRANCH   7   8
BRANCH   7  19
HETATM   19  O2  UNL     1       3.963  -5.165 -22.039  1.00  0.00    -0.333 OA
ATOM     20  H2  UNL     1       4.706  -4.605 -22.230  1.00  0.00     0.220 HD
ENDBRANCH   7  19
ENDBRANCH   1   7
BRANCH   4  21
HETATM   21  C11 UNL     1       6.977 -10.339 -23.710  1.00  0.00     0.222 C 
HETATM   22  O3  UNL     1       8.171 -10.634 -23.433  1.00  0.00    -0.273 OA
HETATM   23  N4  UNL     1       6.120 -11.198 -24.448  1.00  0.00    -0.351 N 
ATOM     24  H4  UNL     1       5.167 -10.884 -24.628  1.00  0.00     0.163 HD
BRANCH  23  25
HETATM   25  C12 UNL     1       6.513 -12.472 -24.952  1.00  0.00     0.034 C 
HETATM   26  C13 UNL     1       7.046 -13.399 -23.881  1.00  0.00     0.035 C 
HETATM   27  C14 UNL     1       7.406 -14.715 -24.534  1.00  0.00    -0.012 C 
HETATM   28  C15 UNL     1       8.472 -14.479 -25.568  1.00  0.00     0.009 C 
HETATM   29  C19 UNL     1       6.191 -15.405 -25.112  1.00  0.00     0.009 C 
HETATM   30  C16 UNL     1       7.865 -13.643 -26.668  1.00  0.00    -0.012 C 
HETATM   31  C17 UNL     1       6.643 -14.265 -27.261  1.00  0.00     0.009 C 
HETATM   32  C21 UNL     1       7.528 -12.293 -26.068  1.00  0.00     0.035 C 
HETATM   33  C18 UNL     1       5.620 -14.488 -26.170  1.00  0.00    -0.012 C 
HETATM   34  C20 UNL     1       5.304 -13.176 -25.544  1.00  0.00     0.035 C 
ENDBRANCH  23  25
ENDBRANCH   4  21
TORSDOF 6
ENDMDL
MODEL 5
REMARK VINA RESULT: -8.941782009      1.459      2.129
REMARK  6 active torsions:
REMARK  status: ('A' for Active; 'I' for Inactive)
REMARK       I    between atoms: N1_2  and  C2_4 
REMARK    1  A    between atoms: C2_4  and  C3_6 
REMARK    2  A    between atoms: N2_10  and  C7_11 
REMARK    3  A    between atoms: C7_11  and  O2_12 
REMARK    4  A    between atoms: C7_11  and  N3_14 
REMARK    5  A    between atoms: C10_17  and  C11_18 
REMARK       I    between atoms: C11_18  and  N4_20 
REMARK    6  A    between atoms: N4_20  and  C12_22 
ROOT
HETATM    1  N3  UNL     1       4.908  -7.343 -21.915  1.00  0.00    -0.347 N 
HETATM    2  C8  UNL     1       5.002  -7.360 -23.344  1.00  0.00     0.127 C 
HETATM    3  C9  UNL     1       5.283  -8.854 -23.693  1.00  0.00     0.034 C 
HETATM    4  C10 UNL     1       6.694  -9.095 -23.170  1.00  0.00     0.081 C 
HETATM    5  C22 UNL     1       6.553  -9.182 -21.670  1.00  0.00     0.034 C 
HETATM    6  C23 UNL     1       5.334  -8.526 -21.142  1.00  0.00     0.127 C 
ENDROOT
BRANCH   1   7
HETATM    7  C7  UNL     1       4.426  -6.252 -21.190  1.00  0.00     0.217 C 
BRANCH   7   8
HETATM    8  N2  UNL     1       4.460  -4.889 -21.482  1.00  0.00    -0.347 N 
HETATM    9  C6  UNL     1       5.599  -4.184 -21.972  1.00  0.00     0.126 C 
HETATM   10  C5  UNL     1       5.369  -2.660 -21.801  1.00  0.00     0.021 C 
HETATM   11  C4  UNL     1       4.793  -2.475 -20.417  1.00  0.00     0.017 C 
HETATM   12  C3  UNL     1       3.356  -2.928 -20.436  1.00  0.00     0.096 C 
HETATM   13  C24 UNL     1       3.200  -4.143 -21.265  1.00  0.00     0.140 C 
BRANCH  12  14
HETATM   14  C2  UNL     1       2.562  -1.814 -21.076  1.00  0.00     0.223 C 
HETATM   15  N1  UNL     1       1.838  -2.045 -22.256  1.00  0.00    -0.365 N 
HETATM   16  C1  UNL     1       1.079  -0.975 -22.863  1.00  0.00     0.149 C 
ATOM     17  H1  UNL     1       1.847  -2.971 -22.685  1.00  0.00     0.161 HD
HETATM   18  O1  UNL     1       2.544  -0.667 -20.557  1.00  0.00    -0.273 OA
ENDBRANCH  12  14
ENDBRANCH   7   8
BRANCH   7  19
HETATM   19  O2  UNL     1       3.857  -6.603 -20.053  1.00  0.00    -0.333 OA
ATOM     20  H2  UNL     1       3.539  -7.496 -19.990  1.00  0.00     0.220 HD
ENDBRANCH   7  19
ENDBRANCH   1   7
BRANCH   4  21
HETATM   21  C11 UNL     1       7.123 -10.409 -23.710  1.00  0.00     0.222 C 
HETATM   22  O3  UNL     1       8.335 -10.709 -23.535  1.00  0.00    -0.273 OA
HETATM   23  N4  UNL     1       6.206 -11.260 -24.381  1.00  0.00    -0.351 N 
ATOM     24  H4  UNL     1       5.242 -10.944 -24.480  1.00  0.00     0.163 HD
BRANCH  23  25
HETATM   25  C12 UNL     1       6.553 -12.532 -24.924  1.00  0.00     0.034 C 
HETATM   26  C13 UNL     1       7.102 -13.493 -23.892  1.00  0.00     0.035 C 
HETATM   27  C14 UNL     1       7.409 -14.802 -24.584  1.00  0.00    -0.012 C 
HETATM   28  C15 UNL     1       8.444 -14.567 -25.649  1.00  0.00     0.009 C 
HETATM   29  C19 UNL     1       6.160 -15.453 -25.133  1.00  0.00     0.009 C 
HETATM   30  C16 UNL     1       7.818 -13.695 -26.710  1.00  0.00    -0.012 C 
HETATM   31  C17 UNL     1       6.562 -14.278 -27.273  1.00  0.00     0.009 C 
HETATM   32  C21 UNL     1       7.532 -12.352 -26.072  1.00  0.00     0.035 C 
HETATM   33  C18 UNL     1       5.573 -14.502 -26.151  1.00  0.00    -0.012 C 
HETATM   34  C20 UNL     1       5.309 -13.197 -25.488  1.00  0.00     0.035 C 
ENDBRANCH  23  25
ENDBRANCH   4  21
TORSDOF 6
ENDMDL
