MODEL 1
REMARK VINA RESULT: -8.389502450      0.000      0.000
REMARK  3 active torsions:
REMARK  status: ('A' for Active; 'I' for Inactive)
REMARK    1  A    between atoms: N1_5  and  C5_6 
REMARK       I    between atoms: N2_9  and  C8_10 
REMARK    2  A    between atoms: C8_10  and  C9_12 
REMARK       I    between atoms: N3_15  and  C12_16 
REMARK       I    between atoms: C12_16  and  N4_18 
REMARK    3  A    between atoms: N4_18  and  C13_20 
ROOT
HETATM    1  C9  UNL     1       5.554  -7.298 -23.456  1.00  0.00     0.081 C 
HETATM    2  C10 UNL     1       4.780  -7.120 -22.173  1.00  0.00     0.034 C 
HETATM    3  C11 UNL     1       4.010  -5.793 -22.238  1.00  0.00     0.128 C 
HETATM    4  N3  UNL     1       4.991  -4.739 -22.072  1.00  0.00    -0.334 N 
HETATM    5  C12 UNL     1       4.787  -3.524 -21.409  1.00  0.00     0.318 C 
HETATM    6  O2  UNL     1       5.741  -2.699 -21.338  1.00  0.00    -0.247 OA
HETATM    7  N4  UNL     1       3.538  -3.214 -20.824  1.00  0.00    -0.338 N 
ATOM      8  H4  UNL     1       2.764  -3.876 -20.879  1.00  0.00     0.164 HD
HETATM    9  C20 UNL     1       6.303  -5.038 -22.685  1.00  0.00     0.128 C 
HETATM   10  C21 UNL     1       5.982  -5.915 -23.895  1.00  0.00     0.034 C 
ENDROOT
BRANCH   1  11
HETATM   11  C8  UNL     1       6.721  -8.203 -23.281  1.00  0.00     0.224 C 
HETATM   12  N2  UNL     1       6.607  -9.595 -23.115  1.00  0.00    -0.352 N 
HETATM   13  C7  UNL     1       7.807 -10.385 -22.937  1.00  0.00     0.127 C 
HETATM   14  C22 UNL     1       5.355 -10.326 -23.115  1.00  0.00     0.127 C 
HETATM   15  C6  UNL     1       7.997 -11.173 -24.238  1.00  0.00     0.045 C 
HETATM   16  C5  UNL     1       6.619 -11.538 -24.784  1.00  0.00     0.086 C 
HETATM   17  C23 UNL     1       5.689 -11.728 -23.654  1.00  0.00     0.045 C 
HETATM   18  O1  UNL     1       7.862  -7.666 -23.284  1.00  0.00    -0.273 OA
BRANCH  16  19
HETATM   19  N1  UNL     1       6.753 -12.585 -25.706  1.00  0.00    -0.388 N 
HETATM   20  C4  UNL     1       7.828 -13.487 -25.500  1.00  0.00     0.123 C 
HETATM   21  C3  UNL     1       7.547 -14.585 -26.506  1.00  0.00     0.029 C 
HETATM   22  C2  UNL     1       6.041 -14.687 -26.440  1.00  0.00     0.021 C 
HETATM   23  C1  UNL     1       5.607 -15.653 -25.345  1.00  0.00     0.015 C 
HETATM   24  C24 UNL     1       5.607 -13.267 -26.138  1.00  0.00     0.063 C 
ENDBRANCH  16  19
ENDBRANCH   1  11
BRANCH   7  25
HETATM   25  C13 UNL     1       3.370  -1.937 -20.142  1.00  0.00     0.093 C 
HETATM   26  C14 UNL     1       1.959  -1.468 -20.414  1.00  0.00     0.058 C 
HETATM   27  C15 UNL     1       1.121  -1.729 -19.200  1.00  0.00     0.188 C 
HETATM   28  C16 UNL     1       1.539  -0.811 -18.069  1.00  0.00     0.033 C 
HETATM   29  N5  UNL     1       1.372  -3.100 -18.784  1.00  0.00    -0.070 N 
HETATM   30  C17 UNL     1       3.048  -0.818 -17.966  1.00  0.00     0.010 C 
HETATM   31  C18 UNL     1       3.539  -2.086 -18.648  1.00  0.00     0.034 C 
HETATM   32  C19 UNL     1       2.669  -3.224 -18.158  1.00  0.00     0.239 C 
ATOM     33  H52 UNL     1       0.629  -3.453 -18.181  1.00  0.00     0.277 HD
ATOM     34  H51 UNL     1       1.265  -3.753 -19.560  1.00  0.00     0.277 HD
ENDBRANCH   7  25
TORSDOF 3
ENDMDL
MODEL 2
REMARK VINA RESULT: -7.663842367      4.160      5.049
REMARK  3 active torsions:
REMARK  status: ('A' for Active; 'I' for Inactive)
REMARK    1  A    between atoms: N1_5  and  C5_6 
REMARK       I    between atoms: N2_9  and  C8_10 
REMARK    2  A    between atoms: C8_10  and  C9_12 
REMARK       I    between atoms: N3_15  and  C12_16 
REMARK       I    between atoms: C12_16  and  N4_18 
REMARK    3  A    between atoms: N4_18  and  C13_20 
ROOT
HETATM    1  C9  UNL     1       4.593  -6.120 -23.181  1.00  0.00     0.081 C 
HETATM    2  C10 UNL     1       4.579  -4.664 -23.576  1.00  0.00     0.034 C 
HETATM    3  C11 UNL     1       3.127  -4.228 -23.819  1.00  0.00     0.128 C 
HETATM    4  N3  UNL     1       2.725  -4.820 -25.080  1.00  0.00    -0.334 N 
HETATM    5  C12 UNL     1       1.867  -4.241 -26.021  1.00  0.00     0.318 C 
HETATM    6  O2  UNL     1       1.609  -4.875 -27.083  1.00  0.00    -0.247 OA
HETATM    7  N4  UNL     1       1.292  -2.970 -25.799  1.00  0.00    -0.338 N 
ATOM      8  H4  UNL     1       1.495  -2.453 -24.942  1.00  0.00     0.164 HD
HETATM    9  C20 UNL     1       3.307  -6.156 -25.329  1.00  0.00     0.128 C 
HETATM   10  C21 UNL     1       3.465  -6.781 -23.942  1.00  0.00     0.034 C 
ENDROOT
BRANCH   1  11
HETATM   11  C8  UNL     1       5.902  -6.763 -23.471  1.00  0.00     0.224 C 
HETATM   12  N2  UNL     1       6.387  -7.887 -22.779  1.00  0.00    -0.352 N 
HETATM   13  C7  UNL     1       7.683  -8.427 -23.131  1.00  0.00     0.127 C 
HETATM   14  C22 UNL     1       5.675  -8.572 -21.719  1.00  0.00     0.127 C 
HETATM   15  C6  UNL     1       7.412  -9.752 -23.852  1.00  0.00     0.045 C 
HETATM   16  C5  UNL     1       6.185 -10.402 -23.217  1.00  0.00     0.086 C 
HETATM   17  C23 UNL     1       6.134 -10.040 -21.787  1.00  0.00     0.045 C 
HETATM   18  O1  UNL     1       6.594  -6.250 -24.393  1.00  0.00    -0.273 OA
BRANCH  16  19
HETATM   19  N1  UNL     1       6.163 -11.764 -23.550  1.00  0.00    -0.388 N 
HETATM   20  C4  UNL     1       5.068 -12.215 -24.330  1.00  0.00     0.123 C 
HETATM   21  C3  UNL     1       5.468 -13.632 -24.687  1.00  0.00     0.029 C 
HETATM   22  C2  UNL     1       6.954 -13.486 -24.917  1.00  0.00     0.021 C 
HETATM   23  C1  UNL     1       7.247 -13.096 -26.361  1.00  0.00     0.015 C 
HETATM   24  C24 UNL     1       7.351 -12.390 -23.951  1.00  0.00     0.063 C 
ENDBRANCH  16  19
ENDBRANCH   1  11
BRANCH   7  25
HETATM   25  C13 UNL     1       0.405  -2.405 -26.808  1.00  0.00     0.093 C 
HETATM   26  C14 UNL     1      -1.013  -2.656 -26.346  1.00  0.00     0.058 C 
HETATM   27  C15 UNL     1      -1.568  -1.385 -25.777  1.00  0.00     0.188 C 
HETATM   28  C16 UNL     1      -1.777  -0.367 -26.879  1.00  0.00     0.033 C 
HETATM   29  N5  UNL     1      -0.577  -0.853 -24.853  1.00  0.00    -0.070 N 
HETATM   30  C17 UNL     1      -0.544  -0.332 -27.754  1.00  0.00     0.010 C 
HETATM   31  C18 UNL     1       0.602  -0.912 -26.939  1.00  0.00     0.034 C 
HETATM   32  C19 UNL     1       0.541  -0.278 -25.566  1.00  0.00     0.239 C 
ATOM     33  H52 UNL     1      -0.991  -0.186 -24.201  1.00  0.00     0.277 HD
ATOM     34  H51 UNL     1      -0.273  -1.558 -24.182  1.00  0.00     0.277 HD
ENDBRANCH   7  25
TORSDOF 3
ENDMDL
MODEL 3
REMARK VINA RESULT: -7.631180008      4.701     10.201
REMARK  3 active torsions:
REMARK  status: ('A' for Active; 'I' for Inactive)
REMARK    1  A    between atoms: N1_5  and  C5_6 
REMARK       I    between atoms: N2_9  and  C8_10 
REMARK    2  A    between atoms: C8_10  and  C9_12 
REMARK       I    between atoms: N3_15  and  C12_16 
REMARK       I    between atoms: C12_16  and  N4_18 
REMARK    3  A    between atoms: N4_18  and  C13_20 
ROOT
HETATM    1  C9  UNL     1       0.629  -8.105 -26.039  1.00  0.00     0.081 C 
HETATM    2  C10 UNL     1       1.981  -8.516 -26.568  1.00  0.00     0.034 C 
HETATM    3  C11 UNL     1       2.196 -10.009 -26.278  1.00  0.00     0.128 C 
HETATM    4  N3  UNL     1       2.454 -10.119 -24.856  1.00  0.00    -0.334 N 
HETATM    5  C12 UNL     1       3.321 -11.033 -24.249  1.00  0.00     0.318 C 
HETATM    6  O2  UNL     1       3.450 -11.009 -22.992  1.00  0.00    -0.247 OA
HETATM    7  N4  UNL     1       4.045 -11.973 -25.016  1.00  0.00    -0.338 N 
ATOM      8  H4  UNL     1       3.943 -11.998 -26.031  1.00  0.00     0.164 HD
HETATM    9  C20 UNL     1       1.698  -9.152 -24.032  1.00  0.00     0.128 C 
HETATM   10  C21 UNL     1       0.390  -8.925 -24.790  1.00  0.00     0.034 C 
ENDROOT
BRANCH   1  11
HETATM   11  C8  UNL     1       0.562  -6.647 -25.759  1.00  0.00     0.224 C 
HETATM   12  N2  UNL     1       1.656  -5.891 -25.300  1.00  0.00    -0.352 N 
HETATM   13  C7  UNL     1       1.480  -4.477 -25.044  1.00  0.00     0.127 C 
HETATM   14  C22 UNL     1       2.984  -6.423 -25.062  1.00  0.00     0.127 C 
HETATM   15  C6  UNL     1       2.228  -3.744 -26.163  1.00  0.00     0.045 C 
HETATM   16  C5  UNL     1       3.467  -4.558 -26.526  1.00  0.00     0.086 C 
HETATM   17  C23 UNL     1       3.954  -5.257 -25.320  1.00  0.00     0.045 C 
HETATM   18  O1  UNL     1      -0.550  -6.082 -25.952  1.00  0.00    -0.273 OA
BRANCH  16  19
HETATM   19  N1  UNL     1       4.370  -3.738 -27.218  1.00  0.00    -0.388 N 
HETATM   20  C4  UNL     1       5.618  -3.488 -26.592  1.00  0.00     0.123 C 
HETATM   21  C3  UNL     1       6.406  -2.784 -27.678  1.00  0.00     0.029 C 
HETATM   22  C2  UNL     1       5.962  -3.529 -28.915  1.00  0.00     0.021 C 
HETATM   23  C1  UNL     1       6.833  -4.757 -29.154  1.00  0.00     0.015 C 
HETATM   24  C24 UNL     1       4.531  -3.911 -28.599  1.00  0.00     0.063 C 
ENDBRANCH  16  19
ENDBRANCH   1  11
BRANCH   7  25
HETATM   25  C13 UNL     1       4.938 -12.906 -24.341  1.00  0.00     0.093 C 
HETATM   26  C14 UNL     1       4.527 -14.299 -24.760  1.00  0.00     0.058 C 
HETATM   27  C15 UNL     1       5.496 -14.799 -25.789  1.00  0.00     0.188 C 
HETATM   28  C16 UNL     1       6.848 -15.053 -25.154  1.00  0.00     0.033 C 
HETATM   29  N5  UNL     1       5.654 -13.749 -26.783  1.00  0.00    -0.070 N 
HETATM   30  C17 UNL     1       7.209 -13.871 -24.282  1.00  0.00     0.010 C 
HETATM   31  C18 UNL     1       6.375 -12.691 -24.758  1.00  0.00     0.034 C 
HETATM   32  C19 UNL     1       6.457 -12.663 -26.268  1.00  0.00     0.239 C 
ATOM     33  H52 UNL     1       6.031 -14.114 -27.658  1.00  0.00     0.277 HD
ATOM     34  H51 UNL     1       4.753 -13.420 -27.128  1.00  0.00     0.277 HD
ENDBRANCH   7  25
TORSDOF 3
ENDMDL
MODEL 4
REMARK VINA RESULT: -7.365773522      4.050     10.330
REMARK  3 active torsions:
REMARK  status: ('A' for Active; 'I' for Inactive)
REMARK    1  A    between atoms: N1_5  and  C5_6 
REMARK       I    between atoms: N2_9  and  C8_10 
REMARK    2  A    between atoms: C8_10  and  C9_12 
REMARK       I    between atoms: N3_15  and  C12_16 
REMARK       I    between atoms: C12_16  and  N4_18 
REMARK    3  A    between atoms: N4_18  and  C13_20 
ROOT
HETATM    1  C9  UNL     1       1.558  -9.472 -24.364  1.00  0.00     0.081 C 
HETATM    2  C10 UNL     1       2.127 -10.543 -25.262  1.00  0.00     0.034 C 
HETATM    3  C11 UNL     1       3.195 -11.327 -24.487  1.00  0.00     0.128 C 
HETATM    4  N3  UNL     1       4.352 -10.460 -24.388  1.00  0.00    -0.334 N 
HETATM    5  C12 UNL     1       5.689 -10.870 -24.418  1.00  0.00     0.318 C 
HETATM    6  O2  UNL     1       6.598  -9.997 -24.327  1.00  0.00    -0.247 OA
HETATM    7  N4  UNL     1       6.030 -12.235 -24.547  1.00  0.00    -0.338 N 
ATOM      8  H4  UNL     1       5.301 -12.946 -24.620  1.00  0.00     0.164 HD
HETATM    9  C20 UNL     1       4.019  -9.027 -24.242  1.00  0.00     0.128 C 
HETATM   10  C21 UNL     1       2.694  -9.007 -23.479  1.00  0.00     0.034 C 
ENDROOT
BRANCH   1  11
HETATM   11  C8  UNL     1       0.972  -8.348 -25.141  1.00  0.00     0.224 C 
HETATM   12  N2  UNL     1       0.997  -7.009 -24.711  1.00  0.00    -0.352 N 
HETATM   13  C7  UNL     1       0.384  -5.990 -25.538  1.00  0.00     0.127 C 
HETATM   14  C22 UNL     1       1.609  -6.549 -23.479  1.00  0.00     0.127 C 
HETATM   15  C6  UNL     1       1.536  -5.177 -26.138  1.00  0.00     0.045 C 
HETATM   16  C5  UNL     1       2.659  -5.100 -25.107  1.00  0.00     0.086 C 
HETATM   17  C23 UNL     1       2.071  -5.107 -23.753  1.00  0.00     0.045 C 
HETATM   18  O1  UNL     1       0.429  -8.641 -26.241  1.00  0.00    -0.273 OA
BRANCH  16  19
HETATM   19  N1  UNL     1       3.519  -4.045 -25.442  1.00  0.00    -0.388 N 
HETATM   20  C4  UNL     1       4.747  -3.971 -24.737  1.00  0.00     0.123 C 
HETATM   21  C3  UNL     1       5.502  -2.891 -25.485  1.00  0.00     0.029 C 
HETATM   22  C2  UNL     1       5.110  -3.174 -26.917  1.00  0.00     0.021 C 
HETATM   23  C1  UNL     1       6.048  -4.194 -27.549  1.00  0.00     0.015 C 
HETATM   24  C24 UNL     1       3.700  -3.713 -26.792  1.00  0.00     0.063 C 
ENDBRANCH  16  19
ENDBRANCH   1  11
BRANCH   7  25
HETATM   25  C13 UNL     1       7.437 -12.617 -24.575  1.00  0.00     0.093 C 
HETATM   26  C14 UNL     1       7.511 -14.074 -24.177  1.00  0.00     0.058 C 
HETATM   27  C15 UNL     1       7.715 -14.901 -25.410  1.00  0.00     0.188 C 
HETATM   28  C16 UNL     1       9.100 -14.664 -25.976  1.00  0.00     0.033 C 
HETATM   29  N5  UNL     1       6.742 -14.458 -26.397  1.00  0.00    -0.070 N 
HETATM   30  C17 UNL     1       9.367 -13.176 -26.007  1.00  0.00     0.010 C 
HETATM   31  C18 UNL     1       8.017 -12.476 -25.963  1.00  0.00     0.034 C 
HETATM   32  C19 UNL     1       7.116 -13.178 -26.955  1.00  0.00     0.239 C 
ATOM     33  H52 UNL     1       6.599 -15.158 -27.125  1.00  0.00     0.277 HD
ATOM     34  H51 UNL     1       5.798 -14.439 -26.012  1.00  0.00     0.277 HD
ENDBRANCH   7  25
TORSDOF 3
ENDMDL
MODEL 5
REMARK VINA RESULT: -7.317444368      2.847     10.543
REMARK  3 active torsions:
REMARK  status: ('A' for Active; 'I' for Inactive)
REMARK    1  A    between atoms: N1_5  and  C5_6 
REMARK       I    between atoms: N2_9  and  C8_10 
REMARK    2  A    between atoms: C8_10  and  C9_12 
REMARK       I    between atoms: N3_15  and  C12_16 
REMARK       I    between atoms: C12_16  and  N4_18 
REMARK    3  A    between atoms: N4_18  and  C13_20 
ROOT
HETATM    1  C9  UNL     1       2.982  -8.306 -23.657  1.00  0.00     0.081 C 
HETATM    2  C10 UNL     1       3.339  -9.235 -24.792  1.00  0.00     0.034 C 
HETATM    3  C11 UNL     1       4.135 -10.422 -24.231  1.00  0.00     0.128 C 
HETATM    4  N3  UNL     1       5.456  -9.919 -23.912  1.00  0.00    -0.334 N 
HETATM    5  C12 UNL     1       6.656 -10.627 -24.036  1.00  0.00     0.318 C 
HETATM    6  O2  UNL     1       7.738 -10.054 -23.723  1.00  0.00    -0.247 OA
HETATM    7  N4  UNL     1       6.671 -11.961 -24.501  1.00  0.00    -0.338 N 
ATOM      8  H4  UNL     1       5.800 -12.430 -24.754  1.00  0.00     0.164 HD
HETATM    9  C20 UNL     1       5.464  -8.527 -23.413  1.00  0.00     0.128 C 
HETATM   10  C21 UNL     1       4.133  -8.365 -22.677  1.00  0.00     0.034 C 
ENDROOT
BRANCH   1  11
HETATM   11  C8  UNL     1       2.734  -6.919 -24.131  1.00  0.00     0.224 C 
HETATM   12  N2  UNL     1       2.665  -5.805 -23.274  1.00  0.00    -0.352 N 
HETATM   13  C7  UNL     1       2.404  -4.498 -23.837  1.00  0.00     0.127 C 
HETATM   14  C22 UNL     1       2.845  -5.859 -21.837  1.00  0.00     0.127 C 
HETATM   15  C6  UNL     1       3.721  -3.720 -23.738  1.00  0.00     0.045 C 
HETATM   16  C5  UNL     1       4.435  -4.144 -22.457  1.00  0.00     0.086 C 
HETATM   17  C23 UNL     1       3.426  -4.491 -21.437  1.00  0.00     0.045 C 
HETATM   18  O1  UNL     1       2.581  -6.763 -25.373  1.00  0.00    -0.273 OA
BRANCH  16  19
HETATM   19  N1  UNL     1       5.397  -3.180 -22.127  1.00  0.00    -0.388 N 
HETATM   20  C4  UNL     1       6.757  -3.555 -22.275  1.00  0.00     0.123 C 
HETATM   21  C3  UNL     1       7.494  -2.248 -22.062  1.00  0.00     0.029 C 
HETATM   22  C2  UNL     1       6.578  -1.261 -22.747  1.00  0.00     0.021 C 
HETATM   23  C1  UNL     1       6.913  -1.146 -24.229  1.00  0.00     0.015 C 
HETATM   24  C24 UNL     1       5.201  -1.852 -22.529  1.00  0.00     0.063 C 
ENDBRANCH  16  19
ENDBRANCH   1  11
BRANCH   7  25
HETATM   25  C13 UNL     1       7.945 -12.660 -24.615  1.00  0.00     0.093 C 
HETATM   26  C14 UNL     1       7.671 -14.127 -24.372  1.00  0.00     0.058 C 
HETATM   27  C15 UNL     1       7.661 -14.841 -25.690  1.00  0.00     0.188 C 
HETATM   28  C16 UNL     1       9.058 -14.880 -26.275  1.00  0.00     0.033 C 
HETATM   29  N5  UNL     1       6.814 -14.076 -26.592  1.00  0.00    -0.070 N 
HETATM   30  C17 UNL     1       9.673 -13.503 -26.162  1.00  0.00     0.010 C 
HETATM   31  C18 UNL     1       8.530 -12.512 -26.000  1.00  0.00     0.034 C 
HETATM   32  C19 UNL     1       7.479 -12.868 -27.028  1.00  0.00     0.239 C 
ATOM     33  H52 UNL     1       6.501 -14.640 -27.383  1.00  0.00     0.277 HD
ATOM     34  H51 UNL     1       5.905 -13.876 -26.175  1.00  0.00     0.277 HD
ENDBRANCH   7  25
TORSDOF 3
ENDMDL
