MODEL 1
REMARK VINA RESULT: -9.966988896      0.000      0.000
REMARK  3 active torsions:
REMARK  status: ('A' for Active; 'I' for Inactive)
REMARK    1  A    between atoms: C1_2  and  C2_4 
REMARK    2  A    between atoms: C11_13  and  N2_14 
REMARK       I    between atoms: N2_14  and  C12_16 
REMARK    3  A    between atoms: C12_16  and  C13_18 
REMARK       I    between atoms: N3_22  and  C17_23 
REMARK       I    between atoms: C17_23  and  N4_25 
ROOT
HETATM    1  N2  UNL     1       3.390  -8.643 -23.338  1.00  0.00    -0.354 N 
ATOM      2  H2  UNL     1       2.951  -9.555 -23.464  1.00  0.00     0.162 HD
HETATM    3  C12 UNL     1       4.665  -8.540 -22.726  1.00  0.00     0.241 C 
HETATM    4  O2  UNL     1       5.185  -7.411 -22.578  1.00  0.00    -0.271 OA
ENDROOT
BRANCH   1   5
HETATM    5  C11 UNL     1       2.730  -7.463 -23.774  1.00  0.00     0.089 C 
HETATM    6  C10 UNL     1       1.212  -7.432 -23.603  1.00  0.00     0.030 C 
HETATM    7  C9  UNL     1       1.212  -6.561 -24.871  1.00  0.00    -0.006 C 
HETATM    8  C8  UNL     1       0.078  -6.763 -25.790  1.00  0.00     0.011 C 
HETATM    9  C23 UNL     1       2.488  -7.269 -25.246  1.00  0.00     0.014 C 
HETATM   10  C7  UNL     1       0.505  -7.127 -27.215  1.00  0.00     0.003 C 
HETATM   11  C2  UNL     1       1.292  -8.400 -27.167  1.00  0.00     0.042 C 
HETATM   12  C6  UNL     1       1.098  -5.998 -27.958  1.00  0.00     0.006 C 
HETATM   13  C3  UNL     1       1.839  -8.665 -28.556  1.00  0.00     0.019 C 
HETATM   14  C24 UNL     1       2.321  -8.459 -26.099  1.00  0.00     0.026 C 
HETATM   15  C4  UNL     1       2.673  -7.582 -29.116  1.00  0.00     0.001 C 
HETATM   16  C5  UNL     1       2.388  -6.216 -28.631  1.00  0.00     0.000 C 
BRANCH  11  17
HETATM   17  C1  UNL     1       0.318  -9.502 -26.925  1.00  0.00     0.240 C 
HETATM   18  N1  UNL     1      -0.708  -9.842 -27.851  1.00  0.00    -0.061 NA
HETATM   19  O1  UNL     1       0.375 -10.183 -25.873  1.00  0.00    -0.276 OA
ENDBRANCH  11  17
ENDBRANCH   1   5
BRANCH   3  20
HETATM   20  C13 UNL     1       5.428  -9.718 -22.241  1.00  0.00     0.181 C 
HETATM   21  C14 UNL     1       6.261  -9.345 -21.017  1.00  0.00     0.037 C 
HETATM   22  C15 UNL     1       7.692  -9.382 -21.432  1.00  0.00     0.022 C 
HETATM   23  C16 UNL     1       7.612  -9.233 -22.930  1.00  0.00     0.129 C 
HETATM   24  N3  UNL     1       6.426 -10.131 -23.185  1.00  0.00    -0.321 N 
HETATM   25  C17 UNL     1       6.502 -11.096 -24.189  1.00  0.00     0.321 C 
HETATM   26  O3  UNL     1       7.628 -11.144 -24.834  1.00  0.00    -0.247 OA
HETATM   27  N4  UNL     1       5.548 -12.015 -24.601  1.00  0.00    -0.334 N 
HETATM   28  C18 UNL     1       5.917 -12.924 -25.703  1.00  0.00     0.127 C 
HETATM   29  C22 UNL     1       4.241 -12.113 -24.010  1.00  0.00     0.127 C 
HETATM   30  C19 UNL     1       5.534 -14.346 -25.401  1.00  0.00     0.020 C 
HETATM   31  C20 UNL     1       4.198 -14.450 -24.713  1.00  0.00     0.003 C 
HETATM   32  C21 UNL     1       3.466 -13.143 -24.854  1.00  0.00     0.020 C 
ENDBRANCH   3  20
TORSDOF 3
ENDMDL
MODEL 2
REMARK VINA RESULT: -8.049514841      1.716      2.041
REMARK  3 active torsions:
REMARK  status: ('A' for Active; 'I' for Inactive)
REMARK    1  A    between atoms: C1_2  and  C2_4 
REMARK    2  A    between atoms: C11_13  and  N2_14 
REMARK       I    between atoms: N2_14  and  C12_16 
REMARK    3  A    between atoms: C12_16  and  C13_18 
REMARK       I    between atoms: N3_22  and  C17_23 
REMARK       I    between atoms: C17_23  and  N4_25 
ROOT
HETATM    1  N2  UNL     1       4.310  -7.171 -22.616  1.00  0.00    -0.354 N 
ATOM      2  H2  UNL     1       3.500  -7.579 -22.148  1.00  0.00     0.162 HD
HETATM    3  C12 UNL     1       5.535  -7.884 -22.680  1.00  0.00     0.241 C 
HETATM    4  O2  UNL     1       6.516  -7.365 -23.257  1.00  0.00    -0.271 OA
ENDROOT
BRANCH   1   5
HETATM    5  C11 UNL     1       4.222  -5.884 -23.210  1.00  0.00     0.089 C 
HETATM    6  C10 UNL     1       2.973  -5.068 -22.880  1.00  0.00     0.030 C 
HETATM    7  C9  UNL     1       3.134  -4.482 -24.292  1.00  0.00    -0.006 C 
HETATM    8  C8  UNL     1       1.882  -4.194 -25.015  1.00  0.00     0.011 C 
HETATM    9  C23 UNL     1       3.810  -5.779 -24.654  1.00  0.00     0.014 C 
HETATM   10  C7  UNL     1       1.786  -4.897 -26.372  1.00  0.00     0.003 C 
HETATM   11  C2  UNL     1       1.860  -6.376 -26.150  1.00  0.00     0.042 C 
HETATM   12  C6  UNL     1       2.682  -4.325 -27.396  1.00  0.00     0.006 C 
HETATM   13  C3  UNL     1       1.921  -7.051 -27.507  1.00  0.00     0.019 C 
HETATM   14  C24 UNL     1       2.927  -6.815 -25.216  1.00  0.00     0.026 C 
HETATM   15  C4  UNL     1       3.038  -6.618 -28.369  1.00  0.00     0.001 C 
HETATM   16  C5  UNL     1       3.546  -5.248 -28.150  1.00  0.00     0.000 C 
BRANCH  11  17
HETATM   17  C1  UNL     1       0.550  -6.794 -25.576  1.00  0.00     0.240 C 
HETATM   18  N1  UNL     1      -0.692  -6.544 -26.225  1.00  0.00    -0.061 NA
HETATM   19  O1  UNL     1       0.499  -7.395 -24.476  1.00  0.00    -0.276 OA
ENDBRANCH  11  17
ENDBRANCH   1   5
BRANCH   3  20
HETATM   20  C13 UNL     1       5.719  -9.233 -22.090  1.00  0.00     0.181 C 
HETATM   21  C14 UNL     1       6.695  -9.173 -20.918  1.00  0.00     0.037 C 
HETATM   22  C15 UNL     1       7.935  -9.883 -21.344  1.00  0.00     0.022 C 
HETATM   23  C16 UNL     1       7.848  -9.840 -22.848  1.00  0.00     0.129 C 
HETATM   24  N3  UNL     1       6.374 -10.128 -23.000  1.00  0.00    -0.321 N 
HETATM   25  C17 UNL     1       5.958 -11.104 -23.903  1.00  0.00     0.321 C 
HETATM   26  O3  UNL     1       6.907 -11.707 -24.552  1.00  0.00    -0.247 OA
HETATM   27  N4  UNL     1       4.673 -11.529 -24.211  1.00  0.00    -0.334 N 
HETATM   28  C18 UNL     1       4.537 -12.595 -25.221  1.00  0.00     0.127 C 
HETATM   29  C22 UNL     1       3.493 -10.981 -23.598  1.00  0.00     0.127 C 
HETATM   30  C19 UNL     1       3.579 -13.664 -24.775  1.00  0.00     0.020 C 
HETATM   31  C20 UNL     1       2.376 -13.099 -24.065  1.00  0.00     0.003 C 
HETATM   32  C21 UNL     1       2.296 -11.620 -24.327  1.00  0.00     0.020 C 
ENDBRANCH   3  20
TORSDOF 3
ENDMDL
MODEL 3
REMARK VINA RESULT: -7.711862497      3.699      5.704
REMARK  3 active torsions:
REMARK  status: ('A' for Active; 'I' for Inactive)
REMARK    1  A    between atoms: C1_2  and  C2_4 
REMARK    2  A    between atoms: C11_13  and  N2_14 
REMARK       I    between atoms: N2_14  and  C12_16 
REMARK    3  A    between atoms: C12_16  and  C13_18 
REMARK       I    between atoms: N3_22  and  C17_23 
REMARK       I    between atoms: C17_23  and  N4_25 
ROOT
HETATM    1  N2  UNL     1       5.284  -7.365 -22.967  1.00  0.00    -0.354 N 
ATOM      2  H2  UNL     1       5.828  -7.113 -22.141  1.00  0.00     0.162 HD
HETATM    3  C12 UNL     1       5.166  -8.722 -23.360  1.00  0.00     0.241 C 
HETATM    4  O2  UNL     1       4.496  -9.010 -24.377  1.00  0.00    -0.271 OA
ENDROOT
BRANCH   1   5
HETATM    5  C11 UNL     1       4.638  -6.360 -23.734  1.00  0.00     0.089 C 
HETATM    6  C10 UNL     1       5.532  -5.525 -24.650  1.00  0.00     0.030 C 
HETATM    7  C9  UNL     1       4.537  -4.386 -24.378  1.00  0.00    -0.006 C 
HETATM    8  C8  UNL     1       5.117  -3.034 -24.282  1.00  0.00     0.011 C 
HETATM    9  C23 UNL     1       4.258  -5.068 -23.063  1.00  0.00     0.014 C 
HETATM   10  C7  UNL     1       4.796  -2.324 -22.964  1.00  0.00     0.003 C 
HETATM   11  C2  UNL     1       5.344  -3.142 -21.835  1.00  0.00     0.042 C 
HETATM   12  C6  UNL     1       3.390  -1.889 -22.858  1.00  0.00     0.006 C 
HETATM   13  C3  UNL     1       4.885  -2.511 -20.535  1.00  0.00     0.019 C 
HETATM   14  C24 UNL     1       5.064  -4.596 -21.925  1.00  0.00     0.026 C 
HETATM   15  C4  UNL     1       3.423  -2.374 -20.389  1.00  0.00     0.001 C 
HETATM   16  C5  UNL     1       2.646  -2.248 -21.640  1.00  0.00     0.000 C 
BRANCH  11  17
HETATM   17  C1  UNL     1       6.823  -2.958 -21.847  1.00  0.00     0.240 C 
HETATM   18  N1  UNL     1       7.449  -1.720 -21.531  1.00  0.00    -0.061 NA
HETATM   19  O1  UNL     1       7.581  -3.914 -22.140  1.00  0.00    -0.276 OA
ENDBRANCH  11  17
ENDBRANCH   1   5
BRANCH   3  20
HETATM   20  C13 UNL     1       5.806  -9.839 -22.619  1.00  0.00     0.181 C 
HETATM   21  C14 UNL     1       6.362  -9.344 -21.287  1.00  0.00     0.037 C 
HETATM   22  C15 UNL     1       7.849  -9.395 -21.386  1.00  0.00     0.022 C 
HETATM   23  C16 UNL     1       8.087  -9.384 -22.873  1.00  0.00     0.129 C 
HETATM   24  N3  UNL     1       6.979 -10.320 -23.290  1.00  0.00    -0.321 N 
HETATM   25  C17 UNL     1       7.262 -11.370 -24.162  1.00  0.00     0.321 C 
HETATM   26  O3  UNL     1       8.499 -11.459 -24.547  1.00  0.00    -0.247 OA
HETATM   27  N4  UNL     1       6.414 -12.338 -24.679  1.00  0.00    -0.334 N 
HETATM   28  C18 UNL     1       7.004 -13.337 -25.591  1.00  0.00     0.127 C 
HETATM   29  C22 UNL     1       5.011 -12.404 -24.371  1.00  0.00     0.127 C 
HETATM   30  C19 UNL     1       6.562 -14.732 -25.247  1.00  0.00     0.020 C 
HETATM   31  C20 UNL     1       5.110 -14.795 -24.849  1.00  0.00     0.003 C 
HETATM   32  C21 UNL     1       4.428 -13.518 -25.261  1.00  0.00     0.020 C 
ENDBRANCH   3  20
TORSDOF 3
ENDMDL
MODEL 4
REMARK VINA RESULT: -7.628977378      2.089      7.342
REMARK  3 active torsions:
REMARK  status: ('A' for Active; 'I' for Inactive)
REMARK    1  A    between atoms: C1_2  and  C2_4 
REMARK    2  A    between atoms: C11_13  and  N2_14 
REMARK       I    between atoms: N2_14  and  C12_16 
REMARK    3  A    between atoms: C12_16  and  C13_18 
REMARK       I    between atoms: N3_22  and  C17_23 
REMARK       I    between atoms: C17_23  and  N4_25 
ROOT
HETATM    1  N2  UNL     1       5.965  -9.720 -23.810  1.00  0.00    -0.354 N 
ATOM      2  H2  UNL     1       6.738  -9.346 -24.360  1.00  0.00     0.162 HD
HETATM    3  C12 UNL     1       4.795  -8.946 -23.600  1.00  0.00     0.241 C 
HETATM    4  O2  UNL     1       3.859  -9.422 -22.920  1.00  0.00    -0.271 OA
ENDROOT
BRANCH   1   5
HETATM    5  C11 UNL     1       6.049 -11.021 -23.246  1.00  0.00     0.089 C 
HETATM    6  C10 UNL     1       7.441 -11.490 -22.825  1.00  0.00     0.030 C 
HETATM    7  C9  UNL     1       6.944 -12.897 -23.196  1.00  0.00    -0.006 C 
HETATM    8  C8  UNL     1       7.945 -13.794 -23.801  1.00  0.00     0.011 C 
HETATM    9  C23 UNL     1       6.014 -12.212 -24.165  1.00  0.00     0.014 C 
HETATM   10  C7  UNL     1       7.525 -14.343 -25.168  1.00  0.00     0.003 C 
HETATM   11  C2  UNL     1       7.314 -13.191 -26.101  1.00  0.00     0.042 C 
HETATM   12  C6  UNL     1       6.450 -15.352 -25.091  1.00  0.00     0.006 C 
HETATM   13  C3  UNL     1       6.750 -13.738 -27.398  1.00  0.00     0.019 C 
HETATM   14  C24 UNL     1       6.530 -12.065 -25.536  1.00  0.00     0.026 C 
HETATM   15  C4  UNL     1       5.497 -14.506 -27.260  1.00  0.00     0.001 C 
HETATM   16  C5  UNL     1       5.278 -15.179 -25.963  1.00  0.00     0.000 C 
BRANCH  11  17
HETATM   17  C1  UNL     1       8.665 -12.674 -26.461  1.00  0.00     0.240 C 
HETATM   18  N1  UNL     1       9.630 -12.294 -25.487  1.00  0.00    -0.061 NA
HETATM   19  O1  UNL     1       9.001 -12.554 -27.664  1.00  0.00    -0.276 OA
ENDBRANCH  11  17
ENDBRANCH   1   5
BRANCH   3  20
HETATM   20  C13 UNL     1       4.619  -7.579 -24.151  1.00  0.00     0.181 C 
HETATM   21  C14 UNL     1       5.735  -6.660 -23.661  1.00  0.00     0.037 C 
HETATM   22  C15 UNL     1       5.115  -5.679 -22.724  1.00  0.00     0.022 C 
HETATM   23  C16 UNL     1       3.848  -6.374 -22.298  1.00  0.00     0.129 C 
HETATM   24  N3  UNL     1       3.440  -6.945 -23.634  1.00  0.00    -0.321 N 
HETATM   25  C17 UNL     1       2.129  -6.775 -24.078  1.00  0.00     0.321 C 
HETATM   26  O3  UNL     1       1.350  -6.112 -23.280  1.00  0.00    -0.247 OA
HETATM   27  N4  UNL     1       1.535  -7.212 -25.254  1.00  0.00    -0.334 N 
HETATM   28  C18 UNL     1       0.112  -6.879 -25.455  1.00  0.00     0.127 C 
HETATM   29  C22 UNL     1       2.235  -7.963 -26.260  1.00  0.00     0.127 C 
HETATM   30  C19 UNL     1      -0.144  -6.351 -26.839  1.00  0.00     0.020 C 
HETATM   31  C20 UNL     1       0.646  -7.085 -27.891  1.00  0.00     0.003 C 
HETATM   32  C21 UNL     1       1.179  -8.366 -27.306  1.00  0.00     0.020 C 
ENDBRANCH   3  20
TORSDOF 3
ENDMDL
MODEL 5
REMARK VINA RESULT: -7.440184974      3.757      5.718
REMARK  3 active torsions:
REMARK  status: ('A' for Active; 'I' for Inactive)
REMARK    1  A    between atoms: C1_2  and  C2_4 
REMARK    2  A    between atoms: C11_13  and  N2_14 
REMARK       I    between atoms: N2_14  and  C12_16 
REMARK    3  A    between atoms: C12_16  and  C13_18 
REMARK       I    between atoms: N3_22  and  C17_23 
REMARK       I    between atoms: C17_23  and  N4_25 
ROOT
HETATM    1  N2  UNL     1       2.449  -6.310 -26.001  1.00  0.00    -0.354 N 
ATOM      2  H2  UNL     1       2.102  -6.073 -26.931  1.00  0.00     0.162 HD
HETATM    3  C12 UNL     1       2.507  -7.663 -25.581  1.00  0.00     0.241 C 
HETATM    4  O2  UNL     1       2.933  -7.932 -24.436  1.00  0.00    -0.271 OA
ENDROOT
BRANCH   1   5
HETATM    5  C11 UNL     1       2.878  -5.288 -25.114  1.00  0.00     0.089 C 
HETATM    6  C10 UNL     1       1.868  -4.836 -24.060  1.00  0.00     0.030 C 
HETATM    7  C9  UNL     1       2.534  -3.456 -24.191  1.00  0.00    -0.006 C 
HETATM    8  C8  UNL     1       1.636  -2.294 -24.071  1.00  0.00     0.011 C 
HETATM    9  C23 UNL     1       2.886  -3.863 -25.598  1.00  0.00     0.014 C 
HETATM   10  C7  UNL     1       1.688  -1.355 -25.279  1.00  0.00     0.003 C 
HETATM   11  C2  UNL     1       1.285  -2.124 -26.499  1.00  0.00     0.042 C 
HETATM   12  C6  UNL     1       2.935  -0.570 -25.361  1.00  0.00     0.006 C 
HETATM   13  C3  UNL     1       1.491  -1.229 -27.706  1.00  0.00     0.019 C 
HETATM   14  C24 UNL     1       1.917  -3.461 -26.632  1.00  0.00     0.026 C 
HETATM   15  C4  UNL     1       2.863  -0.711 -27.872  1.00  0.00     0.001 C 
HETATM   16  C5  UNL     1       3.664  -0.563 -26.639  1.00  0.00     0.000 C 
BRANCH  11  17
HETATM   17  C1  UNL     1      -0.190  -2.322 -26.419  1.00  0.00     0.240 C 
HETATM   18  N1  UNL     1      -1.111  -1.239 -26.360  1.00  0.00    -0.061 NA
HETATM   19  O1  UNL     1      -0.678  -3.478 -26.401  1.00  0.00    -0.276 OA
ENDBRANCH  11  17
ENDBRANCH   1   5
BRANCH   3  20
HETATM   20  C13 UNL     1       2.081  -8.797 -26.441  1.00  0.00     0.181 C 
HETATM   21  C14 UNL     1       1.445  -8.279 -27.727  1.00  0.00     0.037 C 
HETATM   22  C15 UNL     1      -0.008  -8.609 -27.662  1.00  0.00     0.022 C 
HETATM   23  C16 UNL     1      -0.245  -8.790 -26.185  1.00  0.00     0.129 C 
HETATM   24  N3  UNL     1       1.015  -9.547 -25.842  1.00  0.00    -0.321 N 
HETATM   25  C17 UNL     1       0.927 -10.714 -25.083  1.00  0.00     0.321 C 
HETATM   26  O3  UNL     1      -0.273 -11.063 -24.732  1.00  0.00    -0.247 OA
HETATM   27  N4  UNL     1       1.938 -11.559 -24.648  1.00  0.00    -0.334 N 
HETATM   28  C18 UNL     1       1.538 -12.735 -23.851  1.00  0.00     0.127 C 
HETATM   29  C22 UNL     1       3.329 -11.339 -24.936  1.00  0.00     0.127 C 
HETATM   30  C19 UNL     1       2.227 -13.985 -24.323  1.00  0.00     0.020 C 
HETATM   31  C20 UNL     1       3.666 -13.744 -24.698  1.00  0.00     0.003 C 
HETATM   32  C21 UNL     1       4.104 -12.413 -24.150  1.00  0.00     0.020 C 
ENDBRANCH   3  20
TORSDOF 3
ENDMDL
