MODEL 1
REMARK VINA RESULT: -10.863749448      0.000      0.000
REMARK  8 active torsions:
REMARK  status: ('A' for Active; 'I' for Inactive)
REMARK    1  A    between atoms: O1_1  and  C1_3 
REMARK    2  A    between atoms: C1_3  and  C2_4 
REMARK    3  A    between atoms: C1_3  and  N1_12 
REMARK    4  A    between atoms: C3_5  and  C4_6 
REMARK    5  A    between atoms: N2_15  and  C12_16 
REMARK    6  A    between atoms: C12_16  and  N3_18 
REMARK    7  A    between atoms: N3_18  and  C13_19 
REMARK    8  A    between atoms: N5_25  and  C17_27 
ROOT
HETATM    1  C12 UNL     1       3.478  -6.807 -22.420  1.00  0.00     0.230 C 
HETATM    2  S1  UNL     1       3.240  -5.553 -21.184  1.00  0.00     0.003 SA
ENDROOT
BRANCH   1   3
HETATM    3  N2  UNL     1       4.707  -7.527 -22.196  1.00  0.00    -0.332 N 
HETATM    4  C11 UNL     1       4.873  -8.420 -21.107  1.00  0.00     0.147 C 
HETATM    5  C10 UNL     1       6.206  -9.044 -21.280  1.00  0.00     0.146 C 
HETATM    6  N1  UNL     1       6.454  -8.870 -22.723  1.00  0.00    -0.344 N 
HETATM    7  C23 UNL     1       5.884  -7.559 -23.010  1.00  0.00     0.254 C 
BRANCH   6   8
HETATM    8  C1  UNL     1       6.962  -9.875 -23.501  1.00  0.00     0.139 C 
BRANCH   8   9
HETATM    9  O1  UNL     1       8.207  -9.580 -23.945  1.00  0.00    -0.346 OA
ATOM     10  H1  UNL     1       8.283  -9.835 -24.857  1.00  0.00     0.219 HD
ENDBRANCH   8   9
BRANCH   8  11
HETATM   11  C2  UNL     1       6.575 -11.162 -24.003  1.00  0.00     0.056 C 
HETATM   12  C3  UNL     1       5.432 -11.786 -23.971  1.00  0.00     0.015 C 
BRANCH  12  13
HETATM   13  C4  UNL     1       5.350 -13.174 -24.600  1.00  0.00    -0.036 A 
HETATM   14  C5  UNL     1       4.130 -13.688 -24.834  1.00  0.00     0.011 A 
HETATM   15  C6  UNL     1       4.092 -14.991 -25.289  1.00  0.00     0.001 A 
HETATM   16  C7  UNL     1       5.252 -15.715 -25.489  1.00  0.00     0.000 A 
HETATM   17  C8  UNL     1       6.530 -15.141 -25.224  1.00  0.00     0.001 A 
HETATM   18  C9  UNL     1       6.561 -13.858 -24.779  1.00  0.00     0.011 A 
ENDBRANCH  12  13
ENDBRANCH   8  11
ENDBRANCH   6   8
ENDBRANCH   1   3
BRANCH   1  19
HETATM   19  N3  UNL     1       2.560  -6.890 -23.195  1.00  0.00    -0.365 NA
BRANCH  19  20
HETATM   20  C13 UNL     1       1.566  -6.976 -24.064  1.00  0.00     0.178 A 
HETATM   21  C14 UNL     1       1.475  -5.773 -24.739  1.00  0.00     0.138 A 
HETATM   22  C15 UNL     1       0.386  -6.249 -25.862  1.00  0.00     0.087 A 
HETATM   23  N4  UNL     1      -0.121  -7.385 -25.953  1.00  0.00    -0.205 N 
HETATM   24  C16 UNL     1       0.159  -8.451 -25.105  1.00  0.00     0.684 A 
ATOM     25  H4  UNL     1      -0.792  -7.544 -26.705  1.00  0.00     0.183 HD
HETATM   26  N5  UNL     1      -0.314  -9.568 -25.230  1.00  0.00    -0.192 N 
HETATM   27  N6  UNL     1       1.037  -8.117 -24.174  1.00  0.00    -0.167 N 
ATOM     28  H5  UNL     1      -0.954  -9.569 -26.024  1.00  0.00     0.184 HD
ATOM     29  H6  UNL     1       1.306  -8.831 -23.497  1.00  0.00     0.186 HD
BRANCH  26  30
HETATM   30  C17 UNL     1      -0.289 -10.817 -24.683  1.00  0.00     0.049 A 
HETATM   31  C18 UNL     1       1.055 -11.277 -24.403  1.00  0.00     0.030 A 
HETATM   32  C19 UNL     1       1.199 -12.421 -23.685  1.00  0.00     0.002 A 
HETATM   33  C20 UNL     1       0.163 -13.175 -23.217  1.00  0.00     0.000 A 
HETATM   34  C21 UNL     1      -1.115 -12.755 -23.489  1.00  0.00     0.002 A 
HETATM   35  C22 UNL     1      -1.317 -11.570 -24.230  1.00  0.00     0.030 A 
ENDBRANCH  26  30
ENDBRANCH  19  20
ENDBRANCH   1  19
TORSDOF 8
ENDMDL
MODEL 2
REMARK VINA RESULT: -10.655240440      0.263      1.242
REMARK  8 active torsions:
REMARK  status: ('A' for Active; 'I' for Inactive)
REMARK    1  A    between atoms: O1_1  and  C1_3 
REMARK    2  A    between atoms: C1_3  and  C2_4 
REMARK    3  A    between atoms: C1_3  and  N1_12 
REMARK    4  A    between atoms: C3_5  and  C4_6 
REMARK    5  A    between atoms: N2_15  and  C12_16 
REMARK    6  A    between atoms: C12_16  and  N3_18 
REMARK    7  A    between atoms: N3_18  and  C13_19 
REMARK    8  A    between atoms: N5_25  and  C17_27 
ROOT
HETATM    1  C12 UNL     1       3.628  -6.650 -22.517  1.00  0.00     0.230 C 
HETATM    2  S1  UNL     1       3.469  -5.275 -21.403  1.00  0.00     0.003 SA
ENDROOT
BRANCH   1   3
HETATM    3  N2  UNL     1       4.821  -7.409 -22.234  1.00  0.00    -0.332 N 
HETATM    4  C11 UNL     1       4.915  -8.285 -21.124  1.00  0.00     0.147 C 
HETATM    5  C10 UNL     1       6.230  -8.961 -21.235  1.00  0.00     0.146 C 
HETATM    6  N1  UNL     1       6.536  -8.824 -22.672  1.00  0.00    -0.344 N 
HETATM    7  C23 UNL     1       6.025  -7.500 -23.004  1.00  0.00     0.254 C 
BRANCH   6   8
HETATM    8  C1  UNL     1       7.034  -9.863 -23.411  1.00  0.00     0.139 C 
BRANCH   8   9
HETATM    9  O1  UNL     1       8.259  -9.574 -23.911  1.00  0.00    -0.346 OA
ATOM     10  H1  UNL     1       8.426  -8.644 -23.814  1.00  0.00     0.219 HD
ENDBRANCH   8   9
BRANCH   8  11
HETATM   11  C2  UNL     1       6.652 -11.181 -23.830  1.00  0.00     0.056 C 
HETATM   12  C3  UNL     1       5.483 -11.689 -24.098  1.00  0.00     0.015 C 
BRANCH  12  13
HETATM   13  C4  UNL     1       5.413 -13.155 -24.519  1.00  0.00    -0.036 A 
HETATM   14  C5  UNL     1       6.569 -13.821 -24.677  1.00  0.00     0.011 A 
HETATM   15  C6  UNL     1       6.472 -15.105 -25.176  1.00  0.00     0.001 A 
HETATM   16  C7  UNL     1       5.247 -15.662 -25.489  1.00  0.00     0.000 A 
HETATM   17  C8  UNL     1       4.039 -14.924 -25.315  1.00  0.00     0.001 A 
HETATM   18  C9  UNL     1       4.141 -13.662 -24.823  1.00  0.00     0.011 A 
ENDBRANCH  12  13
ENDBRANCH   8  11
ENDBRANCH   6   8
ENDBRANCH   1   3
BRANCH   1  19
HETATM   19  N3  UNL     1       2.698  -6.757 -23.275  1.00  0.00    -0.365 NA
BRANCH  19  20
HETATM   20  C13 UNL     1       1.686  -6.895 -24.116  1.00  0.00     0.178 A 
HETATM   21  C14 UNL     1       1.547  -5.717 -24.825  1.00  0.00     0.138 A 
HETATM   22  C15 UNL     1       0.444  -6.255 -25.905  1.00  0.00     0.087 A 
HETATM   23  N4  UNL     1      -0.035  -7.406 -25.948  1.00  0.00    -0.205 N 
HETATM   24  C16 UNL     1       0.295  -8.438 -25.076  1.00  0.00     0.684 A 
ATOM     25  H4  UNL     1      -0.719  -7.606 -26.678  1.00  0.00     0.183 HD
HETATM   26  N5  UNL     1      -0.151  -9.570 -25.154  1.00  0.00    -0.192 N 
HETATM   27  N6  UNL     1       1.185  -8.053 -24.178  1.00  0.00    -0.167 N 
ATOM     28  H5  UNL     1      -0.810  -9.612 -25.931  1.00  0.00     0.184 HD
ATOM     29  H6  UNL     1       1.489  -8.738 -23.486  1.00  0.00     0.186 HD
BRANCH  26  30
HETATM   30  C17 UNL     1      -0.080 -10.800 -24.570  1.00  0.00     0.049 A 
HETATM   31  C18 UNL     1      -1.384 -11.387 -24.342  1.00  0.00     0.030 A 
HETATM   32  C19 UNL     1      -1.436 -12.684 -23.942  1.00  0.00     0.002 A 
HETATM   33  C20 UNL     1      -0.343 -13.472 -23.730  1.00  0.00     0.000 A 
HETATM   34  C21 UNL     1       0.898 -12.921 -23.929  1.00  0.00     0.002 A 
HETATM   35  C22 UNL     1       1.006 -11.576 -24.348  1.00  0.00     0.030 A 
ENDBRANCH  26  30
ENDBRANCH  19  20
ENDBRANCH   1  19
TORSDOF 8
ENDMDL
MODEL 3
REMARK VINA RESULT: -10.525404430      0.754      1.130
REMARK  8 active torsions:
REMARK  status: ('A' for Active; 'I' for Inactive)
REMARK    1  A    between atoms: O1_1  and  C1_3 
REMARK    2  A    between atoms: C1_3  and  C2_4 
REMARK    3  A    between atoms: C1_3  and  N1_12 
REMARK    4  A    between atoms: C3_5  and  C4_6 
REMARK    5  A    between atoms: N2_15  and  C12_16 
REMARK    6  A    between atoms: C12_16  and  N3_18 
REMARK    7  A    between atoms: N3_18  and  C13_19 
REMARK    8  A    between atoms: N5_25  and  C17_27 
ROOT
HETATM    1  C12 UNL     1       4.204  -6.299 -23.454  1.00  0.00     0.230 C 
HETATM    2  S1  UNL     1       4.687  -4.617 -23.148  1.00  0.00     0.003 SA
ENDROOT
BRANCH   1   3
HETATM    3  N2  UNL     1       5.176  -7.221 -22.920  1.00  0.00    -0.332 N 
HETATM    4  C11 UNL     1       4.886  -8.076 -21.827  1.00  0.00     0.147 C 
HETATM    5  C10 UNL     1       6.075  -8.943 -21.649  1.00  0.00     0.146 C 
HETATM    6  N1  UNL     1       6.711  -8.886 -22.979  1.00  0.00    -0.344 N 
HETATM    7  C23 UNL     1       6.493  -7.508 -23.402  1.00  0.00     0.254 C 
BRANCH   6   8
HETATM    8  C1  UNL     1       7.199 -10.004 -23.600  1.00  0.00     0.139 C 
BRANCH   8   9
HETATM    9  O1  UNL     1       8.528  -9.898 -23.842  1.00  0.00    -0.346 OA
ATOM     10  H1  UNL     1       8.732  -9.001 -24.076  1.00  0.00     0.219 HD
ENDBRANCH   8   9
BRANCH   8  11
HETATM   11  C2  UNL     1       6.731 -11.270 -24.085  1.00  0.00     0.056 C 
HETATM   12  C3  UNL     1       5.563 -11.841 -24.002  1.00  0.00     0.015 C 
BRANCH  12  13
HETATM   13  C4  UNL     1       5.387 -13.221 -24.628  1.00  0.00    -0.036 A 
HETATM   14  C5  UNL     1       4.135 -13.660 -24.844  1.00  0.00     0.011 A 
HETATM   15  C6  UNL     1       4.011 -14.959 -25.297  1.00  0.00     0.001 A 
HETATM   16  C7  UNL     1       5.122 -15.752 -25.514  1.00  0.00     0.000 A 
HETATM   17  C8  UNL     1       6.437 -15.256 -25.268  1.00  0.00     0.001 A 
HETATM   18  C9  UNL     1       6.552 -13.977 -24.824  1.00  0.00     0.011 A 
ENDBRANCH  12  13
ENDBRANCH   8  11
ENDBRANCH   6   8
ENDBRANCH   1   3
BRANCH   1  19
HETATM   19  N3  UNL     1       3.132  -6.394 -23.995  1.00  0.00    -0.365 NA
BRANCH  19  20
HETATM   20  C13 UNL     1       1.965  -6.503 -24.610  1.00  0.00     0.178 A 
HETATM   21  C14 UNL     1       1.711  -5.316 -25.271  1.00  0.00     0.138 A 
HETATM   22  C15 UNL     1       0.397  -5.822 -26.102  1.00  0.00     0.087 A 
HETATM   23  N4  UNL     1      -0.107  -6.961 -26.050  1.00  0.00    -0.205 N 
HETATM   24  C16 UNL     1       0.371  -8.007 -25.267  1.00  0.00     0.684 A 
ATOM     25  H4  UNL     1      -0.931  -7.140 -26.624  1.00  0.00     0.183 HD
HETATM   26  N5  UNL     1      -0.108  -9.129 -25.256  1.00  0.00    -0.192 N 
HETATM   27  N6  UNL     1       1.436  -7.649 -24.571  1.00  0.00    -0.167 N 
ATOM     28  H5  UNL     1      -0.913  -9.150 -25.881  1.00  0.00     0.184 HD
ATOM     29  H6  UNL     1       1.860  -8.346 -23.959  1.00  0.00     0.186 HD
BRANCH  26  30
HETATM   30  C17 UNL     1       0.054 -10.364 -24.703  1.00  0.00     0.049 A 
HETATM   31  C18 UNL     1      -1.181 -11.119 -24.652  1.00  0.00     0.030 A 
HETATM   32  C19 UNL     1      -1.111 -12.429 -24.298  1.00  0.00     0.002 A 
HETATM   33  C20 UNL     1       0.043 -13.082 -23.979  1.00  0.00     0.000 A 
HETATM   34  C21 UNL     1       1.217 -12.372 -24.010  1.00  0.00     0.002 A 
HETATM   35  C22 UNL     1       1.198 -11.008 -24.374  1.00  0.00     0.030 A 
ENDBRANCH  26  30
ENDBRANCH  19  20
ENDBRANCH   1  19
TORSDOF 8
ENDMDL
MODEL 4
REMARK VINA RESULT: -10.407063630      3.995      6.273
REMARK  8 active torsions:
REMARK  status: ('A' for Active; 'I' for Inactive)
REMARK    1  A    between atoms: O1_1  and  C1_3 
REMARK    2  A    between atoms: C1_3  and  C2_4 
REMARK    3  A    between atoms: C1_3  and  N1_12 
REMARK    4  A    between atoms: C3_5  and  C4_6 
REMARK    5  A    between atoms: N2_15  and  C12_16 
REMARK    6  A    between atoms: C12_16  and  N3_18 
REMARK    7  A    between atoms: N3_18  and  C13_19 
REMARK    8  A    between atoms: N5_25  and  C17_27 
ROOT
HETATM    1  C12 UNL     1       4.106 -12.281 -24.328  1.00  0.00     0.230 C 
HETATM    2  S1  UNL     1       4.952 -10.789 -23.862  1.00  0.00     0.003 SA
ENDROOT
BRANCH   1   3
HETATM    3  N2  UNL     1       5.038 -13.364 -24.526  1.00  0.00    -0.332 N 
HETATM    4  C11 UNL     1       4.633 -14.627 -25.025  1.00  0.00     0.147 C 
HETATM    5  C10 UNL     1       5.872 -15.424 -25.196  1.00  0.00     0.146 C 
HETATM    6  N1  UNL     1       6.909 -14.380 -25.300  1.00  0.00    -0.344 N 
HETATM    7  C23 UNL     1       6.459 -13.359 -24.361  1.00  0.00     0.254 C 
BRANCH   6   8
HETATM    8  C1  UNL     1       7.905 -14.435 -26.237  1.00  0.00     0.139 C 
BRANCH   8   9
HETATM    9  O1  UNL     1       7.453 -14.927 -27.415  1.00  0.00    -0.346 OA
ATOM     10  H1  UNL     1       6.512 -15.048 -27.363  1.00  0.00     0.219 HD
ENDBRANCH   8   9
BRANCH   8  11
HETATM   11  C2  UNL     1       9.302 -14.132 -26.357  1.00  0.00     0.056 C 
HETATM   12  C3  UNL     1      10.359 -14.855 -26.120  1.00  0.00     0.015 C 
BRANCH  12  13
HETATM   13  C4  UNL     1      11.731 -14.224 -26.346  1.00  0.00    -0.036 A 
HETATM   14  C5  UNL     1      12.118 -13.997 -27.613  1.00  0.00     0.011 A 
HETATM   15  C6  UNL     1      13.410 -13.540 -27.785  1.00  0.00     0.001 A 
HETATM   16  C7  UNL     1      14.247 -13.332 -26.705  1.00  0.00     0.000 A 
HETATM   17  C8  UNL     1      13.805 -13.590 -25.374  1.00  0.00     0.001 A 
HETATM   18  C9  UNL     1      12.533 -14.038 -25.211  1.00  0.00     0.011 A 
ENDBRANCH  12  13
ENDBRANCH   8  11
ENDBRANCH   6   8
ENDBRANCH   1   3
BRANCH   1  19
HETATM   19  N3  UNL     1       2.908 -12.161 -24.343  1.00  0.00    -0.365 NA
BRANCH  19  20
HETATM   20  C13 UNL     1       1.593 -12.011 -24.374  1.00  0.00     0.178 A 
HETATM   21  C14 UNL     1       1.020 -13.068 -23.693  1.00  0.00     0.138 A 
HETATM   22  C15 UNL     1      -0.512 -12.499 -23.682  1.00  0.00     0.087 A 
HETATM   23  N4  UNL     1      -0.895 -11.421 -24.180  1.00  0.00    -0.205 N 
HETATM   24  C16 UNL     1      -0.072 -10.511 -24.835  1.00  0.00     0.684 A 
ATOM     25  H4  UNL     1      -1.886 -11.189 -24.101  1.00  0.00     0.183 HD
HETATM   26  N5  UNL     1      -0.452  -9.442 -25.282  1.00  0.00    -0.192 N 
HETATM   27  N6  UNL     1       1.182 -10.927 -24.874  1.00  0.00    -0.167 N 
ATOM     28  H5  UNL     1      -1.455  -9.354 -25.120  1.00  0.00     0.184 HD
ATOM     29  H6  UNL     1       1.866 -10.330 -25.340  1.00  0.00     0.186 HD
BRANCH  26  30
HETATM   30  C17 UNL     1      -0.010  -8.322 -25.922  1.00  0.00     0.049 A 
HETATM   31  C18 UNL     1       0.300  -8.562 -27.316  1.00  0.00     0.030 A 
HETATM   32  C19 UNL     1       0.568  -7.487 -28.102  1.00  0.00     0.002 A 
HETATM   33  C20 UNL     1       0.574  -6.194 -27.666  1.00  0.00     0.000 A 
HETATM   34  C21 UNL     1       0.296  -5.957 -26.343  1.00  0.00     0.002 A 
HETATM   35  C22 UNL     1       0.008  -7.042 -25.486  1.00  0.00     0.030 A 
ENDBRANCH  26  30
ENDBRANCH  19  20
ENDBRANCH   1  19
TORSDOF 8
ENDMDL
MODEL 5
REMARK VINA RESULT: -10.256951958      0.921      1.295
REMARK  8 active torsions:
REMARK  status: ('A' for Active; 'I' for Inactive)
REMARK    1  A    between atoms: O1_1  and  C1_3 
REMARK    2  A    between atoms: C1_3  and  C2_4 
REMARK    3  A    between atoms: C1_3  and  N1_12 
REMARK    4  A    between atoms: C3_5  and  C4_6 
REMARK    5  A    between atoms: N2_15  and  C12_16 
REMARK    6  A    between atoms: C12_16  and  N3_18 
REMARK    7  A    between atoms: N3_18  and  C13_19 
REMARK    8  A    between atoms: N5_25  and  C17_27 
ROOT
HETATM    1  C12 UNL     1       3.172  -6.880 -23.616  1.00  0.00     0.230 C 
HETATM    2  S1  UNL     1       2.749  -5.369 -22.782  1.00  0.00     0.003 SA
ENDROOT
BRANCH   1   3
HETATM    3  N2  UNL     1       4.409  -7.421 -23.110  1.00  0.00    -0.332 N 
HETATM    4  C11 UNL     1       4.518  -7.970 -21.808  1.00  0.00     0.147 C 
HETATM    5  C10 UNL     1       5.891  -8.519 -21.701  1.00  0.00     0.146 C 
HETATM    6  N1  UNL     1       6.262  -8.725 -23.114  1.00  0.00    -0.344 N 
HETATM    7  C23 UNL     1       5.656  -7.586 -23.794  1.00  0.00     0.254 C 
BRANCH   6   8
HETATM    8  C1  UNL     1       6.888  -9.863 -23.544  1.00  0.00     0.139 C 
BRANCH   8   9
HETATM    9  O1  UNL     1       8.227  -9.687 -23.644  1.00  0.00    -0.346 OA
ATOM     10  H1  UNL     1       8.414  -8.760 -23.735  1.00  0.00     0.219 HD
ENDBRANCH   8   9
BRANCH   8  11
HETATM   11  C2  UNL     1       6.559 -11.205 -23.930  1.00  0.00     0.056 C 
HETATM   12  C3  UNL     1       5.432 -11.735 -24.311  1.00  0.00     0.015 C 
BRANCH  12  13
HETATM   13  C4  UNL     1       5.412 -13.222 -24.653  1.00  0.00    -0.036 A 
HETATM   14  C5  UNL     1       6.591 -13.846 -24.818  1.00  0.00     0.011 A 
HETATM   15  C6  UNL     1       6.534 -15.159 -25.244  1.00  0.00     0.001 A 
HETATM   16  C7  UNL     1       5.325 -15.783 -25.485  1.00  0.00     0.000 A 
HETATM   17  C8  UNL     1       4.092 -15.089 -25.306  1.00  0.00     0.001 A 
HETATM   18  C9  UNL     1       4.155 -13.799 -24.884  1.00  0.00     0.011 A 
ENDBRANCH  12  13
ENDBRANCH   8  11
ENDBRANCH   6   8
ENDBRANCH   1   3
BRANCH   1  19
HETATM   19  N3  UNL     1       2.339  -7.232 -24.411  1.00  0.00    -0.365 NA
BRANCH  19  20
HETATM   20  C13 UNL     1       1.441  -7.629 -25.298  1.00  0.00     0.178 A 
HETATM   21  C14 UNL     1       1.445  -6.734 -26.351  1.00  0.00     0.138 A 
HETATM   22  C15 UNL     1       0.472  -7.587 -27.351  1.00  0.00     0.087 A 
HETATM   23  N4  UNL     1      -0.044  -8.694 -27.099  1.00  0.00    -0.205 N 
HETATM   24  C16 UNL     1       0.125  -9.399 -25.912  1.00  0.00     0.684 A 
ATOM     25  H4  UNL     1      -0.634  -9.114 -27.817  1.00  0.00     0.183 HD
HETATM   26  N5  UNL     1      -0.353 -10.499 -25.694  1.00  0.00    -0.192 N 
HETATM   27  N6  UNL     1       0.905  -8.749 -25.064  1.00  0.00    -0.167 N 
ATOM     28  H5  UNL     1      -0.906 -10.785 -26.503  1.00  0.00     0.184 HD
ATOM     29  H6  UNL     1       1.087  -9.182 -24.159  1.00  0.00     0.186 HD
BRANCH  26  30
HETATM   30  C17 UNL     1      -0.410 -11.483 -24.752  1.00  0.00     0.049 A 
HETATM   31  C18 UNL     1       0.896 -12.007 -24.412  1.00  0.00     0.030 A 
HETATM   32  C19 UNL     1       0.986 -12.854 -23.354  1.00  0.00     0.002 A 
HETATM   33  C20 UNL     1      -0.073 -13.253 -22.592  1.00  0.00     0.000 A 
HETATM   34  C21 UNL     1      -1.318 -12.773 -22.915  1.00  0.00     0.002 A 
HETATM   35  C22 UNL     1      -1.463 -11.888 -24.005  1.00  0.00     0.030 A 
ENDBRANCH  26  30
ENDBRANCH  19  20
ENDBRANCH   1  19
TORSDOF 8
ENDMDL
