MODEL 1
REMARK VINA RESULT: -9.617488384      0.000      0.000
REMARK  3 active torsions:
REMARK  status: ('A' for Active; 'I' for Inactive)
REMARK       I    between atoms: C3_3  and  N1_5 
REMARK    1  A    between atoms: N1_5  and  C4_7 
REMARK    2  A    between atoms: C6_9  and  N2_10 
REMARK       I    between atoms: N2_10  and  C7_12 
REMARK       I    between atoms: C7_12  and  N3_14 
REMARK    3  A    between atoms: C10_17  and  N4_20 
ROOT
HETATM    1  C1  UNL     1      13.089 -13.777 -25.772  1.00  0.00     0.022 C 
HETATM    2  C2  UNL     1      11.912 -13.977 -25.913  1.00  0.00    -0.017 C 
HETATM    3  C3  UNL     1      10.465 -14.228 -26.060  1.00  0.00     0.296 C 
HETATM    4  O1  UNL     1      10.170 -15.281 -26.657  1.00  0.00    -0.258 OA
HETATM    5  N1  UNL     1       9.516 -13.352 -25.567  1.00  0.00    -0.340 N 
ATOM      6  H1  UNL     1       9.931 -12.546 -25.099  1.00  0.00     0.164 HD
ENDROOT
BRANCH   5   7
HETATM    7  C4  UNL     1       8.090 -13.314 -25.561  1.00  0.00     0.043 C 
HETATM    8  C5  UNL     1       7.656 -11.918 -25.236  1.00  0.00     0.057 C 
HETATM    9  C6  UNL     1       6.589 -11.666 -24.268  1.00  0.00     0.088 C 
HETATM   10  C20 UNL     1       5.178 -11.870 -24.832  1.00  0.00     0.030 C 
HETATM   11  C21 UNL     1       5.279 -13.202 -25.572  1.00  0.00    -0.012 C 
HETATM   12  C22 UNL     1       5.987 -12.987 -26.854  1.00  0.00     0.012 C 
HETATM   13  C26 UNL     1       5.935 -14.126 -24.582  1.00  0.00     0.012 C 
HETATM   14  C23 UNL     1       7.382 -13.634 -26.893  1.00  0.00     0.015 C 
HETATM   15  C24 UNL     1       7.138 -15.023 -26.413  1.00  0.00     0.014 C 
HETATM   16  C25 UNL     1       7.354 -14.452 -25.029  1.00  0.00     0.015 C 
BRANCH   9  17
HETATM   17  N2  UNL     1       6.615 -10.209 -24.023  1.00  0.00    -0.338 N 
HETATM   18  C7  UNL     1       5.747  -9.544 -23.150  1.00  0.00     0.318 C 
HETATM   19  O2  UNL     1       4.881 -10.189 -22.523  1.00  0.00    -0.247 OA
HETATM   20  N3  UNL     1       5.843  -8.151 -22.976  1.00  0.00    -0.334 N 
HETATM   21  C8  UNL     1       6.840  -7.366 -23.689  1.00  0.00     0.131 C 
HETATM   22  C19 UNL     1       4.940  -7.481 -22.079  1.00  0.00     0.131 C 
HETATM   23  C9  UNL     1       6.919  -6.011 -23.020  1.00  0.00     0.074 C 
HETATM   24  C10 UNL     1       5.586  -5.305 -23.171  1.00  0.00     0.213 C 
HETATM   25  C11 UNL     1       5.391  -5.093 -24.604  1.00  0.00    -0.146 C 
HETATM   26  C18 UNL     1       4.474  -6.145 -22.644  1.00  0.00     0.074 C 
HETATM   27  C12 UNL     1       5.229  -4.937 -25.808  1.00  0.00     0.099 C 
ATOM     28  H2  UNL     1       7.310  -9.653 -24.521  1.00  0.00     0.164 HD
BRANCH  24  29
HETATM   29  N4  UNL     1       5.662  -4.005 -22.549  1.00  0.00     0.109 N 
HETATM   30  C13 UNL     1       7.019  -3.705 -22.193  1.00  0.00     0.274 C 
HETATM   31  C14 UNL     1       7.130  -2.183 -22.064  1.00  0.00     0.030 C 
HETATM   32  C15 UNL     1       5.777  -1.575 -21.892  1.00  0.00     0.003 C 
HETATM   33  C16 UNL     1       4.861  -2.381 -21.004  1.00  0.00     0.030 C 
HETATM   34  C17 UNL     1       4.840  -3.848 -21.390  1.00  0.00     0.274 C 
ENDBRANCH  24  29
ENDBRANCH   9  17
ENDBRANCH   5   7
TORSDOF 3
ENDMDL
MODEL 2
REMARK VINA RESULT: -8.643348366      1.554      1.991
REMARK  3 active torsions:
REMARK  status: ('A' for Active; 'I' for Inactive)
REMARK       I    between atoms: C3_3  and  N1_5 
REMARK    1  A    between atoms: N1_5  and  C4_7 
REMARK    2  A    between atoms: C6_9  and  N2_10 
REMARK       I    between atoms: N2_10  and  C7_12 
REMARK       I    between atoms: C7_12  and  N3_14 
REMARK    3  A    between atoms: C10_17  and  N4_20 
ROOT
HETATM    1  C1  UNL     1      12.715 -13.412 -25.531  1.00  0.00     0.022 C 
HETATM    2  C2  UNL     1      11.590 -13.778 -25.744  1.00  0.00    -0.017 C 
HETATM    3  C3  UNL     1      10.205 -14.232 -25.979  1.00  0.00     0.296 C 
HETATM    4  O1  UNL     1      10.101 -15.319 -26.580  1.00  0.00    -0.258 OA
HETATM    5  N1  UNL     1       9.112 -13.497 -25.560  1.00  0.00    -0.340 N 
ATOM      6  H1  UNL     1       9.378 -12.638 -25.078  1.00  0.00     0.164 HD
ENDROOT
BRANCH   5   7
HETATM    7  C4  UNL     1       7.698 -13.661 -25.646  1.00  0.00     0.043 C 
HETATM    8  C5  UNL     1       7.044 -12.464 -25.027  1.00  0.00     0.057 C 
HETATM    9  C6  UNL     1       5.919 -12.612 -24.105  1.00  0.00     0.088 C 
HETATM   10  C20 UNL     1       4.576 -12.865 -24.799  1.00  0.00     0.030 C 
HETATM   11  C21 UNL     1       4.905 -13.943 -25.829  1.00  0.00    -0.012 C 
HETATM   12  C22 UNL     1       5.615 -13.320 -26.968  1.00  0.00     0.012 C 
HETATM   13  C26 UNL     1       5.660 -14.984 -25.046  1.00  0.00     0.012 C 
HETATM   14  C23 UNL     1       7.093 -13.736 -27.062  1.00  0.00     0.015 C 
HETATM   15  C24 UNL     1       7.048 -15.220 -26.949  1.00  0.00     0.014 C 
HETATM   16  C25 UNL     1       7.126 -14.987 -25.456  1.00  0.00     0.015 C 
BRANCH   9  17
HETATM   17  N2  UNL     1       5.714 -11.272 -23.515  1.00  0.00    -0.338 N 
HETATM   18  C7  UNL     1       4.659 -10.418 -23.856  1.00  0.00     0.318 C 
HETATM   19  O2  UNL     1       3.819 -10.775 -24.708  1.00  0.00    -0.247 OA
HETATM   20  N3  UNL     1       4.540  -9.157 -23.243  1.00  0.00    -0.334 N 
HETATM   21  C8  UNL     1       5.498  -8.707 -22.245  1.00  0.00     0.131 C 
HETATM   22  C19 UNL     1       3.453  -8.288 -23.608  1.00  0.00     0.131 C 
HETATM   23  C9  UNL     1       4.896  -7.511 -21.539  1.00  0.00     0.074 C 
HETATM   24  C10 UNL     1       4.711  -6.386 -22.538  1.00  0.00     0.213 C 
HETATM   25  C11 UNL     1       6.050  -6.016 -22.995  1.00  0.00    -0.146 C 
HETATM   26  C18 UNL     1       3.902  -6.836 -23.706  1.00  0.00     0.074 C 
HETATM   27  C12 UNL     1       7.175  -5.727 -23.384  1.00  0.00     0.099 C 
ATOM     28  H2  UNL     1       6.383 -10.950 -22.817  1.00  0.00     0.164 HD
BRANCH  24  29
HETATM   29  N4  UNL     1       4.152  -5.238 -21.866  1.00  0.00     0.109 N 
HETATM   30  C13 UNL     1       3.299  -5.660 -20.792  1.00  0.00     0.274 C 
HETATM   31  C14 UNL     1       3.185  -4.487 -19.813  1.00  0.00     0.030 C 
HETATM   32  C15 UNL     1       3.582  -3.212 -20.481  1.00  0.00     0.003 C 
HETATM   33  C16 UNL     1       3.102  -3.103 -21.908  1.00  0.00     0.030 C 
HETATM   34  C17 UNL     1       3.417  -4.350 -22.712  1.00  0.00     0.274 C 
ENDBRANCH  24  29
ENDBRANCH   9  17
ENDBRANCH   5   7
TORSDOF 3
ENDMDL
MODEL 3
REMARK VINA RESULT: -8.442718405      3.643      5.956
REMARK  3 active torsions:
REMARK  status: ('A' for Active; 'I' for Inactive)
REMARK       I    between atoms: C3_3  and  N1_5 
REMARK    1  A    between atoms: N1_5  and  C4_7 
REMARK    2  A    between atoms: C6_9  and  N2_10 
REMARK       I    between atoms: N2_10  and  C7_12 
REMARK       I    between atoms: C7_12  and  N3_14 
REMARK    3  A    between atoms: C10_17  and  N4_20 
ROOT
HETATM    1  C1  UNL     1       4.966 -13.288 -24.444  1.00  0.00     0.022 C 
HETATM    2  C2  UNL     1       4.295 -12.298 -24.333  1.00  0.00    -0.017 C 
HETATM    3  C3  UNL     1       3.490 -11.067 -24.208  1.00  0.00     0.296 C 
HETATM    4  O1  UNL     1       3.323 -10.661 -23.042  1.00  0.00    -0.258 OA
HETATM    5  N1  UNL     1       2.963 -10.420 -25.311  1.00  0.00    -0.340 N 
ATOM      6  H1  UNL     1       3.203 -10.883 -26.188  1.00  0.00     0.164 HD
ENDROOT
BRANCH   5   7
HETATM    7  C4  UNL     1       2.163  -9.257 -25.507  1.00  0.00     0.043 C 
HETATM    8  C5  UNL     1       2.963  -8.058 -25.102  1.00  0.00     0.057 C 
HETATM    9  C6  UNL     1       2.376  -7.002 -24.278  1.00  0.00     0.088 C 
HETATM   10  C20 UNL     1       1.489  -6.026 -25.057  1.00  0.00     0.030 C 
HETATM   11  C21 UNL     1       0.616  -6.942 -25.912  1.00  0.00    -0.012 C 
HETATM   12  C22 UNL     1       1.419  -7.448 -27.048  1.00  0.00     0.012 C 
HETATM   13  C26 UNL     1       0.094  -7.967 -24.942  1.00  0.00     0.012 C 
HETATM   14  C23 UNL     1       1.724  -8.952 -26.953  1.00  0.00     0.015 C 
HETATM   15  C24 UNL     1       0.396  -9.562 -26.664  1.00  0.00     0.014 C 
HETATM   16  C25 UNL     1       0.739  -9.320 -25.210  1.00  0.00     0.015 C 
BRANCH   9  17
HETATM   17  N2  UNL     1       3.508  -6.140 -23.878  1.00  0.00    -0.338 N 
HETATM   18  C7  UNL     1       3.587  -5.465 -22.655  1.00  0.00     0.318 C 
HETATM   19  O2  UNL     1       2.662  -5.574 -21.823  1.00  0.00    -0.247 OA
HETATM   20  N3  UNL     1       4.704  -4.663 -22.356  1.00  0.00    -0.334 N 
HETATM   21  C8  UNL     1       5.802  -4.514 -23.298  1.00  0.00     0.131 C 
HETATM   22  C19 UNL     1       4.768  -3.973 -21.095  1.00  0.00     0.131 C 
HETATM   23  C9  UNL     1       6.971  -3.912 -22.548  1.00  0.00     0.074 C 
HETATM   24  C10 UNL     1       6.589  -2.527 -22.064  1.00  0.00     0.213 C 
HETATM   25  C11 UNL     1       6.356  -1.722 -23.262  1.00  0.00    -0.146 C 
HETATM   26  C18 UNL     1       5.341  -2.570 -21.252  1.00  0.00     0.074 C 
HETATM   27  C12 UNL     1       6.145  -1.061 -24.272  1.00  0.00     0.099 C 
ATOM     28  H2  UNL     1       4.279  -6.028 -24.535  1.00  0.00     0.164 HD
BRANCH  24  29
HETATM   29  N4  UNL     1       7.706  -1.942 -21.363  1.00  0.00     0.109 N 
HETATM   30  C13 UNL     1       8.783  -2.886 -21.275  1.00  0.00     0.274 C 
HETATM   31  C14 UNL     1      10.070  -2.087 -21.040  1.00  0.00     0.030 C 
HETATM   32  C15 UNL     1       9.748  -0.718 -20.537  1.00  0.00     0.003 C 
HETATM   33  C16 UNL     1       8.607  -0.690 -19.550  1.00  0.00     0.030 C 
HETATM   34  C17 UNL     1       7.404  -1.469 -20.047  1.00  0.00     0.274 C 
ENDBRANCH  24  29
ENDBRANCH   9  17
ENDBRANCH   5   7
TORSDOF 3
ENDMDL
MODEL 4
REMARK VINA RESULT: -8.343232143      5.607      8.420
REMARK  3 active torsions:
REMARK  status: ('A' for Active; 'I' for Inactive)
REMARK       I    between atoms: C3_3  and  N1_5 
REMARK    1  A    between atoms: N1_5  and  C4_7 
REMARK    2  A    between atoms: C6_9  and  N2_10 
REMARK       I    between atoms: N2_10  and  C7_12 
REMARK       I    between atoms: C7_12  and  N3_14 
REMARK    3  A    between atoms: C10_17  and  N4_20 
ROOT
HETATM    1  C1  UNL     1       4.963 -11.951 -24.049  1.00  0.00     0.022 C 
HETATM    2  C2  UNL     1       4.289 -10.986 -24.290  1.00  0.00    -0.017 C 
HETATM    3  C3  UNL     1       3.474  -9.798 -24.610  1.00  0.00     0.296 C 
HETATM    4  O1  UNL     1       3.729  -8.784 -23.931  1.00  0.00    -0.258 OA
HETATM    5  N1  UNL     1       2.501  -9.819 -25.592  1.00  0.00    -0.340 N 
ATOM      6  H1  UNL     1       2.431 -10.726 -26.054  1.00  0.00     0.164 HD
ENDROOT
BRANCH   5   7
HETATM    7  C4  UNL     1       1.573  -8.868 -26.109  1.00  0.00     0.043 C 
HETATM    8  C5  UNL     1       2.287  -8.000 -27.099  1.00  0.00     0.057 C 
HETATM    9  C6  UNL     1       2.115  -6.548 -27.091  1.00  0.00     0.088 C 
HETATM   10  C20 UNL     1       0.818  -6.072 -27.754  1.00  0.00     0.030 C 
HETATM   11  C21 UNL     1      -0.244  -6.999 -27.167  1.00  0.00    -0.012 C 
HETATM   12  C22 UNL     1      -0.145  -8.321 -27.826  1.00  0.00     0.012 C 
HETATM   13  C26 UNL     1       0.010  -6.960 -25.684  1.00  0.00     0.012 C 
HETATM   14  C23 UNL     1       0.368  -9.428 -26.890  1.00  0.00     0.015 C 
HETATM   15  C24 UNL     1      -0.475  -9.277 -25.671  1.00  0.00     0.014 C 
HETATM   16  C25 UNL     1       0.579  -8.292 -25.214  1.00  0.00     0.015 C 
BRANCH   9  17
HETATM   17  N2  UNL     1       3.144  -6.025 -28.014  1.00  0.00    -0.338 N 
HETATM   18  C7  UNL     1       4.114  -5.083 -27.655  1.00  0.00     0.318 C 
HETATM   19  O2  UNL     1       4.143  -4.631 -26.491  1.00  0.00    -0.247 OA
HETATM   20  N3  UNL     1       5.059  -4.640 -28.600  1.00  0.00    -0.334 N 
HETATM   21  C8  UNL     1       5.058  -5.144 -29.964  1.00  0.00     0.131 C 
HETATM   22  C19 UNL     1       6.046  -3.667 -28.217  1.00  0.00     0.131 C 
HETATM   23  C9  UNL     1       6.380  -4.764 -30.594  1.00  0.00     0.074 C 
HETATM   24  C10 UNL     1       6.480  -3.252 -30.664  1.00  0.00     0.213 C 
HETATM   25  C11 UNL     1       5.408  -2.809 -31.554  1.00  0.00    -0.146 C 
HETATM   26  C18 UNL     1       6.283  -2.641 -29.319  1.00  0.00     0.074 C 
HETATM   27  C12 UNL     1       4.497  -2.447 -32.288  1.00  0.00     0.099 C 
ATOM     28  H2  UNL     1       3.147  -6.373 -28.973  1.00  0.00     0.164 HD
BRANCH  24  29
HETATM   29  N4  UNL     1       7.732  -2.884 -31.278  1.00  0.00     0.109 N 
HETATM   30  C13 UNL     1       8.679  -3.954 -31.149  1.00  0.00     0.274 C 
HETATM   31  C14 UNL     1       9.739  -3.758 -32.239  1.00  0.00     0.030 C 
HETATM   32  C15 UNL     1       9.712  -2.353 -32.744  1.00  0.00     0.003 C 
HETATM   33  C16 UNL     1       9.490  -1.326 -31.661  1.00  0.00     0.030 C 
HETATM   34  C17 UNL     1       8.321  -1.687 -30.764  1.00  0.00     0.274 C 
ENDBRANCH  24  29
ENDBRANCH   9  17
ENDBRANCH   5   7
TORSDOF 3
ENDMDL
MODEL 5
REMARK VINA RESULT: -8.272974783      5.722      7.043
REMARK  3 active torsions:
REMARK  status: ('A' for Active; 'I' for Inactive)
REMARK       I    between atoms: C3_3  and  N1_5 
REMARK    1  A    between atoms: N1_5  and  C4_7 
REMARK    2  A    between atoms: C6_9  and  N2_10 
REMARK       I    between atoms: N2_10  and  C7_12 
REMARK       I    between atoms: C7_12  and  N3_14 
REMARK    3  A    between atoms: C10_17  and  N4_20 
ROOT
HETATM    1  C1  UNL     1       1.578 -12.639 -23.656  1.00  0.00     0.022 C 
HETATM    2  C2  UNL     1       1.165 -11.700 -24.284  1.00  0.00    -0.017 C 
HETATM    3  C3  UNL     1       0.667 -10.532 -25.036  1.00  0.00     0.296 C 
HETATM    4  O1  UNL     1      -0.572 -10.399 -25.045  1.00  0.00    -0.258 OA
HETATM    5  N1  UNL     1       1.522  -9.656 -25.679  1.00  0.00    -0.340 N 
ATOM      6  H1  UNL     1       2.503  -9.909 -25.563  1.00  0.00     0.164 HD
ENDROOT
BRANCH   5   7
HETATM    7  C4  UNL     1       1.350  -8.481 -26.469  1.00  0.00     0.043 C 
HETATM    8  C5  UNL     1       2.329  -7.449 -26.002  1.00  0.00     0.057 C 
HETATM    9  C6  UNL     1       1.920  -6.061 -25.793  1.00  0.00     0.088 C 
HETATM   10  C20 UNL     1       1.820  -5.242 -27.084  1.00  0.00     0.030 C 
HETATM   11  C21 UNL     1       1.053  -6.161 -28.031  1.00  0.00    -0.012 C 
HETATM   12  C22 UNL     1       1.967  -7.216 -28.524  1.00  0.00     0.012 C 
HETATM   13  C26 UNL     1      -0.135  -6.614 -27.225  1.00  0.00     0.012 C 
HETATM   14  C23 UNL     1       1.627  -8.615 -27.980  1.00  0.00     0.015 C 
HETATM   15  C24 UNL     1       0.163  -8.740 -28.223  1.00  0.00     0.014 C 
HETATM   16  C25 UNL     1       0.006  -8.087 -26.867  1.00  0.00     0.015 C 
BRANCH   9  17
HETATM   17  N2  UNL     1       3.057  -5.415 -25.104  1.00  0.00    -0.338 N 
HETATM   18  C7  UNL     1       2.922  -4.536 -24.024  1.00  0.00     0.318 C 
HETATM   19  O2  UNL     1       1.787  -4.254 -23.587  1.00  0.00    -0.247 OA
HETATM   20  N3  UNL     1       4.062  -3.965 -23.426  1.00  0.00    -0.334 N 
HETATM   21  C8  UNL     1       5.401  -4.271 -23.905  1.00  0.00     0.131 C 
HETATM   22  C19 UNL     1       3.907  -3.059 -22.319  1.00  0.00     0.131 C 
HETATM   23  C9  UNL     1       6.382  -3.808 -22.850  1.00  0.00     0.074 C 
HETATM   24  C10 UNL     1       6.279  -2.303 -22.703  1.00  0.00     0.213 C 
HETATM   25  C11 UNL     1       6.691  -1.734 -23.985  1.00  0.00    -0.146 C 
HETATM   26  C18 UNL     1       4.877  -1.888 -22.411  1.00  0.00     0.074 C 
HETATM   27  C12 UNL     1       7.020  -1.269 -25.070  1.00  0.00     0.099 C 
ATOM     28  H2  UNL     1       3.998  -5.623 -25.437  1.00  0.00     0.164 HD
BRANCH  24  29
HETATM   29  N4  UNL     1       7.224  -1.854 -21.709  1.00  0.00     0.109 N 
HETATM   30  C13 UNL     1       8.276  -2.818 -21.557  1.00  0.00     0.274 C 
HETATM   31  C14 UNL     1       9.477  -2.087 -20.947  1.00  0.00     0.030 C 
HETATM   32  C15 UNL     1       9.041  -0.810 -20.310  1.00  0.00     0.003 C 
HETATM   33  C16 UNL     1       7.725  -0.918 -19.579  1.00  0.00     0.030 C 
HETATM   34  C17 UNL     1       6.657  -1.588 -20.423  1.00  0.00     0.274 C 
ENDBRANCH  24  29
ENDBRANCH   9  17
ENDBRANCH   5   7
TORSDOF 3
ENDMDL
