MODEL 1
REMARK VINA RESULT: -10.397633662      0.000      0.000
REMARK  5 active torsions:
REMARK  status: ('A' for Active; 'I' for Inactive)
REMARK    1  A    between atoms: C2_2  and  O1_3 
REMARK    2  A    between atoms: C7_9  and  O2_10 
REMARK    3  A    between atoms: O2_10  and  C8_11 
REMARK    4  A    between atoms: C8_11  and  C9_13 
REMARK    5  A    between atoms: C10_14  and  C11_15 
ROOT
HETATM    1  C1  UNL     1       7.824 -10.705 -21.995  1.00  0.00     0.046 C 
HETATM    2  C2  UNL     1       7.433 -10.214 -23.332  1.00  0.00     0.059 C 
HETATM    3  C3  UNL     1       6.742  -8.854 -23.160  1.00  0.00     0.038 C 
HETATM    4  C4  UNL     1       5.307  -9.050 -23.537  1.00  0.00     0.008 C 
HETATM    5  C5  UNL     1       5.117 -10.530 -23.461  1.00  0.00    -0.005 C 
HETATM    6  C6  UNL     1       4.039 -11.050 -24.391  1.00  0.00     0.038 C 
HETATM    7  C7  UNL     1       4.064 -12.559 -24.265  1.00  0.00     0.141 C 
HETATM    8  C17 UNL     1       5.388 -13.075 -24.791  1.00  0.00    -0.009 C 
HETATM    9  C18 UNL     1       5.558 -12.925 -26.252  1.00  0.00     0.013 C 
HETATM   10  C19 UNL     1       6.600 -13.985 -26.603  1.00  0.00     0.005 C 
HETATM   11  C20 UNL     1       6.662 -14.927 -25.441  1.00  0.00    -0.014 C 
HETATM   12  C21 UNL     1       7.837 -14.516 -24.577  1.00  0.00     0.005 C 
HETATM   13  C22 UNL     1       7.846 -13.045 -24.314  1.00  0.00     0.006 C 
HETATM   14  C23 UNL     1       6.511 -12.470 -23.972  1.00  0.00     0.004 C 
HETATM   15  C24 UNL     1       6.443 -11.005 -24.075  1.00  0.00     0.029 C 
HETATM   16  C25 UNL     1       5.407 -14.600 -24.619  1.00  0.00     0.017 C 
ENDROOT
BRANCH   7  17
HETATM   17  O2  UNL     1       2.967 -13.190 -24.826  1.00  0.00    -0.312 OA
BRANCH  17  18
HETATM   18  C8  UNL     1       1.952 -13.751 -24.052  1.00  0.00     0.283 C 
HETATM   19  O3  UNL     1       1.773 -14.965 -24.222  1.00  0.00    -0.260 OA
BRANCH  18  20
HETATM   20  C9  UNL     1       1.160 -12.990 -23.120  1.00  0.00     0.078 C 
HETATM   21  C10 UNL     1       0.141 -12.232 -23.369  1.00  0.00    -0.015 C 
BRANCH  21  22
HETATM   22  C11 UNL     1      -0.441 -11.979 -24.683  1.00  0.00     0.017 A 
HETATM   23  C12 UNL     1      -1.632 -10.979 -24.735  1.00  0.00     0.019 A 
HETATM   24  C13 UNL     1      -0.335 -10.654 -25.257  1.00  0.00    -0.033 A 
HETATM   25  C14 UNL     1       0.569  -9.578 -24.749  1.00  0.00     0.010 C 
HETATM   26  C16 UNL     1       0.011 -10.344 -26.663  1.00  0.00     0.010 C 
HETATM   27  C15 UNL     1       0.563  -9.004 -26.171  1.00  0.00     0.002 C 
ENDBRANCH  21  22
ENDBRANCH  18  20
ENDBRANCH  17  18
ENDBRANCH   7  17
BRANCH   2  28
HETATM   28  O1  UNL     1       8.554  -9.997 -24.166  1.00  0.00    -0.390 OA
ATOM     29  H1  UNL     1       9.057  -9.237 -23.896  1.00  0.00     0.210 HD
ENDBRANCH   2  28
TORSDOF 5
ENDMDL
MODEL 2
REMARK VINA RESULT: -10.189305649      1.860      4.307
REMARK  5 active torsions:
REMARK  status: ('A' for Active; 'I' for Inactive)
REMARK    1  A    between atoms: C2_2  and  O1_3 
REMARK    2  A    between atoms: C7_9  and  O2_10 
REMARK    3  A    between atoms: O2_10  and  C8_11 
REMARK    4  A    between atoms: C8_11  and  C9_13 
REMARK    5  A    between atoms: C10_14  and  C11_15 
ROOT
HETATM    1  C1  UNL     1       7.599 -13.895 -26.430  1.00  0.00     0.046 C 
HETATM    2  C2  UNL     1       7.065 -14.194 -25.085  1.00  0.00     0.059 C 
HETATM    3  C3  UNL     1       5.943 -15.231 -25.235  1.00  0.00     0.038 C 
HETATM    4  C4  UNL     1       4.667 -14.540 -24.866  1.00  0.00     0.008 C 
HETATM    5  C5  UNL     1       5.006 -13.088 -24.971  1.00  0.00    -0.005 C 
HETATM    6  C6  UNL     1       4.179 -12.207 -24.055  1.00  0.00     0.038 C 
HETATM    7  C7  UNL     1       4.729 -10.804 -24.209  1.00  0.00     0.141 C 
HETATM    8  C17 UNL     1       6.151 -10.772 -23.687  1.00  0.00    -0.009 C 
HETATM    9  C18 UNL     1       6.263 -10.946 -22.223  1.00  0.00     0.013 C 
HETATM   10  C19 UNL     1       7.610 -10.309 -21.888  1.00  0.00     0.005 C 
HETATM   11  C20 UNL     1       7.993  -9.469 -23.067  1.00  0.00    -0.014 C 
HETATM   12  C21 UNL     1       8.948 -10.281 -23.920  1.00  0.00     0.005 C 
HETATM   13  C22 UNL     1       8.444 -11.667 -24.155  1.00  0.00     0.006 C 
HETATM   14  C23 UNL     1       6.990 -11.747 -24.491  1.00  0.00     0.004 C 
HETATM   15  C24 UNL     1       6.416 -13.094 -24.361  1.00  0.00     0.029 C 
HETATM   16  C25 UNL     1       6.700  -9.354 -23.887  1.00  0.00     0.017 C 
ENDROOT
BRANCH   7  17
HETATM   17  O2  UNL     1       3.923  -9.820 -23.663  1.00  0.00    -0.312 OA
BRANCH  17  18
HETATM   18  C8  UNL     1       3.079  -9.029 -24.442  1.00  0.00     0.283 C 
HETATM   19  O3  UNL     1       3.085  -7.823 -24.164  1.00  0.00    -0.260 OA
BRANCH  18  20
HETATM   20  C9  UNL     1       2.254  -9.561 -25.497  1.00  0.00     0.078 C 
HETATM   21  C10 UNL     1       1.190 -10.289 -25.389  1.00  0.00    -0.015 C 
BRANCH  21  22
HETATM   22  C11 UNL     1       0.581 -10.742 -24.143  1.00  0.00     0.017 A 
HETATM   23  C12 UNL     1      -0.781 -11.486 -24.265  1.00  0.00     0.019 A 
HETATM   24  C13 UNL     1       0.434 -12.162 -23.906  1.00  0.00    -0.033 A 
HETATM   25  C14 UNL     1       1.110 -13.231 -24.702  1.00  0.00     0.010 C 
HETATM   26  C16 UNL     1       0.724 -12.862 -22.634  1.00  0.00     0.010 C 
HETATM   27  C15 UNL     1       1.004 -14.122 -23.458  1.00  0.00     0.002 C 
ENDBRANCH  21  22
ENDBRANCH  18  20
ENDBRANCH  17  18
ENDBRANCH   7  17
BRANCH   2  28
HETATM   28  O1  UNL     1       8.043 -14.773 -24.244  1.00  0.00    -0.390 OA
ATOM     29  H1  UNL     1       7.854 -14.627 -23.325  1.00  0.00     0.210 HD
ENDBRANCH   2  28
TORSDOF 5
ENDMDL
MODEL 3
REMARK VINA RESULT: -9.976446959      2.148      4.236
REMARK  5 active torsions:
REMARK  status: ('A' for Active; 'I' for Inactive)
REMARK    1  A    between atoms: C2_2  and  O1_3 
REMARK    2  A    between atoms: C7_9  and  O2_10 
REMARK    3  A    between atoms: O2_10  and  C8_11 
REMARK    4  A    between atoms: C8_11  and  C9_13 
REMARK    5  A    between atoms: C10_14  and  C11_15 
ROOT
HETATM    1  C1  UNL     1       7.434 -13.849 -26.439  1.00  0.00     0.046 C 
HETATM    2  C2  UNL     1       6.921 -14.157 -25.089  1.00  0.00     0.059 C 
HETATM    3  C3  UNL     1       5.779 -15.173 -25.231  1.00  0.00     0.038 C 
HETATM    4  C4  UNL     1       4.522 -14.466 -24.829  1.00  0.00     0.008 C 
HETATM    5  C5  UNL     1       4.883 -13.019 -24.921  1.00  0.00    -0.005 C 
HETATM    6  C6  UNL     1       4.089 -12.137 -23.977  1.00  0.00     0.038 C 
HETATM    7  C7  UNL     1       4.659 -10.741 -24.123  1.00  0.00     0.141 C 
HETATM    8  C17 UNL     1       6.091 -10.740 -23.628  1.00  0.00    -0.009 C 
HETATM    9  C18 UNL     1       6.227 -10.935 -22.169  1.00  0.00     0.013 C 
HETATM   10  C19 UNL     1       7.591 -10.325 -21.851  1.00  0.00     0.005 C 
HETATM   11  C20 UNL     1       7.966  -9.476 -23.026  1.00  0.00    -0.014 C 
HETATM   12  C21 UNL     1       8.891 -10.292 -23.908  1.00  0.00     0.005 C 
HETATM   13  C22 UNL     1       8.359 -11.666 -24.151  1.00  0.00     0.006 C 
HETATM   14  C23 UNL     1       6.898 -11.717 -24.461  1.00  0.00     0.004 C 
HETATM   15  C24 UNL     1       6.304 -13.056 -24.338  1.00  0.00     0.029 C 
HETATM   16  C25 UNL     1       6.660  -9.328 -23.820  1.00  0.00     0.017 C 
ENDROOT
BRANCH   7  17
HETATM   17  O2  UNL     1       3.880  -9.752 -23.550  1.00  0.00    -0.312 OA
BRANCH  17  18
HETATM   18  C8  UNL     1       2.862  -9.103 -24.249  1.00  0.00     0.283 C 
HETATM   19  O3  UNL     1       3.217  -8.096 -24.877  1.00  0.00    -0.260 OA
BRANCH  18  20
HETATM   20  C9  UNL     1       1.495  -9.557 -24.250  1.00  0.00     0.078 C 
HETATM   21  C10 UNL     1       0.695  -9.680 -25.259  1.00  0.00    -0.015 C 
BRANCH  21  22
HETATM   22  C11 UNL     1       1.013  -9.378 -26.651  1.00  0.00     0.017 A 
HETATM   23  C12 UNL     1      -0.185  -9.315 -27.641  1.00  0.00     0.019 A 
HETATM   24  C13 UNL     1       0.533  -8.142 -27.231  1.00  0.00    -0.033 A 
HETATM   25  C14 UNL     1      -0.030  -6.998 -26.450  1.00  0.00     0.010 C 
HETATM   26  C16 UNL     1       1.316  -7.227 -28.093  1.00  0.00     0.010 C 
HETATM   27  C15 UNL     1       0.421  -6.088 -27.600  1.00  0.00     0.002 C 
ENDBRANCH  21  22
ENDBRANCH  18  20
ENDBRANCH  17  18
ENDBRANCH   7  17
BRANCH   2  28
HETATM   28  O1  UNL     1       7.905 -14.763 -24.274  1.00  0.00    -0.390 OA
ATOM     29  H1  UNL     1       8.180 -14.195 -23.565  1.00  0.00     0.210 HD
ENDBRANCH   2  28
TORSDOF 5
ENDMDL
MODEL 4
REMARK VINA RESULT: -9.666559476      2.247      4.739
REMARK  5 active torsions:
REMARK  status: ('A' for Active; 'I' for Inactive)
REMARK    1  A    between atoms: C2_2  and  O1_3 
REMARK    2  A    between atoms: C7_9  and  O2_10 
REMARK    3  A    between atoms: O2_10  and  C8_11 
REMARK    4  A    between atoms: C8_11  and  C9_13 
REMARK    5  A    between atoms: C10_14  and  C11_15 
ROOT
HETATM    1  C1  UNL     1       7.280 -12.827 -26.141  1.00  0.00     0.046 C 
HETATM    2  C2  UNL     1       6.776 -13.243 -24.816  1.00  0.00     0.059 C 
HETATM    3  C3  UNL     1       6.014 -14.565 -24.988  1.00  0.00     0.038 C 
HETATM    4  C4  UNL     1       4.573 -14.270 -24.712  1.00  0.00     0.008 C 
HETATM    5  C5  UNL     1       4.481 -12.785 -24.851  1.00  0.00    -0.005 C 
HETATM    6  C6  UNL     1       3.380 -12.167 -24.011  1.00  0.00     0.038 C 
HETATM    7  C7  UNL     1       3.506 -10.667 -24.186  1.00  0.00     0.141 C 
HETATM    8  C17 UNL     1       4.824 -10.212 -23.592  1.00  0.00    -0.009 C 
HETATM    9  C18 UNL     1       4.891 -10.318 -22.119  1.00  0.00     0.013 C 
HETATM   10  C19 UNL     1       5.973  -9.309 -21.736  1.00  0.00     0.005 C 
HETATM   11  C20 UNL     1       6.166  -8.416 -22.923  1.00  0.00    -0.014 C 
HETATM   12  C21 UNL     1       7.366  -8.930 -23.694  1.00  0.00     0.005 C 
HETATM   13  C22 UNL     1       7.301 -10.407 -23.905  1.00  0.00     0.006 C 
HETATM   14  C23 UNL     1       5.957 -10.914 -24.315  1.00  0.00     0.004 C 
HETATM   15  C24 UNL     1       5.791 -12.367 -24.167  1.00  0.00     0.029 C 
HETATM   16  C25 UNL     1       4.948  -8.699 -23.814  1.00  0.00     0.017 C 
ENDROOT
BRANCH   7  17
HETATM   17  O2  UNL     1       2.418  -9.952 -23.720  1.00  0.00    -0.312 OA
BRANCH  17  18
HETATM   18  C8  UNL     1       1.589  -9.217 -24.567  1.00  0.00     0.283 C 
HETATM   19  O3  UNL     1       0.995  -8.272 -24.030  1.00  0.00    -0.260 OA
BRANCH  18  20
HETATM   20  C9  UNL     1       1.424  -9.521 -25.966  1.00  0.00     0.078 C 
HETATM   21  C10 UNL     1       1.723  -8.782 -26.984  1.00  0.00    -0.015 C 
BRANCH  21  22
HETATM   22  C11 UNL     1       2.307  -7.446 -26.936  1.00  0.00     0.017 A 
HETATM   23  C12 UNL     1       2.173  -6.580 -28.222  1.00  0.00     0.019 A 
HETATM   24  C13 UNL     1       1.437  -6.293 -27.024  1.00  0.00    -0.033 A 
HETATM   25  C14 UNL     1      -0.050  -6.337 -26.877  1.00  0.00     0.010 C 
HETATM   26  C16 UNL     1       1.528  -5.072 -26.190  1.00  0.00     0.010 C 
HETATM   27  C15 UNL     1       0.026  -4.877 -26.413  1.00  0.00     0.002 C 
ENDBRANCH  21  22
ENDBRANCH  18  20
ENDBRANCH  17  18
ENDBRANCH   7  17
BRANCH   2  28
HETATM   28  O1  UNL     1       7.826 -13.496 -23.905  1.00  0.00    -0.390 OA
ATOM     29  H1  UNL     1       8.013 -12.741 -23.359  1.00  0.00     0.210 HD
ENDBRANCH   2  28
TORSDOF 5
ENDMDL
MODEL 5
REMARK VINA RESULT: -9.657953457      2.456      4.602
REMARK  5 active torsions:
REMARK  status: ('A' for Active; 'I' for Inactive)
REMARK    1  A    between atoms: C2_2  and  O1_3 
REMARK    2  A    between atoms: C7_9  and  O2_10 
REMARK    3  A    between atoms: O2_10  and  C8_11 
REMARK    4  A    between atoms: C8_11  and  C9_13 
REMARK    5  A    between atoms: C10_14  and  C11_15 
ROOT
HETATM    1  C1  UNL     1       7.600 -13.720 -26.459  1.00  0.00     0.046 C 
HETATM    2  C2  UNL     1       7.099 -14.079 -25.116  1.00  0.00     0.059 C 
HETATM    3  C3  UNL     1       6.016 -15.154 -25.282  1.00  0.00     0.038 C 
HETATM    4  C4  UNL     1       4.720 -14.525 -24.874  1.00  0.00     0.008 C 
HETATM    5  C5  UNL     1       5.001 -13.058 -24.940  1.00  0.00    -0.005 C 
HETATM    6  C6  UNL     1       4.154 -12.238 -23.986  1.00  0.00     0.038 C 
HETATM    7  C7  UNL     1       4.647 -10.811 -24.105  1.00  0.00     0.141 C 
HETATM    8  C17 UNL     1       6.074 -10.739 -23.603  1.00  0.00    -0.009 C 
HETATM    9  C18 UNL     1       6.215 -10.952 -22.146  1.00  0.00     0.013 C 
HETATM   10  C19 UNL     1       7.542 -10.273 -21.810  1.00  0.00     0.005 C 
HETATM   11  C20 UNL     1       7.874  -9.384 -22.969  1.00  0.00    -0.014 C 
HETATM   12  C21 UNL     1       8.847 -10.132 -23.859  1.00  0.00     0.005 C 
HETATM   13  C22 UNL     1       8.392 -11.529 -24.129  1.00  0.00     0.006 C 
HETATM   14  C23 UNL     1       6.938 -11.656 -24.447  1.00  0.00     0.004 C 
HETATM   15  C24 UNL     1       6.418 -13.027 -24.350  1.00  0.00     0.029 C 
HETATM   16  C25 UNL     1       6.565  -9.295 -23.767  1.00  0.00     0.017 C 
ENDROOT
BRANCH   7  17
HETATM   17  O2  UNL     1       3.811  -9.876 -23.519  1.00  0.00    -0.312 OA
BRANCH  17  18
HETATM   18  C8  UNL     1       2.710  -9.338 -24.183  1.00  0.00     0.283 C 
HETATM   19  O3  UNL     1       1.784 -10.133 -24.394  1.00  0.00    -0.260 OA
BRANCH  18  20
HETATM   20  C9  UNL     1       2.639  -7.961 -24.601  1.00  0.00     0.078 C 
HETATM   21  C10 UNL     1       2.445  -7.496 -25.793  1.00  0.00    -0.015 C 
BRANCH  21  22
HETATM   22  C11 UNL     1       2.252  -8.288 -27.003  1.00  0.00     0.017 A 
HETATM   23  C12 UNL     1       0.891  -8.115 -27.738  1.00  0.00     0.019 A 
HETATM   24  C13 UNL     1       2.122  -7.610 -28.275  1.00  0.00    -0.033 A 
HETATM   25  C14 UNL     1       2.450  -6.171 -28.508  1.00  0.00     0.010 C 
HETATM   26  C16 UNL     1       2.775  -8.012 -29.542  1.00  0.00     0.010 C 
HETATM   27  C15 UNL     1       2.712  -6.544 -29.973  1.00  0.00     0.002 C 
ENDBRANCH  21  22
ENDBRANCH  18  20
ENDBRANCH  17  18
ENDBRANCH   7  17
BRANCH   2  28
HETATM   28  O1  UNL     1       8.111 -14.644 -24.307  1.00  0.00    -0.390 OA
ATOM     29  H1  UNL     1       8.404 -15.485 -24.638  1.00  0.00     0.210 HD
ENDBRANCH   2  28
TORSDOF 5
ENDMDL
