MODEL 1
REMARK VINA RESULT: -10.211923402      0.000      0.000
REMARK  4 active torsions:
REMARK  status: ('A' for Active; 'I' for Inactive)
REMARK    1  A    between atoms: C2_2  and  C3_4 
REMARK    2  A    between atoms: C6_7  and  N1_8 
REMARK       I    between atoms: N1_8  and  C7_10 
REMARK    3  A    between atoms: C7_10  and  C8_12 
REMARK    4  A    between atoms: C13_17  and  C14_18 
ROOT
HETATM    1  N1  UNL     1       3.704 -10.028 -25.046  1.00  0.00    -0.348 N 
ATOM      2  H1  UNL     1       4.078 -10.017 -25.995  1.00  0.00     0.163 HD
HETATM    3  C7  UNL     1       4.621 -10.146 -23.978  1.00  0.00     0.223 C 
HETATM    4  O2  UNL     1       4.143 -10.156 -22.819  1.00  0.00    -0.273 OA
ENDROOT
BRANCH   1   5
HETATM    5  C6  UNL     1       2.271  -9.922 -24.884  1.00  0.00     0.056 C 
HETATM    6  C5  UNL     1       1.922  -8.802 -23.972  1.00  0.00     0.004 C 
HETATM    7  C4  UNL     1       0.887  -8.127 -24.440  1.00  0.00     0.020 C 
HETATM    8  C3  UNL     1       0.429  -8.718 -25.716  1.00  0.00     0.176 C 
HETATM    9  O4  UNL     1      -0.684  -9.510 -25.576  1.00  0.00    -0.217 OA
HETATM   10  C22 UNL     1       1.602  -9.567 -26.175  1.00  0.00     0.089 C 
HETATM   11  O3  UNL     1      -0.346 -10.782 -25.603  1.00  0.00    -0.239 OA
HETATM   12  C21 UNL     1       0.176 -11.111 -24.359  1.00  0.00     0.212 C 
HETATM   13  C20 UNL     1       1.671 -11.242 -24.415  1.00  0.00     0.064 C 
BRANCH   8  14
HETATM   14  C2  UNL     1       0.222  -7.640 -26.708  1.00  0.00     0.164 C 
HETATM   15  C1  UNL     1      -0.022  -6.237 -26.267  1.00  0.00     0.095 C 
HETATM   16  O1  UNL     1       0.260  -7.943 -27.896  1.00  0.00    -0.295 OA
ENDBRANCH   8  14
ENDBRANCH   1   5
BRANCH   3  17
HETATM   17  C8  UNL     1       6.061 -10.251 -24.214  1.00  0.00     0.082 C 
HETATM   18  C9  UNL     1       6.865  -9.188 -23.514  1.00  0.00     0.014 C 
HETATM   19  C10 UNL     1       7.688  -9.696 -22.378  1.00  0.00     0.001 C 
HETATM   20  C11 UNL     1       8.618 -10.813 -22.736  1.00  0.00     0.000 C 
HETATM   21  C12 UNL     1       8.138 -11.470 -24.015  1.00  0.00     0.006 C 
HETATM   22  C13 UNL     1       6.636 -11.605 -23.882  1.00  0.00     0.003 C 
BRANCH  22  23
HETATM   23  C14 UNL     1       6.110 -12.699 -24.771  1.00  0.00    -0.010 C 
HETATM   24  C15 UNL     1       7.131 -13.712 -25.161  1.00  0.00     0.005 C 
HETATM   25  C16 UNL     1       6.610 -15.129 -25.110  1.00  0.00     0.000 C 
HETATM   26  C17 UNL     1       5.218 -15.258 -25.669  1.00  0.00     0.000 C 
HETATM   27  C18 UNL     1       4.243 -14.281 -25.105  1.00  0.00     0.000 C 
HETATM   28  C19 UNL     1       4.900 -13.324 -24.111  1.00  0.00     0.005 C 
ENDBRANCH  22  23
ENDBRANCH   3  17
TORSDOF 4
ENDMDL
MODEL 2
REMARK VINA RESULT: -9.590023197      2.764      7.122
REMARK  4 active torsions:
REMARK  status: ('A' for Active; 'I' for Inactive)
REMARK    1  A    between atoms: C2_2  and  C3_4 
REMARK    2  A    between atoms: C6_7  and  N1_8 
REMARK       I    between atoms: N1_8  and  C7_10 
REMARK    3  A    between atoms: C7_10  and  C8_12 
REMARK    4  A    between atoms: C13_17  and  C14_18 
ROOT
HETATM    1  N1  UNL     1       5.378 -11.735 -24.558  1.00  0.00    -0.348 N 
ATOM      2  H1  UNL     1       5.866 -10.844 -24.465  1.00  0.00     0.163 HD
HETATM    3  C7  UNL     1       4.034 -11.799 -24.127  1.00  0.00     0.223 C 
HETATM    4  O2  UNL     1       3.451 -12.902 -24.252  1.00  0.00    -0.273 OA
ENDROOT
BRANCH   1   5
HETATM    5  C6  UNL     1       6.108 -12.848 -25.123  1.00  0.00     0.056 C 
HETATM    6  C5  UNL     1       6.255 -12.695 -26.593  1.00  0.00     0.004 C 
HETATM    7  C4  UNL     1       7.475 -13.029 -26.977  1.00  0.00     0.020 C 
HETATM    8  C3  UNL     1       8.280 -13.442 -25.806  1.00  0.00     0.176 C 
HETATM    9  O4  UNL     1       8.397 -14.805 -25.685  1.00  0.00    -0.217 OA
HETATM   10  C22 UNL     1       7.515 -12.890 -24.615  1.00  0.00     0.089 C 
HETATM   11  O3  UNL     1       7.588 -15.251 -24.747  1.00  0.00    -0.239 OA
HETATM   12  C21 UNL     1       6.305 -15.301 -25.277  1.00  0.00     0.212 C 
HETATM   13  C20 UNL     1       5.458 -14.176 -24.755  1.00  0.00     0.064 C 
BRANCH   8  14
HETATM   14  C2  UNL     1       9.599 -12.775 -25.859  1.00  0.00     0.164 C 
HETATM   15  C1  UNL     1      10.702 -13.335 -26.692  1.00  0.00     0.095 C 
HETATM   16  O1  UNL     1       9.748 -11.752 -25.198  1.00  0.00    -0.295 OA
ENDBRANCH   8  14
ENDBRANCH   1   5
BRANCH   3  17
HETATM   17  C8  UNL     1       3.355 -10.633 -23.563  1.00  0.00     0.082 C 
HETATM   18  C9  UNL     1       4.264  -9.729 -22.774  1.00  0.00     0.014 C 
HETATM   19  C10 UNL     1       4.540  -8.419 -23.432  1.00  0.00     0.001 C 
HETATM   20  C11 UNL     1       3.316  -7.636 -23.794  1.00  0.00     0.000 C 
HETATM   21  C12 UNL     1       2.126  -8.573 -23.856  1.00  0.00     0.006 C 
HETATM   22  C13 UNL     1       2.604  -9.813 -24.582  1.00  0.00     0.003 C 
BRANCH  22  23
HETATM   23  C14 UNL     1       1.452 -10.557 -25.199  1.00  0.00    -0.010 C 
HETATM   24  C15 UNL     1       0.544 -11.206 -24.212  1.00  0.00     0.005 C 
HETATM   25  C16 UNL     1      -0.918 -11.046 -24.555  1.00  0.00     0.000 C 
HETATM   26  C17 UNL     1      -1.197 -11.238 -26.022  1.00  0.00     0.000 C 
HETATM   27  C18 UNL     1      -0.318 -10.432 -26.918  1.00  0.00     0.000 C 
HETATM   28  C19 UNL     1       0.713  -9.623 -26.134  1.00  0.00     0.005 C 
ENDBRANCH  22  23
ENDBRANCH   3  17
TORSDOF 4
ENDMDL
MODEL 3
REMARK VINA RESULT: -9.414124467      1.458      3.487
REMARK  4 active torsions:
REMARK  status: ('A' for Active; 'I' for Inactive)
REMARK    1  A    between atoms: C2_2  and  C3_4 
REMARK    2  A    between atoms: C6_7  and  N1_8 
REMARK       I    between atoms: N1_8  and  C7_10 
REMARK    3  A    between atoms: C7_10  and  C8_12 
REMARK    4  A    between atoms: C13_17  and  C14_18 
ROOT
HETATM    1  N1  UNL     1       3.168 -11.107 -24.980  1.00  0.00    -0.348 N 
ATOM      2  H1  UNL     1       3.804 -11.125 -25.777  1.00  0.00     0.163 HD
HETATM    3  C7  UNL     1       3.391 -12.035 -23.938  1.00  0.00     0.223 C 
HETATM    4  O2  UNL     1       2.600 -11.996 -22.966  1.00  0.00    -0.273 OA
ENDROOT
BRANCH   1   5
HETATM    5  C6  UNL     1       2.099 -10.134 -24.992  1.00  0.00     0.056 C 
HETATM    6  C5  UNL     1       2.229  -9.189 -23.853  1.00  0.00     0.004 C 
HETATM    7  C4  UNL     1       1.976  -7.952 -24.243  1.00  0.00     0.020 C 
HETATM    8  C3  UNL     1       1.650  -7.931 -25.686  1.00  0.00     0.176 C 
HETATM    9  O4  UNL     1       0.302  -7.839 -25.934  1.00  0.00    -0.217 OA
HETATM   10  C22 UNL     1       2.171  -9.261 -26.205  1.00  0.00     0.089 C 
HETATM   11  O3  UNL     1      -0.180  -9.014 -26.279  1.00  0.00    -0.239 OA
HETATM   12  C21 UNL     1      -0.336  -9.769 -25.123  1.00  0.00     0.212 C 
HETATM   13  C20 UNL     1       0.736 -10.815 -25.010  1.00  0.00     0.064 C 
BRANCH   8  14
HETATM   14  C2  UNL     1       2.410  -6.846 -26.344  1.00  0.00     0.164 C 
HETATM   15  C1  UNL     1       2.459  -6.747 -27.831  1.00  0.00     0.095 C 
HETATM   16  O1  UNL     1       2.991  -6.040 -25.626  1.00  0.00    -0.295 OA
ENDBRANCH   8  14
ENDBRANCH   1   5
BRANCH   3  17
HETATM   17  C8  UNL     1       4.494 -12.994 -23.991  1.00  0.00     0.082 C 
HETATM   18  C9  UNL     1       4.179 -14.231 -24.789  1.00  0.00     0.014 C 
HETATM   19  C10 UNL     1       4.915 -14.324 -26.083  1.00  0.00     0.001 C 
HETATM   20  C11 UNL     1       6.404 -14.226 -25.959  1.00  0.00     0.000 C 
HETATM   21  C12 UNL     1       6.751 -13.566 -24.638  1.00  0.00     0.006 C 
HETATM   22  C13 UNL     1       5.791 -12.405 -24.483  1.00  0.00     0.003 C 
BRANCH  22  23
HETATM   23  C14 UNL     1       6.351 -11.362 -23.555  1.00  0.00    -0.010 C 
HETATM   24  C15 UNL     1       7.790 -11.554 -23.216  1.00  0.00     0.005 C 
HETATM   25  C16 UNL     1       8.578 -10.265 -23.223  1.00  0.00     0.000 C 
HETATM   26  C17 UNL     1       7.835  -9.125 -22.581  1.00  0.00     0.000 C 
HETATM   27  C18 UNL     1       6.447  -8.937 -23.096  1.00  0.00     0.000 C 
HETATM   28  C19 UNL     1       6.074  -9.992 -24.135  1.00  0.00     0.005 C 
ENDBRANCH  22  23
ENDBRANCH   3  17
TORSDOF 4
ENDMDL
MODEL 4
REMARK VINA RESULT: -9.261681587      2.847      6.784
REMARK  4 active torsions:
REMARK  status: ('A' for Active; 'I' for Inactive)
REMARK    1  A    between atoms: C2_2  and  C3_4 
REMARK    2  A    between atoms: C6_7  and  N1_8 
REMARK       I    between atoms: N1_8  and  C7_10 
REMARK    3  A    between atoms: C7_10  and  C8_12 
REMARK    4  A    between atoms: C13_17  and  C14_18 
ROOT
HETATM    1  N1  UNL     1       4.500 -12.116 -24.322  1.00  0.00    -0.348 N 
ATOM      2  H1  UNL     1       3.567 -12.381 -24.006  1.00  0.00     0.163 HD
HETATM    3  C7  UNL     1       4.924 -10.789 -24.084  1.00  0.00     0.223 C 
HETATM    4  O2  UNL     1       6.074 -10.482 -24.478  1.00  0.00    -0.273 OA
ENDROOT
BRANCH   1   5
HETATM    5  C6  UNL     1       5.300 -13.122 -24.984  1.00  0.00     0.056 C 
HETATM    6  C5  UNL     1       5.565 -12.746 -26.397  1.00  0.00     0.004 C 
HETATM    7  C4  UNL     1       6.819 -13.005 -26.720  1.00  0.00     0.020 C 
HETATM    8  C3  UNL     1       7.534 -13.582 -25.561  1.00  0.00     0.176 C 
HETATM    9  O4  UNL     1       7.672 -14.947 -25.637  1.00  0.00    -0.217 OA
HETATM   10  C22 UNL     1       6.660 -13.226 -24.370  1.00  0.00     0.089 C 
HETATM   11  O3  UNL     1       6.799 -15.539 -24.849  1.00  0.00    -0.239 OA
HETATM   12  C21 UNL     1       5.566 -15.521 -25.489  1.00  0.00     0.212 C 
HETATM   13  C20 UNL     1       4.653 -14.498 -24.877  1.00  0.00     0.064 C 
BRANCH   8  14
HETATM   14  C2  UNL     1       8.837 -12.901 -25.400  1.00  0.00     0.164 C 
HETATM   15  C1  UNL     1       9.897 -13.031 -26.440  1.00  0.00     0.095 C 
HETATM   16  O1  UNL     1       9.009 -12.230 -24.388  1.00  0.00    -0.295 OA
ENDBRANCH   8  14
ENDBRANCH   1   5
BRANCH   3  17
HETATM   17  C8  UNL     1       4.062  -9.820 -23.408  1.00  0.00     0.082 C 
HETATM   18  C9  UNL     1       4.740  -9.098 -22.274  1.00  0.00     0.014 C 
HETATM   19  C10 UNL     1       5.017  -7.658 -22.550  1.00  0.00     0.001 C 
HETATM   20  C11 UNL     1       3.815  -6.859 -22.949  1.00  0.00     0.000 C 
HETATM   21  C12 UNL     1       2.737  -7.800 -23.450  1.00  0.00     0.006 C 
HETATM   22  C13 UNL     1       3.437  -8.809 -24.335  1.00  0.00     0.003 C 
BRANCH  22  23
HETATM   23  C14 UNL     1       2.477  -9.427 -25.315  1.00  0.00    -0.010 C 
HETATM   24  C15 UNL     1       1.416 -10.264 -24.686  1.00  0.00     0.005 C 
HETATM   25  C16 UNL     1       0.051 -10.051 -25.299  1.00  0.00     0.000 C 
HETATM   26  C17 UNL     1       0.096  -9.956 -26.800  1.00  0.00     0.000 C 
HETATM   27  C18 UNL     1       1.102  -8.983 -27.318  1.00  0.00     0.000 C 
HETATM   28  C19 UNL     1       1.905  -8.334 -26.192  1.00  0.00     0.005 C 
ENDBRANCH  22  23
ENDBRANCH   3  17
TORSDOF 4
ENDMDL
MODEL 5
REMARK VINA RESULT: -9.170216518      1.003      1.082
REMARK  4 active torsions:
REMARK  status: ('A' for Active; 'I' for Inactive)
REMARK    1  A    between atoms: C2_2  and  C3_4 
REMARK    2  A    between atoms: C6_7  and  N1_8 
REMARK       I    between atoms: N1_8  and  C7_10 
REMARK    3  A    between atoms: C7_10  and  C8_12 
REMARK    4  A    between atoms: C13_17  and  C14_18 
ROOT
HETATM    1  N1  UNL     1       3.428  -9.080 -24.314  1.00  0.00    -0.348 N 
ATOM      2  H1  UNL     1       3.794  -8.243 -23.859  1.00  0.00     0.163 HD
HETATM    3  C7  UNL     1       4.320 -10.154 -24.535  1.00  0.00     0.223 C 
HETATM    4  O2  UNL     1       3.851 -11.173 -25.094  1.00  0.00    -0.273 OA
ENDROOT
BRANCH   1   5
HETATM    5  C6  UNL     1       2.032  -9.087 -24.689  1.00  0.00     0.056 C 
HETATM    6  C5  UNL     1       1.317  -7.928 -24.097  1.00  0.00     0.004 C 
HETATM    7  C4  UNL     1       0.491  -7.391 -24.979  1.00  0.00     0.020 C 
HETATM    8  C3  UNL     1       0.563  -8.130 -26.258  1.00  0.00     0.176 C 
HETATM    9  O4  UNL     1      -0.482  -9.003 -26.437  1.00  0.00    -0.217 OA
HETATM   10  C22 UNL     1       1.865  -8.909 -26.165  1.00  0.00     0.089 C 
HETATM   11  O3  UNL     1      -0.093 -10.237 -26.195  1.00  0.00    -0.239 OA
HETATM   12  C21 UNL     1      -0.046 -10.408 -24.818  1.00  0.00     0.212 C 
HETATM   13  C20 UNL     1       1.370 -10.410 -24.319  1.00  0.00     0.064 C 
BRANCH   8  14
HETATM   14  C2  UNL     1       0.679  -7.166 -27.375  1.00  0.00     0.164 C 
HETATM   15  C1  UNL     1       0.024  -5.829 -27.296  1.00  0.00     0.095 C 
HETATM   16  O1  UNL     1       1.329  -7.507 -28.357  1.00  0.00    -0.295 OA
ENDBRANCH   8  14
ENDBRANCH   1   5
BRANCH   3  17
HETATM   17  C8  UNL     1       5.723 -10.079 -24.130  1.00  0.00     0.082 C 
HETATM   18  C9  UNL     1       6.017  -8.949 -23.180  1.00  0.00     0.014 C 
HETATM   19  C10 UNL     1       6.330  -9.389 -21.789  1.00  0.00     0.001 C 
HETATM   20  C11 UNL     1       7.451 -10.377 -21.688  1.00  0.00     0.000 C 
HETATM   21  C12 UNL     1       7.647 -11.048 -23.033  1.00  0.00     0.006 C 
HETATM   22  C13 UNL     1       6.259 -11.364 -23.552  1.00  0.00     0.003 C 
BRANCH  22  23
HETATM   23  C14 UNL     1       6.300 -12.486 -24.553  1.00  0.00    -0.010 C 
HETATM   24  C15 UNL     1       7.636 -13.131 -24.695  1.00  0.00     0.005 C 
HETATM   25  C16 UNL     1       7.562 -14.637 -24.787  1.00  0.00     0.000 C 
HETATM   26  C17 UNL     1       6.438 -15.112 -25.668  1.00  0.00     0.000 C 
HETATM   27  C18 UNL     1       5.114 -14.503 -25.346  1.00  0.00     0.000 C 
HETATM   28  C19 UNL     1       5.213 -13.483 -24.213  1.00  0.00     0.005 C 
ENDBRANCH  22  23
ENDBRANCH   3  17
TORSDOF 4
ENDMDL
