MODEL 1
REMARK VINA RESULT: -10.277795940      0.000      0.000
REMARK  3 active torsions:
REMARK  status: ('A' for Active; 'I' for Inactive)
REMARK    1  A    between atoms: C3_5  and  C4_6 
REMARK    2  A    between atoms: C4_6  and  C5_7 
REMARK       I    between atoms: N1_13  and  C11_14 
REMARK       I    between atoms: C11_14  and  N2_16 
REMARK    3  A    between atoms: N2_16  and  C12_18 
ROOT
HETATM    1  O1  UNL     1      -1.267 -11.750 -25.724  1.00  0.00    -0.272 OA
HETATM    2  C1  UNL     1      -0.495 -11.897 -24.714  1.00  0.00     0.238 C 
HETATM    3  C2  UNL     1      -0.953 -12.499 -23.434  1.00  0.00     0.179 C 
HETATM    4  S1  UNL     1       0.630 -13.062 -22.744  1.00  0.00    -0.134 SA
HETATM    5  C3  UNL     1       1.683 -12.615 -24.183  1.00  0.00     0.160 C 
HETATM    6  N1  UNL     1       0.891 -11.508 -24.681  1.00  0.00    -0.255 N 
HETATM    7  C11 UNL     1       1.346 -10.215 -25.113  1.00  0.00     0.326 C 
HETATM    8  O2  UNL     1       2.586  -9.941 -25.081  1.00  0.00    -0.247 OA
HETATM    9  N2  UNL     1       0.477  -9.195 -25.585  1.00  0.00    -0.333 N 
ATOM     10  H2  UNL     1      -0.518  -9.416 -25.606  1.00  0.00     0.165 HD
ENDROOT
BRANCH   9  11
HETATM   11  C12 UNL     1       0.852  -7.895 -26.034  1.00  0.00     0.035 C 
HETATM   12  C13 UNL     1      -0.158  -7.358 -27.000  1.00  0.00     0.035 C 
HETATM   13  C14 UNL     1       0.155  -5.908 -27.341  1.00  0.00    -0.012 C 
HETATM   14  C15 UNL     1       1.521  -5.832 -27.991  1.00  0.00     0.009 C 
HETATM   15  C19 UNL     1       0.148  -5.031 -26.127  1.00  0.00     0.009 C 
HETATM   16  C16 UNL     1       2.533  -6.430 -27.044  1.00  0.00    -0.012 C 
HETATM   17  C17 UNL     1       2.585  -5.564 -25.818  1.00  0.00     0.009 C 
HETATM   18  C21 UNL     1       2.209  -7.873 -26.696  1.00  0.00     0.035 C 
HETATM   19  C18 UNL     1       1.216  -5.560 -25.182  1.00  0.00    -0.012 C 
HETATM   20  C20 UNL     1       0.829  -6.958 -24.821  1.00  0.00     0.035 C 
ENDBRANCH   9  11
BRANCH   5  21
HETATM   21  C4  UNL     1       3.059 -12.244 -23.812  1.00  0.00     0.041 C 
BRANCH  21  22
HETATM   22  C5  UNL     1       4.134 -12.934 -24.601  1.00  0.00    -0.012 C 
HETATM   23  C6  UNL     1       5.529 -12.733 -24.143  1.00  0.00     0.005 C 
HETATM   24  C7  UNL     1       6.422 -12.962 -25.382  1.00  0.00     0.000 C 
HETATM   25  C8  UNL     1       5.879 -14.072 -26.222  1.00  0.00     0.000 C 
HETATM   26  C9  UNL     1       5.041 -15.049 -25.436  1.00  0.00     0.000 C 
HETATM   27  C10 UNL     1       3.879 -14.417 -24.739  1.00  0.00     0.005 C 
ENDBRANCH  21  22
ENDBRANCH   5  21
TORSDOF 3
ENDMDL
MODEL 2
REMARK VINA RESULT: -10.229948794      0.124      1.424
REMARK  3 active torsions:
REMARK  status: ('A' for Active; 'I' for Inactive)
REMARK    1  A    between atoms: C3_5  and  C4_6 
REMARK    2  A    between atoms: C4_6  and  C5_7 
REMARK       I    between atoms: N1_13  and  C11_14 
REMARK       I    between atoms: C11_14  and  N2_16 
REMARK    3  A    between atoms: N2_16  and  C12_18 
ROOT
HETATM    1  O1  UNL     1      -1.241 -11.685 -25.717  1.00  0.00    -0.272 OA
HETATM    2  C1  UNL     1      -0.477 -11.862 -24.707  1.00  0.00     0.238 C 
HETATM    3  C2  UNL     1      -0.941 -12.508 -23.452  1.00  0.00     0.179 C 
HETATM    4  S1  UNL     1       0.639 -13.086 -22.768  1.00  0.00    -0.134 SA
HETATM    5  C3  UNL     1       1.701 -12.585 -24.182  1.00  0.00     0.160 C 
HETATM    6  N1  UNL     1       0.908 -11.467 -24.650  1.00  0.00    -0.255 N 
HETATM    7  C11 UNL     1       1.359 -10.158 -25.034  1.00  0.00     0.326 C 
HETATM    8  O2  UNL     1       2.598  -9.879 -24.984  1.00  0.00    -0.247 OA
HETATM    9  N2  UNL     1       0.488  -9.127 -25.480  1.00  0.00    -0.333 N 
ATOM     10  H2  UNL     1      -0.505  -9.353 -25.516  1.00  0.00     0.165 HD
ENDROOT
BRANCH   9  11
HETATM   11  C12 UNL     1       0.860  -7.811 -25.882  1.00  0.00     0.035 C 
HETATM   12  C13 UNL     1       2.160  -7.833 -26.622  1.00  0.00     0.035 C 
HETATM   13  C14 UNL     1       2.465  -6.456 -27.196  1.00  0.00    -0.012 C 
HETATM   14  C15 UNL     1       2.580  -5.457 -26.064  1.00  0.00     0.009 C 
HETATM   15  C19 UNL     1       1.399  -5.993 -28.143  1.00  0.00     0.009 C 
HETATM   16  C16 UNL     1       1.292  -5.478 -25.277  1.00  0.00    -0.012 C 
HETATM   17  C17 UNL     1       0.194  -4.991 -26.178  1.00  0.00     0.009 C 
HETATM   18  C21 UNL     1       0.986  -6.857 -24.717  1.00  0.00     0.035 C 
HETATM   19  C18 UNL     1       0.098  -5.927 -27.359  1.00  0.00    -0.012 C 
HETATM   20  C20 UNL     1      -0.194  -7.311 -26.875  1.00  0.00     0.035 C 
ENDBRANCH   9  11
BRANCH   5  21
HETATM   21  C4  UNL     1       3.072 -12.221 -23.788  1.00  0.00     0.041 C 
BRANCH  21  22
HETATM   22  C5  UNL     1       4.157 -12.883 -24.587  1.00  0.00    -0.012 C 
HETATM   23  C6  UNL     1       5.549 -12.664 -24.130  1.00  0.00     0.005 C 
HETATM   24  C7  UNL     1       6.444 -12.862 -25.374  1.00  0.00     0.000 C 
HETATM   25  C8  UNL     1       5.918 -13.972 -26.225  1.00  0.00     0.000 C 
HETATM   26  C9  UNL     1       5.098 -14.971 -25.449  1.00  0.00     0.000 C 
HETATM   27  C10 UNL     1       3.928 -14.368 -24.742  1.00  0.00     0.005 C 
ENDBRANCH  21  22
ENDBRANCH   5  21
TORSDOF 3
ENDMDL
MODEL 3
REMARK VINA RESULT: -10.145560307      0.391      1.028
REMARK  3 active torsions:
REMARK  status: ('A' for Active; 'I' for Inactive)
REMARK    1  A    between atoms: C3_5  and  C4_6 
REMARK    2  A    between atoms: C4_6  and  C5_7 
REMARK       I    between atoms: N1_13  and  C11_14 
REMARK       I    between atoms: C11_14  and  N2_16 
REMARK    3  A    between atoms: N2_16  and  C12_18 
ROOT
HETATM    1  O1  UNL     1      -1.134 -11.846 -25.701  1.00  0.00    -0.272 OA
HETATM    2  C1  UNL     1      -0.388 -11.965 -24.669  1.00  0.00     0.238 C 
HETATM    3  C2  UNL     1      -0.867 -12.562 -23.395  1.00  0.00     0.179 C 
HETATM    4  S1  UNL     1       0.707 -13.084 -22.656  1.00  0.00    -0.134 SA
HETATM    5  C3  UNL     1       1.790 -12.630 -24.071  1.00  0.00     0.160 C 
HETATM    6  N1  UNL     1       0.989 -11.546 -24.603  1.00  0.00    -0.255 N 
HETATM    7  C11 UNL     1       1.428 -10.249 -25.038  1.00  0.00     0.326 C 
HETATM    8  O2  UNL     1       2.661  -9.949 -24.976  1.00  0.00    -0.247 OA
HETATM    9  N2  UNL     1       0.551  -9.253 -25.546  1.00  0.00    -0.333 N 
ATOM     10  H2  UNL     1      -0.438  -9.496 -25.591  1.00  0.00     0.165 HD
ENDROOT
BRANCH   9  11
HETATM   11  C12 UNL     1       0.911  -7.951 -26.000  1.00  0.00     0.035 C 
HETATM   12  C13 UNL     1      -0.164  -7.380 -26.872  1.00  0.00     0.035 C 
HETATM   13  C14 UNL     1       0.146  -5.929 -27.211  1.00  0.00    -0.012 C 
HETATM   14  C15 UNL     1       1.456  -5.860 -27.967  1.00  0.00     0.009 C 
HETATM   15  C19 UNL     1       0.251  -5.074 -25.984  1.00  0.00     0.009 C 
HETATM   16  C16 UNL     1       2.531  -6.492 -27.115  1.00  0.00    -0.012 C 
HETATM   17  C17 UNL     1       2.695  -5.652 -25.882  1.00  0.00     0.009 C 
HETATM   18  C21 UNL     1       2.211  -7.937 -26.768  1.00  0.00     0.035 C 
HETATM   19  C18 UNL     1       1.381  -5.638 -25.138  1.00  0.00    -0.012 C 
HETATM   20  C20 UNL     1       1.001  -7.037 -24.773  1.00  0.00     0.035 C 
ENDBRANCH   9  11
BRANCH   5  21
HETATM   21  C4  UNL     1       3.147 -12.226 -23.668  1.00  0.00     0.041 C 
BRANCH  21  22
HETATM   22  C5  UNL     1       4.253 -13.063 -24.242  1.00  0.00    -0.012 C 
HETATM   23  C6  UNL     1       3.851 -14.208 -25.092  1.00  0.00     0.005 C 
HETATM   24  C7  UNL     1       5.013 -15.223 -25.022  1.00  0.00     0.000 C 
HETATM   25  C8  UNL     1       6.327 -14.512 -24.996  1.00  0.00     0.000 C 
HETATM   26  C9  UNL     1       6.269 -13.144 -25.628  1.00  0.00     0.000 C 
HETATM   27  C10 UNL     1       5.266 -12.234 -24.997  1.00  0.00     0.005 C 
ENDBRANCH  21  22
ENDBRANCH   5  21
TORSDOF 3
ENDMDL
MODEL 4
REMARK VINA RESULT: -10.127278452      0.453      1.725
REMARK  3 active torsions:
REMARK  status: ('A' for Active; 'I' for Inactive)
REMARK    1  A    between atoms: C3_5  and  C4_6 
REMARK    2  A    between atoms: C4_6  and  C5_7 
REMARK       I    between atoms: N1_13  and  C11_14 
REMARK       I    between atoms: C11_14  and  N2_16 
REMARK    3  A    between atoms: N2_16  and  C12_18 
ROOT
HETATM    1  O1  UNL     1      -1.067 -11.869 -25.706  1.00  0.00    -0.272 OA
HETATM    2  C1  UNL     1      -0.313 -12.004 -24.681  1.00  0.00     0.238 C 
HETATM    3  C2  UNL     1      -0.784 -12.621 -23.414  1.00  0.00     0.179 C 
HETATM    4  S1  UNL     1       0.795 -13.155 -22.694  1.00  0.00    -0.134 SA
HETATM    5  C3  UNL     1       1.868 -12.680 -24.109  1.00  0.00     0.160 C 
HETATM    6  N1  UNL     1       1.064 -11.587 -24.619  1.00  0.00    -0.255 N 
HETATM    7  C11 UNL     1       1.501 -10.283 -25.036  1.00  0.00     0.326 C 
HETATM    8  O2  UNL     1       2.735  -9.985 -24.978  1.00  0.00    -0.247 OA
HETATM    9  N2  UNL     1       0.621  -9.279 -25.523  1.00  0.00    -0.333 N 
ATOM     10  H2  UNL     1      -0.369  -9.520 -25.564  1.00  0.00     0.165 HD
ENDROOT
BRANCH   9  11
HETATM   11  C12 UNL     1       0.978  -7.970 -25.958  1.00  0.00     0.035 C 
HETATM   12  C13 UNL     1       2.188  -8.018 -26.838  1.00  0.00     0.035 C 
HETATM   13  C14 UNL     1       2.461  -6.646 -27.437  1.00  0.00    -0.012 C 
HETATM   14  C15 UNL     1       2.725  -5.656 -26.321  1.00  0.00     0.009 C 
HETATM   15  C19 UNL     1       1.310  -6.151 -28.258  1.00  0.00     0.009 C 
HETATM   16  C16 UNL     1       1.532  -5.652 -25.397  1.00  0.00    -0.012 C 
HETATM   17  C17 UNL     1       0.353  -5.133 -26.169  1.00  0.00     0.009 C 
HETATM   18  C21 UNL     1       1.255  -7.027 -24.811  1.00  0.00     0.035 C 
HETATM   19  C18 UNL     1       0.105  -6.059 -27.335  1.00  0.00    -0.012 C 
HETATM   20  C20 UNL     1      -0.166  -7.439 -26.828  1.00  0.00     0.035 C 
ENDBRANCH   9  11
BRANCH   5  21
HETATM   21  C4  UNL     1       3.228 -12.283 -23.709  1.00  0.00     0.041 C 
BRANCH  21  22
HETATM   22  C5  UNL     1       4.327 -13.144 -24.262  1.00  0.00    -0.012 C 
HETATM   23  C6  UNL     1       3.919 -14.251 -25.158  1.00  0.00     0.005 C 
HETATM   24  C7  UNL     1       5.042 -15.308 -25.070  1.00  0.00     0.000 C 
HETATM   25  C8  UNL     1       6.378 -14.646 -24.973  1.00  0.00     0.000 C 
HETATM   26  C9  UNL     1       6.393 -13.261 -25.568  1.00  0.00     0.000 C 
HETATM   27  C10 UNL     1       5.397 -12.332 -24.953  1.00  0.00     0.005 C 
ENDBRANCH  21  22
ENDBRANCH   5  21
TORSDOF 3
ENDMDL
MODEL 5
REMARK VINA RESULT: -9.945074401      0.272      1.475
REMARK  3 active torsions:
REMARK  status: ('A' for Active; 'I' for Inactive)
REMARK    1  A    between atoms: C3_5  and  C4_6 
REMARK    2  A    between atoms: C4_6  and  C5_7 
REMARK       I    between atoms: N1_13  and  C11_14 
REMARK       I    between atoms: C11_14  and  N2_16 
REMARK    3  A    between atoms: N2_16  and  C12_18 
ROOT
HETATM    1  O1  UNL     1      -1.170 -11.753 -25.804  1.00  0.00    -0.272 OA
HETATM    2  C1  UNL     1      -0.440 -11.888 -24.762  1.00  0.00     0.238 C 
HETATM    3  C2  UNL     1      -0.922 -12.558 -23.526  1.00  0.00     0.179 C 
HETATM    4  S1  UNL     1       0.657 -13.051 -22.776  1.00  0.00    -0.134 SA
HETATM    5  C3  UNL     1       1.749 -12.496 -24.146  1.00  0.00     0.160 C 
HETATM    6  N1  UNL     1       0.918 -11.421 -24.649  1.00  0.00    -0.255 N 
HETATM    7  C11 UNL     1       1.314 -10.090 -25.018  1.00  0.00     0.326 C 
HETATM    8  O2  UNL     1       2.534  -9.746 -24.917  1.00  0.00    -0.247 OA
HETATM    9  N2  UNL     1       0.410  -9.107 -25.502  1.00  0.00    -0.333 N 
ATOM     10  H2  UNL     1      -0.568  -9.384 -25.578  1.00  0.00     0.165 HD
ENDROOT
BRANCH   9  11
HETATM   11  C12 UNL     1       0.728  -7.773 -25.891  1.00  0.00     0.035 C 
HETATM   12  C13 UNL     1       0.810  -6.879 -24.694  1.00  0.00     0.035 C 
HETATM   13  C14 UNL     1       1.317  -5.501 -25.097  1.00  0.00    -0.012 C 
HETATM   14  C15 UNL     1       0.351  -4.882 -26.086  1.00  0.00     0.009 C 
HETATM   15  C19 UNL     1       2.676  -5.563 -25.724  1.00  0.00     0.009 C 
HETATM   16  C16 UNL     1       0.218  -5.813 -27.267  1.00  0.00    -0.012 C 
HETATM   17  C17 UNL     1       1.554  -5.885 -27.949  1.00  0.00     0.009 C 
HETATM   18  C21 UNL     1      -0.276  -7.191 -26.858  1.00  0.00     0.035 C 
HETATM   19  C18 UNL     1       2.560  -6.432 -26.967  1.00  0.00    -0.012 C 
HETATM   20  C20 UNL     1       2.128  -7.790 -26.514  1.00  0.00     0.035 C 
ENDBRANCH   9  11
BRANCH   5  21
HETATM   21  C4  UNL     1       3.081 -12.059 -23.697  1.00  0.00     0.041 C 
BRANCH  21  22
HETATM   22  C5  UNL     1       4.230 -12.626 -24.479  1.00  0.00    -0.012 C 
HETATM   23  C6  UNL     1       5.590 -12.345 -23.964  1.00  0.00     0.005 C 
HETATM   24  C7  UNL     1       6.538 -12.442 -25.180  1.00  0.00     0.000 C 
HETATM   25  C8  UNL     1       6.108 -13.545 -26.091  1.00  0.00     0.000 C 
HETATM   26  C9  UNL     1       5.321 -14.621 -25.384  1.00  0.00     0.000 C 
HETATM   27  C10 UNL     1       4.094 -14.114 -24.699  1.00  0.00     0.005 C 
ENDBRANCH  21  22
ENDBRANCH   5  21
TORSDOF 3
ENDMDL
