MODEL 1
REMARK VINA RESULT: -9.448871941      0.000      0.000
REMARK  8 active torsions:
REMARK  status: ('A' for Active; 'I' for Inactive)
REMARK    1  A    between atoms: C2_2  and  C3_3 
REMARK    2  A    between atoms: C2_2  and  C15_15 
REMARK    3  A    between atoms: C3_3  and  C4_4 
REMARK    4  A    between atoms: C5_5  and  C6_6 
REMARK    5  A    between atoms: C6_6  and  C7_7 
REMARK    6  A    between atoms: C8_8  and  C9_9 
REMARK    7  A    between atoms: C9_9  and  C12_12 
REMARK    8  A    between atoms: C16_16  and  O1_17 
ROOT
HETATM    1  C12 UNL     1       8.985 -14.221 -25.871  1.00  0.00    -0.094 C 
HETATM    2  C13 UNL     1      10.172 -14.406 -26.068  1.00  0.00    -0.110 C 
HETATM    3  C14 UNL     1      11.597 -14.624 -26.266  1.00  0.00     0.112 C 
ENDROOT
BRANCH   1   4
HETATM    4  C9  UNL     1       7.552 -13.993 -25.603  1.00  0.00     0.034 C 
HETATM    5  C10 UNL     1       7.447 -12.807 -24.655  1.00  0.00     0.033 C 
HETATM    6  C11 UNL     1       6.933 -13.588 -26.938  1.00  0.00     0.033 C 
BRANCH   4   7
HETATM    7  C8  UNL     1       6.884 -15.165 -25.053  1.00  0.00    -0.008 C 
HETATM    8  C7  UNL     1       5.683 -15.615 -25.087  1.00  0.00    -0.017 C 
BRANCH   8   9
HETATM    9  C6  UNL     1       4.557 -14.955 -25.800  1.00  0.00     0.120 C 
BRANCH   9  10
HETATM   10  C5  UNL     1       3.987 -13.910 -24.869  1.00  0.00    -0.103 C 
HETATM   11  C4  UNL     1       3.533 -13.043 -24.172  1.00  0.00    -0.102 C 
BRANCH  11  12
HETATM   12  C3  UNL     1       2.988 -11.945 -23.379  1.00  0.00     0.129 C 
BRANCH  12  13
HETATM   13  C2  UNL     1       2.266 -10.981 -24.240  1.00  0.00    -0.053 C 
HETATM   14  C1  UNL     1       0.989 -11.158 -24.436  1.00  0.00     0.017 C 
BRANCH  13  15
HETATM   15  C15 UNL     1       3.036  -9.936 -24.881  1.00  0.00     0.140 C 
HETATM   16  C16 UNL     1       2.129  -8.668 -24.795  1.00  0.00     0.149 C 
HETATM   17  C17 UNL     1       2.664  -8.004 -23.500  1.00  0.00     0.087 C 
HETATM   18  C18 UNL     1       4.117  -8.277 -23.653  1.00  0.00     0.223 C 
HETATM   19  O2  UNL     1       4.783  -8.664 -22.493  1.00  0.00    -0.354 OA
HETATM   20  N1  UNL     1       4.236  -9.475 -24.457  1.00  0.00    -0.374 N 
HETATM   21  C19 UNL     1       5.957  -9.276 -22.982  1.00  0.00     0.079 C 
HETATM   22  C20 UNL     1       6.675 -10.088 -21.971  1.00  0.00     0.040 C 
HETATM   23  C23 UNL     1       6.903  -8.240 -23.505  1.00  0.00     0.040 C 
HETATM   24  C24 UNL     1       5.382 -10.143 -24.119  1.00  0.00     0.158 C 
HETATM   25  C21 UNL     1       8.030  -9.451 -21.811  1.00  0.00     0.003 C 
HETATM   26  C22 UNL     1       8.266  -8.514 -22.962  1.00  0.00     0.003 C 
BRANCH  16  27
HETATM   27  O1  UNL     1       2.454  -7.873 -25.884  1.00  0.00    -0.393 OA
ATOM     28  H1  UNL     1       1.778  -7.208 -25.946  1.00  0.00     0.210 HD
ENDBRANCH  16  27
ENDBRANCH  13  15
ENDBRANCH  12  13
ENDBRANCH  11  12
ENDBRANCH   9  10
ENDBRANCH   8   9
ENDBRANCH   4   7
ENDBRANCH   1   4
TORSDOF 8
ENDMDL
MODEL 2
REMARK VINA RESULT: -9.387237103      2.452      6.585
REMARK  8 active torsions:
REMARK  status: ('A' for Active; 'I' for Inactive)
REMARK    1  A    between atoms: C2_2  and  C3_3 
REMARK    2  A    between atoms: C2_2  and  C15_15 
REMARK    3  A    between atoms: C3_3  and  C4_4 
REMARK    4  A    between atoms: C5_5  and  C6_6 
REMARK    5  A    between atoms: C6_6  and  C7_7 
REMARK    6  A    between atoms: C8_8  and  C9_9 
REMARK    7  A    between atoms: C9_9  and  C12_12 
REMARK    8  A    between atoms: C16_16  and  O1_17 
ROOT
HETATM    1  C12 UNL     1       0.784 -10.320 -24.597  1.00  0.00    -0.094 C 
HETATM    2  C13 UNL     1      -0.323 -10.791 -24.779  1.00  0.00    -0.110 C 
HETATM    3  C14 UNL     1      -1.649 -11.337 -25.030  1.00  0.00     0.112 C 
ENDROOT
BRANCH   1   4
HETATM    4  C9  UNL     1       2.125  -9.734 -24.405  1.00  0.00     0.034 C 
HETATM    5  C10 UNL     1       2.765  -9.595 -25.779  1.00  0.00     0.033 C 
HETATM    6  C11 UNL     1       1.896  -8.333 -23.845  1.00  0.00     0.033 C 
BRANCH   4   7
HETATM    7  C8  UNL     1       2.965 -10.522 -23.512  1.00  0.00    -0.008 C 
HETATM    8  C7  UNL     1       3.207 -11.774 -23.375  1.00  0.00    -0.017 C 
BRANCH   8   9
HETATM    9  C6  UNL     1       2.609 -12.844 -24.219  1.00  0.00     0.120 C 
BRANCH   9  10
HETATM   10  C5  UNL     1       3.711 -13.823 -24.551  1.00  0.00    -0.103 C 
HETATM   11  C4  UNL     1       4.590 -14.578 -24.866  1.00  0.00    -0.102 C 
BRANCH  11  12
HETATM   12  C3  UNL     1       5.654 -15.472 -25.315  1.00  0.00     0.129 C 
BRANCH  12  13
HETATM   13  C2  UNL     1       6.762 -14.706 -25.927  1.00  0.00    -0.053 C 
HETATM   14  C1  UNL     1       6.691 -14.415 -27.196  1.00  0.00     0.017 C 
BRANCH  13  15
HETATM   15  C15 UNL     1       7.904 -14.385 -25.096  1.00  0.00     0.140 C 
HETATM   16  C16 UNL     1       9.125 -14.428 -26.068  1.00  0.00     0.149 C 
HETATM   17  C17 UNL     1       9.241 -12.935 -26.471  1.00  0.00     0.087 C 
HETATM   18  C18 UNL     1       8.927 -12.293 -25.168  1.00  0.00     0.223 C 
HETATM   19  O2  UNL     1       8.102 -11.173 -25.230  1.00  0.00    -0.354 OA
HETATM   20  N1  UNL     1       8.088 -13.218 -24.435  1.00  0.00    -0.374 N 
HETATM   21  C19 UNL     1       7.614 -11.055 -23.911  1.00  0.00     0.079 C 
HETATM   22  C20 UNL     1       6.442 -10.157 -23.784  1.00  0.00     0.040 C 
HETATM   23  C23 UNL     1       8.691 -10.548 -23.004  1.00  0.00     0.040 C 
HETATM   24  C24 UNL     1       7.256 -12.521 -23.601  1.00  0.00     0.158 C 
HETATM   25  C21 UNL     1       6.872  -9.037 -22.874  1.00  0.00     0.003 C 
HETATM   26  C22 UNL     1       8.136  -9.442 -22.168  1.00  0.00     0.003 C 
BRANCH  16  27
HETATM   27  O1  UNL     1      10.227 -14.782 -25.304  1.00  0.00    -0.393 OA
ATOM     28  H1  UNL     1      10.007 -15.599 -24.872  1.00  0.00     0.210 HD
ENDBRANCH  16  27
ENDBRANCH  13  15
ENDBRANCH  12  13
ENDBRANCH  11  12
ENDBRANCH   9  10
ENDBRANCH   8   9
ENDBRANCH   4   7
ENDBRANCH   1   4
TORSDOF 8
ENDMDL
MODEL 3
REMARK VINA RESULT: -8.983483448      1.773      3.869
REMARK  8 active torsions:
REMARK  status: ('A' for Active; 'I' for Inactive)
REMARK    1  A    between atoms: C2_2  and  C3_3 
REMARK    2  A    between atoms: C2_2  and  C15_15 
REMARK    3  A    between atoms: C3_3  and  C4_4 
REMARK    4  A    between atoms: C5_5  and  C6_6 
REMARK    5  A    between atoms: C6_6  and  C7_7 
REMARK    6  A    between atoms: C8_8  and  C9_9 
REMARK    7  A    between atoms: C9_9  and  C12_12 
REMARK    8  A    between atoms: C16_16  and  O1_17 
ROOT
HETATM    1  C12 UNL     1       6.945 -12.094 -24.921  1.00  0.00    -0.094 C 
HETATM    2  C13 UNL     1       6.445 -11.174 -24.301  1.00  0.00    -0.110 C 
HETATM    3  C14 UNL     1       5.823 -10.098 -23.544  1.00  0.00     0.112 C 
ENDROOT
BRANCH   1   4
HETATM    4  C9  UNL     1       7.533 -13.230 -25.658  1.00  0.00     0.034 C 
HETATM    5  C10 UNL     1       6.998 -13.177 -27.083  1.00  0.00     0.033 C 
HETATM    6  C11 UNL     1       9.035 -12.967 -25.707  1.00  0.00     0.033 C 
BRANCH   4   7
HETATM    7  C8  UNL     1       7.248 -14.517 -25.039  1.00  0.00    -0.008 C 
HETATM    8  C7  UNL     1       6.238 -15.309 -25.031  1.00  0.00    -0.017 C 
BRANCH   8   9
HETATM    9  C6  UNL     1       4.966 -15.057 -25.760  1.00  0.00     0.120 C 
BRANCH   9  10
HETATM   10  C5  UNL     1       4.134 -14.129 -24.904  1.00  0.00    -0.103 C 
HETATM   11  C4  UNL     1       3.503 -13.350 -24.243  1.00  0.00    -0.102 C 
BRANCH  11  12
HETATM   12  C3  UNL     1       2.780 -12.350 -23.461  1.00  0.00     0.129 C 
BRANCH  12  13
HETATM   13  C2  UNL     1       1.361 -12.283 -23.876  1.00  0.00    -0.053 C 
HETATM   14  C1  UNL     1       0.472 -12.907 -23.154  1.00  0.00     0.017 C 
BRANCH  13  15
HETATM   15  C15 UNL     1       1.047 -11.588 -25.107  1.00  0.00     0.140 C 
HETATM   16  C16 UNL     1      -0.512 -11.602 -25.181  1.00  0.00     0.149 C 
HETATM   17  C17 UNL     1      -0.855 -10.230 -24.545  1.00  0.00     0.087 C 
HETATM   18  C18 UNL     1       0.241  -9.402 -25.114  1.00  0.00     0.223 C 
HETATM   19  O2  UNL     1       0.830  -8.495 -24.237  1.00  0.00    -0.354 OA
HETATM   20  N1  UNL     1       1.349 -10.297 -25.377  1.00  0.00    -0.374 N 
HETATM   21  C19 UNL     1       2.064  -8.201 -24.855  1.00  0.00     0.079 C 
HETATM   22  C20 UNL     1       3.038  -7.533 -23.960  1.00  0.00     0.040 C 
HETATM   23  C23 UNL     1       1.851  -7.324 -26.049  1.00  0.00     0.040 C 
HETATM   24  C24 UNL     1       2.529  -9.612 -25.265  1.00  0.00     0.158 C 
HETATM   25  C21 UNL     1       3.319  -6.189 -24.578  1.00  0.00     0.003 C 
HETATM   26  C22 UNL     1       2.825  -6.194 -25.997  1.00  0.00     0.003 C 
BRANCH  16  27
HETATM   27  O1  UNL     1      -0.846 -11.576 -26.527  1.00  0.00    -0.393 OA
ATOM     28  H1  UNL     1      -1.784 -11.433 -26.572  1.00  0.00     0.210 HD
ENDBRANCH  16  27
ENDBRANCH  13  15
ENDBRANCH  12  13
ENDBRANCH  11  12
ENDBRANCH   9  10
ENDBRANCH   8   9
ENDBRANCH   4   7
ENDBRANCH   1   4
TORSDOF 8
ENDMDL
MODEL 4
REMARK VINA RESULT: -8.958124119      2.411      6.514
REMARK  8 active torsions:
REMARK  status: ('A' for Active; 'I' for Inactive)
REMARK    1  A    between atoms: C2_2  and  C3_3 
REMARK    2  A    between atoms: C2_2  and  C15_15 
REMARK    3  A    between atoms: C3_3  and  C4_4 
REMARK    4  A    between atoms: C5_5  and  C6_6 
REMARK    5  A    between atoms: C6_6  and  C7_7 
REMARK    6  A    between atoms: C8_8  and  C9_9 
REMARK    7  A    between atoms: C9_9  and  C12_12 
REMARK    8  A    between atoms: C16_16  and  O1_17 
ROOT
HETATM    1  C12 UNL     1       2.003  -8.539 -23.919  1.00  0.00    -0.094 C 
HETATM    2  C13 UNL     1       1.923  -7.377 -23.565  1.00  0.00    -0.110 C 
HETATM    3  C14 UNL     1       1.789  -5.990 -23.144  1.00  0.00     0.112 C 
ENDROOT
BRANCH   1   4
HETATM    4  C9  UNL     1       2.070  -9.950 -24.347  1.00  0.00     0.034 C 
HETATM    5  C10 UNL     1       0.646 -10.487 -24.377  1.00  0.00     0.033 C 
HETATM    6  C11 UNL     1       2.599  -9.930 -25.778  1.00  0.00     0.033 C 
BRANCH   4   7
HETATM    7  C8  UNL     1       2.920 -10.764 -23.488  1.00  0.00    -0.008 C 
HETATM    8  C7  UNL     1       3.161 -12.020 -23.391  1.00  0.00    -0.017 C 
BRANCH   8   9
HETATM    9  C6  UNL     1       2.549 -13.064 -24.257  1.00  0.00     0.120 C 
BRANCH   9  10
HETATM   10  C5  UNL     1       3.649 -14.025 -24.645  1.00  0.00    -0.103 C 
HETATM   11  C4  UNL     1       4.557 -14.746 -24.962  1.00  0.00    -0.102 C 
BRANCH  11  12
HETATM   12  C3  UNL     1       5.698 -15.563 -25.365  1.00  0.00     0.129 C 
BRANCH  12  13
HETATM   13  C2  UNL     1       6.765 -14.724 -25.954  1.00  0.00    -0.053 C 
HETATM   14  C1  UNL     1       6.667 -14.385 -27.209  1.00  0.00     0.017 C 
BRANCH  13  15
HETATM   15  C15 UNL     1       7.900 -14.387 -25.121  1.00  0.00     0.140 C 
HETATM   16  C16 UNL     1       9.121 -14.399 -26.094  1.00  0.00     0.149 C 
HETATM   17  C17 UNL     1       9.208 -12.901 -26.484  1.00  0.00     0.087 C 
HETATM   18  C18 UNL     1       8.882 -12.275 -25.176  1.00  0.00     0.223 C 
HETATM   19  O2  UNL     1       8.035 -11.171 -25.229  1.00  0.00    -0.354 OA
HETATM   20  N1  UNL     1       8.062 -13.223 -24.451  1.00  0.00    -0.374 N 
HETATM   21  C19 UNL     1       7.546 -11.074 -23.909  1.00  0.00     0.079 C 
HETATM   22  C20 UNL     1       6.356 -10.201 -23.774  1.00  0.00     0.040 C 
HETATM   23  C23 UNL     1       8.613 -10.553 -22.997  1.00  0.00     0.040 C 
HETATM   24  C24 UNL     1       7.217 -12.550 -23.610  1.00  0.00     0.158 C 
HETATM   25  C21 UNL     1       6.765  -9.080 -22.854  1.00  0.00     0.003 C 
HETATM   26  C22 UNL     1       8.036  -9.466 -22.153  1.00  0.00     0.003 C 
BRANCH  16  27
HETATM   27  O1  UNL     1      10.231 -14.737 -25.333  1.00  0.00    -0.393 OA
ATOM     28  H1  UNL     1      10.662 -13.922 -25.105  1.00  0.00     0.210 HD
ENDBRANCH  16  27
ENDBRANCH  13  15
ENDBRANCH  12  13
ENDBRANCH  11  12
ENDBRANCH   9  10
ENDBRANCH   8   9
ENDBRANCH   4   7
ENDBRANCH   1   4
TORSDOF 8
ENDMDL
MODEL 5
REMARK VINA RESULT: -8.720764591      2.506      6.387
REMARK  8 active torsions:
REMARK  status: ('A' for Active; 'I' for Inactive)
REMARK    1  A    between atoms: C2_2  and  C3_3 
REMARK    2  A    between atoms: C2_2  and  C15_15 
REMARK    3  A    between atoms: C3_3  and  C4_4 
REMARK    4  A    between atoms: C5_5  and  C6_6 
REMARK    5  A    between atoms: C6_6  and  C7_7 
REMARK    6  A    between atoms: C8_8  and  C9_9 
REMARK    7  A    between atoms: C9_9  and  C12_12 
REMARK    8  A    between atoms: C16_16  and  O1_17 
ROOT
HETATM    1  C12 UNL     1       1.959  -8.854 -26.012  1.00  0.00    -0.094 C 
HETATM    2  C13 UNL     1       2.193  -8.524 -27.159  1.00  0.00    -0.110 C 
HETATM    3  C14 UNL     1       2.459  -8.094 -28.524  1.00  0.00     0.112 C 
ENDROOT
BRANCH   1   4
HETATM    4  C9  UNL     1       1.663  -9.227 -24.614  1.00  0.00     0.034 C 
HETATM    5  C10 UNL     1       1.137  -7.984 -23.911  1.00  0.00     0.033 C 
HETATM    6  C11 UNL     1       0.531 -10.248 -24.682  1.00  0.00     0.033 C 
BRANCH   4   7
HETATM    7  C8  UNL     1       2.819  -9.775 -23.917  1.00  0.00    -0.008 C 
HETATM    8  C7  UNL     1       3.212 -10.960 -23.618  1.00  0.00    -0.017 C 
BRANCH   8   9
HETATM    9  C6  UNL     1       2.478 -12.204 -23.974  1.00  0.00     0.120 C 
BRANCH   9  10
HETATM   10  C5  UNL     1       3.504 -13.211 -24.443  1.00  0.00    -0.103 C 
HETATM   11  C4  UNL     1       4.288 -14.051 -24.791  1.00  0.00    -0.102 C 
BRANCH  11  12
HETATM   12  C3  UNL     1       5.206 -15.120 -25.175  1.00  0.00     0.129 C 
BRANCH  12  13
HETATM   13  C2  UNL     1       6.417 -14.566 -25.823  1.00  0.00    -0.053 C 
HETATM   14  C1  UNL     1       6.401 -14.380 -27.113  1.00  0.00     0.017 C 
BRANCH  13  15
HETATM   15  C15 UNL     1       7.581 -14.332 -24.995  1.00  0.00     0.140 C 
HETATM   16  C16 UNL     1       8.794 -14.493 -25.964  1.00  0.00     0.149 C 
HETATM   17  C17 UNL     1       9.037 -13.021 -26.388  1.00  0.00     0.087 C 
HETATM   18  C18 UNL     1       8.779 -12.336 -25.095  1.00  0.00     0.223 C 
HETATM   19  O2  UNL     1       8.052 -11.151 -25.174  1.00  0.00    -0.354 OA
HETATM   20  N1  UNL     1       7.864 -13.176 -24.350  1.00  0.00    -0.374 N 
HETATM   21  C19 UNL     1       7.576 -10.973 -23.857  1.00  0.00     0.079 C 
HETATM   22  C20 UNL     1       6.484  -9.978 -23.744  1.00  0.00     0.040 C 
HETATM   23  C23 UNL     1       8.692 -10.547 -22.955  1.00  0.00     0.040 C 
HETATM   24  C24 UNL     1       7.095 -12.399 -23.527  1.00  0.00     0.158 C 
HETATM   25  C21 UNL     1       7.008  -8.885 -22.849  1.00  0.00     0.003 C 
HETATM   26  C22 UNL     1       8.233  -9.386 -22.136  1.00  0.00     0.003 C 
BRANCH  16  27
HETATM   27  O1  UNL     1       9.862 -14.928 -25.195  1.00  0.00    -0.393 OA
ATOM     28  H1  UNL     1      10.473 -15.347 -25.790  1.00  0.00     0.210 HD
ENDBRANCH  16  27
ENDBRANCH  13  15
ENDBRANCH  12  13
ENDBRANCH  11  12
ENDBRANCH   9  10
ENDBRANCH   8   9
ENDBRANCH   4   7
ENDBRANCH   1   4
TORSDOF 8
ENDMDL
