MODEL 1
REMARK VINA RESULT: -6.955884674      0.000      0.000
REMARK  13 active torsions:
REMARK  status: ('A' for Active; 'I' for Inactive)
REMARK    1  A    between atoms: C2_2  and  C3_3 
REMARK    2  A    between atoms: C3_3  and  N1_4 
REMARK    3  A    between atoms: C4_5  and  O1_6 
REMARK    4  A    between atoms: C5_8  and  C6_9 
REMARK    5  A    between atoms: C12_18  and  N2_19 
REMARK       I    between atoms: N2_19  and  C13_21 
REMARK    6  A    between atoms: C13_21  and  C14_23 
REMARK    7  A    between atoms: C18_27  and  C19_28 
REMARK    8  A    between atoms: C19_28  and  N3_30 
REMARK    9  A    between atoms: C23_33  and  C24_34 
REMARK   10  A    between atoms: C24_34  and  C25_35 
REMARK   11  A    between atoms: C25_35  and  C26_36 
REMARK       I    between atoms: C26_36  and  N4_38 
REMARK   12  A    between atoms: N4_38  and  C27_40 
REMARK   13  A    between atoms: C30_43  and  O4_44 
ROOT
HETATM    1  N1  UNL     1       0.811  12.773  -6.235  1.00  0.00    -0.324 N 
HETATM    2  C4  UNL     1       1.802  11.991  -6.702  1.00  0.00     0.156 A 
HETATM    3  C5  UNL     1       2.539  11.486  -5.609  1.00  0.00     0.057 A 
HETATM    4  C12 UNL     1       1.946  12.001  -4.500  1.00  0.00     0.079 A 
HETATM    5  C18 UNL     1       0.841  12.834  -4.895  1.00  0.00     0.087 A 
ENDROOT
BRANCH   5   6
HETATM    6  C19 UNL     1       0.085  13.753  -3.997  1.00  0.00     0.036 C 
HETATM    7  C20 UNL     1       0.541  15.179  -3.980  1.00  0.00     0.071 C 
BRANCH   6   8
HETATM    8  N3  UNL     1      -1.158  13.377  -3.502  1.00  0.00    -0.362 N 
HETATM    9  C21 UNL     1      -2.391  13.573  -4.079  1.00  0.00     0.064 C 
HETATM   10  C22 UNL     1      -3.650  13.384  -3.276  1.00  0.00     0.049 C 
HETATM   11  C23 UNL     1      -3.490  12.923  -1.895  1.00  0.00    -0.008 C 
HETATM   12  C33 UNL     1      -2.111  12.275  -1.651  1.00  0.00     0.025 C 
HETATM   13  C34 UNL     1      -1.170  13.425  -2.040  1.00  0.00     0.128 C 
BRANCH  11  14
HETATM   14  C24 UNL     1      -4.476  11.987  -1.319  1.00  0.00     0.014 C 
BRANCH  14  15
HETATM   15  C25 UNL     1      -4.189  10.522  -1.304  1.00  0.00     0.103 C 
BRANCH  15  16
HETATM   16  C26 UNL     1      -4.727   9.826  -0.126  1.00  0.00     0.217 C 
HETATM   17  O3  UNL     1      -5.609   8.941  -0.169  1.00  0.00    -0.274 OA
HETATM   18  N4  UNL     1      -4.267  10.147   1.202  1.00  0.00    -0.356 N 
ATOM     19  H4  UNL     1      -3.550  10.864   1.310  1.00  0.00     0.162 HD
BRANCH  18  20
HETATM   20  C27 UNL     1      -4.782   9.491   2.396  1.00  0.00     0.084 C 
HETATM   21  C28 UNL     1      -3.750   8.552   2.895  1.00  0.00     0.028 C 
HETATM   22  C29 UNL     1      -4.156   7.804   4.121  1.00  0.00     0.034 C 
HETATM   23  C30 UNL     1      -4.702   8.719   5.155  1.00  0.00     0.118 C 
HETATM   24  C31 UNL     1      -4.643  10.177   4.842  1.00  0.00     0.034 C 
HETATM   25  C32 UNL     1      -4.983  10.592   3.471  1.00  0.00     0.028 C 
BRANCH  23  26
HETATM   26  O4  UNL     1      -6.004   8.307   5.483  1.00  0.00    -0.396 OA
ATOM     27  H4  UNL     1      -6.484   9.051   5.829  1.00  0.00     0.210 HD
ENDBRANCH  23  26
ENDBRANCH  18  20
ENDBRANCH  15  16
ENDBRANCH  14  15
ENDBRANCH  11  14
ENDBRANCH   6   8
ENDBRANCH   5   6
BRANCH   1  28
HETATM   28  C3  UNL     1      -0.118  13.429  -7.145  1.00  0.00     0.131 C 
BRANCH  28  29
HETATM   29  C2  UNL     1       0.444  14.716  -7.680  1.00  0.00     0.016 C 
HETATM   30  C1  UNL     1      -0.472  15.897  -7.542  1.00  0.00     0.006 C 
ENDBRANCH  28  29
ENDBRANCH   1  28
BRANCH   4  31
HETATM   31  N2  UNL     1       2.185  11.734  -3.155  1.00  0.00    -0.324 N 
HETATM   32  C13 UNL     1       2.168  10.623  -2.345  1.00  0.00     0.230 C 
HETATM   33  O2  UNL     1       1.932   9.462  -2.687  1.00  0.00    -0.272 OA
ATOM     34  H2  UNL     1       2.437  12.577  -2.639  1.00  0.00     0.169 HD
BRANCH  32  35
HETATM   35  C14 UNL     1       2.448  10.730  -0.839  1.00  0.00     0.030 C 
HETATM   36  C15 UNL     1       2.830   9.384  -0.286  1.00  0.00     0.025 C 
HETATM   37  C16 UNL     1       1.240  11.270  -0.143  1.00  0.00     0.025 C 
HETATM   38  C17 UNL     1       3.639  11.643  -0.705  1.00  0.00     0.025 C 
ENDBRANCH  32  35
ENDBRANCH   4  31
BRANCH   2  39
HETATM   39  O1  UNL     1       2.106  11.685  -8.025  1.00  0.00    -0.345 OA
ATOM     40  H1  UNL     1       2.718  11.038  -8.353  1.00  0.00     0.219 HD
ENDBRANCH   2  39
BRANCH   3  41
HETATM   41  C6  UNL     1       3.670  10.594  -5.831  1.00  0.00     0.023 A 
HETATM   42  C7  UNL     1       4.939  11.078  -6.073  1.00  0.00     0.019 A 
HETATM   43  C8  UNL     1       5.985  10.197  -6.371  1.00  0.00     0.046 A 
HETATM   44  C9  UNL     1       5.791   8.826  -6.435  1.00  0.00     0.158 A 
HETATM   45  F1  UNL     1       6.810   7.981  -6.731  1.00  0.00    -0.203 F 
HETATM   46  C10 UNL     1       4.515   8.338  -6.192  1.00  0.00     0.194 A 
HETATM   47  F2  UNL     1       4.301   6.979  -6.253  1.00  0.00    -0.200 F 
HETATM   48  C11 UNL     1       3.501   9.211  -5.900  1.00  0.00     0.169 A 
HETATM   49  F3  UNL     1       2.254   8.747  -5.659  1.00  0.00    -0.202 F 
ENDBRANCH   3  41
TORSDOF 13
ENDMDL
MODEL 2
REMARK VINA RESULT: -6.591072717      3.678      6.046
REMARK  13 active torsions:
REMARK  status: ('A' for Active; 'I' for Inactive)
REMARK    1  A    between atoms: C2_2  and  C3_3 
REMARK    2  A    between atoms: C3_3  and  N1_4 
REMARK    3  A    between atoms: C4_5  and  O1_6 
REMARK    4  A    between atoms: C5_8  and  C6_9 
REMARK    5  A    between atoms: C12_18  and  N2_19 
REMARK       I    between atoms: N2_19  and  C13_21 
REMARK    6  A    between atoms: C13_21  and  C14_23 
REMARK    7  A    between atoms: C18_27  and  C19_28 
REMARK    8  A    between atoms: C19_28  and  N3_30 
REMARK    9  A    between atoms: C23_33  and  C24_34 
REMARK   10  A    between atoms: C24_34  and  C25_35 
REMARK   11  A    between atoms: C25_35  and  C26_36 
REMARK       I    between atoms: C26_36  and  N4_38 
REMARK   12  A    between atoms: N4_38  and  C27_40 
REMARK   13  A    between atoms: C30_43  and  O4_44 
ROOT
HETATM    1  N1  UNL     1       2.234  11.434   2.010  1.00  0.00    -0.324 N 
HETATM    2  C4  UNL     1       3.095  10.464   2.366  1.00  0.00     0.156 A 
HETATM    3  C5  UNL     1       3.967  10.208   1.285  1.00  0.00     0.057 A 
HETATM    4  C12 UNL     1       3.581  11.058   0.297  1.00  0.00     0.079 A 
HETATM    5  C18 UNL     1       2.465  11.843   0.753  1.00  0.00     0.087 A 
ENDROOT
BRANCH   5   6
HETATM    6  C19 UNL     1       1.614  12.718  -0.103  1.00  0.00     0.036 C 
HETATM    7  C20 UNL     1       2.338  13.744  -0.919  1.00  0.00     0.071 C 
BRANCH   6   8
HETATM    8  N3  UNL     1       0.301  12.358  -0.379  1.00  0.00    -0.362 N 
HETATM    9  C21 UNL     1      -0.173  11.128  -0.768  1.00  0.00     0.064 C 
HETATM   10  C22 UNL     1      -1.566  10.984  -1.321  1.00  0.00     0.049 C 
HETATM   11  C23 UNL     1      -2.391  12.194  -1.356  1.00  0.00    -0.008 C 
HETATM   12  C33 UNL     1      -1.863  13.289  -0.405  1.00  0.00     0.025 C 
HETATM   13  C34 UNL     1      -0.438  13.488  -0.944  1.00  0.00     0.128 C 
BRANCH  11  14
HETATM   14  C24 UNL     1      -3.840  12.099  -1.085  1.00  0.00     0.014 C 
BRANCH  14  15
HETATM   15  C25 UNL     1      -4.579  10.849  -1.431  1.00  0.00     0.103 C 
BRANCH  15  16
HETATM   16  C26 UNL     1      -4.995  10.065  -0.258  1.00  0.00     0.217 C 
HETATM   17  O3  UNL     1      -5.752   9.071  -0.304  1.00  0.00    -0.274 OA
HETATM   18  N4  UNL     1      -4.553  10.420   1.068  1.00  0.00    -0.356 N 
ATOM     19  H4  UNL     1      -3.936  11.225   1.178  1.00  0.00     0.162 HD
BRANCH  18  20
HETATM   20  C27 UNL     1      -4.950   9.679   2.257  1.00  0.00     0.084 C 
HETATM   21  C28 UNL     1      -3.863   8.732   2.602  1.00  0.00     0.028 C 
HETATM   22  C29 UNL     1      -4.148   7.899   3.808  1.00  0.00     0.034 C 
HETATM   23  C30 UNL     1      -4.615   8.735   4.942  1.00  0.00     0.118 C 
HETATM   24  C31 UNL     1      -4.606  10.211   4.721  1.00  0.00     0.034 C 
HETATM   25  C32 UNL     1      -5.073  10.704   3.415  1.00  0.00     0.028 C 
BRANCH  23  26
HETATM   26  O4  UNL     1      -5.877   8.276   5.355  1.00  0.00    -0.396 OA
ATOM     27  H4  UNL     1      -6.513   8.970   5.229  1.00  0.00     0.210 HD
ENDBRANCH  23  26
ENDBRANCH  18  20
ENDBRANCH  15  16
ENDBRANCH  14  15
ENDBRANCH  11  14
ENDBRANCH   6   8
ENDBRANCH   5   6
BRANCH   1  28
HETATM   28  C3  UNL     1       1.215  11.908   2.937  1.00  0.00     0.131 C 
BRANCH  28  29
HETATM   29  C2  UNL     1       0.052  10.959   3.017  1.00  0.00     0.016 C 
HETATM   30  C1  UNL     1      -1.284  11.594   2.761  1.00  0.00     0.006 C 
ENDBRANCH  28  29
ENDBRANCH   1  28
BRANCH   4  31
HETATM   31  N2  UNL     1       4.172  11.318  -0.937  1.00  0.00    -0.324 N 
HETATM   32  C13 UNL     1       4.103  10.785  -2.203  1.00  0.00     0.230 C 
HETATM   33  O2  UNL     1       3.385   9.854  -2.575  1.00  0.00    -0.272 OA
ATOM     34  H2  UNL     1       4.820  12.104  -0.890  1.00  0.00     0.169 HD
BRANCH  32  35
HETATM   35  C14 UNL     1       4.975  11.327  -3.344  1.00  0.00     0.030 C 
HETATM   36  C15 UNL     1       4.863  12.825  -3.417  1.00  0.00     0.025 C 
HETATM   37  C16 UNL     1       4.557  10.697  -4.634  1.00  0.00     0.025 C 
HETATM   38  C17 UNL     1       6.395  10.984  -2.977  1.00  0.00     0.025 C 
ENDBRANCH  32  35
ENDBRANCH   4  31
BRANCH   2  39
HETATM   39  O1  UNL     1       3.173   9.784   3.577  1.00  0.00    -0.345 OA
ATOM     40  H1  UNL     1       3.764   9.943   4.304  1.00  0.00     0.219 HD
ENDBRANCH   2  39
BRANCH   3  41
HETATM   41  C6  UNL     1       5.016   9.203   1.404  1.00  0.00     0.023 A 
HETATM   42  C7  UNL     1       4.963   8.014   0.707  1.00  0.00     0.019 A 
HETATM   43  C8  UNL     1       5.939   7.032   0.913  1.00  0.00     0.046 A 
HETATM   44  C9  UNL     1       6.980   7.212   1.810  1.00  0.00     0.158 A 
HETATM   45  F1  UNL     1       7.919   6.252   2.007  1.00  0.00    -0.203 F 
HETATM   46  C10 UNL     1       7.034   8.408   2.512  1.00  0.00     0.194 A 
HETATM   47  F2  UNL     1       8.059   8.605   3.409  1.00  0.00    -0.200 F 
HETATM   48  C11 UNL     1       6.073   9.361   2.300  1.00  0.00     0.169 A 
HETATM   49  F3  UNL     1       6.117  10.531   2.977  1.00  0.00    -0.202 F 
ENDBRANCH   3  41
TORSDOF 13
ENDMDL
MODEL 3
REMARK VINA RESULT: -6.446384088      0.850      1.163
REMARK  13 active torsions:
REMARK  status: ('A' for Active; 'I' for Inactive)
REMARK    1  A    between atoms: C2_2  and  C3_3 
REMARK    2  A    between atoms: C3_3  and  N1_4 
REMARK    3  A    between atoms: C4_5  and  O1_6 
REMARK    4  A    between atoms: C5_8  and  C6_9 
REMARK    5  A    between atoms: C12_18  and  N2_19 
REMARK       I    between atoms: N2_19  and  C13_21 
REMARK    6  A    between atoms: C13_21  and  C14_23 
REMARK    7  A    between atoms: C18_27  and  C19_28 
REMARK    8  A    between atoms: C19_28  and  N3_30 
REMARK    9  A    between atoms: C23_33  and  C24_34 
REMARK   10  A    between atoms: C24_34  and  C25_35 
REMARK   11  A    between atoms: C25_35  and  C26_36 
REMARK       I    between atoms: C26_36  and  N4_38 
REMARK   12  A    between atoms: N4_38  and  C27_40 
REMARK   13  A    between atoms: C30_43  and  O4_44 
ROOT
HETATM    1  N1  UNL     1       0.617  12.840  -6.424  1.00  0.00    -0.324 N 
HETATM    2  C4  UNL     1       1.655  12.110  -6.871  1.00  0.00     0.156 A 
HETATM    3  C5  UNL     1       2.368  11.604  -5.762  1.00  0.00     0.057 A 
HETATM    4  C12 UNL     1       1.711  12.064  -4.665  1.00  0.00     0.079 A 
HETATM    5  C18 UNL     1       0.590  12.864  -5.083  1.00  0.00     0.087 A 
ENDROOT
BRANCH   5   6
HETATM    6  C19 UNL     1      -0.237  13.728  -4.192  1.00  0.00     0.036 C 
HETATM    7  C20 UNL     1       0.328  15.078  -3.875  1.00  0.00     0.071 C 
BRANCH   6   8
HETATM    8  N3  UNL     1      -1.577  13.429  -3.981  1.00  0.00    -0.362 N 
HETATM    9  C21 UNL     1      -2.677  14.036  -4.541  1.00  0.00     0.064 C 
HETATM   10  C22 UNL     1      -4.052  13.799  -3.976  1.00  0.00     0.049 C 
HETATM   11  C23 UNL     1      -4.155  12.852  -2.864  1.00  0.00    -0.008 C 
HETATM   12  C33 UNL     1      -2.926  11.924  -2.770  1.00  0.00     0.025 C 
HETATM   13  C34 UNL     1      -1.792  12.949  -2.615  1.00  0.00     0.128 C 
BRANCH  11  14
HETATM   14  C24 UNL     1      -5.331  11.964  -2.767  1.00  0.00     0.014 C 
BRANCH  14  15
HETATM   15  C25 UNL     1      -6.267  12.094  -1.612  1.00  0.00     0.103 C 
BRANCH  15  16
HETATM   16  C26 UNL     1      -6.176  10.984  -0.650  1.00  0.00     0.217 C 
HETATM   17  O3  UNL     1      -6.656   9.845  -0.838  1.00  0.00    -0.274 OA
HETATM   18  N4  UNL     1      -5.521  11.155   0.622  1.00  0.00    -0.356 N 
ATOM     19  H4  UNL     1      -5.111  12.063   0.842  1.00  0.00     0.162 HD
BRANCH  18  20
HETATM   20  C27 UNL     1      -5.419  10.089   1.608  1.00  0.00     0.084 C 
HETATM   21  C28 UNL     1      -4.192   9.307   1.326  1.00  0.00     0.028 C 
HETATM   22  C29 UNL     1      -3.970   8.170   2.266  1.00  0.00     0.034 C 
HETATM   23  C30 UNL     1      -4.108   8.604   3.679  1.00  0.00     0.118 C 
HETATM   24  C31 UNL     1      -4.320  10.064   3.902  1.00  0.00     0.034 C 
HETATM   25  C32 UNL     1      -5.246  10.762   2.995  1.00  0.00     0.028 C 
BRANCH  23  26
HETATM   26  O4  UNL     1      -5.105   7.830   4.296  1.00  0.00    -0.396 OA
ATOM     27  H4  UNL     1      -5.273   8.180   5.163  1.00  0.00     0.210 HD
ENDBRANCH  23  26
ENDBRANCH  18  20
ENDBRANCH  15  16
ENDBRANCH  14  15
ENDBRANCH  11  14
ENDBRANCH   6   8
ENDBRANCH   5   6
BRANCH   1  28
HETATM   28  C3  UNL     1      -0.301  13.485  -7.354  1.00  0.00     0.131 C 
BRANCH  28  29
HETATM   29  C2  UNL     1       0.217  14.822  -7.807  1.00  0.00     0.016 C 
HETATM   30  C1  UNL     1      -0.729  15.963  -7.575  1.00  0.00     0.006 C 
ENDBRANCH  28  29
ENDBRANCH   1  28
BRANCH   4  31
HETATM   31  N2  UNL     1       1.906  11.769  -3.319  1.00  0.00    -0.324 N 
HETATM   32  C13 UNL     1       1.930  10.632  -2.545  1.00  0.00     0.230 C 
HETATM   33  O2  UNL     1       1.793   9.470  -2.934  1.00  0.00    -0.272 OA
ATOM     34  H2  UNL     1       2.074  12.609  -2.766  1.00  0.00     0.169 HD
BRANCH  32  35
HETATM   35  C14 UNL     1       2.133  10.707  -1.025  1.00  0.00     0.030 C 
HETATM   36  C15 UNL     1       3.165  11.749  -0.690  1.00  0.00     0.025 C 
HETATM   37  C16 UNL     1       2.543   9.365  -0.509  1.00  0.00     0.025 C 
HETATM   38  C17 UNL     1       0.814  11.158  -0.454  1.00  0.00     0.025 C 
ENDBRANCH  32  35
ENDBRANCH   4  31
BRANCH   2  39
HETATM   39  O1  UNL     1       2.024  11.854  -8.188  1.00  0.00    -0.345 OA
ATOM     40  H1  UNL     1       2.886  11.920  -8.580  1.00  0.00     0.219 HD
ENDBRANCH   2  39
BRANCH   3  41
HETATM   41  C6  UNL     1       3.541  10.763  -5.961  1.00  0.00     0.023 A 
HETATM   42  C7  UNL     1       4.785  11.302  -6.215  1.00  0.00     0.019 A 
HETATM   43  C8  UNL     1       5.874  10.466  -6.491  1.00  0.00     0.046 A 
HETATM   44  C9  UNL     1       5.746   9.086  -6.519  1.00  0.00     0.158 A 
HETATM   45  F1  UNL     1       6.806   8.284  -6.793  1.00  0.00    -0.203 F 
HETATM   46  C10 UNL     1       4.496   8.542  -6.264  1.00  0.00     0.194 A 
HETATM   47  F2  UNL     1       4.349   7.174  -6.289  1.00  0.00    -0.200 F 
HETATM   48  C11 UNL     1       3.440   9.372  -5.994  1.00  0.00     0.169 A 
HETATM   49  F3  UNL     1       2.217   8.853  -5.741  1.00  0.00    -0.202 F 
ENDBRANCH   3  41
TORSDOF 13
ENDMDL
MODEL 4
REMARK VINA RESULT: -6.395968521      2.197      4.298
REMARK  13 active torsions:
REMARK  status: ('A' for Active; 'I' for Inactive)
REMARK    1  A    between atoms: C2_2  and  C3_3 
REMARK    2  A    between atoms: C3_3  and  N1_4 
REMARK    3  A    between atoms: C4_5  and  O1_6 
REMARK    4  A    between atoms: C5_8  and  C6_9 
REMARK    5  A    between atoms: C12_18  and  N2_19 
REMARK       I    between atoms: N2_19  and  C13_21 
REMARK    6  A    between atoms: C13_21  and  C14_23 
REMARK    7  A    between atoms: C18_27  and  C19_28 
REMARK    8  A    between atoms: C19_28  and  N3_30 
REMARK    9  A    between atoms: C23_33  and  C24_34 
REMARK   10  A    between atoms: C24_34  and  C25_35 
REMARK   11  A    between atoms: C25_35  and  C26_36 
REMARK       I    between atoms: C26_36  and  N4_38 
REMARK   12  A    between atoms: N4_38  and  C27_40 
REMARK   13  A    between atoms: C30_43  and  O4_44 
ROOT
HETATM    1  N1  UNL     1       0.196  13.386  -3.001  1.00  0.00    -0.324 N 
HETATM    2  C4  UNL     1       0.719  12.743  -4.061  1.00  0.00     0.156 A 
HETATM    3  C5  UNL     1       1.707  11.842  -3.607  1.00  0.00     0.057 A 
HETATM    4  C12 UNL     1       1.738  11.986  -2.256  1.00  0.00     0.079 A 
HETATM    5  C18 UNL     1       0.776  12.980  -1.861  1.00  0.00     0.087 A 
ENDROOT
BRANCH   5   6
HETATM    6  C19 UNL     1       0.664  13.587  -0.503  1.00  0.00     0.036 C 
HETATM    7  C20 UNL     1       1.151  14.997  -0.371  1.00  0.00     0.071 C 
BRANCH   6   8
HETATM    8  N3  UNL     1      -0.155  13.003   0.455  1.00  0.00    -0.362 N 
HETATM    9  C21 UNL     1       0.179  12.622   1.733  1.00  0.00     0.064 C 
HETATM   10  C22 UNL     1      -0.734  11.730   2.530  1.00  0.00     0.049 C 
HETATM   11  C23 UNL     1      -2.004  11.356   1.902  1.00  0.00    -0.008 C 
HETATM   12  C33 UNL     1      -2.386  12.302   0.744  1.00  0.00     0.025 C 
HETATM   13  C34 UNL     1      -1.164  12.152  -0.176  1.00  0.00     0.128 C 
BRANCH  11  14
HETATM   14  C24 UNL     1      -3.220  11.233   2.730  1.00  0.00     0.014 C 
BRANCH  14  15
HETATM   15  C25 UNL     1      -3.979   9.947   2.749  1.00  0.00     0.103 C 
BRANCH  15  16
HETATM   16  C26 UNL     1      -4.589   9.602   1.456  1.00  0.00     0.217 C 
HETATM   17  O3  UNL     1      -4.616   8.449   0.973  1.00  0.00    -0.274 OA
HETATM   18  N4  UNL     1      -5.199  10.612   0.629  1.00  0.00    -0.356 N 
ATOM     19  H4  UNL     1      -5.207  11.577   0.962  1.00  0.00     0.162 HD
BRANCH  18  20
HETATM   20  C27 UNL     1      -5.803  10.316  -0.662  1.00  0.00     0.084 C 
HETATM   21  C28 UNL     1      -6.932  11.253  -0.876  1.00  0.00     0.028 C 
HETATM   22  C29 UNL     1      -7.648  11.052  -2.170  1.00  0.00     0.034 C 
HETATM   23  C30 UNL     1      -6.696  10.971  -3.306  1.00  0.00     0.118 C 
HETATM   24  C31 UNL     1      -5.259  11.212  -2.980  1.00  0.00     0.034 C 
HETATM   25  C32 UNL     1      -4.732  10.607  -1.746  1.00  0.00     0.028 C 
BRANCH  23  26
HETATM   26  O4  UNL     1      -6.883   9.747  -3.969  1.00  0.00    -0.396 OA
ATOM     27  H4  UNL     1      -6.351   9.083  -3.544  1.00  0.00     0.210 HD
ENDBRANCH  23  26
ENDBRANCH  18  20
ENDBRANCH  15  16
ENDBRANCH  14  15
ENDBRANCH  11  14
ENDBRANCH   6   8
ENDBRANCH   5   6
BRANCH   1  28
HETATM   28  C3  UNL     1      -0.856  14.380  -3.172  1.00  0.00     0.131 C 
BRANCH  28  29
HETATM   29  C2  UNL     1      -2.216  13.743  -3.234  1.00  0.00     0.016 C 
HETATM   30  C1  UNL     1      -3.224  14.343  -2.297  1.00  0.00     0.006 C 
ENDBRANCH  28  29
ENDBRANCH   1  28
BRANCH   4  31
HETATM   31  N2  UNL     1       2.435  11.257  -1.296  1.00  0.00    -0.324 N 
HETATM   32  C13 UNL     1       2.481   9.945  -0.886  1.00  0.00     0.230 C 
HETATM   33  O2  UNL     1       1.850   8.998  -1.363  1.00  0.00    -0.272 OA
ATOM     34  H2  UNL     1       3.074  11.845  -0.763  1.00  0.00     0.169 HD
BRANCH  32  35
HETATM   35  C14 UNL     1       3.372   9.507   0.284  1.00  0.00     0.030 C 
HETATM   36  C15 UNL     1       2.874  10.109   1.570  1.00  0.00     0.025 C 
HETATM   37  C16 UNL     1       4.785   9.915   0.017  1.00  0.00     0.025 C 
HETATM   38  C17 UNL     1       3.219   8.011   0.382  1.00  0.00     0.025 C 
ENDBRANCH  32  35
ENDBRANCH   4  31
BRANCH   2  39
HETATM   39  O1  UNL     1       0.390  12.889  -5.405  1.00  0.00    -0.345 OA
ATOM     40  H1  UNL     1       0.796  13.453  -6.052  1.00  0.00     0.219 HD
ENDBRANCH   2  39
BRANCH   3  41
HETATM   41  C6  UNL     1       2.430  11.002  -4.553  1.00  0.00     0.023 A 
HETATM   42  C7  UNL     1       2.009   9.723  -4.854  1.00  0.00     0.019 A 
HETATM   43  C8  UNL     1       2.776   8.908  -5.696  1.00  0.00     0.046 A 
HETATM   44  C9  UNL     1       3.968   9.348  -6.251  1.00  0.00     0.158 A 
HETATM   45  F1  UNL     1       4.706   8.549  -7.063  1.00  0.00    -0.203 F 
HETATM   46  C10 UNL     1       4.391  10.634  -5.949  1.00  0.00     0.194 A 
HETATM   47  F2  UNL     1       5.573  11.088  -6.490  1.00  0.00    -0.200 F 
HETATM   48  C11 UNL     1       3.631  11.420  -5.125  1.00  0.00     0.169 A 
HETATM   49  F3  UNL     1       4.033  12.676  -4.825  1.00  0.00    -0.202 F 
ENDBRANCH   3  41
TORSDOF 13
ENDMDL
MODEL 5
REMARK VINA RESULT: -6.384392365      3.734      9.875
REMARK  13 active torsions:
REMARK  status: ('A' for Active; 'I' for Inactive)
REMARK    1  A    between atoms: C2_2  and  C3_3 
REMARK    2  A    between atoms: C3_3  and  N1_4 
REMARK    3  A    between atoms: C4_5  and  O1_6 
REMARK    4  A    between atoms: C5_8  and  C6_9 
REMARK    5  A    between atoms: C12_18  and  N2_19 
REMARK       I    between atoms: N2_19  and  C13_21 
REMARK    6  A    between atoms: C13_21  and  C14_23 
REMARK    7  A    between atoms: C18_27  and  C19_28 
REMARK    8  A    between atoms: C19_28  and  N3_30 
REMARK    9  A    between atoms: C23_33  and  C24_34 
REMARK   10  A    between atoms: C24_34  and  C25_35 
REMARK   11  A    between atoms: C25_35  and  C26_36 
REMARK       I    between atoms: C26_36  and  N4_38 
REMARK   12  A    between atoms: N4_38  and  C27_40 
REMARK   13  A    between atoms: C30_43  and  O4_44 
ROOT
HETATM    1  N1  UNL     1      -6.347  12.112  -1.623  1.00  0.00    -0.324 N 
HETATM    2  C4  UNL     1      -6.409  11.183  -0.651  1.00  0.00     0.156 A 
HETATM    3  C5  UNL     1      -5.386  11.435   0.288  1.00  0.00     0.057 A 
HETATM    4  C12 UNL     1      -4.732  12.534  -0.172  1.00  0.00     0.079 A 
HETATM    5  C18 UNL     1      -5.338  12.970  -1.402  1.00  0.00     0.087 A 
ENDROOT
BRANCH   5   6
HETATM    6  C19 UNL     1      -4.777  13.992  -2.331  1.00  0.00     0.036 C 
HETATM    7  C20 UNL     1      -5.472  15.318  -2.348  1.00  0.00     0.071 C 
BRANCH   6   8
HETATM    8  N3  UNL     1      -3.502  13.828  -2.858  1.00  0.00    -0.362 N 
HETATM    9  C21 UNL     1      -2.643  14.802  -3.311  1.00  0.00     0.064 C 
HETATM   10  C22 UNL     1      -1.435  14.436  -4.130  1.00  0.00     0.049 C 
HETATM   11  C23 UNL     1      -1.196  13.008  -4.354  1.00  0.00    -0.008 C 
HETATM   12  C33 UNL     1      -1.948  12.123  -3.339  1.00  0.00     0.025 C 
HETATM   13  C34 UNL     1      -3.401  12.560  -3.583  1.00  0.00     0.128 C 
BRANCH  11  14
HETATM   14  C24 UNL     1       0.188  12.494  -4.379  1.00  0.00     0.014 C 
BRANCH  14  15
HETATM   15  C25 UNL     1       0.782  11.899  -3.146  1.00  0.00     0.103 C 
BRANCH  15  16
HETATM   16  C26 UNL     1       1.713  10.792  -3.413  1.00  0.00     0.217 C 
HETATM   17  O3  UNL     1       1.773   9.741  -2.738  1.00  0.00    -0.274 OA
HETATM   18  N4  UNL     1       2.660  10.862  -4.497  1.00  0.00    -0.356 N 
ATOM     19  H4  UNL     1       2.667  11.695  -5.086  1.00  0.00     0.162 HD
BRANCH  18  20
HETATM   20  C27 UNL     1       3.606   9.795  -4.789  1.00  0.00     0.084 C 
HETATM   21  C28 UNL     1       3.044   8.954  -5.873  1.00  0.00     0.028 C 
HETATM   22  C29 UNL     1       3.919   7.811  -6.266  1.00  0.00     0.034 C 
HETATM   23  C30 UNL     1       5.316   8.256  -6.498  1.00  0.00     0.118 C 
HETATM   24  C31 UNL     1       5.562   9.726  -6.414  1.00  0.00     0.034 C 
HETATM   25  C32 UNL     1       4.898  10.464  -5.327  1.00  0.00     0.028 C 
BRANCH  23  26
HETATM   26  O4  UNL     1       6.170   7.534  -5.648  1.00  0.00    -0.396 OA
ATOM     27  H4  UNL     1       7.064   7.821  -5.794  1.00  0.00     0.210 HD
ENDBRANCH  23  26
ENDBRANCH  18  20
ENDBRANCH  15  16
ENDBRANCH  14  15
ENDBRANCH  11  14
ENDBRANCH   6   8
ENDBRANCH   5   6
BRANCH   1  28
HETATM   28  C3  UNL     1      -7.291  12.100  -2.732  1.00  0.00     0.131 C 
BRANCH  28  29
HETATM   29  C2  UNL     1      -6.856  11.162  -3.823  1.00  0.00     0.016 C 
HETATM   30  C1  UNL     1      -7.985  10.493  -4.551  1.00  0.00     0.006 C 
ENDBRANCH  28  29
ENDBRANCH   1  28
BRANCH   4  31
HETATM   31  N2  UNL     1      -3.723  13.287   0.424  1.00  0.00    -0.324 N 
HETATM   32  C13 UNL     1      -3.585  14.027   1.575  1.00  0.00     0.230 C 
HETATM   33  O2  UNL     1      -4.429  14.182   2.460  1.00  0.00    -0.272 OA
ATOM     34  H2  UNL     1      -2.871  13.291  -0.135  1.00  0.00     0.169 HD
BRANCH  32  35
HETATM   35  C14 UNL     1      -2.288  14.788   1.882  1.00  0.00     0.030 C 
HETATM   36  C15 UNL     1      -1.880  15.619   0.696  1.00  0.00     0.025 C 
HETATM   37  C16 UNL     1      -1.213  13.816   2.247  1.00  0.00     0.025 C 
HETATM   38  C17 UNL     1      -2.617  15.726   3.014  1.00  0.00     0.025 C 
ENDBRANCH  32  35
ENDBRANCH   4  31
BRANCH   2  39
HETATM   39  O1  UNL     1      -7.305  10.126  -0.527  1.00  0.00    -0.345 OA
ATOM     40  H1  UNL     1      -8.240  10.164  -0.365  1.00  0.00     0.219 HD
ENDBRANCH   2  39
BRANCH   3  41
HETATM   41  C6  UNL     1      -5.232  10.582   1.459  1.00  0.00     0.023 A 
HETATM   42  C7  UNL     1      -5.713  10.956   2.696  1.00  0.00     0.019 A 
HETATM   43  C8  UNL     1      -5.469  10.156   3.819  1.00  0.00     0.046 A 
HETATM   44  C9  UNL     1      -4.748   8.976   3.733  1.00  0.00     0.158 A 
HETATM   45  F1  UNL     1      -4.513   8.209   4.828  1.00  0.00    -0.203 F 
HETATM   46  C10 UNL     1      -4.264   8.598   2.489  1.00  0.00     0.194 A 
HETATM   47  F2  UNL     1      -3.543   7.430   2.383  1.00  0.00    -0.200 F 
HETATM   48  C11 UNL     1      -4.510   9.390   1.398  1.00  0.00     0.169 A 
HETATM   49  F3  UNL     1      -4.046   9.031   0.180  1.00  0.00    -0.202 F 
ENDBRANCH   3  41
TORSDOF 13
ENDMDL
