MODEL 1
REMARK VINA RESULT: -5.970803361      0.000      0.000
REMARK  13 active torsions:
REMARK  status: ('A' for Active; 'I' for Inactive)
REMARK    1  A    between atoms: C5_6  and  O1_7 
REMARK    2  A    between atoms: N2_9  and  C6_10 
REMARK    3  A    between atoms: C7_14  and  O2_15 
REMARK    4  A    between atoms: C23_32  and  N3_33 
REMARK       I    between atoms: N3_33  and  C24_35 
REMARK    5  A    between atoms: C24_35  and  C25_37 
REMARK    6  A    between atoms: C25_37  and  C26_38 
REMARK    7  A    between atoms: C26_38  and  C27_39 
REMARK    8  A    between atoms: C27_39  and  C28_40 
REMARK    9  A    between atoms: C28_40  and  C29_41 
REMARK   10  A    between atoms: C29_41  and  C30_42 
REMARK   11  A    between atoms: C30_42  and  C31_43 
REMARK   12  A    between atoms: C31_43  and  C32_44 
REMARK   13  A    between atoms: C32_44  and  N4_45 
ROOT
HETATM    1  C1  UNL     1      -3.591  14.333  -2.678  1.00  0.00     0.153 C 
HETATM    2  N1  UNL     1      -2.480  13.396  -2.944  1.00  0.00    -0.350 N 
HETATM    3  C2  UNL     1      -2.503  12.125  -2.244  1.00  0.00     0.169 C 
HETATM    4  C3  UNL     1      -3.897  11.585  -2.063  1.00  0.00     0.026 A 
HETATM    5  C4  UNL     1      -4.553  11.139  -0.997  1.00  0.00     0.030 A 
HETATM    6  C5  UNL     1      -5.824  10.755  -1.483  1.00  0.00     0.162 A 
HETATM    7  N2  UNL     1      -5.927  10.966  -2.798  1.00  0.00    -0.212 N 
HETATM    8  C7  UNL     1      -4.749  11.474  -3.163  1.00  0.00     0.160 A 
HETATM    9  C8  UNL     1      -4.235  10.981   0.443  1.00  0.00    -0.060 C 
HETATM   10  C9  UNL     1      -4.142   9.485   0.770  1.00  0.00     0.036 C 
HETATM   11  C10 UNL     1      -4.614   9.101   2.118  1.00  0.00     0.004 C 
HETATM   12  C11 UNL     1      -5.184  10.195   2.978  1.00  0.00     0.000 C 
HETATM   13  C12 UNL     1      -4.110  11.133   3.386  1.00  0.00     0.001 C 
HETATM   14  C13 UNL     1      -3.853  12.292   2.486  1.00  0.00     0.009 C 
HETATM   15  C14 UNL     1      -3.265  11.803   1.120  1.00  0.00     0.015 C 
HETATM   16  C15 UNL     1      -1.969  11.193   1.572  1.00  0.00     0.009 C 
HETATM   17  C16 UNL     1      -1.133  12.047   2.445  1.00  0.00     0.001 C 
HETATM   18  C17 UNL     1       0.330  11.807   2.129  1.00  0.00     0.000 C 
HETATM   19  C18 UNL     1       0.555  12.161   0.672  1.00  0.00     0.000 C 
HETATM   20  C19 UNL     1       1.858  12.863   0.411  1.00  0.00     0.000 C 
HETATM   21  C20 UNL     1       1.581  14.154  -0.320  1.00  0.00     0.000 C 
HETATM   22  C21 UNL     1       1.615  14.014  -1.833  1.00  0.00     0.002 C 
HETATM   23  C22 UNL     1       0.330  13.402  -2.245  1.00  0.00     0.035 C 
HETATM   24  C23 UNL     1      -0.020  13.544  -3.724  1.00  0.00     0.176 C 
HETATM   25  C33 UNL     1      -1.481  13.817  -3.857  1.00  0.00     0.242 C 
HETATM   26  O4  UNL     1      -1.831  14.485  -4.882  1.00  0.00    -0.271 OA
ENDROOT
BRANCH  24  27
HETATM   27  N3  UNL     1       0.446  12.445  -4.496  1.00  0.00    -0.348 N 
HETATM   28  C24 UNL     1       1.536  12.519  -5.429  1.00  0.00     0.218 C 
HETATM   29  O3  UNL     1       2.150  13.609  -5.609  1.00  0.00    -0.274 OA
ATOM     30  H3  UNL     1      -0.024  11.547  -4.381  1.00  0.00     0.163 HD
BRANCH  28  31
HETATM   31  C25 UNL     1       1.984  11.353  -6.205  1.00  0.00     0.103 C 
BRANCH  31  32
HETATM   32  C26 UNL     1       2.215  10.136  -5.395  1.00  0.00     0.009 C 
BRANCH  32  33
HETATM   33  C27 UNL     1       3.395  10.119  -4.499  1.00  0.00     0.000 C 
BRANCH  33  34
HETATM   34  C28 UNL     1       3.104  10.524  -3.070  1.00  0.00     0.000 C 
BRANCH  34  35
HETATM   35  C29 UNL     1       1.758   9.935  -2.600  1.00  0.00     0.000 C 
BRANCH  35  36
HETATM   36  C30 UNL     1       1.978   9.484  -1.200  1.00  0.00     0.002 C 
BRANCH  36  37
HETATM   37  C31 UNL     1       3.323   9.608  -0.618  1.00  0.00     0.027 C 
BRANCH  37  38
HETATM   38  C32 UNL     1       3.569   8.836   0.639  1.00  0.00     0.229 C 
BRANCH  38  39
HETATM   39  N4  UNL     1       3.242   9.606   1.810  1.00  0.00    -0.079 N 
ATOM     40  H43 UNL     1       3.720  10.508   1.808  1.00  0.00     0.274 HD
ATOM     41  H42 UNL     1       2.278   9.936   1.781  1.00  0.00     0.274 HD
ATOM     42  H41 UNL     1       3.432   9.087   2.668  1.00  0.00     0.274 HD
ENDBRANCH  38  39
ENDBRANCH  37  38
ENDBRANCH  36  37
ENDBRANCH  35  36
ENDBRANCH  34  35
ENDBRANCH  33  34
ENDBRANCH  32  33
ENDBRANCH  31  32
ENDBRANCH  28  31
ENDBRANCH  24  27
BRANCH   8  43
HETATM   43  O2  UNL     1      -4.507  11.816  -4.504  1.00  0.00    -0.345 OA
ATOM     44  H2  UNL     1      -4.850  12.548  -5.004  1.00  0.00     0.219 HD
ENDBRANCH   8  43
BRANCH   6  45
HETATM   45  O1  UNL     1      -6.910  10.217  -0.779  1.00  0.00    -0.345 OA
ATOM     46  H1  UNL     1      -7.832  10.227  -1.006  1.00  0.00     0.219 HD
ENDBRANCH   6  45
BRANCH   7  47
HETATM   47  C6  UNL     1      -7.096  10.692  -3.645  1.00  0.00     0.494 C 
HETATM   48  F1  UNL     1      -6.914   9.487  -4.297  1.00  0.00    -0.150 F 
HETATM   49  F2  UNL     1      -7.151  11.705  -4.592  1.00  0.00    -0.150 F 
HETATM   50  F3  UNL     1      -8.223  10.725  -2.888  1.00  0.00    -0.150 F 
ENDBRANCH   7  47
TORSDOF 13
ENDMDL
MODEL 2
REMARK VINA RESULT: -5.592798409      1.595      2.499
REMARK  13 active torsions:
REMARK  status: ('A' for Active; 'I' for Inactive)
REMARK    1  A    between atoms: C5_6  and  O1_7 
REMARK    2  A    between atoms: N2_9  and  C6_10 
REMARK    3  A    between atoms: C7_14  and  O2_15 
REMARK    4  A    between atoms: C23_32  and  N3_33 
REMARK       I    between atoms: N3_33  and  C24_35 
REMARK    5  A    between atoms: C24_35  and  C25_37 
REMARK    6  A    between atoms: C25_37  and  C26_38 
REMARK    7  A    between atoms: C26_38  and  C27_39 
REMARK    8  A    between atoms: C27_39  and  C28_40 
REMARK    9  A    between atoms: C28_40  and  C29_41 
REMARK   10  A    between atoms: C29_41  and  C30_42 
REMARK   11  A    between atoms: C30_42  and  C31_43 
REMARK   12  A    between atoms: C31_43  and  C32_44 
REMARK   13  A    between atoms: C32_44  and  N4_45 
ROOT
HETATM    1  C1  UNL     1      -3.438  14.287  -2.539  1.00  0.00     0.153 C 
HETATM    2  N1  UNL     1      -2.327  13.347  -2.792  1.00  0.00    -0.350 N 
HETATM    3  C2  UNL     1      -2.377  12.065  -2.112  1.00  0.00     0.169 C 
HETATM    4  C3  UNL     1      -3.778  11.533  -1.973  1.00  0.00     0.026 A 
HETATM    5  C4  UNL     1      -4.464  11.076  -0.931  1.00  0.00     0.030 A 
HETATM    6  C5  UNL     1      -5.725  10.709  -1.454  1.00  0.00     0.162 A 
HETATM    7  N2  UNL     1      -5.793  10.940  -2.768  1.00  0.00    -0.212 N 
HETATM    8  C7  UNL     1      -4.603  11.445  -3.096  1.00  0.00     0.160 A 
HETATM    9  C8  UNL     1      -4.183  10.894   0.514  1.00  0.00    -0.060 C 
HETATM   10  C9  UNL     1      -4.109   9.393   0.821  1.00  0.00     0.036 C 
HETATM   11  C10 UNL     1      -4.617   8.992   2.150  1.00  0.00     0.004 C 
HETATM   12  C11 UNL     1      -5.201  10.078   3.012  1.00  0.00     0.000 C 
HETATM   13  C12 UNL     1      -4.131  11.002   3.461  1.00  0.00     0.001 C 
HETATM   14  C13 UNL     1      -3.843  12.172   2.585  1.00  0.00     0.009 C 
HETATM   15  C14 UNL     1      -3.225  11.699   1.227  1.00  0.00     0.015 C 
HETATM   16  C15 UNL     1      -1.945  11.073   1.703  1.00  0.00     0.009 C 
HETATM   17  C16 UNL     1      -1.125  11.907   2.608  1.00  0.00     0.001 C 
HETATM   18  C17 UNL     1       0.344  11.662   2.325  1.00  0.00     0.000 C 
HETATM   19  C18 UNL     1       0.608  12.036   0.880  1.00  0.00     0.000 C 
HETATM   20  C19 UNL     1       1.921  12.732   0.662  1.00  0.00     0.000 C 
HETATM   21  C20 UNL     1       1.671  14.036  -0.056  1.00  0.00     0.000 C 
HETATM   22  C21 UNL     1       1.743  13.918  -1.570  1.00  0.00     0.002 C 
HETATM   23  C22 UNL     1       0.464  13.322  -2.023  1.00  0.00     0.035 C 
HETATM   24  C23 UNL     1       0.152  13.489  -3.508  1.00  0.00     0.176 C 
HETATM   25  C33 UNL     1      -1.304  13.774  -3.673  1.00  0.00     0.242 C 
HETATM   26  O4  UNL     1      -1.623  14.459  -4.696  1.00  0.00    -0.271 OA
ENDROOT
BRANCH  24  27
HETATM   27  N3  UNL     1       0.630  12.398  -4.285  1.00  0.00    -0.348 N 
HETATM   28  C24 UNL     1       1.332  12.540  -5.530  1.00  0.00     0.218 C 
HETATM   29  O3  UNL     1       1.563  13.689  -6.006  1.00  0.00    -0.274 OA
ATOM     30  H3  UNL     1       0.463  11.454  -3.936  1.00  0.00     0.163 HD
BRANCH  28  31
HETATM   31  C25 UNL     1       1.809  11.381  -6.298  1.00  0.00     0.103 C 
BRANCH  31  32
HETATM   32  C26 UNL     1       2.575  10.397  -5.500  1.00  0.00     0.009 C 
BRANCH  32  33
HETATM   33  C27 UNL     1       3.815  10.864  -4.837  1.00  0.00     0.000 C 
BRANCH  33  34
HETATM   34  C28 UNL     1       4.905  11.309  -5.788  1.00  0.00     0.000 C 
BRANCH  34  35
HETATM   35  C29 UNL     1       6.160  10.426  -5.631  1.00  0.00     0.000 C 
BRANCH  35  36
HETATM   36  C30 UNL     1       6.046   9.368  -6.671  1.00  0.00     0.002 C 
BRANCH  36  37
HETATM   37  C31 UNL     1       5.785   7.983  -6.249  1.00  0.00     0.027 C 
BRANCH  37  38
HETATM   38  C32 UNL     1       4.357   7.543  -6.288  1.00  0.00     0.229 C 
BRANCH  38  39
HETATM   39  N4  UNL     1       4.240   6.109  -6.255  1.00  0.00    -0.079 N 
ATOM     40  H43 UNL     1       4.039   5.731  -7.181  1.00  0.00     0.274 HD
ATOM     41  H42 UNL     1       5.144   5.665  -6.095  1.00  0.00     0.274 HD
ATOM     42  H41 UNL     1       3.549   5.802  -5.570  1.00  0.00     0.274 HD
ENDBRANCH  38  39
ENDBRANCH  37  38
ENDBRANCH  36  37
ENDBRANCH  35  36
ENDBRANCH  34  35
ENDBRANCH  33  34
ENDBRANCH  32  33
ENDBRANCH  31  32
ENDBRANCH  28  31
ENDBRANCH  24  27
BRANCH   8  43
HETATM   43  O2  UNL     1      -4.326  11.805  -4.425  1.00  0.00    -0.345 OA
ATOM     44  H2  UNL     1      -4.243  11.247  -5.189  1.00  0.00     0.219 HD
ENDBRANCH   8  43
BRANCH   6  45
HETATM   45  O1  UNL     1      -6.832  10.167  -0.786  1.00  0.00    -0.345 OA
ATOM     46  H1  UNL     1      -6.854   9.499  -0.112  1.00  0.00     0.219 HD
ENDBRANCH   6  45
BRANCH   7  47
HETATM   47  C6  UNL     1      -6.943  10.686  -3.648  1.00  0.00     0.494 C 
HETATM   48  F1  UNL     1      -8.109  10.771  -2.911  1.00  0.00    -0.150 F 
HETATM   49  F2  UNL     1      -6.809   9.388  -4.118  1.00  0.00    -0.150 F 
HETATM   50  F3  UNL     1      -6.910  11.548  -4.697  1.00  0.00    -0.150 F 
ENDBRANCH   7  47
TORSDOF 13
ENDMDL
MODEL 3
REMARK VINA RESULT: -5.569442381      1.232      1.659
REMARK  13 active torsions:
REMARK  status: ('A' for Active; 'I' for Inactive)
REMARK    1  A    between atoms: C5_6  and  O1_7 
REMARK    2  A    between atoms: N2_9  and  C6_10 
REMARK    3  A    between atoms: C7_14  and  O2_15 
REMARK    4  A    between atoms: C23_32  and  N3_33 
REMARK       I    between atoms: N3_33  and  C24_35 
REMARK    5  A    between atoms: C24_35  and  C25_37 
REMARK    6  A    between atoms: C25_37  and  C26_38 
REMARK    7  A    between atoms: C26_38  and  C27_39 
REMARK    8  A    between atoms: C27_39  and  C28_40 
REMARK    9  A    between atoms: C28_40  and  C29_41 
REMARK   10  A    between atoms: C29_41  and  C30_42 
REMARK   11  A    between atoms: C30_42  and  C31_43 
REMARK   12  A    between atoms: C31_43  and  C32_44 
REMARK   13  A    between atoms: C32_44  and  N4_45 
ROOT
HETATM    1  C1  UNL     1      -3.593  14.385  -2.550  1.00  0.00     0.153 C 
HETATM    2  N1  UNL     1      -2.446  13.500  -2.838  1.00  0.00    -0.350 N 
HETATM    3  C2  UNL     1      -2.433  12.200  -2.193  1.00  0.00     0.169 C 
HETATM    4  C3  UNL     1      -3.809  11.604  -2.056  1.00  0.00     0.026 A 
HETATM    5  C4  UNL     1      -4.464  11.091  -1.020  1.00  0.00     0.030 A 
HETATM    6  C5  UNL     1      -5.714  10.684  -1.541  1.00  0.00     0.162 A 
HETATM    7  N2  UNL     1      -5.806  10.947  -2.848  1.00  0.00    -0.212 N 
HETATM    8  C7  UNL     1      -4.642  11.511  -3.173  1.00  0.00     0.160 A 
HETATM    9  C8  UNL     1      -4.160  10.882   0.416  1.00  0.00    -0.060 C 
HETATM   10  C9  UNL     1      -4.018   9.378   0.681  1.00  0.00     0.036 C 
HETATM   11  C10 UNL     1      -4.495   8.920   2.004  1.00  0.00     0.004 C 
HETATM   12  C11 UNL     1      -5.115   9.956   2.901  1.00  0.00     0.000 C 
HETATM   13  C12 UNL     1      -4.080  10.912   3.364  1.00  0.00     0.001 C 
HETATM   14  C13 UNL     1      -3.852  12.117   2.518  1.00  0.00     0.009 C 
HETATM   15  C14 UNL     1      -3.229  11.707   1.142  1.00  0.00     0.015 C 
HETATM   16  C15 UNL     1      -1.919  11.125   1.588  1.00  0.00     0.009 C 
HETATM   17  C16 UNL     1      -1.125  11.968   2.508  1.00  0.00     0.001 C 
HETATM   18  C17 UNL     1       0.350  11.793   2.204  1.00  0.00     0.000 C 
HETATM   19  C18 UNL     1       0.582  12.218   0.768  1.00  0.00     0.000 C 
HETATM   20  C19 UNL     1       1.862  12.975   0.555  1.00  0.00     0.000 C 
HETATM   21  C20 UNL     1       1.549  14.286  -0.124  1.00  0.00     0.000 C 
HETATM   22  C21 UNL     1       1.610  14.212  -1.641  1.00  0.00     0.002 C 
HETATM   23  C22 UNL     1       0.353  13.574  -2.097  1.00  0.00     0.035 C 
HETATM   24  C23 UNL     1       0.018  13.767  -3.574  1.00  0.00     0.176 C 
HETATM   25  C33 UNL     1      -1.450  13.995  -3.718  1.00  0.00     0.242 C 
HETATM   26  O4  UNL     1      -1.810  14.692  -4.719  1.00  0.00    -0.271 OA
ENDROOT
BRANCH  24  27
HETATM   27  N3  UNL     1       0.533  12.719  -4.385  1.00  0.00    -0.348 N 
HETATM   28  C24 UNL     1       1.744  12.813  -5.153  1.00  0.00     0.218 C 
HETATM   29  O3  UNL     1       2.428  13.876  -5.139  1.00  0.00    -0.274 OA
ATOM     30  H3  UNL     1       0.009  11.845  -4.425  1.00  0.00     0.163 HD
BRANCH  28  31
HETATM   31  C25 UNL     1       2.238  11.701  -5.977  1.00  0.00     0.103 C 
BRANCH  31  32
HETATM   32  C26 UNL     1       1.939  10.359  -5.429  1.00  0.00     0.009 C 
BRANCH  32  33
HETATM   33  C27 UNL     1       2.729   9.900  -4.262  1.00  0.00     0.000 C 
BRANCH  33  34
HETATM   34  C28 UNL     1       1.957   9.858  -2.960  1.00  0.00     0.000 C 
BRANCH  34  35
HETATM   35  C29 UNL     1       2.803  10.431  -1.805  1.00  0.00     0.000 C 
BRANCH  35  36
HETATM   36  C30 UNL     1       4.041  10.965  -2.433  1.00  0.00     0.002 C 
BRANCH  36  37
HETATM   37  C31 UNL     1       4.671  12.163  -1.855  1.00  0.00     0.027 C 
BRANCH  37  38
HETATM   38  C32 UNL     1       5.066  13.229  -2.825  1.00  0.00     0.229 C 
BRANCH  38  39
HETATM   39  N4  UNL     1       5.181  12.715  -4.164  1.00  0.00    -0.079 N 
ATOM     40  H43 UNL     1       6.137  12.798  -4.514  1.00  0.00     0.274 HD
ATOM     41  H42 UNL     1       5.093  11.700  -4.182  1.00  0.00     0.274 HD
ATOM     42  H41 UNL     1       4.514  13.158  -4.797  1.00  0.00     0.274 HD
ENDBRANCH  38  39
ENDBRANCH  37  38
ENDBRANCH  36  37
ENDBRANCH  35  36
ENDBRANCH  34  35
ENDBRANCH  33  34
ENDBRANCH  32  33
ENDBRANCH  31  32
ENDBRANCH  28  31
ENDBRANCH  24  27
BRANCH   8  43
HETATM   43  O2  UNL     1      -4.394  11.919  -4.494  1.00  0.00    -0.345 OA
ATOM     44  H2  UNL     1      -3.948  11.450  -5.190  1.00  0.00     0.219 HD
ENDBRANCH   8  43
BRANCH   6  45
HETATM   45  O1  UNL     1      -6.789  10.078  -0.877  1.00  0.00    -0.345 OA
ATOM     46  H1  UNL     1      -6.775   9.480  -0.140  1.00  0.00     0.219 HD
ENDBRANCH   6  45
BRANCH   7  47
HETATM   47  C6  UNL     1      -6.953  10.669  -3.723  1.00  0.00     0.494 C 
HETATM   48  F1  UNL     1      -6.988  11.605  -4.739  1.00  0.00    -0.150 F 
HETATM   49  F2  UNL     1      -8.093  10.814  -2.947  1.00  0.00    -0.150 F 
HETATM   50  F3  UNL     1      -6.879   9.391  -4.176  1.00  0.00    -0.150 F 
ENDBRANCH   7  47
TORSDOF 13
ENDMDL
MODEL 4
REMARK VINA RESULT: -5.490654014      1.571      2.791
REMARK  13 active torsions:
REMARK  status: ('A' for Active; 'I' for Inactive)
REMARK    1  A    between atoms: C5_6  and  O1_7 
REMARK    2  A    between atoms: N2_9  and  C6_10 
REMARK    3  A    between atoms: C7_14  and  O2_15 
REMARK    4  A    between atoms: C23_32  and  N3_33 
REMARK       I    between atoms: N3_33  and  C24_35 
REMARK    5  A    between atoms: C24_35  and  C25_37 
REMARK    6  A    between atoms: C25_37  and  C26_38 
REMARK    7  A    between atoms: C26_38  and  C27_39 
REMARK    8  A    between atoms: C27_39  and  C28_40 
REMARK    9  A    between atoms: C28_40  and  C29_41 
REMARK   10  A    between atoms: C29_41  and  C30_42 
REMARK   11  A    between atoms: C30_42  and  C31_43 
REMARK   12  A    between atoms: C31_43  and  C32_44 
REMARK   13  A    between atoms: C32_44  and  N4_45 
ROOT
HETATM    1  C1  UNL     1      -3.248  14.163  -2.608  1.00  0.00     0.153 C 
HETATM    2  N1  UNL     1      -2.171  13.172  -2.809  1.00  0.00    -0.350 N 
HETATM    3  C2  UNL     1      -2.282  11.918  -2.086  1.00  0.00     0.169 C 
HETATM    4  C3  UNL     1      -3.705  11.445  -1.954  1.00  0.00     0.026 A 
HETATM    5  C4  UNL     1      -4.425  11.052  -0.909  1.00  0.00     0.030 A 
HETATM    6  C5  UNL     1      -5.691  10.716  -1.441  1.00  0.00     0.162 A 
HETATM    7  N2  UNL     1      -5.729  10.903  -2.764  1.00  0.00    -0.212 N 
HETATM    8  C7  UNL     1      -4.514  11.350  -3.088  1.00  0.00     0.160 A 
HETATM    9  C8  UNL     1      -4.175  10.910   0.546  1.00  0.00    -0.060 C 
HETATM   10  C9  UNL     1      -4.165   9.419   0.905  1.00  0.00     0.036 C 
HETATM   11  C10 UNL     1      -4.710   9.085   2.239  1.00  0.00     0.004 C 
HETATM   12  C11 UNL     1      -5.265  10.222   3.053  1.00  0.00     0.000 C 
HETATM   13  C12 UNL     1      -4.166  11.119   3.488  1.00  0.00     0.001 C 
HETATM   14  C13 UNL     1      -3.819  12.246   2.578  1.00  0.00     0.009 C 
HETATM   15  C14 UNL     1      -3.198  11.701   1.248  1.00  0.00     0.015 C 
HETATM   16  C15 UNL     1      -1.951  11.044   1.767  1.00  0.00     0.009 C 
HETATM   17  C16 UNL     1      -1.114  11.877   2.657  1.00  0.00     0.001 C 
HETATM   18  C17 UNL     1       0.348  11.565   2.409  1.00  0.00     0.000 C 
HETATM   19  C18 UNL     1       0.650  11.878   0.957  1.00  0.00     0.000 C 
HETATM   20  C19 UNL     1       1.993  12.514   0.738  1.00  0.00     0.000 C 
HETATM   21  C20 UNL     1       1.807  13.801  -0.029  1.00  0.00     0.000 C 
HETATM   22  C21 UNL     1       1.898  13.627  -1.536  1.00  0.00     0.002 C 
HETATM   23  C22 UNL     1       0.605  13.066  -1.990  1.00  0.00     0.035 C 
HETATM   24  C23 UNL     1       0.323  13.192  -3.485  1.00  0.00     0.176 C 
HETATM   25  C33 UNL     1      -1.117  13.528  -3.686  1.00  0.00     0.242 C 
HETATM   26  O4  UNL     1      -1.392  14.188  -4.738  1.00  0.00    -0.271 OA
ENDROOT
BRANCH  24  27
HETATM   27  N3  UNL     1       0.770  12.057  -4.216  1.00  0.00    -0.348 N 
HETATM   28  C24 UNL     1       1.530  12.129  -5.433  1.00  0.00     0.218 C 
HETATM   29  O3  UNL     1       1.843  13.250  -5.926  1.00  0.00    -0.274 OA
ATOM     30  H3  UNL     1       0.537  11.133  -3.853  1.00  0.00     0.163 HD
BRANCH  28  31
HETATM   31  C25 UNL     1       1.972  10.926  -6.153  1.00  0.00     0.103 C 
BRANCH  31  32
HETATM   32  C26 UNL     1       2.386   9.809  -5.275  1.00  0.00     0.009 C 
BRANCH  32  33
HETATM   33  C27 UNL     1       3.437   8.892  -5.776  1.00  0.00     0.000 C 
BRANCH  33  34
HETATM   34  C28 UNL     1       4.711   9.580  -6.215  1.00  0.00     0.000 C 
BRANCH  34  35
HETATM   35  C29 UNL     1       5.350  10.348  -5.039  1.00  0.00     0.000 C 
BRANCH  35  36
HETATM   36  C30 UNL     1       5.538  11.743  -5.518  1.00  0.00     0.002 C 
BRANCH  36  37
HETATM   37  C31 UNL     1       5.462  12.014  -6.963  1.00  0.00     0.027 C 
BRANCH  37  38
HETATM   38  C32 UNL     1       5.069  13.403  -7.350  1.00  0.00     0.229 C 
BRANCH  38  39
HETATM   39  N4  UNL     1       3.886  13.413  -8.171  1.00  0.00    -0.079 N 
ATOM     40  H43 UNL     1       4.043  13.919  -9.043  1.00  0.00     0.274 HD
ATOM     41  H42 UNL     1       3.693  12.488  -8.555  1.00  0.00     0.274 HD
ATOM     42  H41 UNL     1       3.080  13.781  -7.666  1.00  0.00     0.274 HD
ENDBRANCH  38  39
ENDBRANCH  37  38
ENDBRANCH  36  37
ENDBRANCH  35  36
ENDBRANCH  34  35
ENDBRANCH  33  34
ENDBRANCH  32  33
ENDBRANCH  31  32
ENDBRANCH  28  31
ENDBRANCH  24  27
BRANCH   8  43
HETATM   43  O2  UNL     1      -4.202  11.652  -4.423  1.00  0.00    -0.345 OA
ATOM     44  H2  UNL     1      -4.664  12.218  -5.030  1.00  0.00     0.219 HD
ENDBRANCH   8  43
BRANCH   6  45
HETATM   45  O1  UNL     1      -6.829  10.242  -0.774  1.00  0.00    -0.345 OA
ATOM     46  H1  UNL     1      -7.736  10.506  -0.879  1.00  0.00     0.219 HD
ENDBRANCH   6  45
BRANCH   7  47
HETATM   47  C6  UNL     1      -6.873  10.664  -3.654  1.00  0.00     0.494 C 
HETATM   48  F1  UNL     1      -6.860  11.597  -4.674  1.00  0.00    -0.150 F 
HETATM   49  F2  UNL     1      -8.018  10.854  -2.894  1.00  0.00    -0.150 F 
HETATM   50  F3  UNL     1      -6.840   9.383  -4.102  1.00  0.00    -0.150 F 
ENDBRANCH   7  47
TORSDOF 13
ENDMDL
MODEL 5
REMARK VINA RESULT: -5.408024979      4.233      7.499
REMARK  13 active torsions:
REMARK  status: ('A' for Active; 'I' for Inactive)
REMARK    1  A    between atoms: C5_6  and  O1_7 
REMARK    2  A    between atoms: N2_9  and  C6_10 
REMARK    3  A    between atoms: C7_14  and  O2_15 
REMARK    4  A    between atoms: C23_32  and  N3_33 
REMARK       I    between atoms: N3_33  and  C24_35 
REMARK    5  A    between atoms: C24_35  and  C25_37 
REMARK    6  A    between atoms: C25_37  and  C26_38 
REMARK    7  A    between atoms: C26_38  and  C27_39 
REMARK    8  A    between atoms: C27_39  and  C28_40 
REMARK    9  A    between atoms: C28_40  and  C29_41 
REMARK   10  A    between atoms: C29_41  and  C30_42 
REMARK   11  A    between atoms: C30_42  and  C31_43 
REMARK   12  A    between atoms: C31_43  and  C32_44 
REMARK   13  A    between atoms: C32_44  and  N4_45 
ROOT
HETATM    1  C1  UNL     1      -0.242  11.577   0.430  1.00  0.00     0.153 C 
HETATM    2  N1  UNL     1      -0.854  12.796   0.996  1.00  0.00    -0.350 N 
HETATM    3  C2  UNL     1      -2.273  12.994   0.764  1.00  0.00     0.169 C 
HETATM    4  C3  UNL     1      -3.050  11.705   0.774  1.00  0.00     0.026 A 
HETATM    5  C4  UNL     1      -3.920  11.178  -0.081  1.00  0.00     0.030 A 
HETATM    6  C5  UNL     1      -4.312   9.952   0.504  1.00  0.00     0.162 A 
HETATM    7  N2  UNL     1      -3.695   9.750   1.672  1.00  0.00    -0.212 N 
HETATM    8  C7  UNL     1      -2.919  10.821   1.846  1.00  0.00     0.160 A 
HETATM    9  C8  UNL     1      -4.496  11.591  -1.384  1.00  0.00    -0.060 C 
HETATM   10  C9  UNL     1      -5.982  11.917  -1.189  1.00  0.00     0.036 C 
HETATM   11  C10 UNL     1      -6.860  11.578  -2.329  1.00  0.00     0.004 C 
HETATM   12  C11 UNL     1      -6.215  10.902  -3.508  1.00  0.00     0.000 C 
HETATM   13  C12 UNL     1      -5.312  11.849  -4.206  1.00  0.00     0.001 C 
HETATM   14  C13 UNL     1      -3.895  11.887  -3.748  1.00  0.00     0.009 C 
HETATM   15  C14 UNL     1      -3.807  12.466  -2.296  1.00  0.00     0.015 C 
HETATM   16  C15 UNL     1      -4.324  13.859  -2.516  1.00  0.00     0.009 C 
HETATM   17  C16 UNL     1      -3.690  14.608  -3.623  1.00  0.00     0.001 C 
HETATM   18  C17 UNL     1      -3.583  16.071  -3.244  1.00  0.00     0.000 C 
HETATM   19  C18 UNL     1      -2.735  16.165  -1.991  1.00  0.00     0.000 C 
HETATM   20  C19 UNL     1      -1.794  17.336  -1.979  1.00  0.00     0.000 C 
HETATM   21  C20 UNL     1      -0.393  16.837  -1.725  1.00  0.00     0.000 C 
HETATM   22  C21 UNL     1      -0.016  16.811  -0.253  1.00  0.00     0.002 C 
HETATM   23  C22 UNL     1      -0.647  15.609   0.339  1.00  0.00     0.035 C 
HETATM   24  C23 UNL     1      -0.077  15.163   1.684  1.00  0.00     0.176 C 
HETATM   25  C33 UNL     1      -0.004  13.673   1.716  1.00  0.00     0.242 C 
HETATM   26  O4  UNL     1       0.903  13.177   2.457  1.00  0.00    -0.271 OA
ENDROOT
BRANCH  24  27
HETATM   27  N3  UNL     1      -0.772  15.742   2.782  1.00  0.00    -0.348 N 
HETATM   28  C24 UNL     1      -0.280  16.849   3.554  1.00  0.00     0.218 C 
HETATM   29  O3  UNL     1       0.836  17.374   3.280  1.00  0.00    -0.274 OA
ATOM     30  H3  UNL     1      -1.676  15.346   3.037  1.00  0.00     0.163 HD
BRANCH  28  31
HETATM   31  C25 UNL     1      -1.036  17.416   4.681  1.00  0.00     0.103 C 
BRANCH  31  32
HETATM   32  C26 UNL     1      -2.479  17.605   4.411  1.00  0.00     0.009 C 
BRANCH  32  33
HETATM   33  C27 UNL     1      -2.863  18.622   3.404  1.00  0.00     0.000 C 
BRANCH  33  34
HETATM   34  C28 UNL     1      -3.508  18.056   2.156  1.00  0.00     0.000 C 
BRANCH  34  35
HETATM   35  C29 UNL     1      -4.336  16.799   2.492  1.00  0.00     0.000 C 
BRANCH  35  36
HETATM   36  C30 UNL     1      -4.169  15.881   1.334  1.00  0.00     0.002 C 
BRANCH  36  37
HETATM   37  C31 UNL     1      -5.370  15.364   0.660  1.00  0.00     0.027 C 
BRANCH  37  38
HETATM   38  C32 UNL     1      -6.384  14.704   1.539  1.00  0.00     0.229 C 
BRANCH  38  39
HETATM   39  N4  UNL     1      -5.918  13.432   2.027  1.00  0.00    -0.079 N 
ATOM     40  H43 UNL     1      -5.890  12.735   1.282  1.00  0.00     0.274 HD
ATOM     41  H42 UNL     1      -4.925  13.462   2.255  1.00  0.00     0.274 HD
ATOM     42  H41 UNL     1      -6.472  13.106   2.820  1.00  0.00     0.274 HD
ENDBRANCH  38  39
ENDBRANCH  37  38
ENDBRANCH  36  37
ENDBRANCH  35  36
ENDBRANCH  34  35
ENDBRANCH  33  34
ENDBRANCH  32  33
ENDBRANCH  31  32
ENDBRANCH  28  31
ENDBRANCH  24  27
BRANCH   8  43
HETATM   43  O2  UNL     1      -2.119  10.939   2.994  1.00  0.00    -0.345 OA
ATOM     44  H2  UNL     1      -2.081  10.373   3.756  1.00  0.00     0.219 HD
ENDBRANCH   8  43
BRANCH   6  45
HETATM   45  O1  UNL     1      -5.214   8.994   0.021  1.00  0.00    -0.345 OA
ATOM     46  H1  UNL     1      -5.884   8.513   0.493  1.00  0.00     0.219 HD
ENDBRANCH   6  45
BRANCH   7  47
HETATM   47  C6  UNL     1      -3.850   8.590   2.560  1.00  0.00     0.494 C 
HETATM   48  F1  UNL     1      -3.906   7.438   1.799  1.00  0.00    -0.150 F 
HETATM   49  F2  UNL     1      -5.061   8.747   3.217  1.00  0.00    -0.150 F 
HETATM   50  F3  UNL     1      -2.844   8.579   3.472  1.00  0.00    -0.150 F 
ENDBRANCH   7  47
TORSDOF 13
ENDMDL
