MODEL 1
REMARK VINA RESULT: -6.699409500      0.000      0.000
REMARK  10 active torsions:
REMARK  status: ('A' for Active; 'I' for Inactive)
REMARK    1  A    between atoms: O1_2  and  C2_3 
REMARK    2  A    between atoms: C4_5  and  N1_6 
REMARK    3  A    between atoms: N1_6  and  C5_8 
REMARK    4  A    between atoms: C8_11  and  N2_12 
REMARK       I    between atoms: N2_12  and  C9_14 
REMARK    5  A    between atoms: C9_14  and  C10_16 
REMARK    6  A    between atoms: C12_18  and  C13_19 
REMARK    7  A    between atoms: C20_28  and  C21_29 
REMARK    8  A    between atoms: C28_41  and  N5_42 
REMARK    9  A    between atoms: N5_42  and  S1_44 
REMARK   10  A    between atoms: S1_44  and  C29_47 
ROOT
HETATM    1  N2  UNL     1       0.789  11.151   0.420  1.00  0.00    -0.352 N 
ATOM      2  H2  UNL     1       0.475  10.277   0.839  1.00  0.00     0.163 HD
HETATM    3  C9  UNL     1      -0.175  11.976  -0.258  1.00  0.00     0.252 C 
HETATM    4  O2  UNL     1       0.179  13.058  -0.750  1.00  0.00    -0.268 OA
ENDROOT
BRANCH   1   5
HETATM    5  C8  UNL     1       2.201  11.513   0.533  1.00  0.00     0.084 C 
HETATM    6  C7  UNL     1       2.923  10.455  -0.258  1.00  0.00     0.027 C 
HETATM    7  C6  UNL     1       3.154   9.291   0.644  1.00  0.00     0.027 C 
HETATM    8  C5  UNL     1       4.266   9.632   1.620  1.00  0.00     0.082 C 
HETATM    9  C25 UNL     1       3.848  10.851   2.359  1.00  0.00     0.027 C 
HETATM   10  C24 UNL     1       2.562  11.493   1.993  1.00  0.00     0.027 C 
BRANCH   8  11
HETATM   11  N1  UNL     1       5.516   9.851   0.961  1.00  0.00    -0.385 N 
ATOM     12  H1  UNL     1       5.759  10.825   0.782  1.00  0.00     0.160 HD
BRANCH  11  13
HETATM   13  C4  UNL     1       6.443   8.905   0.534  1.00  0.00     0.031 A 
HETATM   14  C3  UNL     1       7.323   9.269  -0.481  1.00  0.00     0.068 A 
HETATM   15  C2  UNL     1       8.242   8.329  -1.006  1.00  0.00     0.097 A 
HETATM   16  C28 UNL     1       8.281   7.046  -0.526  1.00  0.00     0.075 A 
HETATM   17  C27 UNL     1       7.390   6.687   0.499  1.00  0.00     0.035 A 
HETATM   18  C26 UNL     1       6.504   7.612   1.001  1.00  0.00     0.031 A 
BRANCH  15  19
HETATM   19  O1  UNL     1       9.092   8.743  -2.001  1.00  0.00    -0.354 OA
HETATM   20  C1  UNL     1       8.636   9.135  -3.254  1.00  0.00     0.210 C 
ENDBRANCH  15  19
BRANCH  16  21
HETATM   21  N5  UNL     1       9.150   6.030  -0.974  1.00  0.00    -0.282 N 
ATOM     22  H5  UNL     1      10.040   5.929  -0.487  1.00  0.00     0.178 HD
BRANCH  21  23
HETATM   23  S1  UNL     1       8.841   4.959  -2.258  1.00  0.00     0.234 S 
HETATM   24  O3  UNL     1       9.235   5.615  -3.591  1.00  0.00    -0.205 OA
HETATM   25  O4  UNL     1       7.340   4.643  -2.278  1.00  0.00    -0.205 OA
BRANCH  23  26
HETATM   26  C29 UNL     1       9.665   3.407  -2.158  1.00  0.00     0.121 C 
HETATM   27  C30 UNL     1      10.905   3.594  -1.245  1.00  0.00     0.027 C 
HETATM   28  C31 UNL     1      10.161   2.843  -3.412  1.00  0.00     0.027 C 
ENDBRANCH  23  26
ENDBRANCH  21  23
ENDBRANCH  16  21
ENDBRANCH  11  13
ENDBRANCH   8  11
ENDBRANCH   1   5
BRANCH   3  29
HETATM   29  C10 UNL     1      -1.561  11.552  -0.371  1.00  0.00     0.035 A 
HETATM   30  C11 UNL     1      -2.298  11.063   0.677  1.00  0.00     0.031 A 
HETATM   31  C12 UNL     1      -3.635  10.654   0.529  1.00  0.00    -0.004 A 
HETATM   32  C19 UNL     1      -4.166  10.769  -0.702  1.00  0.00     0.071 A 
HETATM   33  N3  UNL     1      -5.454  10.522  -1.106  1.00  0.00    -0.336 N 
HETATM   34  C22 UNL     1      -3.489  11.250  -1.786  1.00  0.00     0.062 A 
HETATM   35  C20 UNL     1      -5.556  10.842  -2.398  1.00  0.00     0.191 A 
ATOM     36  H3  UNL     1      -6.204  10.157  -0.519  1.00  0.00     0.167 HD
HETATM   37  N4  UNL     1      -4.351  11.289  -2.820  1.00  0.00    -0.337 N 
ATOM     38  H4  UNL     1      -4.132  11.604  -3.765  1.00  0.00     0.167 HD
HETATM   39  C23 UNL     1      -2.187  11.635  -1.602  1.00  0.00     0.049 A 
BRANCH  31  40
HETATM   40  C13 UNL     1      -4.240   9.996   1.703  1.00  0.00    -0.067 C 
HETATM   41  C14 UNL     1      -5.405  10.701   2.301  1.00  0.00     0.035 C 
HETATM   42  C15 UNL     1      -5.619  10.246   3.717  1.00  0.00     0.004 C 
HETATM   43  C16 UNL     1      -4.496   9.377   4.230  1.00  0.00     0.001 C 
HETATM   44  C17 UNL     1      -4.182   8.215   3.351  1.00  0.00     0.004 C 
HETATM   45  C18 UNL     1      -4.203   8.553   1.848  1.00  0.00     0.035 C 
ENDBRANCH  31  40
BRANCH  35  46
HETATM   46  C21 UNL     1      -6.748  10.824  -3.286  1.00  0.00     0.449 C 
HETATM   47  F1  UNL     1      -6.706  11.863  -4.214  1.00  0.00    -0.163 F 
HETATM   48  F2  UNL     1      -6.809   9.665  -4.068  1.00  0.00    -0.163 F 
HETATM   49  F3  UNL     1      -7.908  10.837  -2.535  1.00  0.00    -0.163 F 
ENDBRANCH  35  46
ENDBRANCH   3  29
TORSDOF 10
ENDMDL
MODEL 2
REMARK VINA RESULT: -6.648806001      0.843      1.610
REMARK  10 active torsions:
REMARK  status: ('A' for Active; 'I' for Inactive)
REMARK    1  A    between atoms: O1_2  and  C2_3 
REMARK    2  A    between atoms: C4_5  and  N1_6 
REMARK    3  A    between atoms: N1_6  and  C5_8 
REMARK    4  A    between atoms: C8_11  and  N2_12 
REMARK       I    between atoms: N2_12  and  C9_14 
REMARK    5  A    between atoms: C9_14  and  C10_16 
REMARK    6  A    between atoms: C12_18  and  C13_19 
REMARK    7  A    between atoms: C20_28  and  C21_29 
REMARK    8  A    between atoms: C28_41  and  N5_42 
REMARK    9  A    between atoms: N5_42  and  S1_44 
REMARK   10  A    between atoms: S1_44  and  C29_47 
ROOT
HETATM    1  N2  UNL     1       1.071  11.101   0.482  1.00  0.00    -0.352 N 
ATOM      2  H2  UNL     1       0.843  10.107   0.463  1.00  0.00     0.163 HD
HETATM    3  C9  UNL     1       0.008  12.054   0.307  1.00  0.00     0.252 C 
HETATM    4  O2  UNL     1       0.257  13.268   0.355  1.00  0.00    -0.268 OA
ENDROOT
BRANCH   1   5
HETATM    5  C8  UNL     1       2.463  11.495   0.685  1.00  0.00     0.084 C 
HETATM    6  C7  UNL     1       3.255  10.511  -0.135  1.00  0.00     0.027 C 
HETATM    7  C6  UNL     1       3.481   9.299   0.703  1.00  0.00     0.027 C 
HETATM    8  C5  UNL     1       4.535   9.609   1.750  1.00  0.00     0.082 C 
HETATM    9  C25 UNL     1       4.045  10.765   2.544  1.00  0.00     0.027 C 
HETATM   10  C24 UNL     1       2.758  11.392   2.157  1.00  0.00     0.027 C 
BRANCH   8  11
HETATM   11  N1  UNL     1       5.806   9.905   1.168  1.00  0.00    -0.385 N 
ATOM     12  H1  UNL     1       6.126  10.868   1.266  1.00  0.00     0.160 HD
BRANCH  11  13
HETATM   13  C4  UNL     1       6.663   9.048   0.484  1.00  0.00     0.031 A 
HETATM   14  C3  UNL     1       7.013   7.850   1.100  1.00  0.00     0.068 A 
HETATM   15  C2  UNL     1       7.934   6.968   0.486  1.00  0.00     0.097 A 
HETATM   16  C28 UNL     1       8.500   7.279  -0.723  1.00  0.00     0.075 A 
HETATM   17  C27 UNL     1       8.141   8.491  -1.338  1.00  0.00     0.035 A 
HETATM   18  C26 UNL     1       7.243   9.335  -0.731  1.00  0.00     0.031 A 
BRANCH  15  19
HETATM   19  O1  UNL     1       8.237   5.796   1.133  1.00  0.00    -0.354 OA
HETATM   20  C1  UNL     1       8.992   5.765   2.300  1.00  0.00     0.210 C 
ENDBRANCH  15  19
BRANCH  16  21
HETATM   21  N5  UNL     1       9.428   6.481  -1.423  1.00  0.00    -0.282 N 
ATOM     22  H5  UNL     1      10.415   6.613  -1.203  1.00  0.00     0.178 HD
BRANCH  21  23
HETATM   23  S1  UNL     1       9.042   5.317  -2.601  1.00  0.00     0.234 S 
HETATM   24  O3  UNL     1       8.979   5.979  -3.987  1.00  0.00    -0.205 OA
HETATM   25  O4  UNL     1       7.669   4.721  -2.265  1.00  0.00    -0.205 OA
BRANCH  23  26
HETATM   26  C29 UNL     1      10.153   3.955  -2.705  1.00  0.00     0.121 C 
HETATM   27  C30 UNL     1      10.220   3.521  -4.193  1.00  0.00     0.027 C 
HETATM   28  C31 UNL     1       9.799   2.758  -1.945  1.00  0.00     0.027 C 
ENDBRANCH  23  26
ENDBRANCH  21  23
ENDBRANCH  16  21
ENDBRANCH  11  13
ENDBRANCH   8  11
ENDBRANCH   1   5
BRANCH   3  29
HETATM   29  C10 UNL     1      -1.355  11.607   0.073  1.00  0.00     0.035 A 
HETATM   30  C11 UNL     1      -2.156  11.059   1.042  1.00  0.00     0.031 A 
HETATM   31  C12 UNL     1      -3.468  10.630   0.778  1.00  0.00    -0.004 A 
HETATM   32  C19 UNL     1      -3.910  10.785  -0.484  1.00  0.00     0.071 A 
HETATM   33  N3  UNL     1      -5.157  10.529  -0.992  1.00  0.00    -0.336 N 
HETATM   34  C22 UNL     1      -3.166  11.326  -1.493  1.00  0.00     0.062 A 
HETATM   35  C20 UNL     1      -5.172  10.901  -2.274  1.00  0.00     0.191 A 
ATOM     36  H3  UNL     1      -5.940  10.124  -0.478  1.00  0.00     0.167 HD
HETATM   37  N4  UNL     1      -3.950  11.391  -2.587  1.00  0.00    -0.337 N 
ATOM     38  H4  UNL     1      -3.669  11.750  -3.499  1.00  0.00     0.167 HD
HETATM   39  C23 UNL     1      -1.890  11.729  -1.197  1.00  0.00     0.049 A 
BRANCH  31  40
HETATM   40  C13 UNL     1      -4.142   9.910   1.875  1.00  0.00    -0.067 C 
HETATM   41  C14 UNL     1      -5.348  10.578   2.432  1.00  0.00     0.035 C 
HETATM   42  C15 UNL     1      -5.650  10.052   3.807  1.00  0.00     0.004 C 
HETATM   43  C16 UNL     1      -4.556   9.162   4.347  1.00  0.00     0.001 C 
HETATM   44  C17 UNL     1      -4.178   8.047   3.432  1.00  0.00     0.004 C 
HETATM   45  C18 UNL     1      -4.105   8.462   1.950  1.00  0.00     0.035 C 
ENDBRANCH  31  40
BRANCH  35  46
HETATM   46  C21 UNL     1      -6.294  10.896  -3.249  1.00  0.00     0.449 C 
HETATM   47  F1  UNL     1      -7.414  11.549  -2.738  1.00  0.00    -0.163 F 
HETATM   48  F2  UNL     1      -5.985  11.602  -4.417  1.00  0.00    -0.163 F 
HETATM   49  F3  UNL     1      -6.576   9.604  -3.650  1.00  0.00    -0.163 F 
ENDBRANCH  35  46
ENDBRANCH   3  29
TORSDOF 10
ENDMDL
MODEL 3
REMARK VINA RESULT: -6.613346564      0.716      1.082
REMARK  10 active torsions:
REMARK  status: ('A' for Active; 'I' for Inactive)
REMARK    1  A    between atoms: O1_2  and  C2_3 
REMARK    2  A    between atoms: C4_5  and  N1_6 
REMARK    3  A    between atoms: N1_6  and  C5_8 
REMARK    4  A    between atoms: C8_11  and  N2_12 
REMARK       I    between atoms: N2_12  and  C9_14 
REMARK    5  A    between atoms: C9_14  and  C10_16 
REMARK    6  A    between atoms: C12_18  and  C13_19 
REMARK    7  A    between atoms: C20_28  and  C21_29 
REMARK    8  A    between atoms: C28_41  and  N5_42 
REMARK    9  A    between atoms: N5_42  and  S1_44 
REMARK   10  A    between atoms: S1_44  and  C29_47 
ROOT
HETATM    1  N2  UNL     1       0.772  11.245   0.388  1.00  0.00    -0.352 N 
ATOM      2  H2  UNL     1       0.406  10.502   0.983  1.00  0.00     0.163 HD
HETATM    3  C9  UNL     1      -0.131  11.916  -0.509  1.00  0.00     0.252 C 
HETATM    4  O2  UNL     1       0.286  12.843  -1.220  1.00  0.00    -0.268 OA
ENDROOT
BRANCH   1   5
HETATM    5  C8  UNL     1       2.190  11.583   0.485  1.00  0.00     0.084 C 
HETATM    6  C7  UNL     1       2.892  10.458  -0.229  1.00  0.00     0.027 C 
HETATM    7  C6  UNL     1       3.094   9.354   0.751  1.00  0.00     0.027 C 
HETATM    8  C5  UNL     1       4.209   9.736   1.707  1.00  0.00     0.082 C 
HETATM    9  C25 UNL     1       3.816  11.011   2.360  1.00  0.00     0.027 C 
HETATM   10  C24 UNL     1       2.546  11.655   1.944  1.00  0.00     0.027 C 
BRANCH   8  11
HETATM   11  N1  UNL     1       5.466   9.883   1.042  1.00  0.00    -0.385 N 
ATOM     12  H1  UNL     1       5.729  10.836   0.793  1.00  0.00     0.160 HD
BRANCH  11  13
HETATM   13  C4  UNL     1       6.378   8.891   0.691  1.00  0.00     0.031 A 
HETATM   14  C3  UNL     1       7.304   9.182  -0.305  1.00  0.00     0.068 A 
HETATM   15  C2  UNL     1       8.211   8.192  -0.753  1.00  0.00     0.097 A 
HETATM   16  C28 UNL     1       8.192   6.931  -0.217  1.00  0.00     0.075 A 
HETATM   17  C27 UNL     1       7.253   6.646   0.789  1.00  0.00     0.035 A 
HETATM   18  C26 UNL     1       6.381   7.618   1.216  1.00  0.00     0.031 A 
BRANCH  15  19
HETATM   19  O1  UNL     1       9.110   8.535  -1.733  1.00  0.00    -0.354 OA
HETATM   20  C1  UNL     1       8.717   8.817  -3.036  1.00  0.00     0.210 C 
ENDBRANCH  15  19
BRANCH  16  21
HETATM   21  N5  UNL     1       9.043   5.870  -0.587  1.00  0.00    -0.282 N 
ATOM     22  H5  UNL     1       9.867   5.709  -0.008  1.00  0.00     0.178 HD
BRANCH  21  23
HETATM   23  S1  UNL     1       8.814   4.836  -1.918  1.00  0.00     0.234 S 
HETATM   24  O3  UNL     1       7.336   4.847  -2.339  1.00  0.00    -0.205 OA
HETATM   25  O4  UNL     1       9.207   3.413  -1.501  1.00  0.00    -0.205 OA
BRANCH  23  26
HETATM   26  C29 UNL     1       9.782   5.213  -3.339  1.00  0.00     0.121 C 
HETATM   27  C30 UNL     1      10.104   3.873  -4.052  1.00  0.00     0.027 C 
HETATM   28  C31 UNL     1      11.065   5.872  -3.106  1.00  0.00     0.027 C 
ENDBRANCH  23  26
ENDBRANCH  21  23
ENDBRANCH  16  21
ENDBRANCH  11  13
ENDBRANCH   8  11
ENDBRANCH   1   5
BRANCH   3  29
HETATM   29  C10 UNL     1      -1.526  11.517  -0.589  1.00  0.00     0.035 A 
HETATM   30  C11 UNL     1      -2.246  11.036   0.475  1.00  0.00     0.031 A 
HETATM   31  C12 UNL     1      -3.592  10.652   0.359  1.00  0.00    -0.004 A 
HETATM   32  C19 UNL     1      -4.153  10.781  -0.858  1.00  0.00     0.071 A 
HETATM   33  N3  UNL     1      -5.454  10.559  -1.230  1.00  0.00    -0.336 N 
HETATM   34  C22 UNL     1      -3.494  11.255  -1.956  1.00  0.00     0.062 A 
HETATM   35  C20 UNL     1      -5.583  10.886  -2.518  1.00  0.00     0.191 A 
ATOM     36  H3  UNL     1      -6.195  10.204  -0.626  1.00  0.00     0.167 HD
HETATM   37  N4  UNL     1      -4.381  11.314  -2.968  1.00  0.00    -0.337 N 
ATOM     38  H4  UNL     1      -4.180  11.629  -3.917  1.00  0.00     0.167 HD
HETATM   39  C23 UNL     1      -2.182  11.616  -1.803  1.00  0.00     0.049 A 
BRANCH  31  40
HETATM   40  C13 UNL     1      -4.180  10.000   1.545  1.00  0.00    -0.067 C 
HETATM   41  C14 UNL     1      -5.286  10.744   2.203  1.00  0.00     0.035 C 
HETATM   42  C15 UNL     1      -5.464  10.273   3.619  1.00  0.00     0.004 C 
HETATM   43  C16 UNL     1      -4.363   9.345   4.070  1.00  0.00     0.001 C 
HETATM   44  C17 UNL     1      -4.138   8.186   3.159  1.00  0.00     0.004 C 
HETATM   45  C18 UNL     1      -4.204   8.554   1.664  1.00  0.00     0.035 C 
ENDBRANCH  31  40
BRANCH  35  46
HETATM   46  C21 UNL     1      -6.796  10.892  -3.376  1.00  0.00     0.449 C 
HETATM   47  F1  UNL     1      -7.950  11.101  -2.623  1.00  0.00    -0.163 F 
HETATM   48  F2  UNL     1      -6.789  11.946  -4.297  1.00  0.00    -0.163 F 
HETATM   49  F3  UNL     1      -6.861   9.733  -4.125  1.00  0.00    -0.163 F 
ENDBRANCH  35  46
ENDBRANCH   3  29
TORSDOF 10
ENDMDL
MODEL 4
REMARK VINA RESULT: -6.596972909      6.861     12.842
REMARK  10 active torsions:
REMARK  status: ('A' for Active; 'I' for Inactive)
REMARK    1  A    between atoms: O1_2  and  C2_3 
REMARK    2  A    between atoms: C4_5  and  N1_6 
REMARK    3  A    between atoms: N1_6  and  C5_8 
REMARK    4  A    between atoms: C8_11  and  N2_12 
REMARK       I    between atoms: N2_12  and  C9_14 
REMARK    5  A    between atoms: C9_14  and  C10_16 
REMARK    6  A    between atoms: C12_18  and  C13_19 
REMARK    7  A    between atoms: C20_28  and  C21_29 
REMARK    8  A    between atoms: C28_41  and  N5_42 
REMARK    9  A    between atoms: N5_42  and  S1_44 
REMARK   10  A    between atoms: S1_44  and  C29_47 
ROOT
HETATM    1  N2  UNL     1      -2.983  11.174  -0.018  1.00  0.00    -0.352 N 
ATOM      2  H2  UNL     1      -2.115  10.683   0.196  1.00  0.00     0.163 HD
HETATM    3  C9  UNL     1      -3.058  11.946  -1.229  1.00  0.00     0.252 C 
HETATM    4  O2  UNL     1      -4.114  12.527  -1.523  1.00  0.00    -0.268 OA
ENDROOT
BRANCH   1   5
HETATM    5  C8  UNL     1      -4.098  11.062   0.920  1.00  0.00     0.084 C 
HETATM    6  C7  UNL     1      -3.660  11.859   2.121  1.00  0.00     0.027 C 
HETATM    7  C6  UNL     1      -2.845  10.961   2.989  1.00  0.00     0.027 C 
HETATM    8  C5  UNL     1      -3.768   9.987   3.698  1.00  0.00     0.082 C 
HETATM    9  C25 UNL     1      -4.514   9.241   2.653  1.00  0.00     0.027 C 
HETATM   10  C24 UNL     1      -4.290   9.603   1.232  1.00  0.00     0.027 C 
BRANCH   8  11
HETATM   11  N1  UNL     1      -4.674  10.647   4.585  1.00  0.00    -0.385 N 
ATOM     12  H1  UNL     1      -4.696  11.664   4.521  1.00  0.00     0.160 HD
BRANCH  11  13
HETATM   13  C4  UNL     1      -5.530  10.079   5.525  1.00  0.00     0.031 A 
HETATM   14  C3  UNL     1      -6.874   9.951   5.188  1.00  0.00     0.068 A 
HETATM   15  C2  UNL     1      -7.805   9.445   6.126  1.00  0.00     0.097 A 
HETATM   16  C28 UNL     1      -7.401   9.075   7.382  1.00  0.00     0.075 A 
HETATM   17  C27 UNL     1      -6.042   9.207   7.714  1.00  0.00     0.035 A 
HETATM   18  C26 UNL     1      -5.149   9.697   6.791  1.00  0.00     0.031 A 
BRANCH  15  19
HETATM   19  O1  UNL     1      -9.117   9.333   5.738  1.00  0.00    -0.354 OA
HETATM   20  C1  UNL     1      -9.800  10.371   5.114  1.00  0.00     0.210 C 
ENDBRANCH  15  19
BRANCH  16  21
HETATM   21  N5  UNL     1      -8.238   8.564   8.394  1.00  0.00    -0.282 N 
ATOM     22  H5  UNL     1      -8.284   9.085   9.269  1.00  0.00     0.178 HD
BRANCH  21  23
HETATM   23  S1  UNL     1      -9.179   7.152   8.280  1.00  0.00     0.234 S 
HETATM   24  O3  UNL     1      -8.376   6.045   7.578  1.00  0.00    -0.205 OA
HETATM   25  O4  UNL     1     -10.431   7.467   7.452  1.00  0.00    -0.205 OA
BRANCH  23  26
HETATM   26  C29 UNL     1      -9.758   6.507   9.813  1.00  0.00     0.121 C 
HETATM   27  C30 UNL     1     -11.175   7.089  10.058  1.00  0.00     0.027 C 
HETATM   28  C31 UNL     1      -8.971   6.830  11.002  1.00  0.00     0.027 C 
ENDBRANCH  23  26
ENDBRANCH  21  23
ENDBRANCH  16  21
ENDBRANCH  11  13
ENDBRANCH   8  11
ENDBRANCH   1   5
BRANCH   3  29
HETATM   29  C10 UNL     1      -1.907  12.052  -2.110  1.00  0.00     0.035 A 
HETATM   30  C11 UNL     1      -0.631  11.708  -1.745  1.00  0.00     0.031 A 
HETATM   31  C12 UNL     1       0.460  11.830  -2.622  1.00  0.00    -0.004 A 
HETATM   32  C19 UNL     1       0.193  12.304  -3.853  1.00  0.00     0.071 A 
HETATM   33  N3  UNL     1       1.045  12.448  -4.918  1.00  0.00    -0.336 N 
HETATM   34  C22 UNL     1      -1.053  12.661  -4.281  1.00  0.00     0.062 A 
HETATM   35  C20 UNL     1       0.337  12.882  -5.964  1.00  0.00     0.191 A 
ATOM     36  H3  UNL     1       2.046  12.256  -4.913  1.00  0.00     0.167 HD
HETATM   37  N4  UNL     1      -0.952  13.015  -5.577  1.00  0.00    -0.337 N 
ATOM     38  H4  UNL     1      -1.721  13.331  -6.167  1.00  0.00     0.167 HD
HETATM   39  C23 UNL     1      -2.090  12.530  -3.396  1.00  0.00     0.049 A 
BRANCH  31  40
HETATM   40  C13 UNL     1       1.790  11.581  -2.033  1.00  0.00    -0.067 C 
HETATM   41  C14 UNL     1       2.067  12.288  -0.755  1.00  0.00     0.035 C 
HETATM   42  C15 UNL     1       3.548  12.370  -0.512  1.00  0.00     0.004 C 
HETATM   43  C16 UNL     1       4.362  11.920  -1.702  1.00  0.00     0.001 C 
HETATM   44  C17 UNL     1       3.990  10.569  -2.212  1.00  0.00     0.004 C 
HETATM   45  C18 UNL     1       2.471  10.316  -2.241  1.00  0.00     0.035 C 
ENDBRANCH  31  40
BRANCH  35  46
HETATM   46  C21 UNL     1       0.771  13.131  -7.364  1.00  0.00     0.449 C 
HETATM   47  F1  UNL     1       1.792  14.078  -7.418  1.00  0.00    -0.163 F 
HETATM   48  F2  UNL     1       1.324  11.992  -7.959  1.00  0.00    -0.163 F 
HETATM   49  F3  UNL     1      -0.312  13.482  -8.147  1.00  0.00    -0.163 F 
ENDBRANCH  35  46
ENDBRANCH   3  29
TORSDOF 10
ENDMDL
MODEL 5
REMARK VINA RESULT: -6.570900182      3.925      5.150
REMARK  10 active torsions:
REMARK  status: ('A' for Active; 'I' for Inactive)
REMARK    1  A    between atoms: O1_2  and  C2_3 
REMARK    2  A    between atoms: C4_5  and  N1_6 
REMARK    3  A    between atoms: N1_6  and  C5_8 
REMARK    4  A    between atoms: C8_11  and  N2_12 
REMARK       I    between atoms: N2_12  and  C9_14 
REMARK    5  A    between atoms: C9_14  and  C10_16 
REMARK    6  A    between atoms: C12_18  and  C13_19 
REMARK    7  A    between atoms: C20_28  and  C21_29 
REMARK    8  A    between atoms: C28_41  and  N5_42 
REMARK    9  A    between atoms: N5_42  and  S1_44 
REMARK   10  A    between atoms: S1_44  and  C29_47 
ROOT
HETATM    1  N2  UNL     1       3.512  10.628   2.166  1.00  0.00    -0.352 N 
ATOM      2  H2  UNL     1       3.617  11.237   2.977  1.00  0.00     0.163 HD
HETATM    3  C9  UNL     1       2.359  10.798   1.323  1.00  0.00     0.252 C 
HETATM    4  O2  UNL     1       2.226  10.088   0.314  1.00  0.00    -0.268 OA
ENDROOT
BRANCH   1   5
HETATM    5  C8  UNL     1       4.540   9.622   1.910  1.00  0.00     0.084 C 
HETATM    6  C7  UNL     1       5.138   9.344   3.264  1.00  0.00     0.027 C 
HETATM    7  C6  UNL     1       6.201  10.361   3.508  1.00  0.00     0.027 C 
HETATM    8  C5  UNL     1       7.414  10.024   2.659  1.00  0.00     0.082 C 
HETATM    9  C25 UNL     1       6.970   9.995   1.242  1.00  0.00     0.027 C 
HETATM   10  C24 UNL     1       5.533  10.216   0.948  1.00  0.00     0.027 C 
BRANCH   8  11
HETATM   11  N1  UNL     1       8.000   8.772   3.025  1.00  0.00    -0.385 N 
ATOM     12  H1  UNL     1       8.243   8.666   4.009  1.00  0.00     0.160 HD
BRANCH  11  13
HETATM   13  C4  UNL     1       8.281   7.680   2.209  1.00  0.00     0.031 A 
HETATM   14  C3  UNL     1       9.531   7.627   1.600  1.00  0.00     0.068 A 
HETATM   15  C2  UNL     1       9.851   6.578   0.705  1.00  0.00     0.097 A 
HETATM   16  C28 UNL     1       8.936   5.597   0.422  1.00  0.00     0.075 A 
HETATM   17  C27 UNL     1       7.677   5.657   1.043  1.00  0.00     0.035 A 
HETATM   18  C26 UNL     1       7.382   6.681   1.911  1.00  0.00     0.031 A 
BRANCH  15  19
HETATM   19  O1  UNL     1      11.101   6.571   0.138  1.00  0.00    -0.354 OA
HETATM   20  C1  UNL     1      11.709   7.727  -0.337  1.00  0.00     0.210 C 
ENDBRANCH  15  19
BRANCH  16  21
HETATM   21  N5  UNL     1       9.144   4.511  -0.451  1.00  0.00    -0.282 N 
ATOM     22  H5  UNL     1       9.511   3.650  -0.046  1.00  0.00     0.178 HD
BRANCH  21  23
HETATM   23  S1  UNL     1       8.837   4.513  -2.124  1.00  0.00     0.234 S 
HETATM   24  O3  UNL     1       7.394   4.972  -2.389  1.00  0.00    -0.205 OA
HETATM   25  O4  UNL     1       9.015   3.084  -2.653  1.00  0.00    -0.205 OA
BRANCH  23  26
HETATM   26  C29 UNL     1       9.909   5.526  -3.085  1.00  0.00     0.121 C 
HETATM   27  C30 UNL     1       9.286   6.946  -3.137  1.00  0.00     0.027 C 
HETATM   28  C31 UNL     1      10.127   5.122  -4.472  1.00  0.00     0.027 C 
ENDBRANCH  23  26
ENDBRANCH  21  23
ENDBRANCH  16  21
ENDBRANCH  11  13
ENDBRANCH   8  11
ENDBRANCH   1   5
BRANCH   3  29
HETATM   29  C10 UNL     1       1.349  11.792   1.643  1.00  0.00     0.035 A 
HETATM   30  C11 UNL     1       0.027  11.497   1.858  1.00  0.00     0.031 A 
HETATM   31  C12 UNL     1      -0.925  12.487   2.159  1.00  0.00    -0.004 A 
HETATM   32  C19 UNL     1      -0.474  13.753   2.230  1.00  0.00     0.071 A 
HETATM   33  N3  UNL     1      -1.161  14.888   2.580  1.00  0.00    -0.336 N 
HETATM   34  C22 UNL     1       0.827  14.114   2.031  1.00  0.00     0.062 A 
HETATM   35  C20 UNL     1      -0.302  15.910   2.591  1.00  0.00     0.191 A 
ATOM     36  H3  UNL     1      -2.156  14.941   2.795  1.00  0.00     0.167 HD
HETATM   37  N4  UNL     1       0.921  15.439   2.253  1.00  0.00    -0.337 N 
ATOM     38  H4  UNL     1       1.772  15.995   2.180  1.00  0.00     0.167 HD
HETATM   39  C23 UNL     1       1.724  13.121   1.736  1.00  0.00     0.049 A 
BRANCH  31  40
HETATM   40  C13 UNL     1      -2.330  12.038   2.197  1.00  0.00    -0.067 C 
HETATM   41  C14 UNL     1      -3.096  12.227   0.937  1.00  0.00     0.035 C 
HETATM   42  C15 UNL     1      -4.573  12.214   1.217  1.00  0.00     0.004 C 
HETATM   43  C16 UNL     1      -4.890  12.231   2.693  1.00  0.00     0.001 C 
HETATM   44  C17 UNL     1      -4.202  11.161   3.471  1.00  0.00     0.004 C 
HETATM   45  C18 UNL     1      -2.737  10.937   3.050  1.00  0.00     0.035 C 
ENDBRANCH  31  40
BRANCH  35  46
HETATM   46  C21 UNL     1      -0.525  17.330   2.966  1.00  0.00     0.449 C 
HETATM   47  F1  UNL     1       0.264  18.188   2.202  1.00  0.00    -0.163 F 
HETATM   48  F2  UNL     1      -1.836  17.747   2.711  1.00  0.00    -0.163 F 
HETATM   49  F3  UNL     1      -0.329  17.506   4.323  1.00  0.00    -0.163 F 
ENDBRANCH  35  46
ENDBRANCH   3  29
TORSDOF 10
ENDMDL
