MODEL 1
REMARK VINA RESULT: -7.303582227      0.000      0.000
REMARK  11 active torsions:
REMARK  status: ('A' for Active; 'I' for Inactive)
REMARK    1  A    between atoms: C2_2  and  C3_3 
REMARK    2  A    between atoms: C3_3  and  N1_4 
REMARK    3  A    between atoms: N1_4  and  C4_6 
REMARK    4  A    between atoms: C4_6  and  C5_7 
REMARK    5  A    between atoms: C8_10  and  C9_11 
REMARK    6  A    between atoms: C9_11  and  N2_12 
REMARK    7  A    between atoms: C12_15  and  C13_16 
REMARK    8  A    between atoms: C17_21  and  O1_22 
REMARK    9  A    between atoms: N3_32  and  C25_33 
REMARK   10  A    between atoms: N6_40  and  C27_41 
REMARK   11  A    between atoms: C33_47  and  O2_48 
ROOT
HETATM    1  N1  UNL     1      -3.095  11.081  -0.424  1.00  0.00    -0.401 N 
ATOM      2  H1  UNL     1      -3.277  10.225  -0.948  1.00  0.00     0.158 HD
ENDROOT
BRANCH   1   3
HETATM    3  C3  UNL     1      -2.768  11.051   0.932  1.00  0.00     0.069 C 
BRANCH   3   4
HETATM    4  C2  UNL     1      -3.845  10.366   1.768  1.00  0.00     0.038 C 
HETATM    5  C1  UNL     1      -4.536   9.335   0.912  1.00  0.00     0.026 C 
HETATM    6  C23 UNL     1      -4.969  11.431   1.955  1.00  0.00     0.039 C 
HETATM    7  C24 UNL     1      -4.700  11.852   3.385  1.00  0.00     0.129 C 
HETATM    8  N3  UNL     1      -4.424  10.523   3.978  1.00  0.00    -0.332 N 
HETATM    9  C34 UNL     1      -3.450   9.909   3.109  1.00  0.00     0.286 C 
HETATM   10  F3  UNL     1      -3.433   8.508   3.234  1.00  0.00    -0.226 F 
BRANCH   8  11
HETATM   11  C25 UNL     1      -5.114  10.088   5.139  1.00  0.00     0.173 A 
HETATM   12  N4  UNL     1      -4.624   9.858   6.360  1.00  0.00    -0.172 N 
HETATM   13  C26 UNL     1      -5.704   9.510   7.161  1.00  0.00     0.682 A 
ATOM     14  H4  UNL     1      -3.648   9.924   6.648  1.00  0.00     0.186 HD
HETATM   15  N5  UNL     1      -5.505   9.244   8.413  1.00  0.00    -0.234 N 
HETATM   16  N6  UNL     1      -6.813   9.516   6.462  1.00  0.00    -0.154 N 
ATOM     17  H52 UNL     1      -4.642   9.238   8.957  1.00  0.00     0.174 HD
ATOM     18  H51 UNL     1      -6.298   8.988   9.001  1.00  0.00     0.174 HD
HETATM   19  C33 UNL     1      -6.504   9.864   5.226  1.00  0.00     0.203 A 
BRANCH  16  20
HETATM   20  C27 UNL     1      -8.170   9.209   6.907  1.00  0.00     0.110 C 
HETATM   21  C28 UNL     1      -8.445   9.990   8.132  1.00  0.00     0.026 C 
HETATM   22  C29 UNL     1      -9.630   9.515   8.960  1.00  0.00     0.002 C 
HETATM   23  C30 UNL     1      -9.485   8.030   9.186  1.00  0.00     0.000 C 
HETATM   24  C31 UNL     1      -9.639   7.424   7.785  1.00  0.00     0.002 C 
HETATM   25  C32 UNL     1      -8.358   7.747   7.054  1.00  0.00     0.026 C 
ENDBRANCH  16  20
BRANCH  19  26
HETATM   26  O2  UNL     1      -7.299  10.025   4.071  1.00  0.00    -0.343 OA
ATOM     27  H2  UNL     1      -8.009  10.656   4.084  1.00  0.00     0.219 HD
ENDBRANCH  19  26
ENDBRANCH   8  11
ENDBRANCH   3   4
ENDBRANCH   1   3
BRANCH   1  28
HETATM   28  C4  UNL     1      -3.162  12.372  -1.043  1.00  0.00     0.123 C 
BRANCH  28  29
HETATM   29  C5  UNL     1      -1.928  13.110  -1.346  1.00  0.00     0.003 C 
HETATM   30  C6  UNL     1      -1.046  12.235  -2.249  1.00  0.00     0.007 C 
HETATM   31  C7  UNL     1      -1.409  12.478  -3.680  1.00  0.00     0.010 C 
HETATM   32  C8  UNL     1      -1.353  13.898  -4.117  1.00  0.00     0.024 C 
HETATM   33  C21 UNL     1      -2.222  14.792  -3.216  1.00  0.00     0.010 C 
HETATM   34  C22 UNL     1      -1.886  14.490  -1.791  1.00  0.00     0.007 C 
BRANCH  32  35
HETATM   35  C9  UNL     1      -0.013  14.493  -4.374  1.00  0.00     0.067 C 
BRANCH  35  36
HETATM   36  N2  UNL     1       1.029  13.619  -4.734  1.00  0.00    -0.373 N 
HETATM   37  C10 UNL     1       0.980  13.126  -6.061  1.00  0.00     0.131 C 
HETATM   38  C11 UNL     1       1.260  11.652  -6.263  1.00  0.00     0.055 C 
HETATM   39  C12 UNL     1       2.314  11.171  -5.299  1.00  0.00    -0.057 C 
HETATM   40  C19 UNL     1       2.324  11.764  -3.954  1.00  0.00     0.080 C 
HETATM   41  C20 UNL     1       1.952  13.194  -3.797  1.00  0.00     0.067 C 
BRANCH  39  42
HETATM   42  C13 UNL     1       3.494  10.537  -5.851  1.00  0.00     0.047 A 
HETATM   43  C14 UNL     1       4.557  11.296  -6.277  1.00  0.00     0.130 A 
HETATM   44  F1  UNL     1       4.356  12.640  -6.401  1.00  0.00    -0.205 F 
HETATM   45  C15 UNL     1       5.792  10.809  -6.653  1.00  0.00     0.046 A 
HETATM   46  C16 UNL     1       6.033   9.460  -6.611  1.00  0.00     0.043 A 
HETATM   47  C17 UNL     1       4.989   8.629  -6.186  1.00  0.00     0.105 A 
HETATM   48  C18 UNL     1       3.766   9.137  -5.822  1.00  0.00     0.162 A 
HETATM   49  F2  UNL     1       2.773   8.334  -5.398  1.00  0.00    -0.202 F 
BRANCH  47  50
HETATM   50  O1  UNL     1       5.274   7.273  -6.158  1.00  0.00    -0.358 OA
ATOM     51  H1  UNL     1       4.926   6.795  -5.414  1.00  0.00     0.217 HD
ENDBRANCH  47  50
ENDBRANCH  39  42
ENDBRANCH  35  36
ENDBRANCH  32  35
ENDBRANCH  28  29
ENDBRANCH   1  28
TORSDOF 11
ENDMDL
MODEL 2
REMARK VINA RESULT: -7.193135424      1.493      2.343
REMARK  11 active torsions:
REMARK  status: ('A' for Active; 'I' for Inactive)
REMARK    1  A    between atoms: C2_2  and  C3_3 
REMARK    2  A    between atoms: C3_3  and  N1_4 
REMARK    3  A    between atoms: N1_4  and  C4_6 
REMARK    4  A    between atoms: C4_6  and  C5_7 
REMARK    5  A    between atoms: C8_10  and  C9_11 
REMARK    6  A    between atoms: C9_11  and  N2_12 
REMARK    7  A    between atoms: C12_15  and  C13_16 
REMARK    8  A    between atoms: C17_21  and  O1_22 
REMARK    9  A    between atoms: N3_32  and  C25_33 
REMARK   10  A    between atoms: N6_40  and  C27_41 
REMARK   11  A    between atoms: C33_47  and  O2_48 
ROOT
HETATM    1  N1  UNL     1      -4.529  11.607   0.530  1.00  0.00    -0.401 N 
ATOM      2  H1  UNL     1      -5.468  11.296   0.279  1.00  0.00     0.158 HD
ENDROOT
BRANCH   1   3
HETATM    3  C3  UNL     1      -3.551  10.709   0.957  1.00  0.00     0.069 C 
BRANCH   3   4
HETATM    4  C2  UNL     1      -3.518  10.575   2.478  1.00  0.00     0.038 C 
HETATM    5  C1  UNL     1      -2.244  11.198   2.988  1.00  0.00     0.026 C 
HETATM    6  C23 UNL     1      -3.268   9.062   2.757  1.00  0.00     0.039 C 
HETATM    7  C24 UNL     1      -4.664   8.631   3.156  1.00  0.00     0.129 C 
HETATM    8  N3  UNL     1      -5.041   9.791   3.997  1.00  0.00    -0.332 N 
HETATM    9  C34 UNL     1      -4.739  10.956   3.201  1.00  0.00     0.286 C 
HETATM   10  F3  UNL     1      -4.580  12.111   3.989  1.00  0.00    -0.226 F 
BRANCH   8  11
HETATM   11  C25 UNL     1      -5.532   9.604   5.315  1.00  0.00     0.173 A 
HETATM   12  N4  UNL     1      -4.839   9.404   6.439  1.00  0.00    -0.172 N 
HETATM   13  C26 UNL     1      -5.767   9.339   7.470  1.00  0.00     0.682 A 
ATOM     14  H4  UNL     1      -3.826   9.317   6.524  1.00  0.00     0.186 HD
HETATM   15  N5  UNL     1      -5.353   9.161   8.685  1.00  0.00    -0.234 N 
HETATM   16  N6  UNL     1      -6.983   9.482   7.001  1.00  0.00    -0.154 N 
ATOM     17  H52 UNL     1      -4.408   9.049   9.050  1.00  0.00     0.174 HD
ATOM     18  H51 UNL     1      -6.035   9.113   9.442  1.00  0.00     0.174 HD
HETATM   19  C33 UNL     1      -6.889   9.648   5.694  1.00  0.00     0.203 A 
BRANCH  16  20
HETATM   20  C27 UNL     1      -8.246   9.473   7.734  1.00  0.00     0.110 C 
HETATM   21  C28 UNL     1      -8.843   8.126   7.614  1.00  0.00     0.026 C 
HETATM   22  C29 UNL     1     -10.322   8.030   7.959  1.00  0.00     0.002 C 
HETATM   23  C30 UNL     1     -11.055   9.109   7.199  1.00  0.00     0.000 C 
HETATM   24  C31 UNL     1     -10.531  10.415   7.808  1.00  0.00     0.002 C 
HETATM   25  C32 UNL     1      -9.125  10.578   7.284  1.00  0.00     0.026 C 
ENDBRANCH  16  20
BRANCH  19  26
HETATM   26  O2  UNL     1      -7.874   9.842   4.701  1.00  0.00    -0.343 OA
ATOM     27  H2  UNL     1      -8.651  10.344   4.914  1.00  0.00     0.219 HD
ENDBRANCH  19  26
ENDBRANCH   8  11
ENDBRANCH   3   4
ENDBRANCH   1   3
BRANCH   1  28
HETATM   28  C4  UNL     1      -4.150  12.988   0.462  1.00  0.00     0.123 C 
BRANCH  28  29
HETATM   29  C5  UNL     1      -3.482  13.511  -0.738  1.00  0.00     0.003 C 
HETATM   30  C6  UNL     1      -2.050  13.917  -0.362  1.00  0.00     0.007 C 
HETATM   31  C7  UNL     1      -1.146  12.734  -0.512  1.00  0.00     0.010 C 
HETATM   32  C8  UNL     1      -1.168  12.085  -1.850  1.00  0.00     0.024 C 
HETATM   33  C21 UNL     1      -2.597  11.682  -2.249  1.00  0.00     0.010 C 
HETATM   34  C22 UNL     1      -3.494  12.859  -2.034  1.00  0.00     0.007 C 
BRANCH  32  35
HETATM   35  C9  UNL     1      -0.443  12.759  -2.961  1.00  0.00     0.067 C 
BRANCH  35  36
HETATM   36  N2  UNL     1       0.724  12.141  -3.447  1.00  0.00    -0.373 N 
HETATM   37  C10 UNL     1       0.948  12.270  -4.840  1.00  0.00     0.131 C 
HETATM   38  C11 UNL     1       1.397  11.032  -5.587  1.00  0.00     0.055 C 
HETATM   39  C12 UNL     1       2.314  10.195  -4.732  1.00  0.00    -0.057 C 
HETATM   40  C19 UNL     1       2.039  10.147  -3.289  1.00  0.00     0.080 C 
HETATM   41  C20 UNL     1       1.511  11.364  -2.618  1.00  0.00     0.067 C 
BRANCH  39  42
HETATM   42  C13 UNL     1       3.625   9.878  -5.260  1.00  0.00     0.047 A 
HETATM   43  C14 UNL     1       3.818   8.744  -6.012  1.00  0.00     0.130 A 
HETATM   44  F1  UNL     1       2.814   7.820  -6.017  1.00  0.00    -0.205 F 
HETATM   45  C15 UNL     1       4.965   8.429  -6.710  1.00  0.00     0.046 A 
HETATM   46  C16 UNL     1       6.032   9.289  -6.690  1.00  0.00     0.043 A 
HETATM   47  C17 UNL     1       5.901  10.465  -5.940  1.00  0.00     0.105 A 
HETATM   48  C18 UNL     1       4.751  10.755  -5.249  1.00  0.00     0.162 A 
HETATM   49  F2  UNL     1       4.625  11.895  -4.545  1.00  0.00    -0.202 F 
BRANCH  47  50
HETATM   50  O1  UNL     1       7.002  11.308  -5.947  1.00  0.00    -0.358 OA
ATOM     51  H1  UNL     1       7.028  11.957  -5.254  1.00  0.00     0.217 HD
ENDBRANCH  47  50
ENDBRANCH  39  42
ENDBRANCH  35  36
ENDBRANCH  32  35
ENDBRANCH  28  29
ENDBRANCH   1  28
TORSDOF 11
ENDMDL
MODEL 3
REMARK VINA RESULT: -7.174805966      5.290      5.880
REMARK  11 active torsions:
REMARK  status: ('A' for Active; 'I' for Inactive)
REMARK    1  A    between atoms: C2_2  and  C3_3 
REMARK    2  A    between atoms: C3_3  and  N1_4 
REMARK    3  A    between atoms: N1_4  and  C4_6 
REMARK    4  A    between atoms: C4_6  and  C5_7 
REMARK    5  A    between atoms: C8_10  and  C9_11 
REMARK    6  A    between atoms: C9_11  and  N2_12 
REMARK    7  A    between atoms: C12_15  and  C13_16 
REMARK    8  A    between atoms: C17_21  and  O1_22 
REMARK    9  A    between atoms: N3_32  and  C25_33 
REMARK   10  A    between atoms: N6_40  and  C27_41 
REMARK   11  A    between atoms: C33_47  and  O2_48 
ROOT
HETATM    1  N1  UNL     1      -1.605  11.304   1.763  1.00  0.00    -0.401 N 
ATOM      2  H1  UNL     1      -1.402  10.819   2.637  1.00  0.00     0.158 HD
ENDROOT
BRANCH   1   3
HETATM    3  C3  UNL     1      -2.742  11.007   1.010  1.00  0.00     0.069 C 
BRANCH   3   4
HETATM    4  C2  UNL     1      -3.823  10.327   1.846  1.00  0.00     0.038 C 
HETATM    5  C1  UNL     1      -4.517   9.299   0.990  1.00  0.00     0.026 C 
HETATM    6  C23 UNL     1      -4.942  11.397   2.029  1.00  0.00     0.039 C 
HETATM    7  C24 UNL     1      -4.675  11.820   3.459  1.00  0.00     0.129 C 
HETATM    8  N3  UNL     1      -4.405  10.491   4.054  1.00  0.00    -0.332 N 
HETATM    9  C34 UNL     1      -3.432   9.871   3.187  1.00  0.00     0.286 C 
HETATM   10  F3  UNL     1      -3.422   8.470   3.316  1.00  0.00    -0.226 F 
BRANCH   8  11
HETATM   11  C25 UNL     1      -5.100  10.061   5.214  1.00  0.00     0.173 A 
HETATM   12  N4  UNL     1      -4.609   9.809   6.431  1.00  0.00    -0.172 N 
HETATM   13  C26 UNL     1      -5.693   9.477   7.234  1.00  0.00     0.682 A 
ATOM     14  H4  UNL     1      -3.630   9.852   6.715  1.00  0.00     0.186 HD
HETATM   15  N5  UNL     1      -5.493   9.196   8.483  1.00  0.00    -0.234 N 
HETATM   16  N6  UNL     1      -6.804   9.514   6.541  1.00  0.00    -0.154 N 
ATOM     17  H52 UNL     1      -4.628   9.167   9.023  1.00  0.00     0.174 HD
ATOM     18  H51 UNL     1      -6.289   8.953   9.073  1.00  0.00     0.174 HD
HETATM   19  C33 UNL     1      -6.493   9.866   5.306  1.00  0.00     0.203 A 
BRANCH  16  20
HETATM   20  C27 UNL     1      -8.165   9.232   6.990  1.00  0.00     0.110 C 
HETATM   21  C28 UNL     1      -8.390   9.944   8.265  1.00  0.00     0.026 C 
HETATM   22  C29 UNL     1      -9.581   9.464   9.083  1.00  0.00     0.002 C 
HETATM   23  C30 UNL     1      -9.491   7.963   9.212  1.00  0.00     0.000 C 
HETATM   24  C31 UNL     1      -9.691   7.454   7.779  1.00  0.00     0.002 C 
HETATM   25  C32 UNL     1      -8.409   7.772   7.048  1.00  0.00     0.026 C 
ENDBRANCH  16  20
BRANCH  19  26
HETATM   26  O2  UNL     1      -7.290  10.054   4.157  1.00  0.00    -0.343 OA
ATOM     27  H2  UNL     1      -7.985   9.434   3.969  1.00  0.00     0.219 HD
ENDBRANCH  19  26
ENDBRANCH   8  11
ENDBRANCH   3   4
ENDBRANCH   1   3
BRANCH   1  28
HETATM   28  C4  UNL     1      -0.739  12.323   1.248  1.00  0.00     0.123 C 
BRANCH  28  29
HETATM   29  C5  UNL     1       0.490  12.681   1.970  1.00  0.00     0.003 C 
HETATM   30  C6  UNL     1       1.248  11.390   2.313  1.00  0.00     0.007 C 
HETATM   31  C7  UNL     1       2.154  11.032   1.178  1.00  0.00     0.010 C 
HETATM   32  C8  UNL     1       3.104  12.098   0.764  1.00  0.00     0.024 C 
HETATM   33  C21 UNL     1       2.363  13.402   0.426  1.00  0.00     0.010 C 
HETATM   34  C22 UNL     1       1.420  13.710   1.545  1.00  0.00     0.007 C 
BRANCH  32  35
HETATM   35  C9  UNL     1       4.299  12.334   1.619  1.00  0.00     0.067 C 
BRANCH  35  36
HETATM   36  N2  UNL     1       5.176  11.254   1.824  1.00  0.00    -0.373 N 
HETATM   37  C10 UNL     1       5.871  10.806   0.674  1.00  0.00     0.131 C 
HETATM   38  C11 UNL     1       5.963   9.311   0.459  1.00  0.00     0.055 C 
HETATM   39  C12 UNL     1       6.104   8.589   1.775  1.00  0.00    -0.057 C 
HETATM   40  C19 UNL     1       5.384   9.143   2.931  1.00  0.00     0.080 C 
HETATM   41  C20 UNL     1       5.241  10.617   3.049  1.00  0.00     0.067 C 
BRANCH  39  42
HETATM   42  C13 UNL     1       7.246   7.715   1.946  1.00  0.00     0.047 A 
HETATM   43  C14 UNL     1       7.325   6.528   1.258  1.00  0.00     0.130 A 
HETATM   44  F1  UNL     1       6.194   6.095   0.630  1.00  0.00    -0.205 F 
HETATM   45  C15 UNL     1       8.429   5.704   1.201  1.00  0.00     0.046 A 
HETATM   46  C16 UNL     1       9.575   6.056   1.867  1.00  0.00     0.043 A 
HETATM   47  C17 UNL     1       9.562   7.255   2.590  1.00  0.00     0.105 A 
HETATM   48  C18 UNL     1       8.447   8.057   2.635  1.00  0.00     0.162 A 
HETATM   49  F2  UNL     1       8.447   9.217   3.317  1.00  0.00    -0.202 F 
BRANCH  47  50
HETATM   50  O1  UNL     1      10.740   7.574   3.246  1.00  0.00    -0.358 OA
ATOM     51  H1  UNL     1      10.646   7.843   4.153  1.00  0.00     0.217 HD
ENDBRANCH  47  50
ENDBRANCH  39  42
ENDBRANCH  35  36
ENDBRANCH  32  35
ENDBRANCH  28  29
ENDBRANCH   1  28
TORSDOF 11
ENDMDL
MODEL 4
REMARK VINA RESULT: -7.167748310      7.742     12.418
REMARK  11 active torsions:
REMARK  status: ('A' for Active; 'I' for Inactive)
REMARK    1  A    between atoms: C2_2  and  C3_3 
REMARK    2  A    between atoms: C3_3  and  N1_4 
REMARK    3  A    between atoms: N1_4  and  C4_6 
REMARK    4  A    between atoms: C4_6  and  C5_7 
REMARK    5  A    between atoms: C8_10  and  C9_11 
REMARK    6  A    between atoms: C9_11  and  N2_12 
REMARK    7  A    between atoms: C12_15  and  C13_16 
REMARK    8  A    between atoms: C17_21  and  O1_22 
REMARK    9  A    between atoms: N3_32  and  C25_33 
REMARK   10  A    between atoms: N6_40  and  C27_41 
REMARK   11  A    between atoms: C33_47  and  O2_48 
ROOT
HETATM    1  N1  UNL     1       3.419   9.727   2.264  1.00  0.00    -0.401 N 
ATOM      2  H1  UNL     1       2.974   8.840   2.501  1.00  0.00     0.158 HD
ENDROOT
BRANCH   1   3
HETATM    3  C3  UNL     1       2.922  10.546   1.251  1.00  0.00     0.069 C 
BRANCH   3   4
HETATM    4  C2  UNL     1       3.032   9.891  -0.124  1.00  0.00     0.038 C 
HETATM    5  C1  UNL     1       3.096   8.397   0.059  1.00  0.00     0.026 C 
HETATM    6  C23 UNL     1       4.473  10.213  -0.625  1.00  0.00     0.039 C 
HETATM    7  C24 UNL     1       4.168  11.312  -1.623  1.00  0.00     0.129 C 
HETATM    8  N3  UNL     1       2.957  10.735  -2.252  1.00  0.00    -0.332 N 
HETATM    9  C34 UNL     1       2.096  10.360  -1.156  1.00  0.00     0.286 C 
HETATM   10  F3  UNL     1       1.151   9.389  -1.531  1.00  0.00    -0.226 F 
BRANCH   8  11
HETATM   11  C25 UNL     1       2.863  10.605  -3.661  1.00  0.00     0.173 A 
HETATM   12  N4  UNL     1       3.154   9.544  -4.419  1.00  0.00    -0.172 N 
HETATM   13  C26 UNL     1       2.840   9.893  -5.727  1.00  0.00     0.682 A 
ATOM     14  H4  UNL     1       3.532   8.651  -4.101  1.00  0.00     0.186 HD
HETATM   15  N5  UNL     1       3.018   9.028  -6.673  1.00  0.00    -0.234 N 
HETATM   16  N6  UNL     1       2.384  11.121  -5.775  1.00  0.00    -0.154 N 
ATOM     17  H52 UNL     1       3.373   8.072  -6.636  1.00  0.00     0.174 HD
ATOM     18  H51 UNL     1       2.788   9.285  -7.634  1.00  0.00     0.174 HD
HETATM   19  C33 UNL     1       2.379  11.594  -4.541  1.00  0.00     0.203 A 
BRANCH  16  20
HETATM   20  C27 UNL     1       1.945  11.882  -6.941  1.00  0.00     0.110 C 
HETATM   21  C28 UNL     1       2.997  12.864  -7.278  1.00  0.00     0.026 C 
HETATM   22  C29 UNL     1       2.565  14.001  -8.194  1.00  0.00     0.002 C 
HETATM   23  C30 UNL     1       1.302  14.606  -7.632  1.00  0.00     0.000 C 
HETATM   24  C31 UNL     1       0.260  13.489  -7.773  1.00  0.00     0.002 C 
HETATM   25  C32 UNL     1       0.604  12.470  -6.714  1.00  0.00     0.026 C 
ENDBRANCH  16  20
BRANCH  19  26
HETATM   26  O2  UNL     1       1.994  12.848  -4.020  1.00  0.00    -0.343 OA
ATOM     27  H2  UNL     1       1.107  13.155  -4.164  1.00  0.00     0.219 HD
ENDBRANCH  19  26
ENDBRANCH   8  11
ENDBRANCH   3   4
ENDBRANCH   1   3
BRANCH   1  28
HETATM   28  C4  UNL     1       4.585  10.192   2.955  1.00  0.00     0.123 C 
BRANCH  28  29
HETATM   29  C5  UNL     1       5.574   9.231   3.465  1.00  0.00     0.003 C 
HETATM   30  C6  UNL     1       6.100   8.401   2.285  1.00  0.00     0.007 C 
HETATM   31  C7  UNL     1       7.268   9.103   1.668  1.00  0.00     0.010 C 
HETATM   32  C8  UNL     1       8.374   9.436   2.604  1.00  0.00     0.024 C 
HETATM   33  C21 UNL     1       7.864  10.258   3.799  1.00  0.00     0.010 C 
HETATM   34  C22 UNL     1       6.661   9.571   4.362  1.00  0.00     0.007 C 
BRANCH  32  35
HETATM   35  C9  UNL     1       9.282   8.335   3.026  1.00  0.00     0.067 C 
BRANCH  35  36
HETATM   36  N2  UNL     1       9.486   7.276   2.122  1.00  0.00    -0.373 N 
HETATM   37  C10 UNL     1      10.309   7.576   1.008  1.00  0.00     0.131 C 
HETATM   38  C11 UNL     1       9.848   7.084  -0.347  1.00  0.00     0.055 C 
HETATM   39  C12 UNL     1       9.171   5.742  -0.226  1.00  0.00    -0.057 C 
HETATM   40  C19 UNL     1       8.369   5.493   0.981  1.00  0.00     0.080 C 
HETATM   41  C20 UNL     1       8.817   6.077   2.272  1.00  0.00     0.067 C 
BRANCH  39  42
HETATM   42  C13 UNL     1       9.693   4.651  -1.022  1.00  0.00     0.047 A 
HETATM   43  C14 UNL     1       9.076   4.286  -2.195  1.00  0.00     0.130 A 
HETATM   44  F1  UNL     1       7.837   4.805  -2.436  1.00  0.00    -0.205 F 
HETATM   45  C15 UNL     1       9.573   3.391  -3.120  1.00  0.00     0.046 A 
HETATM   46  C16 UNL     1      10.784   2.788  -2.900  1.00  0.00     0.043 A 
HETATM   47  C17 UNL     1      11.466   3.115  -1.721  1.00  0.00     0.105 A 
HETATM   48  C18 UNL     1      10.948   4.006  -0.813  1.00  0.00     0.162 A 
HETATM   49  F2  UNL     1      11.617   4.329   0.310  1.00  0.00    -0.202 F 
BRANCH  47  50
HETATM   50  O1  UNL     1      12.686   2.485  -1.538  1.00  0.00    -0.358 OA
ATOM     51  H1  UNL     1      13.438   3.059  -1.455  1.00  0.00     0.217 HD
ENDBRANCH  47  50
ENDBRANCH  39  42
ENDBRANCH  35  36
ENDBRANCH  32  35
ENDBRANCH  28  29
ENDBRANCH   1  28
TORSDOF 11
ENDMDL
MODEL 5
REMARK VINA RESULT: -6.960048450      5.198      5.985
REMARK  11 active torsions:
REMARK  status: ('A' for Active; 'I' for Inactive)
REMARK    1  A    between atoms: C2_2  and  C3_3 
REMARK    2  A    between atoms: C3_3  and  N1_4 
REMARK    3  A    between atoms: N1_4  and  C4_6 
REMARK    4  A    between atoms: C4_6  and  C5_7 
REMARK    5  A    between atoms: C8_10  and  C9_11 
REMARK    6  A    between atoms: C9_11  and  N2_12 
REMARK    7  A    between atoms: C12_15  and  C13_16 
REMARK    8  A    between atoms: C17_21  and  O1_22 
REMARK    9  A    between atoms: N3_32  and  C25_33 
REMARK   10  A    between atoms: N6_40  and  C27_41 
REMARK   11  A    between atoms: C33_47  and  O2_48 
ROOT
HETATM    1  N1  UNL     1      -1.341  11.280   2.136  1.00  0.00    -0.401 N 
ATOM      2  H1  UNL     1      -1.306  10.938   3.096  1.00  0.00     0.158 HD
ENDROOT
BRANCH   1   3
HETATM    3  C3  UNL     1      -2.417  10.992   1.297  1.00  0.00     0.069 C 
BRANCH   3   4
HETATM    4  C2  UNL     1      -3.576  10.343   2.049  1.00  0.00     0.038 C 
HETATM    5  C1  UNL     1      -4.260   9.365   1.128  1.00  0.00     0.026 C 
HETATM    6  C23 UNL     1      -4.657  11.457   2.192  1.00  0.00     0.039 C 
HETATM    7  C24 UNL     1      -4.458  11.834   3.645  1.00  0.00     0.129 C 
HETATM    8  N3  UNL     1      -4.282  10.482   4.223  1.00  0.00    -0.332 N 
HETATM    9  C34 UNL     1      -3.286   9.839   3.400  1.00  0.00     0.286 C 
HETATM   10  F3  UNL     1      -3.344   8.437   3.493  1.00  0.00    -0.226 F 
BRANCH   8  11
HETATM   11  C25 UNL     1      -5.063  10.058   5.328  1.00  0.00     0.173 A 
HETATM   12  N4  UNL     1      -4.665   9.801   6.578  1.00  0.00    -0.172 N 
HETATM   13  C26 UNL     1      -5.807   9.478   7.299  1.00  0.00     0.682 A 
ATOM     14  H4  UNL     1      -3.709   9.835   6.933  1.00  0.00     0.186 HD
HETATM   15  N5  UNL     1      -5.702   9.195   8.558  1.00  0.00    -0.234 N 
HETATM   16  N6  UNL     1      -6.865   9.525   6.526  1.00  0.00    -0.154 N 
ATOM     17  H52 UNL     1      -4.879   9.159   9.160  1.00  0.00     0.174 HD
ATOM     18  H51 UNL     1      -6.541   8.958   9.088  1.00  0.00     0.174 HD
HETATM   19  C33 UNL     1      -6.461   9.874   5.318  1.00  0.00     0.203 A 
BRANCH  16  20
HETATM   20  C27 UNL     1      -8.257   9.253   6.874  1.00  0.00     0.110 C 
HETATM   21  C28 UNL     1      -8.591  10.027   8.089  1.00  0.00     0.026 C 
HETATM   22  C29 UNL     1      -9.844   9.578   8.828  1.00  0.00     0.002 C 
HETATM   23  C30 UNL     1      -9.759   8.086   9.039  1.00  0.00     0.000 C 
HETATM   24  C31 UNL     1      -9.836   7.504   7.622  1.00  0.00     0.002 C 
HETATM   25  C32 UNL     1      -8.499   7.796   6.984  1.00  0.00     0.026 C 
ENDBRANCH  16  20
BRANCH  19  26
HETATM   26  O2  UNL     1      -7.170  10.070   4.113  1.00  0.00    -0.343 OA
ATOM     27  H2  UNL     1      -8.113   9.957   4.108  1.00  0.00     0.219 HD
ENDBRANCH  19  26
ENDBRANCH   8  11
ENDBRANCH   3   4
ENDBRANCH   1   3
BRANCH   1  28
HETATM   28  C4  UNL     1      -0.288  12.079   1.583  1.00  0.00     0.123 C 
BRANCH  28  29
HETATM   29  C5  UNL     1       1.013  12.160   2.263  1.00  0.00     0.003 C 
HETATM   30  C6  UNL     1       1.143  10.959   3.210  1.00  0.00     0.007 C 
HETATM   31  C7  UNL     1       1.732   9.803   2.464  1.00  0.00     0.010 C 
HETATM   32  C8  UNL     1       3.029  10.078   1.791  1.00  0.00     0.024 C 
HETATM   33  C21 UNL     1       2.920  11.286   0.846  1.00  0.00     0.010 C 
HETATM   34  C22 UNL     1       2.275  12.409   1.593  1.00  0.00     0.007 C 
BRANCH  32  35
HETATM   35  C9  UNL     1       4.253  10.133   2.636  1.00  0.00     0.067 C 
BRANCH  35  36
HETATM   36  N2  UNL     1       5.410   9.498   2.148  1.00  0.00    -0.373 N 
HETATM   37  C10 UNL     1       5.216   8.655   1.026  1.00  0.00     0.131 C 
HETATM   38  C11 UNL     1       5.912   7.312   1.041  1.00  0.00     0.055 C 
HETATM   39  C12 UNL     1       7.262   7.416   1.702  1.00  0.00    -0.057 C 
HETATM   40  C19 UNL     1       7.393   8.346   2.834  1.00  0.00     0.080 C 
HETATM   41  C20 UNL     1       6.615   9.613   2.814  1.00  0.00     0.067 C 
BRANCH  39  42
HETATM   42  C13 UNL     1       8.419   6.985   0.945  1.00  0.00     0.047 A 
HETATM   43  C14 UNL     1       9.209   5.959   1.405  1.00  0.00     0.130 A 
HETATM   44  F1  UNL     1       9.019   5.553   2.694  1.00  0.00    -0.205 F 
HETATM   45  C15 UNL     1      10.223   5.346   0.697  1.00  0.00     0.046 A 
HETATM   46  C16 UNL     1      10.503   5.754  -0.581  1.00  0.00     0.043 A 
HETATM   47  C17 UNL     1       9.735   6.799  -1.110  1.00  0.00     0.105 A 
HETATM   48  C18 UNL     1       8.734   7.397  -0.384  1.00  0.00     0.162 A 
HETATM   49  F2  UNL     1       7.987   8.388  -0.905  1.00  0.00    -0.202 F 
BRANCH  47  50
HETATM   50  O1  UNL     1      10.050   7.181  -2.404  1.00  0.00    -0.358 OA
ATOM     51  H1  UNL     1       9.471   7.825  -2.797  1.00  0.00     0.217 HD
ENDBRANCH  47  50
ENDBRANCH  39  42
ENDBRANCH  35  36
ENDBRANCH  32  35
ENDBRANCH  28  29
ENDBRANCH   1  28
TORSDOF 11
ENDMDL
