MODEL 1
REMARK VINA RESULT: -6.201013659      0.000      0.000
REMARK  11 active torsions:
REMARK  status: ('A' for Active; 'I' for Inactive)
REMARK    1  A    between atoms: O1_2  and  C2_3 
REMARK    2  A    between atoms: C5_6  and  N1_7 
REMARK       I    between atoms: N1_7  and  C6_9 
REMARK       I    between atoms: C6_9  and  N3_13 
REMARK    3  A    between atoms: N3_13  and  C7_15 
REMARK    4  A    between atoms: C9_17  and  C10_18 
REMARK    5  A    between atoms: C11_22  and  O2_23 
REMARK    6  A    between atoms: O2_23  and  C12_24 
REMARK    7  A    between atoms: C26_41  and  O3_42 
REMARK    8  A    between atoms: O3_42  and  C27_43 
REMARK    9  A    between atoms: C27_43  and  C28_44 
REMARK   10  A    between atoms: C28_44  and  C29_45 
REMARK   11  A    between atoms: C29_45  and  N6_46 
ROOT
HETATM    1  N1  UNL     1      -2.509  14.469  -4.266  1.00  0.00    -0.191 N 
ATOM      2  H1  UNL     1      -2.465  15.196  -3.552  1.00  0.00     0.184 HD
HETATM    3  C6  UNL     1      -1.454  14.419  -5.146  1.00  0.00     0.676 C 
HETATM    4  N2  UNL     1      -1.638  14.301  -6.418  1.00  0.00    -0.234 N 
ATOM      5  H21 UNL     1      -0.856  14.264  -7.070  1.00  0.00     0.174 HD
ATOM      6  H22 UNL     1      -2.610  14.219  -6.714  1.00  0.00     0.174 HD
HETATM    7  N3  UNL     1      -0.098  14.534  -4.733  1.00  0.00    -0.190 N 
ATOM      8  H3  UNL     1       0.374  15.429  -4.864  1.00  0.00     0.184 HD
ENDROOT
BRANCH   1   9
HETATM    9  C5  UNL     1      -3.526  13.722  -4.238  1.00  0.00     0.063 A 
HETATM   10  C4  UNL     1      -3.497  12.704  -3.248  1.00  0.00     0.021 A 
HETATM   11  C3  UNL     1      -2.423  12.576  -2.401  1.00  0.00     0.055 A 
HETATM   12  C24 UNL     1      -4.576  11.862  -3.173  1.00  0.00     0.047 A 
HETATM   13  C2  UNL     1      -2.430  11.585  -1.457  1.00  0.00     0.102 A 
HETATM   14  C26 UNL     1      -3.507  10.680  -1.319  1.00  0.00     0.104 A 
HETATM   15  C25 UNL     1      -4.546  10.863  -2.199  1.00  0.00     0.070 A 
HETATM   16  N5  UNL     1      -5.648  11.971  -4.000  1.00  0.00    -0.365 N 
HETATM   17  C23 UNL     1      -5.704  12.924  -4.945  1.00  0.00     0.090 A 
ATOM     18  H5  UNL     1      -6.425  11.318  -3.902  1.00  0.00     0.165 HD
HETATM   19  C22 UNL     1      -4.623  13.803  -5.055  1.00  0.00     0.048 A 
BRANCH  13  20
HETATM   20  O1  UNL     1      -1.369  11.401  -0.567  1.00  0.00    -0.353 OA
HETATM   21  C1  UNL     1      -1.086  12.307   0.475  1.00  0.00     0.210 C 
ENDBRANCH  13  20
BRANCH  14  22
HETATM   22  O3  UNL     1      -3.444   9.713  -0.346  1.00  0.00    -0.348 OA
BRANCH  22  23
HETATM   23  C27 UNL     1      -4.476   9.128   0.361  1.00  0.00     0.177 C 
BRANCH  23  24
HETATM   24  C28 UNL     1      -4.849   9.786   1.661  1.00  0.00     0.057 C 
BRANCH  24  25
HETATM   25  C29 UNL     1      -3.607  10.282   2.418  1.00  0.00     0.274 C 
BRANCH  25  26
HETATM   26  N6  UNL     1      -3.808   9.934   3.817  1.00  0.00     0.088 N 
HETATM   27  C30 UNL     1      -4.624   8.754   3.997  1.00  0.00     0.272 C 
HETATM   28  C31 UNL     1      -4.872   8.784   5.505  1.00  0.00     0.032 C 
HETATM   29  C32 UNL     1      -5.007  10.268   5.762  1.00  0.00     0.032 C 
HETATM   30  C33 UNL     1      -4.613  10.959   4.480  1.00  0.00     0.272 C 
ENDBRANCH  25  26
ENDBRANCH  24  25
ENDBRANCH  23  24
ENDBRANCH  22  23
ENDBRANCH  14  22
ENDBRANCH   1   9
BRANCH   7  31
HETATM   31  C7  UNL     1       0.623  13.475  -4.152  1.00  0.00     0.074 A 
HETATM   32  C8  UNL     1       1.115  12.376  -4.839  1.00  0.00     0.051 A 
HETATM   33  C9  UNL     1       1.814  11.371  -4.176  1.00  0.00     0.083 A 
HETATM   34  C11 UNL     1       2.058  11.402  -2.818  1.00  0.00     0.086 A 
HETATM   35  C20 UNL     1       1.559  12.504  -2.154  1.00  0.00     0.066 A 
HETATM   36  C21 UNL     1       0.866  13.510  -2.783  1.00  0.00     0.076 A 
HETATM   37  N4  UNL     1       0.393  14.611  -2.027  1.00  0.00    -0.100 NA
BRANCH  33  38
HETATM   38  C10 UNL     1       2.306  10.226  -4.978  1.00  0.00     0.420 C 
HETATM   39  F1  UNL     1       2.155  10.512  -6.307  1.00  0.00    -0.166 F 
HETATM   40  F2  UNL     1       1.650   9.054  -4.645  1.00  0.00    -0.166 F 
HETATM   41  F3  UNL     1       3.650   9.974  -4.699  1.00  0.00    -0.166 F 
ENDBRANCH  33  38
BRANCH  34  42
HETATM   42  O2  UNL     1       2.759  10.369  -2.243  1.00  0.00    -0.345 OA
BRANCH  42  43
HETATM   43  C12 UNL     1       3.264  10.261  -0.963  1.00  0.00     0.129 C 
HETATM   44  C13 UNL     1       2.795   9.017  -0.229  1.00  0.00     0.033 C 
HETATM   45  C14 UNL     1       3.205   9.151   1.229  1.00  0.00     0.011 C 
HETATM   46  C15 UNL     1       4.694   9.361   1.369  1.00  0.00    -0.048 C 
HETATM   47  C16 UNL     1       5.476   8.116   1.015  1.00  0.00     0.015 C 
HETATM   48  C17 UNL     1       4.978   9.692   2.828  1.00  0.00     0.015 C 
HETATM   49  C18 UNL     1       5.189  10.501   0.522  1.00  0.00     0.011 C 
HETATM   50  C19 UNL     1       4.778  10.258  -0.912  1.00  0.00     0.033 C 
ENDBRANCH  42  43
ENDBRANCH  34  42
ENDBRANCH   7  31
TORSDOF 11
ENDMDL
MODEL 2
REMARK VINA RESULT: -6.151584500      2.751      3.864
REMARK  11 active torsions:
REMARK  status: ('A' for Active; 'I' for Inactive)
REMARK    1  A    between atoms: O1_2  and  C2_3 
REMARK    2  A    between atoms: C5_6  and  N1_7 
REMARK       I    between atoms: N1_7  and  C6_9 
REMARK       I    between atoms: C6_9  and  N3_13 
REMARK    3  A    between atoms: N3_13  and  C7_15 
REMARK    4  A    between atoms: C9_17  and  C10_18 
REMARK    5  A    between atoms: C11_22  and  O2_23 
REMARK    6  A    between atoms: O2_23  and  C12_24 
REMARK    7  A    between atoms: C26_41  and  O3_42 
REMARK    8  A    between atoms: O3_42  and  C27_43 
REMARK    9  A    between atoms: C27_43  and  C28_44 
REMARK   10  A    between atoms: C28_44  and  C29_45 
REMARK   11  A    between atoms: C29_45  and  N6_46 
ROOT
HETATM    1  N1  UNL     1      -2.479  14.168  -4.603  1.00  0.00    -0.191 N 
ATOM      2  H1  UNL     1      -2.060  14.807  -3.927  1.00  0.00     0.184 HD
HETATM    3  C6  UNL     1      -2.027  14.274  -5.898  1.00  0.00     0.676 C 
HETATM    4  N2  UNL     1      -2.842  14.297  -6.899  1.00  0.00    -0.234 N 
ATOM      5  H21 UNL     1      -2.507  14.375  -7.858  1.00  0.00     0.174 HD
ATOM      6  H22 UNL     1      -3.829  14.203  -6.663  1.00  0.00     0.174 HD
HETATM    7  N3  UNL     1      -0.650  14.406  -6.226  1.00  0.00    -0.190 N 
ATOM      8  H3  UNL     1      -0.296  15.332  -6.467  1.00  0.00     0.184 HD
ENDROOT
BRANCH   1   9
HETATM    9  C5  UNL     1      -3.351  13.374  -4.153  1.00  0.00     0.063 A 
HETATM   10  C4  UNL     1      -3.012  12.743  -2.926  1.00  0.00     0.021 A 
HETATM   11  C3  UNL     1      -1.815  13.007  -2.305  1.00  0.00     0.055 A 
HETATM   12  C24 UNL     1      -3.922  11.869  -2.391  1.00  0.00     0.047 A 
HETATM   13  C2  UNL     1      -1.524  12.383  -1.123  1.00  0.00     0.102 A 
HETATM   14  C26 UNL     1      -2.412  11.470  -0.509  1.00  0.00     0.104 A 
HETATM   15  C25 UNL     1      -3.588  11.251  -1.184  1.00  0.00     0.070 A 
HETATM   16  N5  UNL     1      -5.111  11.595  -2.987  1.00  0.00    -0.365 N 
HETATM   17  C23 UNL     1      -5.459  12.176  -4.147  1.00  0.00     0.090 A 
ATOM     18  H5  UNL     1      -5.752  10.935  -2.546  1.00  0.00     0.165 HD
HETATM   19  C22 UNL     1      -4.558  13.074  -4.726  1.00  0.00     0.048 A 
BRANCH  13  20
HETATM   20  O1  UNL     1      -0.324  12.607  -0.442  1.00  0.00    -0.353 OA
HETATM   21  C1  UNL     1       0.584  13.619  -0.816  1.00  0.00     0.210 C 
ENDBRANCH  13  20
BRANCH  14  22
HETATM   22  O3  UNL     1      -2.051  10.886   0.679  1.00  0.00    -0.348 OA
BRANCH  22  23
HETATM   23  C27 UNL     1      -2.216  11.364   1.964  1.00  0.00     0.177 C 
BRANCH  23  24
HETATM   24  C28 UNL     1      -3.584  11.883   2.312  1.00  0.00     0.057 C 
BRANCH  24  25
HETATM   25  C29 UNL     1      -4.636  10.764   2.276  1.00  0.00     0.274 C 
BRANCH  25  26
HETATM   26  N6  UNL     1      -4.049   9.621   2.960  1.00  0.00     0.088 N 
HETATM   27  C30 UNL     1      -4.098   8.405   2.178  1.00  0.00     0.272 C 
HETATM   28  C31 UNL     1      -3.668   7.363   3.210  1.00  0.00     0.032 C 
HETATM   29  C32 UNL     1      -4.320   7.893   4.468  1.00  0.00     0.032 C 
HETATM   30  C33 UNL     1      -4.857   9.261   4.124  1.00  0.00     0.272 C 
ENDBRANCH  25  26
ENDBRANCH  24  25
ENDBRANCH  23  24
ENDBRANCH  22  23
ENDBRANCH  14  22
ENDBRANCH   1   9
BRANCH   7  31
HETATM   31  C7  UNL     1       0.247  13.323  -6.236  1.00  0.00     0.074 A 
HETATM   32  C8  UNL     1       0.557  12.537  -5.137  1.00  0.00     0.051 A 
HETATM   33  C9  UNL     1       1.466  11.487  -5.241  1.00  0.00     0.083 A 
HETATM   34  C11 UNL     1       2.105  11.167  -6.421  1.00  0.00     0.086 A 
HETATM   35  C20 UNL     1       1.783  11.963  -7.501  1.00  0.00     0.066 A 
HETATM   36  C21 UNL     1       0.890  13.005  -7.427  1.00  0.00     0.076 A 
HETATM   37  N4  UNL     1       0.611  13.769  -8.586  1.00  0.00    -0.100 NA
BRANCH  33  38
HETATM   38  C10 UNL     1       1.748  10.693  -4.021  1.00  0.00     0.420 C 
HETATM   39  F1  UNL     1       1.654   9.362  -4.321  1.00  0.00    -0.166 F 
HETATM   40  F2  UNL     1       0.894  11.031  -2.987  1.00  0.00    -0.166 F 
HETATM   41  F3  UNL     1       3.026  10.978  -3.537  1.00  0.00    -0.166 F 
ENDBRANCH  33  38
BRANCH  34  42
HETATM   42  O2  UNL     1       2.986  10.113  -6.437  1.00  0.00    -0.345 OA
BRANCH  42  43
HETATM   43  C12 UNL     1       4.332  10.093  -6.127  1.00  0.00     0.129 C 
HETATM   44  C13 UNL     1       5.053   8.857  -6.637  1.00  0.00     0.033 C 
HETATM   45  C14 UNL     1       6.440   8.834  -6.014  1.00  0.00     0.011 C 
HETATM   46  C15 UNL     1       7.205  10.101  -6.318  1.00  0.00    -0.048 C 
HETATM   47  C16 UNL     1       7.600  10.186  -7.775  1.00  0.00     0.015 C 
HETATM   48  C17 UNL     1       8.482  10.077  -5.489  1.00  0.00     0.015 C 
HETATM   49  C18 UNL     1       6.427  11.335  -5.952  1.00  0.00     0.011 C 
HETATM   50  C19 UNL     1       5.089  11.293  -6.653  1.00  0.00     0.033 C 
ENDBRANCH  42  43
ENDBRANCH  34  42
ENDBRANCH   7  31
TORSDOF 11
ENDMDL
MODEL 3
REMARK VINA RESULT: -6.138353730      3.863      9.370
REMARK  11 active torsions:
REMARK  status: ('A' for Active; 'I' for Inactive)
REMARK    1  A    between atoms: O1_2  and  C2_3 
REMARK    2  A    between atoms: C5_6  and  N1_7 
REMARK       I    between atoms: N1_7  and  C6_9 
REMARK       I    between atoms: C6_9  and  N3_13 
REMARK    3  A    between atoms: N3_13  and  C7_15 
REMARK    4  A    between atoms: C9_17  and  C10_18 
REMARK    5  A    between atoms: C11_22  and  O2_23 
REMARK    6  A    between atoms: O2_23  and  C12_24 
REMARK    7  A    between atoms: C26_41  and  O3_42 
REMARK    8  A    between atoms: O3_42  and  C27_43 
REMARK    9  A    between atoms: C27_43  and  C28_44 
REMARK   10  A    between atoms: C28_44  and  C29_45 
REMARK   11  A    between atoms: C29_45  and  N6_46 
ROOT
HETATM    1  N1  UNL     1       0.296  13.115  -3.023  1.00  0.00    -0.191 N 
ATOM      2  H1  UNL     1      -0.413  13.610  -3.565  1.00  0.00     0.184 HD
HETATM    3  C6  UNL     1       0.480  13.545  -1.730  1.00  0.00     0.676 C 
HETATM    4  N2  UNL     1       1.659  13.740  -1.243  1.00  0.00    -0.234 N 
ATOM      5  H21 UNL     1       1.796  14.058  -0.284  1.00  0.00     0.174 HD
ATOM      6  H22 UNL     1       2.434  13.526  -1.871  1.00  0.00     0.174 HD
HETATM    7  N3  UNL     1      -0.600  13.843  -0.854  1.00  0.00    -0.190 N 
ATOM      8  H3  UNL     1      -0.846  14.821  -0.704  1.00  0.00     0.184 HD
ENDROOT
BRANCH   1   9
HETATM    9  C5  UNL     1       0.900  12.181  -3.619  1.00  0.00     0.063 A 
HETATM   10  C4  UNL     1       1.103  12.387  -5.010  1.00  0.00     0.021 A 
HETATM   11  C3  UNL     1       0.660  13.534  -5.624  1.00  0.00     0.055 A 
HETATM   12  C24 UNL     1       1.754  11.403  -5.708  1.00  0.00     0.047 A 
HETATM   13  C2  UNL     1       0.874  13.699  -6.965  1.00  0.00     0.102 A 
HETATM   14  C26 UNL     1       1.538  12.730  -7.751  1.00  0.00     0.104 A 
HETATM   15  C25 UNL     1       1.953  11.608  -7.075  1.00  0.00     0.070 A 
HETATM   16  N5  UNL     1       2.201  10.263  -5.120  1.00  0.00    -0.365 N 
HETATM   17  C23 UNL     1       2.025  10.041  -3.808  1.00  0.00     0.090 A 
ATOM     18  H5  UNL     1       2.679   9.562  -5.687  1.00  0.00     0.165 HD
HETATM   19  C22 UNL     1       1.364  11.020  -3.060  1.00  0.00     0.048 A 
BRANCH  13  20
HETATM   20  O1  UNL     1       0.448  14.841  -7.649  1.00  0.00    -0.353 OA
HETATM   21  C1  UNL     1       0.885  16.137  -7.309  1.00  0.00     0.210 C 
ENDBRANCH  13  20
BRANCH  14  22
HETATM   22  O3  UNL     1       1.720  12.968  -9.091  1.00  0.00    -0.348 OA
BRANCH  22  23
HETATM   23  C27 UNL     1       2.841  13.443  -9.741  1.00  0.00     0.177 C 
BRANCH  23  24
HETATM   24  C28 UNL     1       3.762  14.314  -8.931  1.00  0.00     0.057 C 
BRANCH  24  25
HETATM   25  C29 UNL     1       5.179  13.723  -8.860  1.00  0.00     0.274 C 
BRANCH  25  26
HETATM   26  N6  UNL     1       5.491  13.562  -7.447  1.00  0.00     0.088 N 
HETATM   27  C30 UNL     1       5.268  12.216  -6.967  1.00  0.00     0.272 C 
HETATM   28  C31 UNL     1       5.421  12.404  -5.458  1.00  0.00     0.032 C 
HETATM   29  C32 UNL     1       4.795  13.766  -5.255  1.00  0.00     0.032 C 
HETATM   30  C33 UNL     1       4.551  14.330  -6.633  1.00  0.00     0.272 C 
ENDBRANCH  25  26
ENDBRANCH  24  25
ENDBRANCH  23  24
ENDBRANCH  22  23
ENDBRANCH  14  22
ENDBRANCH   1   9
BRANCH   7  31
HETATM   31  C7  UNL     1      -1.346  12.855  -0.186  1.00  0.00     0.074 A 
HETATM   32  C8  UNL     1      -2.383  12.126  -0.746  1.00  0.00     0.051 A 
HETATM   33  C9  UNL     1      -3.070  11.170  -0.002  1.00  0.00     0.083 A 
HETATM   34  C11 UNL     1      -2.769  10.892   1.316  1.00  0.00     0.086 A 
HETATM   35  C20 UNL     1      -1.735  11.630   1.853  1.00  0.00     0.066 A 
HETATM   36  C21 UNL     1      -1.041  12.579   1.142  1.00  0.00     0.076 A 
HETATM   37  N4  UNL     1       0.014  13.288   1.769  1.00  0.00    -0.100 NA
BRANCH  33  38
HETATM   38  C10 UNL     1      -4.169  10.433  -0.669  1.00  0.00     0.420 C 
HETATM   39  F1  UNL     1      -5.368  10.921  -0.230  1.00  0.00    -0.166 F 
HETATM   40  F2  UNL     1      -4.076   9.071  -0.446  1.00  0.00    -0.166 F 
HETATM   41  F3  UNL     1      -4.082  10.574  -2.056  1.00  0.00    -0.166 F 
ENDBRANCH  33  38
BRANCH  34  42
HETATM   42  O2  UNL     1      -3.496   9.931   1.977  1.00  0.00    -0.345 OA
BRANCH  42  43
HETATM   43  C12 UNL     1      -3.797   9.832   3.321  1.00  0.00     0.129 C 
HETATM   44  C13 UNL     1      -4.534  11.041   3.868  1.00  0.00     0.033 C 
HETATM   45  C14 UNL     1      -4.570  10.921   5.384  1.00  0.00     0.011 C 
HETATM   46  C15 UNL     1      -5.209   9.624   5.822  1.00  0.00    -0.048 C 
HETATM   47  C16 UNL     1      -6.696   9.606   5.545  1.00  0.00     0.015 C 
HETATM   48  C17 UNL     1      -5.012   9.499   7.326  1.00  0.00     0.015 C 
HETATM   49  C18 UNL     1      -4.578   8.429   5.161  1.00  0.00     0.011 C 
HETATM   50  C19 UNL     1      -4.631   8.615   3.663  1.00  0.00     0.033 C 
ENDBRANCH  42  43
ENDBRANCH  34  42
ENDBRANCH   7  31
TORSDOF 11
ENDMDL
MODEL 4
REMARK VINA RESULT: -6.134272564      2.428      3.909
REMARK  11 active torsions:
REMARK  status: ('A' for Active; 'I' for Inactive)
REMARK    1  A    between atoms: O1_2  and  C2_3 
REMARK    2  A    between atoms: C5_6  and  N1_7 
REMARK       I    between atoms: N1_7  and  C6_9 
REMARK       I    between atoms: C6_9  and  N3_13 
REMARK    3  A    between atoms: N3_13  and  C7_15 
REMARK    4  A    between atoms: C9_17  and  C10_18 
REMARK    5  A    between atoms: C11_22  and  O2_23 
REMARK    6  A    between atoms: O2_23  and  C12_24 
REMARK    7  A    between atoms: C26_41  and  O3_42 
REMARK    8  A    between atoms: O3_42  and  C27_43 
REMARK    9  A    between atoms: C27_43  and  C28_44 
REMARK   10  A    between atoms: C28_44  and  C29_45 
REMARK   11  A    between atoms: C29_45  and  N6_46 
ROOT
HETATM    1  N1  UNL     1      -3.020  13.594  -3.606  1.00  0.00    -0.191 N 
ATOM      2  H1  UNL     1      -2.773  14.137  -2.778  1.00  0.00     0.184 HD
HETATM    3  C6  UNL     1      -2.269  13.832  -4.733  1.00  0.00     0.676 C 
HETATM    4  N2  UNL     1      -2.819  13.997  -5.889  1.00  0.00    -0.234 N 
ATOM      5  H21 UNL     1      -2.263  14.173  -6.725  1.00  0.00     0.174 HD
ATOM      6  H22 UNL     1      -3.835  13.909  -5.908  1.00  0.00     0.174 HD
HETATM    7  N3  UNL     1      -0.853  13.955  -4.706  1.00  0.00    -0.190 N 
ATOM      8  H3  UNL     1      -0.447  14.890  -4.743  1.00  0.00     0.184 HD
ENDROOT
BRANCH   1   9
HETATM    9  C5  UNL     1      -3.978  12.783  -3.474  1.00  0.00     0.063 A 
HETATM   10  C4  UNL     1      -3.886  11.922  -2.347  1.00  0.00     0.021 A 
HETATM   11  C3  UNL     1      -2.817  12.000  -1.486  1.00  0.00     0.055 A 
HETATM   12  C24 UNL     1      -4.899  11.019  -2.155  1.00  0.00     0.047 A 
HETATM   13  C2  UNL     1      -2.763  11.157  -0.411  1.00  0.00     0.102 A 
HETATM   14  C26 UNL     1      -3.770  10.201  -0.146  1.00  0.00     0.104 A 
HETATM   15  C25 UNL     1      -4.807  10.175  -1.047  1.00  0.00     0.070 A 
HETATM   16  N5  UNL     1      -5.964  10.926  -2.993  1.00  0.00    -0.365 N 
HETATM   17  C23 UNL     1      -6.079  11.727  -4.065  1.00  0.00     0.090 A 
ATOM     18  H5  UNL     1      -6.690  10.236  -2.804  1.00  0.00     0.165 HD
HETATM   19  C22 UNL     1      -5.065  12.662  -4.297  1.00  0.00     0.048 A 
BRANCH  13  20
HETATM   20  O1  UNL     1      -1.703  11.185   0.501  1.00  0.00    -0.353 OA
HETATM   21  C1  UNL     1      -1.143  12.387   0.977  1.00  0.00     0.210 C 
ENDBRANCH  13  20
BRANCH  14  22
HETATM   22  O3  UNL     1      -3.648   9.391   0.955  1.00  0.00    -0.348 OA
BRANCH  22  23
HETATM   23  C27 UNL     1      -4.341   9.443   2.149  1.00  0.00     0.177 C 
BRANCH  23  24
HETATM   24  C28 UNL     1      -3.803  10.385   3.191  1.00  0.00     0.057 C 
BRANCH  24  25
HETATM   25  C29 UNL     1      -4.739  11.585   3.402  1.00  0.00     0.274 C 
BRANCH  25  26
HETATM   26  N6  UNL     1      -4.744  12.332   2.153  1.00  0.00     0.088 N 
HETATM   27  C30 UNL     1      -4.244  13.681   2.297  1.00  0.00     0.272 C 
HETATM   28  C31 UNL     1      -4.600  14.283   0.937  1.00  0.00     0.032 C 
HETATM   29  C32 UNL     1      -5.931  13.623   0.651  1.00  0.00     0.032 C 
HETATM   30  C33 UNL     1      -6.118  12.566   1.711  1.00  0.00     0.272 C 
ENDBRANCH  25  26
ENDBRANCH  24  25
ENDBRANCH  23  24
ENDBRANCH  22  23
ENDBRANCH  14  22
ENDBRANCH   1   9
BRANCH   7  31
HETATM   31  C7  UNL     1       0.015  12.852  -4.630  1.00  0.00     0.074 A 
HETATM   32  C8  UNL     1       0.397  12.218  -3.458  1.00  0.00     0.051 A 
HETATM   33  C9  UNL     1       1.270  11.133  -3.480  1.00  0.00     0.083 A 
HETATM   34  C11 UNL     1       1.801  10.627  -4.650  1.00  0.00     0.086 A 
HETATM   35  C20 UNL     1       1.408  11.273  -5.804  1.00  0.00     0.066 A 
HETATM   36  C21 UNL     1       0.549  12.346  -5.810  1.00  0.00     0.076 A 
HETATM   37  N4  UNL     1       0.192  12.947  -7.042  1.00  0.00    -0.100 NA
BRANCH  33  38
HETATM   38  C10 UNL     1       1.634  10.511  -2.186  1.00  0.00     0.420 C 
HETATM   39  F1  UNL     1       1.260   9.196  -2.199  1.00  0.00    -0.166 F 
HETATM   40  F2  UNL     1       1.058  11.181  -1.121  1.00  0.00    -0.166 F 
HETATM   41  F3  UNL     1       3.009  10.608  -1.966  1.00  0.00    -0.166 F 
ENDBRANCH  33  38
BRANCH  34  42
HETATM   42  O2  UNL     1       2.653   9.551  -4.583  1.00  0.00    -0.345 OA
BRANCH  42  43
HETATM   43  C12 UNL     1       3.991   9.474  -4.913  1.00  0.00     0.129 C 
HETATM   44  C13 UNL     1       4.237   9.066  -6.355  1.00  0.00     0.033 C 
HETATM   45  C14 UNL     1       5.720   8.768  -6.511  1.00  0.00     0.011 C 
HETATM   46  C15 UNL     1       6.568   9.952  -6.107  1.00  0.00    -0.048 C 
HETATM   47  C16 UNL     1       6.449  11.094  -7.091  1.00  0.00     0.015 C 
HETATM   48  C17 UNL     1       8.021   9.495  -6.095  1.00  0.00     0.015 C 
HETATM   49  C18 UNL     1       6.221  10.456  -4.733  1.00  0.00     0.011 C 
HETATM   50  C19 UNL     1       4.743  10.769  -4.688  1.00  0.00     0.033 C 
ENDBRANCH  42  43
ENDBRANCH  34  42
ENDBRANCH   7  31
TORSDOF 11
ENDMDL
MODEL 5
REMARK VINA RESULT: -6.130340682      4.135      7.253
REMARK  11 active torsions:
REMARK  status: ('A' for Active; 'I' for Inactive)
REMARK    1  A    between atoms: O1_2  and  C2_3 
REMARK    2  A    between atoms: C5_6  and  N1_7 
REMARK       I    between atoms: N1_7  and  C6_9 
REMARK       I    between atoms: C6_9  and  N3_13 
REMARK    3  A    between atoms: N3_13  and  C7_15 
REMARK    4  A    between atoms: C9_17  and  C10_18 
REMARK    5  A    between atoms: C11_22  and  O2_23 
REMARK    6  A    between atoms: O2_23  and  C12_24 
REMARK    7  A    between atoms: C26_41  and  O3_42 
REMARK    8  A    between atoms: O3_42  and  C27_43 
REMARK    9  A    between atoms: C27_43  and  C28_44 
REMARK   10  A    between atoms: C28_44  and  C29_45 
REMARK   11  A    between atoms: C29_45  and  N6_46 
ROOT
HETATM    1  N1  UNL     1      -0.409  13.024  -1.200  1.00  0.00    -0.191 N 
ATOM      2  H1  UNL     1      -0.987  12.350  -0.697  1.00  0.00     0.184 HD
HETATM    3  C6  UNL     1       0.287  13.922  -0.425  1.00  0.00     0.676 C 
HETATM    4  N2  UNL     1       0.310  15.182  -0.705  1.00  0.00    -0.234 N 
ATOM      5  H21 UNL     1       0.826  15.848  -0.131  1.00  0.00     0.174 HD
ATOM      6  H22 UNL     1      -0.194  15.453  -1.549  1.00  0.00     0.174 HD
HETATM    7  N3  UNL     1       0.990  13.545   0.752  1.00  0.00    -0.190 N 
ATOM      8  H3  UNL     1       0.557  13.734   1.656  1.00  0.00     0.184 HD
ENDROOT
BRANCH   1   9
HETATM    9  C5  UNL     1      -0.416  12.935  -2.458  1.00  0.00     0.063 A 
HETATM   10  C4  UNL     1       0.457  11.952  -2.996  1.00  0.00     0.021 A 
HETATM   11  C3  UNL     1       1.234  11.173  -2.172  1.00  0.00     0.055 A 
HETATM   12  C24 UNL     1       0.491  11.811  -4.360  1.00  0.00     0.047 A 
HETATM   13  C2  UNL     1       2.062  10.234  -2.725  1.00  0.00     0.102 A 
HETATM   14  C26 UNL     1       2.150  10.031  -4.121  1.00  0.00     0.104 A 
HETATM   15  C25 UNL     1       1.348  10.843  -4.886  1.00  0.00     0.070 A 
HETATM   16  N5  UNL     1      -0.270  12.569  -5.192  1.00  0.00    -0.365 N 
HETATM   17  C23 UNL     1      -1.104  13.506  -4.713  1.00  0.00     0.090 A 
ATOM     18  H5  UNL     1      -0.205  12.424  -6.199  1.00  0.00     0.165 HD
HETATM   19  C22 UNL     1      -1.168  13.680  -3.327  1.00  0.00     0.048 A 
BRANCH  13  20
HETATM   20  O1  UNL     1       2.877   9.412  -1.943  1.00  0.00    -0.353 OA
HETATM   21  C1  UNL     1       2.572   9.091  -0.605  1.00  0.00     0.210 C 
ENDBRANCH  13  20
BRANCH  14  22
HETATM   22  O3  UNL     1       3.001   9.067  -4.602  1.00  0.00    -0.348 OA
BRANCH  22  23
HETATM   23  C27 UNL     1       3.769   9.085  -5.750  1.00  0.00     0.177 C 
BRANCH  23  24
HETATM   24  C28 UNL     1       5.146   9.676  -5.619  1.00  0.00     0.057 C 
BRANCH  24  25
HETATM   25  C29 UNL     1       5.344  10.861  -6.577  1.00  0.00     0.274 C 
BRANCH  25  26
HETATM   26  N6  UNL     1       4.266  11.800  -6.301  1.00  0.00     0.088 N 
HETATM   27  C30 UNL     1       4.052  12.748  -7.373  1.00  0.00     0.272 C 
HETATM   28  C31 UNL     1       3.080  13.730  -6.718  1.00  0.00     0.032 C 
HETATM   29  C32 UNL     1       3.597  13.769  -5.297  1.00  0.00     0.032 C 
HETATM   30  C33 UNL     1       4.635  12.679  -5.193  1.00  0.00     0.272 C 
ENDBRANCH  25  26
ENDBRANCH  24  25
ENDBRANCH  23  24
ENDBRANCH  22  23
ENDBRANCH  14  22
ENDBRANCH   1   9
BRANCH   7  31
HETATM   31  C7  UNL     1       2.251  12.924   0.730  1.00  0.00     0.074 A 
HETATM   32  C8  UNL     1       3.181  13.045  -0.291  1.00  0.00     0.051 A 
HETATM   33  C9  UNL     1       4.406  12.386  -0.228  1.00  0.00     0.083 A 
HETATM   34  C11 UNL     1       4.767  11.583   0.835  1.00  0.00     0.086 A 
HETATM   35  C20 UNL     1       3.827  11.475   1.839  1.00  0.00     0.066 A 
HETATM   36  C21 UNL     1       2.611  12.115   1.802  1.00  0.00     0.076 A 
HETATM   37  N4  UNL     1       1.705  11.955   2.879  1.00  0.00    -0.100 NA
BRANCH  33  38
HETATM   38  C10 UNL     1       5.346  12.562  -1.360  1.00  0.00     0.420 C 
HETATM   39  F1  UNL     1       5.328  11.438  -2.137  1.00  0.00    -0.166 F 
HETATM   40  F2  UNL     1       6.627  12.840  -0.917  1.00  0.00    -0.166 F 
HETATM   41  F3  UNL     1       4.985  13.672  -2.127  1.00  0.00    -0.166 F 
ENDBRANCH  33  38
BRANCH  34  42
HETATM   42  O2  UNL     1       5.997  10.970   0.819  1.00  0.00    -0.345 OA
BRANCH  42  43
HETATM   43  C12 UNL     1       6.314   9.653   0.552  1.00  0.00     0.129 C 
HETATM   44  C13 UNL     1       7.802   9.360   0.631  1.00  0.00     0.033 C 
HETATM   45  C14 UNL     1       8.036   7.966   0.070  1.00  0.00     0.011 C 
HETATM   46  C15 UNL     1       7.217   6.930   0.803  1.00  0.00    -0.048 C 
HETATM   47  C16 UNL     1       7.719   6.708   2.212  1.00  0.00     0.015 C 
HETATM   48  C17 UNL     1       7.352   5.616   0.046  1.00  0.00     0.015 C 
HETATM   49  C18 UNL     1       5.759   7.294   0.860  1.00  0.00     0.011 C 
HETATM   50  C19 UNL     1       5.623   8.669   1.472  1.00  0.00     0.033 C 
ENDBRANCH  42  43
ENDBRANCH  34  42
ENDBRANCH   7  31
TORSDOF 11
ENDMDL
