MODEL 1
REMARK VINA RESULT: -6.303316113      0.000      0.000
REMARK  13 active torsions:
REMARK  status: ('A' for Active; 'I' for Inactive)
REMARK    1  A    between atoms: C12_12  and  C13_13 
REMARK    2  A    between atoms: C13_13  and  C14_14 
REMARK    3  A    between atoms: C13_13  and  C30_41 
REMARK    4  A    between atoms: C14_14  and  N1_15 
REMARK    5  A    between atoms: N2_18  and  C17_19 
REMARK    6  A    between atoms: C17_19  and  C18_20 
REMARK    7  A    between atoms: C18_20  and  C19_21 
REMARK    8  A    between atoms: C19_21  and  C20_22 
REMARK    9  A    between atoms: C20_22  and  N3_23 
REMARK       I    between atoms: N3_23  and  C21_25 
REMARK   10  A    between atoms: C21_25  and  C22_27 
REMARK   11  A    between atoms: C23_28  and  O2_29 
REMARK   12  A    between atoms: C26_33  and  O3_34 
REMARK   13  A    between atoms: C27_36  and  O4_37 
ROOT
HETATM    1  N1  UNL     1       6.598   8.238   0.173  1.00  0.00     0.092 N 
HETATM    2  C15 UNL     1       6.448   6.997   0.868  1.00  0.00     0.291 C 
HETATM    3  C16 UNL     1       7.610   6.194   1.229  1.00  0.00     0.147 C 
HETATM    4  N2  UNL     1       8.759   6.333   0.406  1.00  0.00    -0.409 N 
HETATM    5  C28 UNL     1       9.038   7.657   0.004  1.00  0.00     0.147 C 
HETATM    6  C29 UNL     1       7.892   8.484  -0.406  1.00  0.00     0.291 C 
ENDROOT
BRANCH   1   7
HETATM    7  C14 UNL     1       6.163   9.357   0.988  1.00  0.00     0.286 C 
BRANCH   7   8
HETATM    8  C13 UNL     1       4.849   9.091   1.650  1.00  0.00     0.126 C 
BRANCH   8   9
HETATM    9  C12 UNL     1       3.734   9.801   0.886  1.00  0.00     0.000 C 
HETATM   10  C11 UNL     1       4.084  11.134   0.373  1.00  0.00     0.006 C 
HETATM   11  C10 UNL     1       4.172  11.276  -1.111  1.00  0.00     0.006 C 
HETATM   12  C9  UNL     1       3.223  10.415  -1.885  1.00  0.00    -0.002 C 
HETATM   13  C7  UNL     1       2.619  11.210  -3.051  1.00  0.00    -0.036 C 
HETATM   14  C32 UNL     1       2.204   9.692  -1.091  1.00  0.00    -0.009 C 
HETATM   15  C6  UNL     1       2.040  10.225  -4.038  1.00  0.00     0.010 C 
HETATM   16  C8  UNL     1       3.754  11.922  -3.707  1.00  0.00     0.016 C 
HETATM   17  C35 UNL     1       1.550  12.127  -2.505  1.00  0.00     0.002 C 
HETATM   18  C5  UNL     1       1.395  10.933  -5.203  1.00  0.00     0.002 C 
HETATM   19  C4  UNL     1       0.403  11.935  -4.732  1.00  0.00     0.009 C 
HETATM   20  C2  UNL     1       0.838  12.832  -3.628  1.00  0.00    -0.043 C 
HETATM   21  C1  UNL     1       1.607  14.057  -4.124  1.00  0.00     0.015 C 
HETATM   22  C3  UNL     1      -0.443  13.410  -3.003  1.00  0.00     0.015 C 
HETATM   23  C34 UNL     1       0.528  11.340  -1.745  1.00  0.00     0.006 C 
HETATM   24  C33 UNL     1       1.054  10.494  -0.635  1.00  0.00     0.005 C 
HETATM   25  C31 UNL     1       2.918   8.935   0.006  1.00  0.00     0.010 C 
ENDBRANCH   8   9
BRANCH   8  26
HETATM   26  C30 UNL     1       4.911   9.521   3.088  1.00  0.00     0.393 C 
HETATM   27  F1  UNL     1       5.549  10.768   3.251  1.00  0.00    -0.171 F 
HETATM   28  F2  UNL     1       5.795   8.674   3.743  1.00  0.00    -0.171 F 
HETATM   29  F3  UNL     1       3.760   9.413   3.801  1.00  0.00    -0.171 F 
ENDBRANCH   8  26
ENDBRANCH   7   8
ENDBRANCH   1   7
BRANCH   4  30
HETATM   30  C17 UNL     1       8.955   5.307  -0.588  1.00  0.00     0.117 C 
BRANCH  30  31
HETATM   31  C18 UNL     1       9.945   5.667  -1.633  1.00  0.00     0.021 C 
BRANCH  31  32
HETATM   32  C19 UNL     1       9.325   5.579  -3.002  1.00  0.00     0.021 C 
BRANCH  32  33
HETATM   33  C20 UNL     1       9.790   6.721  -3.861  1.00  0.00     0.123 C 
BRANCH  33  34
HETATM   34  N3  UNL     1       8.691   7.666  -4.163  1.00  0.00    -0.357 N 
HETATM   35  C21 UNL     1       8.003   7.654  -5.371  1.00  0.00     0.257 C 
HETATM   36  O1  UNL     1       8.383   6.748  -6.206  1.00  0.00    -0.267 OA
ATOM     37  H3  UNL     1       8.428   8.353  -3.457  1.00  0.00     0.162 HD
BRANCH  35  38
HETATM   38  C22 UNL     1       6.936   8.520  -5.793  1.00  0.00     0.101 A 
HETATM   39  C23 UNL     1       7.235   9.901  -5.890  1.00  0.00     0.084 A 
HETATM   40  C24 UNL     1       6.275  10.788  -6.273  1.00  0.00     0.040 A 
HETATM   41  C25 UNL     1       4.996  10.420  -6.579  1.00  0.00     0.042 A 
HETATM   42  C26 UNL     1       4.705   9.059  -6.483  1.00  0.00     0.100 A 
HETATM   43  C27 UNL     1       5.658   8.131  -6.098  1.00  0.00     0.117 A 
BRANCH  39  44
HETATM   44  O2  UNL     1       8.504  10.372  -5.600  1.00  0.00    -0.360 OA
ATOM     45  H2  UNL     1       8.710  10.712  -4.736  1.00  0.00     0.217 HD
ENDBRANCH  39  44
BRANCH  42  46
HETATM   46  O3  UNL     1       3.435   8.642  -6.781  1.00  0.00    -0.358 OA
ATOM     47  H3  UNL     1       3.314   8.051  -7.515  1.00  0.00     0.217 HD
ENDBRANCH  42  46
BRANCH  43  48
HETATM   48  O4  UNL     1       5.333   6.790  -6.017  1.00  0.00    -0.357 OA
ATOM     49  H4  UNL     1       5.403   6.352  -5.177  1.00  0.00     0.217 HD
ENDBRANCH  43  48
ENDBRANCH  35  38
ENDBRANCH  33  34
ENDBRANCH  32  33
ENDBRANCH  31  32
ENDBRANCH  30  31
ENDBRANCH   4  30
TORSDOF 13
ENDMDL
MODEL 2
REMARK VINA RESULT: -6.196176368      3.749      6.793
REMARK  13 active torsions:
REMARK  status: ('A' for Active; 'I' for Inactive)
REMARK    1  A    between atoms: C12_12  and  C13_13 
REMARK    2  A    between atoms: C13_13  and  C14_14 
REMARK    3  A    between atoms: C13_13  and  C30_41 
REMARK    4  A    between atoms: C14_14  and  N1_15 
REMARK    5  A    between atoms: N2_18  and  C17_19 
REMARK    6  A    between atoms: C17_19  and  C18_20 
REMARK    7  A    between atoms: C18_20  and  C19_21 
REMARK    8  A    between atoms: C19_21  and  C20_22 
REMARK    9  A    between atoms: C20_22  and  N3_23 
REMARK       I    between atoms: N3_23  and  C21_25 
REMARK   10  A    between atoms: C21_25  and  C22_27 
REMARK   11  A    between atoms: C23_28  and  O2_29 
REMARK   12  A    between atoms: C26_33  and  O3_34 
REMARK   13  A    between atoms: C27_36  and  O4_37 
ROOT
HETATM    1  N1  UNL     1      11.337   6.019  -3.554  1.00  0.00     0.092 N 
HETATM    2  C15 UNL     1      10.212   5.391  -4.175  1.00  0.00     0.291 C 
HETATM    3  C16 UNL     1      10.385   4.507  -5.323  1.00  0.00     0.147 C 
HETATM    4  N2  UNL     1      11.521   4.745  -6.142  1.00  0.00    -0.409 N 
HETATM    5  C28 UNL     1      12.701   5.060  -5.435  1.00  0.00     0.147 C 
HETATM    6  C29 UNL     1      12.570   5.981  -4.295  1.00  0.00     0.291 C 
ENDROOT
BRANCH   1   7
HETATM    7  C14 UNL     1      11.523   5.546  -2.195  1.00  0.00     0.286 C 
BRANCH   7   8
HETATM    8  C13 UNL     1      10.360   4.735  -1.719  1.00  0.00     0.126 C 
BRANCH   8   9
HETATM    9  C12 UNL     1       9.712   5.419  -0.517  1.00  0.00     0.000 C 
HETATM   10  C11 UNL     1      10.016   6.852  -0.381  1.00  0.00     0.006 C 
HETATM   11  C10 UNL     1       8.878   7.797  -0.586  1.00  0.00     0.006 C 
HETATM   12  C9  UNL     1       7.543   7.282  -0.148  1.00  0.00    -0.002 C 
HETATM   13  C7  UNL     1       6.759   8.389   0.571  1.00  0.00    -0.036 C 
HETATM   14  C32 UNL     1       7.551   6.003   0.598  1.00  0.00    -0.009 C 
HETATM   15  C6  UNL     1       5.303   7.990   0.597  1.00  0.00     0.010 C 
HETATM   16  C8  UNL     1       6.896   9.614  -0.268  1.00  0.00     0.016 C 
HETATM   17  C35 UNL     1       7.309   8.536   1.971  1.00  0.00     0.002 C 
HETATM   18  C5  UNL     1       4.468   9.016   1.321  1.00  0.00     0.002 C 
HETATM   19  C4  UNL     1       5.019   9.292   2.674  1.00  0.00     0.009 C 
HETATM   20  C2  UNL     1       6.486   9.519   2.759  1.00  0.00    -0.043 C 
HETATM   21  C1  UNL     1       6.882  10.968   2.473  1.00  0.00     0.015 C 
HETATM   22  C3  UNL     1       6.879   9.297   4.229  1.00  0.00     0.015 C 
HETATM   23  C34 UNL     1       7.259   7.223   2.690  1.00  0.00     0.006 C 
HETATM   24  C33 UNL     1       7.947   6.086   2.016  1.00  0.00     0.005 C 
HETATM   25  C31 UNL     1       8.328   4.994  -0.216  1.00  0.00     0.010 C 
ENDBRANCH   8   9
BRANCH   8  26
HETATM   26  C30 UNL     1      10.814   3.340  -1.398  1.00  0.00     0.393 C 
HETATM   27  F1  UNL     1      11.703   3.300  -0.304  1.00  0.00    -0.171 F 
HETATM   28  F2  UNL     1      11.637   2.916  -2.433  1.00  0.00    -0.171 F 
HETATM   29  F3  UNL     1       9.846   2.389  -1.334  1.00  0.00    -0.171 F 
ENDBRANCH   8  26
ENDBRANCH   7   8
ENDBRANCH   1   7
BRANCH   4  30
HETATM   30  C17 UNL     1      11.283   5.490  -7.354  1.00  0.00     0.117 C 
BRANCH  30  31
HETATM   31  C18 UNL     1       9.848   5.581  -7.727  1.00  0.00     0.021 C 
BRANCH  31  32
HETATM   32  C19 UNL     1       9.488   6.995  -8.099  1.00  0.00     0.021 C 
BRANCH  32  33
HETATM   33  C20 UNL     1       9.192   7.800  -6.865  1.00  0.00     0.123 C 
BRANCH  33  34
HETATM   34  N3  UNL     1       7.910   8.530  -6.978  1.00  0.00    -0.357 N 
HETATM   35  C21 UNL     1       6.850   8.325  -6.102  1.00  0.00     0.257 C 
HETATM   36  O1  UNL     1       7.071   7.460  -5.172  1.00  0.00    -0.267 OA
ATOM     37  H3  UNL     1       7.799   9.212  -7.729  1.00  0.00     0.162 HD
BRANCH  35  38
HETATM   38  C22 UNL     1       5.556   8.951  -6.112  1.00  0.00     0.101 A 
HETATM   39  C23 UNL     1       4.431   8.094  -6.047  1.00  0.00     0.084 A 
HETATM   40  C24 UNL     1       3.170   8.610  -6.063  1.00  0.00     0.040 A 
HETATM   41  C25 UNL     1       2.911   9.948  -6.141  1.00  0.00     0.042 A 
HETATM   42  C26 UNL     1       4.021  10.790  -6.205  1.00  0.00     0.100 A 
HETATM   43  C27 UNL     1       5.316  10.298  -6.190  1.00  0.00     0.117 A 
BRANCH  39  44
HETATM   44  O2  UNL     1       4.591   6.721  -5.965  1.00  0.00    -0.360 OA
ATOM     45  H2  UNL     1       5.435   6.344  -5.742  1.00  0.00     0.217 HD
ENDBRANCH  39  44
BRANCH  42  46
HETATM   46  O3  UNL     1       3.811  12.141  -6.284  1.00  0.00    -0.358 OA
ATOM     47  H3  UNL     1       4.521  12.724  -6.043  1.00  0.00     0.217 HD
ENDBRANCH  42  46
BRANCH  43  48
HETATM   48  O4  UNL     1       6.391  11.164  -6.252  1.00  0.00    -0.357 OA
ATOM     49  H4  UNL     1       7.038  11.140  -5.557  1.00  0.00     0.217 HD
ENDBRANCH  43  48
ENDBRANCH  35  38
ENDBRANCH  33  34
ENDBRANCH  32  33
ENDBRANCH  31  32
ENDBRANCH  30  31
ENDBRANCH   4  30
TORSDOF 13
ENDMDL
MODEL 3
REMARK VINA RESULT: -5.975767132      6.539      9.467
REMARK  13 active torsions:
REMARK  status: ('A' for Active; 'I' for Inactive)
REMARK    1  A    between atoms: C12_12  and  C13_13 
REMARK    2  A    between atoms: C13_13  and  C14_14 
REMARK    3  A    between atoms: C13_13  and  C30_41 
REMARK    4  A    between atoms: C14_14  and  N1_15 
REMARK    5  A    between atoms: N2_18  and  C17_19 
REMARK    6  A    between atoms: C17_19  and  C18_20 
REMARK    7  A    between atoms: C18_20  and  C19_21 
REMARK    8  A    between atoms: C19_21  and  C20_22 
REMARK    9  A    between atoms: C20_22  and  N3_23 
REMARK       I    between atoms: N3_23  and  C21_25 
REMARK   10  A    between atoms: C21_25  and  C22_27 
REMARK   11  A    between atoms: C23_28  and  O2_29 
REMARK   12  A    between atoms: C26_33  and  O3_34 
REMARK   13  A    between atoms: C27_36  and  O4_37 
ROOT
HETATM    1  N1  UNL     1      -4.255   9.660   0.367  1.00  0.00     0.092 N 
HETATM    2  C15 UNL     1      -3.291  10.092  -0.598  1.00  0.00     0.291 C 
HETATM    3  C16 UNL     1      -3.531  11.271  -1.422  1.00  0.00     0.147 C 
HETATM    4  N2  UNL     1      -4.889  11.601  -1.678  1.00  0.00    -0.409 N 
HETATM    5  C28 UNL     1      -5.751  11.448  -0.571  1.00  0.00     0.147 C 
HETATM    6  C29 UNL     1      -5.563  10.248   0.260  1.00  0.00     0.291 C 
ENDROOT
BRANCH   1   7
HETATM    7  C14 UNL     1      -3.736   9.768   1.718  1.00  0.00     0.286 C 
BRANCH   7   8
HETATM    8  C13 UNL     1      -4.307  10.943   2.446  1.00  0.00     0.126 C 
BRANCH   8   9
HETATM    9  C12 UNL     1      -3.242  12.027   2.588  1.00  0.00     0.000 C 
HETATM   10  C11 UNL     1      -1.894  11.535   2.912  1.00  0.00     0.006 C 
HETATM   11  C10 UNL     1      -0.852  11.699   1.855  1.00  0.00     0.006 C 
HETATM   12  C9  UNL     1      -1.005  12.919   1.001  1.00  0.00    -0.002 C 
HETATM   13  C7  UNL     1       0.363  13.569   0.758  1.00  0.00    -0.036 C 
HETATM   14  C32 UNL     1      -2.037  13.890   1.432  1.00  0.00    -0.009 C 
HETATM   15  C6  UNL     1       0.237  14.495  -0.429  1.00  0.00     0.010 C 
HETATM   16  C8  UNL     1       1.296  12.463   0.395  1.00  0.00     0.016 C 
HETATM   17  C35 UNL     1       0.763  14.329   2.001  1.00  0.00     0.002 C 
HETATM   18  C5  UNL     1       1.539  15.201  -0.712  1.00  0.00     0.002 C 
HETATM   19  C4  UNL     1       2.050  15.883   0.506  1.00  0.00     0.009 C 
HETATM   20  C2  UNL     1       2.039  15.092   1.764  1.00  0.00    -0.043 C 
HETATM   21  C1  UNL     1       3.279  14.213   1.926  1.00  0.00     0.015 C 
HETATM   22  C3  UNL     1       2.132  16.104   2.919  1.00  0.00     0.015 C 
HETATM   23  C34 UNL     1      -0.297  15.320   2.368  1.00  0.00     0.006 C 
HETATM   24  C33 UNL     1      -1.667  14.765   2.559  1.00  0.00     0.005 C 
HETATM   25  C31 UNL     1      -3.336  13.139   1.616  1.00  0.00     0.010 C 
ENDBRANCH   8   9
BRANCH   8  26
HETATM   26  C30 UNL     1      -4.844  10.500   3.777  1.00  0.00     0.393 C 
HETATM   27  F1  UNL     1      -4.573  11.427   4.804  1.00  0.00    -0.171 F 
HETATM   28  F2  UNL     1      -4.094   9.407   4.191  1.00  0.00    -0.171 F 
HETATM   29  F3  UNL     1      -6.124  10.047   3.791  1.00  0.00    -0.171 F 
ENDBRANCH   8  26
ENDBRANCH   7   8
ENDBRANCH   1   7
BRANCH   4  30
HETATM   30  C17 UNL     1      -5.410  11.187  -2.958  1.00  0.00     0.117 C 
BRANCH  30  31
HETATM   31  C18 UNL     1      -4.630  11.697  -4.114  1.00  0.00     0.021 C 
BRANCH  31  32
HETATM   32  C19 UNL     1      -4.800  13.187  -4.250  1.00  0.00     0.021 C 
BRANCH  32  33
HETATM   33  C20 UNL     1      -3.464  13.872  -4.197  1.00  0.00     0.123 C 
BRANCH  33  34
HETATM   34  N3  UNL     1      -2.424  13.109  -4.922  1.00  0.00    -0.357 N 
HETATM   35  C21 UNL     1      -1.064  13.290  -4.693  1.00  0.00     0.257 C 
HETATM   36  O1  UNL     1      -0.775  14.163  -3.790  1.00  0.00    -0.267 OA
ATOM     37  H3  UNL     1      -2.715  12.422  -5.618  1.00  0.00     0.162 HD
BRANCH  35  38
HETATM   38  C22 UNL     1       0.040  12.629  -5.336  1.00  0.00     0.101 A 
HETATM   39  C23 UNL     1       0.900  11.869  -4.505  1.00  0.00     0.084 A 
HETATM   40  C24 UNL     1       1.975  11.223  -5.037  1.00  0.00     0.040 A 
HETATM   41  C25 UNL     1       2.290  11.262  -6.365  1.00  0.00     0.042 A 
HETATM   42  C26 UNL     1       1.441  12.012  -7.180  1.00  0.00     0.100 A 
HETATM   43  C27 UNL     1       0.339  12.680  -6.671  1.00  0.00     0.117 A 
BRANCH  39  44
HETATM   44  O2  UNL     1       0.663  11.769  -3.146  1.00  0.00    -0.360 OA
ATOM     45  H2  UNL     1       1.385  11.744  -2.528  1.00  0.00     0.217 HD
ENDBRANCH  39  44
BRANCH  42  46
HETATM   46  O3  UNL     1       1.716  12.080  -8.519  1.00  0.00    -0.358 OA
ATOM     47  H3  UNL     1       1.365  12.809  -9.016  1.00  0.00     0.217 HD
ENDBRANCH  42  46
BRANCH  43  48
HETATM   48  O4  UNL     1      -0.481  13.410  -7.511  1.00  0.00    -0.357 OA
ATOM     49  H4  UNL     1      -0.181  13.601  -8.392  1.00  0.00     0.217 HD
ENDBRANCH  43  48
ENDBRANCH  35  38
ENDBRANCH  33  34
ENDBRANCH  32  33
ENDBRANCH  31  32
ENDBRANCH  30  31
ENDBRANCH   4  30
TORSDOF 13
ENDMDL
MODEL 4
REMARK VINA RESULT: -5.914033204      0.519      1.590
REMARK  13 active torsions:
REMARK  status: ('A' for Active; 'I' for Inactive)
REMARK    1  A    between atoms: C12_12  and  C13_13 
REMARK    2  A    between atoms: C13_13  and  C14_14 
REMARK    3  A    between atoms: C13_13  and  C30_41 
REMARK    4  A    between atoms: C14_14  and  N1_15 
REMARK    5  A    between atoms: N2_18  and  C17_19 
REMARK    6  A    between atoms: C17_19  and  C18_20 
REMARK    7  A    between atoms: C18_20  and  C19_21 
REMARK    8  A    between atoms: C19_21  and  C20_22 
REMARK    9  A    between atoms: C20_22  and  N3_23 
REMARK       I    between atoms: N3_23  and  C21_25 
REMARK   10  A    between atoms: C21_25  and  C22_27 
REMARK   11  A    between atoms: C23_28  and  O2_29 
REMARK   12  A    between atoms: C26_33  and  O3_34 
REMARK   13  A    between atoms: C27_36  and  O4_37 
ROOT
HETATM    1  N1  UNL     1       6.653   8.206   0.353  1.00  0.00     0.092 N 
HETATM    2  C15 UNL     1       6.599   7.020   1.151  1.00  0.00     0.291 C 
HETATM    3  C16 UNL     1       7.821   6.345   1.574  1.00  0.00     0.147 C 
HETATM    4  N2  UNL     1       8.957   6.505   0.738  1.00  0.00    -0.409 N 
HETATM    5  C28 UNL     1       9.131   7.807   0.223  1.00  0.00     0.147 C 
HETATM    6  C29 UNL     1       7.924   8.503  -0.251  1.00  0.00     0.291 C 
ENDROOT
BRANCH   1   7
HETATM    7  C14 UNL     1       6.128   9.352   1.072  1.00  0.00     0.286 C 
BRANCH   7   8
HETATM    8  C13 UNL     1       4.782   9.075   1.663  1.00  0.00     0.126 C 
BRANCH   8   9
HETATM    9  C12 UNL     1       3.703   9.768   0.834  1.00  0.00     0.000 C 
HETATM   10  C11 UNL     1       4.080  11.087   0.304  1.00  0.00     0.006 C 
HETATM   11  C10 UNL     1       4.232  11.192  -1.178  1.00  0.00     0.006 C 
HETATM   12  C9  UNL     1       3.314  10.314  -1.971  1.00  0.00    -0.002 C 
HETATM   13  C7  UNL     1       2.763  11.080  -3.181  1.00  0.00    -0.036 C 
HETATM   14  C32 UNL     1       2.260   9.613  -1.203  1.00  0.00    -0.009 C 
HETATM   15  C6  UNL     1       2.225  10.072  -4.168  1.00  0.00     0.010 C 
HETATM   16  C8  UNL     1       3.928  11.774  -3.805  1.00  0.00     0.016 C 
HETATM   17  C35 UNL     1       1.674  12.013  -2.705  1.00  0.00     0.002 C 
HETATM   18  C5  UNL     1       1.632  10.752  -5.376  1.00  0.00     0.002 C 
HETATM   19  C4  UNL     1       0.624  11.768  -4.973  1.00  0.00     0.009 C 
HETATM   20  C2  UNL     1       1.014  12.691  -3.875  1.00  0.00    -0.043 C 
HETATM   21  C1  UNL     1       1.807  13.902  -4.368  1.00  0.00     0.015 C 
HETATM   22  C3  UNL     1      -0.291  13.288  -3.320  1.00  0.00     0.015 C 
HETATM   23  C34 UNL     1       0.619  11.247  -1.969  1.00  0.00     0.006 C 
HETATM   24  C33 UNL     1       1.093  10.429  -0.818  1.00  0.00     0.005 C 
HETATM   25  C31 UNL     1       2.924   8.882  -0.059  1.00  0.00     0.010 C 
ENDBRANCH   8   9
BRANCH   8  26
HETATM   26  C30 UNL     1       4.761   9.515   3.099  1.00  0.00     0.393 C 
HETATM   27  F1  UNL     1       3.451   9.651   3.603  1.00  0.00    -0.171 F 
HETATM   28  F2  UNL     1       5.209  10.829   3.144  1.00  0.00    -0.171 F 
HETATM   29  F3  UNL     1       5.592   8.854   3.945  1.00  0.00    -0.171 F 
ENDBRANCH   8  26
ENDBRANCH   7   8
ENDBRANCH   1   7
BRANCH   4  30
HETATM   30  C17 UNL     1       9.235   5.416  -0.167  1.00  0.00     0.117 C 
BRANCH  30  31
HETATM   31  C18 UNL     1       9.919   5.836  -1.416  1.00  0.00     0.021 C 
BRANCH  31  32
HETATM   32  C19 UNL     1       9.135   5.391  -2.622  1.00  0.00     0.021 C 
BRANCH  32  33
HETATM   33  C20 UNL     1       9.591   6.137  -3.845  1.00  0.00     0.123 C 
BRANCH  33  34
HETATM   34  N3  UNL     1       8.729   7.306  -4.130  1.00  0.00    -0.357 N 
HETATM   35  C21 UNL     1       8.115   7.502  -5.361  1.00  0.00     0.257 C 
HETATM   36  O1  UNL     1       8.339   6.582  -6.236  1.00  0.00    -0.267 OA
ATOM     37  H3  UNL     1       8.580   7.995  -3.393  1.00  0.00     0.162 HD
BRANCH  35  38
HETATM   38  C22 UNL     1       7.274   8.595  -5.770  1.00  0.00     0.101 A 
HETATM   39  C23 UNL     1       5.925   8.284  -6.070  1.00  0.00     0.084 A 
HETATM   40  C24 UNL     1       5.068   9.262  -6.475  1.00  0.00     0.040 A 
HETATM   41  C25 UNL     1       5.437  10.569  -6.617  1.00  0.00     0.042 A 
HETATM   42  C26 UNL     1       6.766  10.872  -6.321  1.00  0.00     0.100 A 
HETATM   43  C27 UNL     1       7.663   9.901  -5.906  1.00  0.00     0.117 A 
BRANCH  39  44
HETATM   44  O2  UNL     1       5.456   6.987  -5.956  1.00  0.00    -0.360 OA
ATOM     45  H2  UNL     1       4.736   6.682  -6.496  1.00  0.00     0.217 HD
ENDBRANCH  39  44
BRANCH  42  46
HETATM   46  O3  UNL     1       7.183  12.170  -6.448  1.00  0.00    -0.358 OA
ATOM     47  H3  UNL     1       6.526  12.845  -6.567  1.00  0.00     0.217 HD
ENDBRANCH  42  46
BRANCH  43  48
HETATM   48  O4  UNL     1       8.972  10.240  -5.618  1.00  0.00    -0.357 OA
ATOM     49  H4  UNL     1       9.652  10.009  -6.240  1.00  0.00     0.217 HD
ENDBRANCH  43  48
ENDBRANCH  35  38
ENDBRANCH  33  34
ENDBRANCH  32  33
ENDBRANCH  31  32
ENDBRANCH  30  31
ENDBRANCH   4  30
TORSDOF 13
ENDMDL
MODEL 5
REMARK VINA RESULT: -5.913517332      3.329      6.022
REMARK  13 active torsions:
REMARK  status: ('A' for Active; 'I' for Inactive)
REMARK    1  A    between atoms: C12_12  and  C13_13 
REMARK    2  A    between atoms: C13_13  and  C14_14 
REMARK    3  A    between atoms: C13_13  and  C30_41 
REMARK    4  A    between atoms: C14_14  and  N1_15 
REMARK    5  A    between atoms: N2_18  and  C17_19 
REMARK    6  A    between atoms: C17_19  and  C18_20 
REMARK    7  A    between atoms: C18_20  and  C19_21 
REMARK    8  A    between atoms: C19_21  and  C20_22 
REMARK    9  A    between atoms: C20_22  and  N3_23 
REMARK       I    between atoms: N3_23  and  C21_25 
REMARK   10  A    between atoms: C21_25  and  C22_27 
REMARK   11  A    between atoms: C23_28  and  O2_29 
REMARK   12  A    between atoms: C26_33  and  O3_34 
REMARK   13  A    between atoms: C27_36  and  O4_37 
ROOT
HETATM    1  N1  UNL     1       2.441  12.931   2.512  1.00  0.00     0.092 N 
HETATM    2  C15 UNL     1       3.826  12.919   2.155  1.00  0.00     0.291 C 
HETATM    3  C16 UNL     1       4.442  11.730   1.577  1.00  0.00     0.147 C 
HETATM    4  N2  UNL     1       3.856  10.482   1.918  1.00  0.00    -0.409 N 
HETATM    5  C28 UNL     1       2.445  10.482   1.947  1.00  0.00     0.147 C 
HETATM    6  C29 UNL     1       1.791  11.649   2.560  1.00  0.00     0.291 C 
ENDROOT
BRANCH   1   7
HETATM    7  C14 UNL     1       1.693  13.873   1.700  1.00  0.00     0.286 C 
BRANCH   7   8
HETATM    8  C13 UNL     1       0.400  13.296   1.219  1.00  0.00     0.126 C 
BRANCH   8   9
HETATM    9  C12 UNL     1       0.425  13.176  -0.303  1.00  0.00     0.000 C 
HETATM   10  C11 UNL     1       1.625  13.728  -0.950  1.00  0.00     0.006 C 
HETATM   11  C10 UNL     1       2.540  12.747  -1.606  1.00  0.00     0.006 C 
HETATM   12  C9  UNL     1       1.863  11.555  -2.205  1.00  0.00    -0.002 C 
HETATM   13  C7  UNL     1       2.486  11.222  -3.568  1.00  0.00    -0.036 C 
HETATM   14  C32 UNL     1       0.383  11.597  -2.243  1.00  0.00    -0.009 C 
HETATM   15  C6  UNL     1       2.105   9.805  -3.923  1.00  0.00     0.010 C 
HETATM   16  C8  UNL     1       3.965  11.278  -3.379  1.00  0.00     0.016 C 
HETATM   17  C35 UNL     1       1.958  12.201  -4.590  1.00  0.00     0.002 C 
HETATM   18  C5  UNL     1       2.654   9.413  -5.272  1.00  0.00     0.002 C 
HETATM   19  C4  UNL     1       2.263  10.399  -6.313  1.00  0.00     0.009 C 
HETATM   20  C2  UNL     1       2.440  11.835  -5.968  1.00  0.00    -0.043 C 
HETATM   21  C1  UNL     1       3.856  12.342  -6.242  1.00  0.00     0.015 C 
HETATM   22  C3  UNL     1       1.552  12.631  -6.939  1.00  0.00     0.015 C 
HETATM   23  C34 UNL     1       0.462  12.175  -4.611  1.00  0.00     0.006 C 
HETATM   24  C33 UNL     1      -0.211  12.429  -3.305  1.00  0.00     0.005 C 
HETATM   25  C31 UNL     1      -0.110  11.909  -0.848  1.00  0.00     0.010 C 
ENDBRANCH   8   9
BRANCH   8  26
HETATM   26  C30 UNL     1      -0.742  14.143   1.701  1.00  0.00     0.393 C 
HETATM   27  F1  UNL     1      -0.356  15.042   2.717  1.00  0.00    -0.171 F 
HETATM   28  F2  UNL     1      -1.620  13.315   2.388  1.00  0.00    -0.171 F 
HETATM   29  F3  UNL     1      -1.512  14.721   0.743  1.00  0.00    -0.171 F 
ENDBRANCH   8  26
ENDBRANCH   7   8
ENDBRANCH   1   7
BRANCH   4  30
HETATM   30  C17 UNL     1       4.518   9.736   2.960  1.00  0.00     0.117 C 
BRANCH  30  31
HETATM   31  C18 UNL     1       5.999   9.744   2.852  1.00  0.00     0.021 C 
BRANCH  31  32
HETATM   32  C19 UNL     1       6.532   8.338   2.780  1.00  0.00     0.021 C 
BRANCH  32  33
HETATM   33  C20 UNL     1       6.234   7.734   1.436  1.00  0.00     0.123 C 
BRANCH  33  34
HETATM   34  N3  UNL     1       7.182   6.649   1.098  1.00  0.00    -0.357 N 
HETATM   35  C21 UNL     1       7.774   6.535  -0.155  1.00  0.00     0.257 C 
HETATM   36  O1  UNL     1       7.448   7.454  -0.999  1.00  0.00    -0.267 OA
ATOM     37  H3  UNL     1       7.411   5.958   1.812  1.00  0.00     0.162 HD
BRANCH  35  38
HETATM   38  C22 UNL     1       8.692   5.528  -0.615  1.00  0.00     0.101 A 
HETATM   39  C23 UNL     1       9.928   5.430   0.070  1.00  0.00     0.084 A 
HETATM   40  C24 UNL     1      10.855   4.509  -0.312  1.00  0.00     0.040 A 
HETATM   41  C25 UNL     1      10.665   3.643  -1.351  1.00  0.00     0.042 A 
HETATM   42  C26 UNL     1       9.447   3.742  -2.023  1.00  0.00     0.100 A 
HETATM   43  C27 UNL     1       8.482   4.667  -1.659  1.00  0.00     0.117 A 
BRANCH  39  44
HETATM   44  O2  UNL     1      10.213   6.265   1.137  1.00  0.00    -0.360 OA
ATOM     45  H2  UNL     1       9.806   7.121   1.205  1.00  0.00     0.217 HD
ENDBRANCH  39  44
BRANCH  42  46
HETATM   46  O3  UNL     1       9.211   2.893  -3.072  1.00  0.00    -0.358 OA
ATOM     47  H3  UNL     1       8.787   2.062  -2.894  1.00  0.00     0.217 HD
ENDBRANCH  42  46
BRANCH  43  48
HETATM   48  O4  UNL     1       7.285   4.733  -2.348  1.00  0.00    -0.357 OA
ATOM     49  H4  UNL     1       6.734   5.498  -2.234  1.00  0.00     0.217 HD
ENDBRANCH  43  48
ENDBRANCH  35  38
ENDBRANCH  33  34
ENDBRANCH  32  33
ENDBRANCH  31  32
ENDBRANCH  30  31
ENDBRANCH   4  30
TORSDOF 13
ENDMDL
