MODEL 1
REMARK VINA RESULT: -6.040601126      0.000      0.000
REMARK  10 active torsions:
REMARK  status: ('A' for Active; 'I' for Inactive)
REMARK    1  A    between atoms: O1_2  and  C2_3 
REMARK    2  A    between atoms: C3_4  and  N1_5 
REMARK       I    between atoms: N1_5  and  C4_7 
REMARK       I    between atoms: C4_7  and  N2_9 
REMARK    3  A    between atoms: N2_9  and  C5_11 
REMARK    4  A    between atoms: C8_14  and  S1_15 
REMARK    5  A    between atoms: C10_17  and  C11_18 
REMARK    6  A    between atoms: C14_24  and  N3_25 
REMARK    7  A    between atoms: C17_28  and  N4_29 
REMARK    8  A    between atoms: C20_32  and  C21_33 
REMARK    9  A    between atoms: C26_38  and  N5_39 
REMARK       I    between atoms: N5_39  and  C27_41 
REMARK       I    between atoms: C27_41  and  N6_43 
REMARK   10  A    between atoms: N6_43  and  C28_45 
ROOT
HETATM    1  C2  UNL     1       2.724  10.796   0.988  1.00  0.00     0.122 A 
HETATM    2  C3  UNL     1       2.942   9.893  -0.064  1.00  0.00     0.074 A 
HETATM    3  C13 UNL     1       2.563  10.194  -1.333  1.00  0.00     0.062 A 
HETATM    4  C14 UNL     1       1.944  11.413  -1.624  1.00  0.00     0.034 A 
HETATM    5  C25 UNL     1       1.734  12.294  -0.585  1.00  0.00     0.062 A 
HETATM    6  C26 UNL     1       2.110  12.012   0.714  1.00  0.00     0.074 A 
ENDROOT
BRANCH   2   7
HETATM    7  N1  UNL     1       3.562   8.682   0.285  1.00  0.00    -0.306 N 
HETATM    8  C4  UNL     1       4.954   8.501   0.445  1.00  0.00     0.325 C 
HETATM    9  O2  UNL     1       5.839   9.366   0.306  1.00  0.00    -0.247 OA
HETATM   10  N2  UNL     1       5.356   7.155   0.806  1.00  0.00    -0.309 N 
ATOM     11  H2  UNL     1       4.633   6.442   0.913  1.00  0.00     0.170 HD
ATOM     12  H1  UNL     1       2.961   7.872   0.437  1.00  0.00     0.171 HD
BRANCH  10  13
HETATM   13  C5  UNL     1       6.683   6.794   1.013  1.00  0.00     0.037 A 
HETATM   14  C6  UNL     1       7.445   6.972   2.130  1.00  0.00     0.031 A 
HETATM   15  C7  UNL     1       8.793   6.601   2.226  1.00  0.00     0.021 A 
HETATM   16  C8  UNL     1       9.404   6.021   1.134  1.00  0.00     0.015 A 
HETATM   17  C10 UNL     1       8.650   5.834   0.002  1.00  0.00     0.066 A 
HETATM   18  C12 UNL     1       7.328   6.198  -0.091  1.00  0.00     0.047 A 
BRANCH  16  19
HETATM   19  S1  UNL     1      11.114   5.517   1.175  1.00  0.00    -0.134 SA
HETATM   20  C9  UNL     1      11.743   5.263   2.832  1.00  0.00     0.095 C 
ENDBRANCH  16  19
BRANCH  17  21
HETATM   21  C11 UNL     1       9.342   5.196  -1.175  1.00  0.00     0.418 C 
HETATM   22  F1  UNL     1       9.681   3.905  -0.820  1.00  0.00    -0.166 F 
HETATM   23  F2  UNL     1      10.405   5.922  -1.611  1.00  0.00    -0.166 F 
HETATM   24  F3  UNL     1       8.350   5.051  -2.155  1.00  0.00    -0.166 F 
ENDBRANCH  17  21
ENDBRANCH  10  13
ENDBRANCH   2   7
BRANCH   1  25
HETATM   25  O1  UNL     1       3.098  10.512   2.275  1.00  0.00    -0.351 OA
HETATM   26  C1  UNL     1       2.303   9.816   3.205  1.00  0.00     0.210 C 
ENDBRANCH   1  25
BRANCH   6  27
HETATM   27  N5  UNL     1       1.906  12.891   1.789  1.00  0.00    -0.306 N 
HETATM   28  C27 UNL     1       2.809  13.854   2.260  1.00  0.00     0.321 C 
HETATM   29  O3  UNL     1       3.935  14.081   1.801  1.00  0.00    -0.247 OA
HETATM   30  N6  UNL     1       2.388  14.660   3.391  1.00  0.00    -0.338 N 
ATOM     31  H6  UNL     1       1.471  14.523   3.818  1.00  0.00     0.164 HD
ATOM     32  H5  UNL     1       1.013  12.823   2.275  1.00  0.00     0.171 HD
BRANCH  30  33
HETATM   33  C28 UNL     1       3.294  15.657   3.897  1.00  0.00     0.086 C 
HETATM   34  C29 UNL     1       3.179  15.758   5.409  1.00  0.00     0.025 C 
HETATM   35  C30 UNL     1       2.031  16.738   5.171  1.00  0.00     0.004 C 
HETATM   36  C31 UNL     1       2.680  17.058   3.838  1.00  0.00     0.025 C 
ENDBRANCH  30  33
ENDBRANCH   6  27
BRANCH   4  37
HETATM   37  N3  UNL     1       1.584  11.671  -2.980  1.00  0.00    -0.380 N 
HETATM   38  C15 UNL     1       1.283  13.006  -3.377  1.00  0.00     0.125 C 
HETATM   39  C16 UNL     1       1.953  13.265  -4.733  1.00  0.00     0.056 C 
HETATM   40  C17 UNL     1       1.372  12.249  -5.677  1.00  0.00     0.229 C 
HETATM   41  C20 UNL     1       1.727  10.865  -5.327  1.00  0.00     0.041 C 
HETATM   42  C24 UNL     1       1.556  10.532  -3.872  1.00  0.00     0.130 C 
BRANCH  40  43
HETATM   43  N4  UNL     1       1.428  12.593  -7.058  1.00  0.00     0.085 N 
HETATM   44  C18 UNL     1       0.166  13.302  -7.433  1.00  0.00     0.309 C 
HETATM   45  C19 UNL     1       2.451  13.584  -7.371  1.00  0.00     0.309 C 
ENDBRANCH  40  43
BRANCH  41  46
HETATM   46  C21 UNL     1       3.072  10.389  -5.797  1.00  0.00    -0.007 A 
HETATM   47  C22 UNL     1       3.275   8.942  -6.105  1.00  0.00     0.005 A 
HETATM   48  C23 UNL     1       3.986   9.599  -4.972  1.00  0.00     0.005 A 
ENDBRANCH  41  46
ENDBRANCH   4  37
TORSDOF 10
ENDMDL
MODEL 2
REMARK VINA RESULT: -5.838886405      4.423      9.212
REMARK  10 active torsions:
REMARK  status: ('A' for Active; 'I' for Inactive)
REMARK    1  A    between atoms: O1_2  and  C2_3 
REMARK    2  A    between atoms: C3_4  and  N1_5 
REMARK       I    between atoms: N1_5  and  C4_7 
REMARK       I    between atoms: C4_7  and  N2_9 
REMARK    3  A    between atoms: N2_9  and  C5_11 
REMARK    4  A    between atoms: C8_14  and  S1_15 
REMARK    5  A    between atoms: C10_17  and  C11_18 
REMARK    6  A    between atoms: C14_24  and  N3_25 
REMARK    7  A    between atoms: C17_28  and  N4_29 
REMARK    8  A    between atoms: C20_32  and  C21_33 
REMARK    9  A    between atoms: C26_38  and  N5_39 
REMARK       I    between atoms: N5_39  and  C27_41 
REMARK       I    between atoms: C27_41  and  N6_43 
REMARK   10  A    between atoms: N6_43  and  C28_45 
ROOT
HETATM    1  C2  UNL     1       5.295   9.014   2.375  1.00  0.00     0.122 A 
HETATM    2  C3  UNL     1       5.068   8.425   1.121  1.00  0.00     0.074 A 
HETATM    3  C13 UNL     1       5.936   7.514   0.610  1.00  0.00     0.062 A 
HETATM    4  C14 UNL     1       7.079   7.138   1.322  1.00  0.00     0.034 A 
HETATM    5  C25 UNL     1       7.293   7.720   2.553  1.00  0.00     0.062 A 
HETATM    6  C26 UNL     1       6.426   8.649   3.094  1.00  0.00     0.074 A 
ENDROOT
BRANCH   2   7
HETATM    7  N1  UNL     1       3.909   8.843   0.448  1.00  0.00    -0.306 N 
HETATM    8  C4  UNL     1       3.885   9.746  -0.639  1.00  0.00     0.325 C 
HETATM    9  O2  UNL     1       4.864  10.304  -1.167  1.00  0.00    -0.247 OA
HETATM   10  N2  UNL     1       2.563  10.028  -1.166  1.00  0.00    -0.309 N 
ATOM     11  H2  UNL     1       1.757   9.579  -0.731  1.00  0.00     0.170 HD
ATOM     12  H1  UNL     1       3.017   8.466   0.768  1.00  0.00     0.171 HD
BRANCH  10  13
HETATM   13  C5  UNL     1       2.347  10.886  -2.240  1.00  0.00     0.037 A 
HETATM   14  C6  UNL     1       1.890  12.171  -2.220  1.00  0.00     0.031 A 
HETATM   15  C7  UNL     1       1.674  12.943  -3.369  1.00  0.00     0.021 A 
HETATM   16  C8  UNL     1       1.932  12.388  -4.604  1.00  0.00     0.015 A 
HETATM   17  C10 UNL     1       2.394  11.095  -4.641  1.00  0.00     0.066 A 
HETATM   18  C12 UNL     1       2.606  10.338  -3.514  1.00  0.00     0.047 A 
BRANCH  16  19
HETATM   19  S1  UNL     1       1.686  13.305  -6.114  1.00  0.00    -0.134 SA
HETATM   20  C9  UNL     1      -0.035  13.646  -6.468  1.00  0.00     0.095 C 
ENDBRANCH  16  19
BRANCH  17  21
HETATM   21  C11 UNL     1       2.670  10.514  -6.004  1.00  0.00     0.418 C 
HETATM   22  F1  UNL     1       3.957  10.861  -6.361  1.00  0.00    -0.166 F 
HETATM   23  F2  UNL     1       1.744  10.889  -6.926  1.00  0.00    -0.166 F 
HETATM   24  F3  UNL     1       2.710   9.126  -5.814  1.00  0.00    -0.166 F 
ENDBRANCH  17  21
ENDBRANCH  10  13
ENDBRANCH   2   7
BRANCH   1  25
HETATM   25  O1  UNL     1       4.432   9.935   2.908  1.00  0.00    -0.351 OA
HETATM   26  C1  UNL     1       3.152   9.636   3.412  1.00  0.00     0.210 C 
ENDBRANCH   1  25
BRANCH   6  27
HETATM   27  N5  UNL     1       6.622   9.257   4.345  1.00  0.00    -0.306 N 
HETATM   28  C27 UNL     1       7.758   9.966   4.756  1.00  0.00     0.321 C 
HETATM   29  O3  UNL     1       8.773  10.169   4.079  1.00  0.00    -0.247 OA
HETATM   30  N6  UNL     1       7.746  10.514   6.100  1.00  0.00    -0.338 N 
ATOM     31  H6  UNL     1       6.940  10.382   6.711  1.00  0.00     0.164 HD
ATOM     32  H5  UNL     1       5.863   9.173   5.020  1.00  0.00     0.171 HD
BRANCH  30  33
HETATM   33  C28 UNL     1       8.899  11.248   6.550  1.00  0.00     0.086 C 
HETATM   34  C29 UNL     1       9.699  10.421   7.544  1.00  0.00     0.025 C 
HETATM   35  C30 UNL     1       8.767  10.972   8.622  1.00  0.00     0.004 C 
HETATM   36  C31 UNL     1       8.556  12.174   7.721  1.00  0.00     0.025 C 
ENDBRANCH  30  33
ENDBRANCH   6  27
BRANCH   4  37
HETATM   37  N3  UNL     1       7.941   6.165   0.734  1.00  0.00    -0.380 N 
HETATM   38  C15 UNL     1       7.372   5.025   0.097  1.00  0.00     0.125 C 
HETATM   39  C16 UNL     1       8.130   4.781  -1.214  1.00  0.00     0.056 C 
HETATM   40  C17 UNL     1       9.563   4.552  -0.821  1.00  0.00     0.229 C 
HETATM   41  C20 UNL     1      10.195   5.739  -0.223  1.00  0.00     0.041 C 
HETATM   42  C24 UNL     1       9.363   6.420   0.826  1.00  0.00     0.130 C 
BRANCH  40  43
HETATM   43  N4  UNL     1      10.346   3.814  -1.755  1.00  0.00     0.085 N 
HETATM   44  C18 UNL     1      11.469   3.147  -1.028  1.00  0.00     0.309 C 
HETATM   45  C19 UNL     1       9.637   2.684  -2.345  1.00  0.00     0.309 C 
ENDBRANCH  40  43
BRANCH  41  46
HETATM   46  C21 UNL     1      10.724   6.761  -1.188  1.00  0.00    -0.007 A 
HETATM   47  C22 UNL     1      12.184   7.077  -1.199  1.00  0.00     0.005 A 
HETATM   48  C23 UNL     1      11.176   8.094  -0.789  1.00  0.00     0.005 A 
ENDBRANCH  41  46
ENDBRANCH   4  37
TORSDOF 10
ENDMDL
MODEL 3
REMARK VINA RESULT: -5.761804666      1.484      1.897
REMARK  10 active torsions:
REMARK  status: ('A' for Active; 'I' for Inactive)
REMARK    1  A    between atoms: O1_2  and  C2_3 
REMARK    2  A    between atoms: C3_4  and  N1_5 
REMARK       I    between atoms: N1_5  and  C4_7 
REMARK       I    between atoms: C4_7  and  N2_9 
REMARK    3  A    between atoms: N2_9  and  C5_11 
REMARK    4  A    between atoms: C8_14  and  S1_15 
REMARK    5  A    between atoms: C10_17  and  C11_18 
REMARK    6  A    between atoms: C14_24  and  N3_25 
REMARK    7  A    between atoms: C17_28  and  N4_29 
REMARK    8  A    between atoms: C20_32  and  C21_33 
REMARK    9  A    between atoms: C26_38  and  N5_39 
REMARK       I    between atoms: N5_39  and  C27_41 
REMARK       I    between atoms: C27_41  and  N6_43 
REMARK   10  A    between atoms: N6_43  and  C28_45 
ROOT
HETATM    1  C2  UNL     1       2.779  10.748   1.039  1.00  0.00     0.122 A 
HETATM    2  C3  UNL     1       3.025   9.809   0.025  1.00  0.00     0.074 A 
HETATM    3  C13 UNL     1       2.642  10.049  -1.256  1.00  0.00     0.062 A 
HETATM    4  C14 UNL     1       1.992  11.239  -1.597  1.00  0.00     0.034 A 
HETATM    5  C25 UNL     1       1.755  12.155  -0.596  1.00  0.00     0.062 A 
HETATM    6  C26 UNL     1       2.135  11.935   0.715  1.00  0.00     0.074 A 
ENDROOT
BRANCH   2   7
HETATM    7  N1  UNL     1       3.675   8.631   0.424  1.00  0.00    -0.306 N 
HETATM    8  C4  UNL     1       5.062   8.389   0.301  1.00  0.00     0.325 C 
HETATM    9  O2  UNL     1       5.914   9.163  -0.170  1.00  0.00    -0.247 OA
HETATM   10  N2  UNL     1       5.498   7.091   0.782  1.00  0.00    -0.309 N 
ATOM     11  H2  UNL     1       4.800   6.451   1.162  1.00  0.00     0.170 HD
ATOM     12  H1  UNL     1       3.103   7.893   0.836  1.00  0.00     0.171 HD
BRANCH  10  13
HETATM   13  C5  UNL     1       6.828   6.684   0.748  1.00  0.00     0.037 A 
HETATM   14  C6  UNL     1       7.422   5.802  -0.106  1.00  0.00     0.031 A 
HETATM   15  C7  UNL     1       8.771   5.430  -0.034  1.00  0.00     0.021 A 
HETATM   16  C8  UNL     1       9.562   5.979   0.953  1.00  0.00     0.015 A 
HETATM   17  C10 UNL     1       8.979   6.869   1.820  1.00  0.00     0.066 A 
HETATM   18  C12 UNL     1       7.656   7.233   1.749  1.00  0.00     0.047 A 
BRANCH  16  19
HETATM   19  S1  UNL     1      11.289   5.561   1.110  1.00  0.00    -0.134 SA
HETATM   20  C9  UNL     1      11.907   4.564  -0.242  1.00  0.00     0.095 C 
ENDBRANCH  16  19
BRANCH  17  21
HETATM   21  C11 UNL     1       9.867   7.455   2.888  1.00  0.00     0.418 C 
HETATM   22  F1  UNL     1      10.809   8.252   2.268  1.00  0.00    -0.166 F 
HETATM   23  F2  UNL     1      10.420   6.503   3.685  1.00  0.00    -0.166 F 
HETATM   24  F3  UNL     1       9.053   8.347   3.599  1.00  0.00    -0.166 F 
ENDBRANCH  17  21
ENDBRANCH  10  13
ENDBRANCH   2   7
BRANCH   1  25
HETATM   25  O1  UNL     1       3.156  10.526   2.337  1.00  0.00    -0.351 OA
HETATM   26  C1  UNL     1       2.399   9.803   3.279  1.00  0.00     0.210 C 
ENDBRANCH   1  25
BRANCH   6  27
HETATM   27  N5  UNL     1       1.904  12.851   1.753  1.00  0.00    -0.306 N 
HETATM   28  C27 UNL     1       2.798  13.824   2.219  1.00  0.00     0.321 C 
HETATM   29  O3  UNL     1       3.939  14.029   1.788  1.00  0.00    -0.247 OA
HETATM   30  N6  UNL     1       2.348  14.670   3.309  1.00  0.00    -0.338 N 
ATOM     31  H6  UNL     1       1.418  14.553   3.712  1.00  0.00     0.164 HD
ATOM     32  H5  UNL     1       0.995  12.804   2.214  1.00  0.00     0.171 HD
BRANCH  30  33
HETATM   33  C28 UNL     1       3.245  15.678   3.809  1.00  0.00     0.086 C 
HETATM   34  C29 UNL     1       3.127  15.789   5.321  1.00  0.00     0.025 C 
HETATM   35  C30 UNL     1       1.971  16.758   5.073  1.00  0.00     0.004 C 
HETATM   36  C31 UNL     1       2.619  17.074   3.739  1.00  0.00     0.025 C 
ENDBRANCH  30  33
ENDBRANCH   6  27
BRANCH   4  37
HETATM   37  N3  UNL     1       1.630  11.432  -2.963  1.00  0.00    -0.380 N 
HETATM   38  C15 UNL     1       1.174  12.714  -3.387  1.00  0.00     0.125 C 
HETATM   39  C16 UNL     1       1.834  13.036  -4.734  1.00  0.00     0.056 C 
HETATM   40  C17 UNL     1       1.402  11.944  -5.672  1.00  0.00     0.229 C 
HETATM   41  C20 UNL     1       1.919  10.619  -5.295  1.00  0.00     0.041 C 
HETATM   42  C24 UNL     1       1.761  10.287  -3.838  1.00  0.00     0.130 C 
BRANCH  40  43
HETATM   43  N4  UNL     1       1.442  12.274  -7.058  1.00  0.00     0.085 N 
HETATM   44  C18 UNL     1       0.229  13.078  -7.400  1.00  0.00     0.309 C 
HETATM   45  C19 UNL     1       2.531  13.179  -7.410  1.00  0.00     0.309 C 
ENDBRANCH  40  43
BRANCH  41  46
HETATM   46  C21 UNL     1       3.321  10.307  -5.733  1.00  0.00    -0.007 A 
HETATM   47  C22 UNL     1       3.702   8.894  -6.029  1.00  0.00     0.005 A 
HETATM   48  C23 UNL     1       4.304   9.634  -4.884  1.00  0.00     0.005 A 
ENDBRANCH  41  46
ENDBRANCH   4  37
TORSDOF 10
ENDMDL
MODEL 4
REMARK VINA RESULT: -5.747893496      5.007      9.467
REMARK  10 active torsions:
REMARK  status: ('A' for Active; 'I' for Inactive)
REMARK    1  A    between atoms: O1_2  and  C2_3 
REMARK    2  A    between atoms: C3_4  and  N1_5 
REMARK       I    between atoms: N1_5  and  C4_7 
REMARK       I    between atoms: C4_7  and  N2_9 
REMARK    3  A    between atoms: N2_9  and  C5_11 
REMARK    4  A    between atoms: C8_14  and  S1_15 
REMARK    5  A    between atoms: C10_17  and  C11_18 
REMARK    6  A    between atoms: C14_24  and  N3_25 
REMARK    7  A    between atoms: C17_28  and  N4_29 
REMARK    8  A    between atoms: C20_32  and  C21_33 
REMARK    9  A    between atoms: C26_38  and  N5_39 
REMARK       I    between atoms: N5_39  and  C27_41 
REMARK       I    between atoms: C27_41  and  N6_43 
REMARK   10  A    between atoms: N6_43  and  C28_45 
ROOT
HETATM    1  C2  UNL     1       5.194   9.084   2.362  1.00  0.00     0.122 A 
HETATM    2  C3  UNL     1       4.915   8.383   1.178  1.00  0.00     0.074 A 
HETATM    3  C13 UNL     1       5.806   7.495   0.666  1.00  0.00     0.062 A 
HETATM    4  C14 UNL     1       7.025   7.256   1.306  1.00  0.00     0.034 A 
HETATM    5  C25 UNL     1       7.291   7.948   2.468  1.00  0.00     0.062 A 
HETATM    6  C26 UNL     1       6.402   8.857   3.009  1.00  0.00     0.074 A 
ENDROOT
BRANCH   2   7
HETATM    7  N1  UNL     1       3.679   8.665   0.575  1.00  0.00    -0.306 N 
HETATM    8  C4  UNL     1       3.514   9.333  -0.660  1.00  0.00     0.325 C 
HETATM    9  O2  UNL     1       4.416   9.767  -1.399  1.00  0.00    -0.247 OA
HETATM   10  N2  UNL     1       2.135   9.512  -1.075  1.00  0.00    -0.309 N 
ATOM     11  H2  UNL     1       1.393   9.164  -0.467  1.00  0.00     0.170 HD
ATOM     12  H1  UNL     1       2.836   8.365   1.065  1.00  0.00     0.171 HD
BRANCH  10  13
HETATM   13  C5  UNL     1       1.782  10.139  -2.266  1.00  0.00     0.037 A 
HETATM   14  C6  UNL     1       2.124   9.791  -3.540  1.00  0.00     0.031 A 
HETATM   15  C7  UNL     1       1.742  10.514  -4.678  1.00  0.00     0.021 A 
HETATM   16  C8  UNL     1       0.975  11.649  -4.520  1.00  0.00     0.015 A 
HETATM   17  C10 UNL     1       0.623  12.013  -3.243  1.00  0.00     0.066 A 
HETATM   18  C12 UNL     1       0.998  11.303  -2.128  1.00  0.00     0.047 A 
BRANCH  16  19
HETATM   19  S1  UNL     1       0.445  12.623  -5.917  1.00  0.00    -0.134 SA
HETATM   20  C9  UNL     1       1.405  12.327  -7.398  1.00  0.00     0.095 C 
ENDBRANCH  16  19
BRANCH  17  21
HETATM   21  C11 UNL     1      -0.217  13.256  -3.101  1.00  0.00     0.418 C 
HETATM   22  F1  UNL     1      -1.406  13.045  -3.770  1.00  0.00    -0.166 F 
HETATM   23  F2  UNL     1       0.435  14.374  -3.516  1.00  0.00    -0.166 F 
HETATM   24  F3  UNL     1      -0.571  13.310  -1.746  1.00  0.00    -0.166 F 
ENDBRANCH  17  21
ENDBRANCH  10  13
ENDBRANCH   2   7
BRANCH   1  25
HETATM   25  O1  UNL     1       4.309   9.984   2.894  1.00  0.00    -0.351 OA
HETATM   26  C1  UNL     1       4.150  11.310   2.449  1.00  0.00     0.210 C 
ENDBRANCH   1  25
BRANCH   6  27
HETATM   27  N5  UNL     1       6.649   9.575   4.190  1.00  0.00    -0.306 N 
HETATM   28  C27 UNL     1       7.680  10.500   4.401  1.00  0.00     0.321 C 
HETATM   29  O3  UNL     1       8.540  10.831   3.576  1.00  0.00    -0.247 OA
HETATM   30  N6  UNL     1       7.748  11.129   5.707  1.00  0.00    -0.338 N 
ATOM     31  H6  UNL     1       7.069  10.900   6.433  1.00  0.00     0.164 HD
ATOM     32  H5  UNL     1       6.016   9.406   4.971  1.00  0.00     0.171 HD
BRANCH  30  33
HETATM   33  C28 UNL     1       8.796  12.084   5.953  1.00  0.00     0.086 C 
HETATM   34  C29 UNL     1       9.895  11.458   6.796  1.00  0.00     0.025 C 
HETATM   35  C30 UNL     1       9.068  11.859   8.018  1.00  0.00     0.004 C 
HETATM   36  C31 UNL     1       8.481  12.967   7.164  1.00  0.00     0.025 C 
ENDBRANCH  30  33
ENDBRANCH   6  27
BRANCH   4  37
HETATM   37  N3  UNL     1       7.910   6.301   0.722  1.00  0.00    -0.380 N 
HETATM   38  C15 UNL     1       7.367   5.136   0.107  1.00  0.00     0.125 C 
HETATM   39  C16 UNL     1       8.119   4.895  -1.209  1.00  0.00     0.056 C 
HETATM   40  C17 UNL     1       9.562   4.713  -0.828  1.00  0.00     0.229 C 
HETATM   41  C20 UNL     1      10.165   5.926  -0.253  1.00  0.00     0.041 C 
HETATM   42  C24 UNL     1       9.325   6.597   0.795  1.00  0.00     0.130 C 
BRANCH  40  43
HETATM   43  N4  UNL     1      10.356   3.985  -1.760  1.00  0.00     0.085 N 
HETATM   44  C18 UNL     1      11.488   3.336  -1.031  1.00  0.00     0.309 C 
HETATM   45  C19 UNL     1       9.664   2.844  -2.348  1.00  0.00     0.309 C 
ENDBRANCH  40  43
BRANCH  41  46
HETATM   46  C21 UNL     1      10.655   6.950  -1.238  1.00  0.00    -0.007 A 
HETATM   47  C22 UNL     1      12.105   7.302  -1.273  1.00  0.00     0.005 A 
HETATM   48  C23 UNL     1      11.078   8.299  -0.861  1.00  0.00     0.005 A 
ENDBRANCH  41  46
ENDBRANCH   4  37
TORSDOF 10
ENDMDL
MODEL 5
REMARK VINA RESULT: -5.712932811      1.016      1.934
REMARK  10 active torsions:
REMARK  status: ('A' for Active; 'I' for Inactive)
REMARK    1  A    between atoms: O1_2  and  C2_3 
REMARK    2  A    between atoms: C3_4  and  N1_5 
REMARK       I    between atoms: N1_5  and  C4_7 
REMARK       I    between atoms: C4_7  and  N2_9 
REMARK    3  A    between atoms: N2_9  and  C5_11 
REMARK    4  A    between atoms: C8_14  and  S1_15 
REMARK    5  A    between atoms: C10_17  and  C11_18 
REMARK    6  A    between atoms: C14_24  and  N3_25 
REMARK    7  A    between atoms: C17_28  and  N4_29 
REMARK    8  A    between atoms: C20_32  and  C21_33 
REMARK    9  A    between atoms: C26_38  and  N5_39 
REMARK       I    between atoms: N5_39  and  C27_41 
REMARK       I    between atoms: C27_41  and  N6_43 
REMARK   10  A    between atoms: N6_43  and  C28_45 
ROOT
HETATM    1  C2  UNL     1       2.996  10.885   1.251  1.00  0.00     0.122 A 
HETATM    2  C3  UNL     1       3.229  10.040   0.153  1.00  0.00     0.074 A 
HETATM    3  C13 UNL     1       2.917  10.433  -1.109  1.00  0.00     0.062 A 
HETATM    4  C14 UNL     1       2.355  11.690  -1.348  1.00  0.00     0.034 A 
HETATM    5  C25 UNL     1       2.130  12.513  -0.266  1.00  0.00     0.062 A 
HETATM    6  C26 UNL     1       2.439  12.137   1.028  1.00  0.00     0.074 A 
ENDROOT
BRANCH   2   7
HETATM    7  N1  UNL     1       3.789   8.788   0.452  1.00  0.00    -0.306 N 
HETATM    8  C4  UNL     1       5.174   8.517   0.526  1.00  0.00     0.325 C 
HETATM    9  O2  UNL     1       6.103   9.326   0.346  1.00  0.00    -0.247 OA
HETATM   10  N2  UNL     1       5.509   7.142   0.848  1.00  0.00    -0.309 N 
ATOM     11  H2  UNL     1       4.750   6.475   0.989  1.00  0.00     0.170 HD
ATOM     12  H1  UNL     1       3.148   8.015   0.629  1.00  0.00     0.171 HD
BRANCH  10  13
HETATM   13  C5  UNL     1       6.821   6.696   0.971  1.00  0.00     0.037 A 
HETATM   14  C6  UNL     1       7.663   6.824   2.037  1.00  0.00     0.031 A 
HETATM   15  C7  UNL     1       8.987   6.366   2.049  1.00  0.00     0.021 A 
HETATM   16  C8  UNL     1       9.487   5.745   0.923  1.00  0.00     0.015 A 
HETATM   17  C10 UNL     1       8.652   5.608  -0.158  1.00  0.00     0.066 A 
HETATM   18  C12 UNL     1       7.353   6.058  -0.168  1.00  0.00     0.047 A 
BRANCH  16  19
HETATM   19  S1  UNL     1      11.160   5.131   0.858  1.00  0.00    -0.134 SA
HETATM   20  C9  UNL     1      12.034   5.276   2.414  1.00  0.00     0.095 C 
ENDBRANCH  16  19
BRANCH  17  21
HETATM   21  C11 UNL     1       9.224   4.924  -1.373  1.00  0.00     0.418 C 
HETATM   22  F1  UNL     1       9.476   3.608  -1.041  1.00  0.00    -0.166 F 
HETATM   23  F2  UNL     1      10.317   5.566  -1.864  1.00  0.00    -0.166 F 
HETATM   24  F3  UNL     1       8.171   4.868  -2.296  1.00  0.00    -0.166 F 
ENDBRANCH  17  21
ENDBRANCH  10  13
ENDBRANCH   2   7
BRANCH   1  25
HETATM   25  O1  UNL     1       3.303  10.508   2.531  1.00  0.00    -0.351 OA
HETATM   26  C1  UNL     1       2.453   9.765   3.373  1.00  0.00     0.210 C 
ENDBRANCH   1  25
BRANCH   6  27
HETATM   27  N5  UNL     1       2.219  12.956   2.147  1.00  0.00    -0.306 N 
HETATM   28  C27 UNL     1       2.889  14.149   2.451  1.00  0.00     0.321 C 
HETATM   29  O3  UNL     1       3.786  14.670   1.777  1.00  0.00    -0.247 OA
HETATM   30  N6  UNL     1       2.497  14.837   3.667  1.00  0.00    -0.338 N 
ATOM     31  H6  UNL     1       1.764  14.460   4.267  1.00  0.00     0.164 HD
ATOM     32  H5  UNL     1       1.500  12.653   2.804  1.00  0.00     0.171 HD
BRANCH  30  33
HETATM   33  C28 UNL     1       3.168  16.065   4.004  1.00  0.00     0.086 C 
HETATM   34  C29 UNL     1       4.220  15.817   5.073  1.00  0.00     0.025 C 
HETATM   35  C30 UNL     1       3.099  15.998   6.097  1.00  0.00     0.004 C 
HETATM   36  C31 UNL     1       2.396  16.856   5.064  1.00  0.00     0.025 C 
ENDBRANCH  30  33
ENDBRANCH   6  27
BRANCH   4  37
HETATM   37  N3  UNL     1       2.064  12.045  -2.699  1.00  0.00    -0.380 N 
HETATM   38  C15 UNL     1       2.802  11.434  -3.753  1.00  0.00     0.125 C 
HETATM   39  C16 UNL     1       1.820  11.059  -4.870  1.00  0.00     0.056 C 
HETATM   40  C17 UNL     1       1.181  12.350  -5.302  1.00  0.00     0.229 C 
HETATM   41  C20 UNL     1       0.355  12.966  -4.251  1.00  0.00     0.041 C 
HETATM   42  C24 UNL     1       1.011  13.018  -2.901  1.00  0.00     0.130 C 
BRANCH  40  43
HETATM   43  N4  UNL     1       0.645  12.357  -6.622  1.00  0.00     0.085 N 
HETATM   44  C18 UNL     1       0.274  13.759  -6.987  1.00  0.00     0.309 C 
HETATM   45  C19 UNL     1       1.621  12.012  -7.650  1.00  0.00     0.309 C 
ENDBRANCH  40  43
BRANCH  41  46
HETATM   46  C21 UNL     1      -1.042  12.433  -4.112  1.00  0.00    -0.007 A 
HETATM   47  C22 UNL     1      -2.197  13.378  -4.150  1.00  0.00     0.005 A 
HETATM   48  C23 UNL     1      -1.863  12.615  -2.915  1.00  0.00     0.005 A 
ENDBRANCH  41  46
ENDBRANCH   4  37
TORSDOF 10
ENDMDL
