MODEL 1
REMARK VINA RESULT: -9.879872700      0.000      0.000
REMARK  3 active torsions:
REMARK  status: ('A' for Active; 'I' for Inactive)
REMARK    1  A    between atoms: C7_10  and  O3_11 
REMARK    2  A    between atoms: C7_10  and  C8_13 
REMARK    3  A    between atoms: C17_22  and  C18_23 
ROOT
HETATM    1  O1  UNL     1       1.251 -10.014 -26.634  1.00  0.00    -0.217 OA
HETATM    2  S1  UNL     1       1.360  -9.194 -25.400  1.00  0.00     0.208 S 
HETATM    3  O2  UNL     1       0.368  -9.578 -24.358  1.00  0.00    -0.217 OA
HETATM    4  C1  UNL     1       1.306  -7.469 -25.738  1.00  0.00     0.074 A 
HETATM    5  C2  UNL     1       0.517  -7.000 -26.799  1.00  0.00     0.024 A 
HETATM    6  C3  UNL     1       0.475  -5.646 -27.047  1.00  0.00     0.002 A 
HETATM    7  C4  UNL     1       1.215  -4.807 -26.236  1.00  0.00     0.001 A 
HETATM    8  C5  UNL     1       1.988  -5.250 -25.199  1.00  0.00     0.012 A 
HETATM    9  C6  UNL     1       2.042  -6.637 -24.932  1.00  0.00     0.007 A 
HETATM   10  C7  UNL     1       2.868  -7.095 -23.818  1.00  0.00     0.143 C 
HETATM   11  C14 UNL     1       3.537  -8.383 -23.987  1.00  0.00     0.007 A 
HETATM   12  C15 UNL     1       4.797  -8.604 -23.430  1.00  0.00     0.013 A 
HETATM   13  C16 UNL     1       5.422  -9.823 -23.587  1.00  0.00     0.013 A 
HETATM   14  C17 UNL     1       4.859 -10.867 -24.281  1.00  0.00    -0.025 A 
HETATM   15  C24 UNL     1       3.617 -10.627 -24.821  1.00  0.00     0.036 A 
HETATM   16  C25 UNL     1       2.971  -9.419 -24.679  1.00  0.00     0.075 A 
ENDROOT
BRANCH  10  17
HETATM   17  O3  UNL     1       1.975  -7.264 -22.728  1.00  0.00    -0.375 OA
ATOM     18  H3  UNL     1       1.590  -6.407 -22.580  1.00  0.00     0.211 HD
ENDBRANCH  10  17
BRANCH  10  19
HETATM   19  C8  UNL     1       3.824  -6.015 -23.451  1.00  0.00    -0.015 A 
HETATM   20  C9  UNL     1       3.709  -5.436 -22.210  1.00  0.00     0.011 A 
HETATM   21  C10 UNL     1       4.552  -4.433 -21.788  1.00  0.00     0.001 A 
HETATM   22  C11 UNL     1       5.542  -4.005 -22.652  1.00  0.00     0.000 A 
HETATM   23  C12 UNL     1       5.695  -4.557 -23.907  1.00  0.00     0.001 A 
HETATM   24  C13 UNL     1       4.827  -5.559 -24.286  1.00  0.00     0.011 A 
ENDBRANCH  10  19
BRANCH  14  25
HETATM   25  C18 UNL     1       5.516 -12.155 -24.448  1.00  0.00    -0.026 A 
HETATM   26  C19 UNL     1       6.874 -12.276 -24.247  1.00  0.00     0.012 A 
HETATM   27  C20 UNL     1       7.466 -13.522 -24.415  1.00  0.00     0.001 A 
HETATM   28  C21 UNL     1       6.713 -14.636 -24.781  1.00  0.00     0.000 A 
HETATM   29  C22 UNL     1       5.353 -14.513 -24.982  1.00  0.00     0.001 A 
HETATM   30  C23 UNL     1       4.779 -13.269 -24.810  1.00  0.00     0.012 A 
ENDBRANCH  14  25
TORSDOF 3
ENDMDL
MODEL 2
REMARK VINA RESULT: -9.284462812      0.865      1.326
REMARK  3 active torsions:
REMARK  status: ('A' for Active; 'I' for Inactive)
REMARK    1  A    between atoms: C7_10  and  O3_11 
REMARK    2  A    between atoms: C7_10  and  C8_13 
REMARK    3  A    between atoms: C17_22  and  C18_23 
ROOT
HETATM    1  O1  UNL     1       1.671  -9.156 -26.579  1.00  0.00    -0.217 OA
HETATM    2  S1  UNL     1       1.610  -8.423 -25.288  1.00  0.00     0.208 S 
HETATM    3  O2  UNL     1       0.547  -8.936 -24.379  1.00  0.00    -0.217 OA
HETATM    4  C1  UNL     1       1.484  -6.684 -25.512  1.00  0.00     0.074 A 
HETATM    5  C2  UNL     1       0.775  -6.182 -26.613  1.00  0.00     0.024 A 
HETATM    6  C3  UNL     1       0.675  -4.817 -26.773  1.00  0.00     0.002 A 
HETATM    7  C4  UNL     1       1.281  -4.001 -25.836  1.00  0.00     0.001 A 
HETATM    8  C5  UNL     1       1.975  -4.477 -24.759  1.00  0.00     0.012 A 
HETATM    9  C6  UNL     1       2.087  -5.875 -24.582  1.00  0.00     0.007 A 
HETATM   10  C7  UNL     1       2.827  -6.369 -23.423  1.00  0.00     0.143 C 
HETATM   11  C14 UNL     1       3.586  -7.602 -23.610  1.00  0.00     0.007 A 
HETATM   12  C15 UNL     1       4.797  -7.797 -22.945  1.00  0.00     0.013 A 
HETATM   13  C16 UNL     1       5.507  -8.965 -23.121  1.00  0.00     0.013 A 
HETATM   14  C17 UNL     1       5.079  -9.984 -23.937  1.00  0.00    -0.025 A 
HETATM   15  C24 UNL     1       3.883  -9.772 -24.582  1.00  0.00     0.036 A 
HETATM   16  C25 UNL     1       3.154  -8.614 -24.425  1.00  0.00     0.075 A 
ENDROOT
BRANCH  10  17
HETATM   17  O3  UNL     1       1.845  -6.664 -22.443  1.00  0.00    -0.375 OA
ATOM     18  H3  UNL     1       2.066  -6.126 -21.692  1.00  0.00     0.211 HD
ENDBRANCH  10  17
BRANCH  10  19
HETATM   19  C8  UNL     1       3.676  -5.269 -22.890  1.00  0.00    -0.015 A 
HETATM   20  C9  UNL     1       3.383  -4.763 -21.646  1.00  0.00     0.011 A 
HETATM   21  C10 UNL     1       4.117  -3.749 -21.075  1.00  0.00     0.001 A 
HETATM   22  C11 UNL     1       5.181  -3.230 -21.788  1.00  0.00     0.000 A 
HETATM   23  C12 UNL     1       5.512  -3.707 -23.040  1.00  0.00     0.001 A 
HETATM   24  C13 UNL     1       4.749  -4.724 -23.571  1.00  0.00     0.011 A 
ENDBRANCH  10  19
BRANCH  14  25
HETATM   25  C18 UNL     1       5.826 -11.219 -24.123  1.00  0.00    -0.026 A 
HETATM   26  C19 UNL     1       5.170 -12.393 -24.424  1.00  0.00     0.012 A 
HETATM   27  C20 UNL     1       5.918 -13.552 -24.594  1.00  0.00     0.001 A 
HETATM   28  C21 UNL     1       7.306 -13.542 -24.465  1.00  0.00     0.000 A 
HETATM   29  C22 UNL     1       7.962 -12.365 -24.164  1.00  0.00     0.001 A 
HETATM   30  C23 UNL     1       7.205 -11.222 -23.998  1.00  0.00     0.012 A 
ENDBRANCH  14  25
TORSDOF 3
ENDMDL
MODEL 3
REMARK VINA RESULT: -8.733222912      2.587      7.376
REMARK  3 active torsions:
REMARK  status: ('A' for Active; 'I' for Inactive)
REMARK    1  A    between atoms: C7_10  and  O3_11 
REMARK    2  A    between atoms: C7_10  and  C8_13 
REMARK    3  A    between atoms: C17_22  and  C18_23 
ROOT
HETATM    1  O1  UNL     1       8.199  -9.387 -23.752  1.00  0.00    -0.217 OA
HETATM    2  S1  UNL     1       6.922  -9.821 -23.128  1.00  0.00     0.208 S 
HETATM    3  O2  UNL     1       7.012  -9.944 -21.647  1.00  0.00    -0.217 OA
HETATM    4  C1  UNL     1       6.285 -11.286 -23.861  1.00  0.00     0.074 A 
HETATM    5  C2  UNL     1       7.175 -12.260 -24.337  1.00  0.00     0.024 A 
HETATM    6  C3  UNL     1       6.664 -13.409 -24.900  1.00  0.00     0.002 A 
HETATM    7  C4  UNL     1       5.291 -13.549 -24.971  1.00  0.00     0.001 A 
HETATM    8  C5  UNL     1       4.413 -12.608 -24.511  1.00  0.00     0.012 A 
HETATM    9  C6  UNL     1       4.922 -11.424 -23.931  1.00  0.00     0.007 A 
HETATM   10  C7  UNL     1       3.971 -10.430 -23.440  1.00  0.00     0.143 C 
HETATM   11  C14 UNL     1       4.360  -9.029 -23.579  1.00  0.00     0.007 A 
HETATM   12  C15 UNL     1       3.400  -8.049 -23.833  1.00  0.00     0.013 A 
HETATM   13  C16 UNL     1       3.771  -6.728 -23.957  1.00  0.00     0.013 A 
HETATM   14  C17 UNL     1       5.074  -6.303 -23.841  1.00  0.00    -0.025 A 
HETATM   15  C24 UNL     1       6.003  -7.286 -23.591  1.00  0.00     0.036 A 
HETATM   16  C25 UNL     1       5.659  -8.613 -23.463  1.00  0.00     0.075 A 
ENDROOT
BRANCH  10  17
HETATM   17  O3  UNL     1       3.863 -10.665 -22.045  1.00  0.00    -0.375 OA
ATOM     18  H3  UNL     1       3.056 -11.154 -21.932  1.00  0.00     0.211 HD
ENDBRANCH  10  17
BRANCH  10  19
HETATM   19  C8  UNL     1       2.637 -10.699 -24.044  1.00  0.00    -0.015 A 
HETATM   20  C9  UNL     1       1.898 -11.749 -23.552  1.00  0.00     0.011 A 
HETATM   21  C10 UNL     1       0.655 -12.067 -24.049  1.00  0.00     0.001 A 
HETATM   22  C11 UNL     1       0.146 -11.297 -25.077  1.00  0.00     0.000 A 
HETATM   23  C12 UNL     1       0.851 -10.234 -25.602  1.00  0.00     0.001 A 
HETATM   24  C13 UNL     1       2.093  -9.952 -25.072  1.00  0.00     0.011 A 
ENDBRANCH  10  19
BRANCH  14  25
HETATM   25  C18 UNL     1       5.468  -4.909 -23.972  1.00  0.00    -0.026 A 
HETATM   26  C19 UNL     1       5.838  -4.182 -22.861  1.00  0.00     0.012 A 
HETATM   27  C20 UNL     1       6.208  -2.852 -23.025  1.00  0.00     0.001 A 
HETATM   28  C21 UNL     1       6.210  -2.253 -24.283  1.00  0.00     0.000 A 
HETATM   29  C22 UNL     1       5.840  -2.982 -25.395  1.00  0.00     0.001 A 
HETATM   30  C23 UNL     1       5.475  -4.302 -25.217  1.00  0.00     0.012 A 
ENDBRANCH  14  25
TORSDOF 3
ENDMDL
MODEL 4
REMARK VINA RESULT: -8.667871806      1.703      2.576
REMARK  3 active torsions:
REMARK  status: ('A' for Active; 'I' for Inactive)
REMARK    1  A    between atoms: C7_10  and  O3_11 
REMARK    2  A    between atoms: C7_10  and  C8_13 
REMARK    3  A    between atoms: C17_22  and  C18_23 
ROOT
HETATM    1  O1  UNL     1       1.453  -8.299 -25.044  1.00  0.00    -0.217 OA
HETATM    2  S1  UNL     1       1.864  -7.151 -24.195  1.00  0.00     0.208 S 
HETATM    3  O2  UNL     1       1.276  -7.201 -22.828  1.00  0.00    -0.217 OA
HETATM    4  C1  UNL     1       1.560  -5.604 -24.973  1.00  0.00     0.074 A 
HETATM    5  C2  UNL     1       0.448  -5.464 -25.815  1.00  0.00     0.024 A 
HETATM    6  C3  UNL     1       0.214  -4.243 -26.411  1.00  0.00     0.002 A 
HETATM    7  C4  UNL     1       1.093  -3.208 -26.151  1.00  0.00     0.001 A 
HETATM    8  C5  UNL     1       2.181  -3.331 -25.333  1.00  0.00     0.012 A 
HETATM    9  C6  UNL     1       2.433  -4.577 -24.715  1.00  0.00     0.007 A 
HETATM   10  C7  UNL     1       3.597  -4.692 -23.839  1.00  0.00     0.143 C 
HETATM   11  C14 UNL     1       4.290  -5.977 -23.839  1.00  0.00     0.007 A 
HETATM   12  C15 UNL     1       5.675  -6.035 -23.673  1.00  0.00     0.013 A 
HETATM   13  C16 UNL     1       6.324  -7.251 -23.669  1.00  0.00     0.013 A 
HETATM   14  C17 UNL     1       5.668  -8.449 -23.821  1.00  0.00    -0.025 A 
HETATM   15  C24 UNL     1       4.304  -8.368 -23.982  1.00  0.00     0.036 A 
HETATM   16  C25 UNL     1       3.631  -7.167 -23.992  1.00  0.00     0.075 A 
ENDROOT
BRANCH  10  17
HETATM   17  O3  UNL     1       3.099  -4.521 -22.521  1.00  0.00    -0.375 OA
ATOM     18  H3  UNL     1       3.638  -3.842 -22.133  1.00  0.00     0.211 HD
ENDBRANCH  10  17
BRANCH  10  19
HETATM   19  C8  UNL     1       4.523  -3.560 -24.118  1.00  0.00    -0.015 A 
HETATM   20  C9  UNL     1       4.747  -2.639 -23.123  1.00  0.00     0.011 A 
HETATM   21  C10 UNL     1       5.589  -1.564 -23.293  1.00  0.00     0.001 A 
HETATM   22  C11 UNL     1       6.223  -1.418 -24.512  1.00  0.00     0.000 A 
HETATM   23  C12 UNL     1       6.030  -2.318 -25.540  1.00  0.00     0.001 A 
HETATM   24  C13 UNL     1       5.177  -3.380 -25.323  1.00  0.00     0.011 A 
ENDBRANCH  10  19
BRANCH  14  25
HETATM   25  C18 UNL     1       6.351  -9.734 -23.815  1.00  0.00    -0.026 A 
HETATM   26  C19 UNL     1       7.714  -9.798 -23.628  1.00  0.00     0.012 A 
HETATM   27  C20 UNL     1       8.331 -11.043 -23.629  1.00  0.00     0.001 A 
HETATM   28  C21 UNL     1       7.597 -12.213 -23.814  1.00  0.00     0.000 A 
HETATM   29  C22 UNL     1       6.231 -12.148 -24.002  1.00  0.00     0.001 A 
HETATM   30  C23 UNL     1       5.632 -10.903 -23.998  1.00  0.00     0.012 A 
ENDBRANCH  14  25
TORSDOF 3
ENDMDL
MODEL 5
REMARK VINA RESULT: -8.590027289      3.134      6.825
REMARK  3 active torsions:
REMARK  status: ('A' for Active; 'I' for Inactive)
REMARK    1  A    between atoms: C7_10  and  O3_11 
REMARK    2  A    between atoms: C7_10  and  C8_13 
REMARK    3  A    between atoms: C17_22  and  C18_23 
ROOT
HETATM    1  O1  UNL     1       2.856  -3.395 -26.242  1.00  0.00    -0.217 OA
HETATM    2  S1  UNL     1       2.134  -4.552 -25.653  1.00  0.00     0.208 S 
HETATM    3  O2  UNL     1       0.703  -4.257 -25.363  1.00  0.00    -0.217 OA
HETATM    4  C1  UNL     1       2.957  -5.205 -24.243  1.00  0.00     0.074 A 
HETATM    5  C2  UNL     1       3.660  -4.337 -23.394  1.00  0.00     0.024 A 
HETATM    6  C3  UNL     1       4.293  -4.859 -22.287  1.00  0.00     0.002 A 
HETATM    7  C4  UNL     1       4.206  -6.220 -22.063  1.00  0.00     0.001 A 
HETATM    8  C5  UNL     1       3.524  -7.076 -22.882  1.00  0.00     0.012 A 
HETATM    9  C6  UNL     1       2.871  -6.556 -24.022  1.00  0.00     0.007 A 
HETATM   10  C7  UNL     1       2.142  -7.483 -24.885  1.00  0.00     0.143 C 
HETATM   11  C14 UNL     1       2.154  -7.189 -26.315  1.00  0.00     0.007 A 
HETATM   12  C15 UNL     1       2.159  -8.224 -27.251  1.00  0.00     0.013 A 
HETATM   13  C16 UNL     1       2.164  -7.942 -28.600  1.00  0.00     0.013 A 
HETATM   14  C17 UNL     1       2.163  -6.660 -29.095  1.00  0.00    -0.025 A 
HETATM   15  C24 UNL     1       2.157  -5.655 -28.155  1.00  0.00     0.036 A 
HETATM   16  C25 UNL     1       2.152  -5.910 -26.802  1.00  0.00     0.075 A 
ENDROOT
BRANCH  10  17
HETATM   17  O3  UNL     1       0.785  -7.390 -24.482  1.00  0.00    -0.375 OA
ATOM     18  H3  UNL     1       0.361  -8.161 -24.840  1.00  0.00     0.211 HD
ENDBRANCH  10  17
BRANCH  10  19
HETATM   19  C8  UNL     1       2.601  -8.870 -24.598  1.00  0.00    -0.015 A 
HETATM   20  C9  UNL     1       1.653  -9.829 -24.333  1.00  0.00     0.011 A 
HETATM   21  C10 UNL     1       1.987 -11.135 -24.061  1.00  0.00     0.001 A 
HETATM   22  C11 UNL     1       3.326 -11.480 -24.056  1.00  0.00     0.000 A 
HETATM   23  C12 UNL     1       4.312 -10.551 -24.316  1.00  0.00     0.001 A 
HETATM   24  C13 UNL     1       3.929  -9.254 -24.584  1.00  0.00     0.011 A 
ENDBRANCH  10  19
BRANCH  14  25
HETATM   25  C18 UNL     1       2.167  -6.359 -30.519  1.00  0.00    -0.026 A 
HETATM   26  C19 UNL     1       3.261  -5.758 -31.102  1.00  0.00     0.012 A 
HETATM   27  C20 UNL     1       3.227  -5.486 -32.464  1.00  0.00     0.001 A 
HETATM   28  C21 UNL     1       2.116  -5.811 -33.239  1.00  0.00     0.000 A 
HETATM   29  C22 UNL     1       1.020  -6.414 -32.654  1.00  0.00     0.001 A 
HETATM   30  C23 UNL     1       1.068  -6.678 -31.299  1.00  0.00     0.012 A 
ENDBRANCH  14  25
TORSDOF 3
ENDMDL
