MODEL 1
REMARK VINA RESULT: -9.260012864      0.000      0.000
REMARK  4 active torsions:
REMARK  status: ('A' for Active; 'I' for Inactive)
REMARK    1  A    between atoms: C2_2  and  O2_4 
REMARK    2  A    between atoms: O2_4  and  C3_5 
REMARK    3  A    between atoms: C4_6  and  C5_7 
REMARK    4  A    between atoms: C15_17  and  O3_18 
ROOT
HETATM    1  C3  UNL     1       3.704 -11.837 -23.752  1.00  0.00     0.166 C 
HETATM    2  C4  UNL     1       4.996 -11.880 -24.495  1.00  0.00    -0.050 C 
HETATM    3  C8  UNL     1       5.594 -10.716 -24.298  1.00  0.00    -0.016 C 
HETATM    4  C9  UNL     1       4.852  -9.791 -23.461  1.00  0.00     0.016 C 
HETATM    5  C10 UNL     1       4.620  -8.426 -24.023  1.00  0.00     0.014 C 
HETATM    6  C11 UNL     1       3.220  -8.176 -23.602  1.00  0.00    -0.008 C 
HETATM    7  C12 UNL     1       2.462  -7.186 -24.411  1.00  0.00     0.011 C 
HETATM    8  C13 UNL     1       1.282  -7.964 -24.853  1.00  0.00     0.002 C 
HETATM    9  C14 UNL     1       0.485  -7.464 -25.961  1.00  0.00     0.028 C 
HETATM   10  C15 UNL     1       0.673  -6.024 -26.384  1.00  0.00     0.128 C 
HETATM   11  C16 UNL     1       0.731  -6.484 -27.810  1.00  0.00     0.019 C 
HETATM   12  C17 UNL     1       1.837  -5.928 -28.649  1.00  0.00     0.013 C 
HETATM   13  C18 UNL     1       0.872  -7.888 -27.334  1.00  0.00    -0.032 C 
HETATM   14  C19 UNL     1      -0.130  -8.786 -28.065  1.00  0.00     0.016 C 
HETATM   15  C20 UNL     1       2.215  -8.504 -27.350  1.00  0.00     0.011 C 
HETATM   16  C21 UNL     1       2.376  -9.619 -26.324  1.00  0.00     0.011 C 
HETATM   17  C22 UNL     1       1.792  -9.419 -25.020  1.00  0.00    -0.035 C 
HETATM   18  C23 UNL     1       0.489 -10.240 -24.914  1.00  0.00     0.016 C 
HETATM   19  C24 UNL     1       2.502  -9.539 -23.763  1.00  0.00     0.006 C 
HETATM   20  C25 UNL     1       3.479 -10.448 -23.299  1.00  0.00     0.032 C 
ENDROOT
BRANCH   1  21
HETATM   21  O2  UNL     1       2.663 -12.475 -24.383  1.00  0.00    -0.311 OA
BRANCH  21  22
HETATM   22  C2  UNL     1       1.831 -13.379 -23.795  1.00  0.00     0.255 C 
HETATM   23  C1  UNL     1       0.955 -13.033 -22.668  1.00  0.00     0.126 C 
HETATM   24  O1  UNL     1       1.846 -14.527 -24.258  1.00  0.00    -0.266 OA
ENDBRANCH  21  22
ENDBRANCH   1  21
BRANCH   2  25
HETATM   25  C5  UNL     1       5.562 -12.999 -25.337  1.00  0.00     0.009 C 
HETATM   26  C6  UNL     1       5.240 -14.349 -24.741  1.00  0.00     0.014 C 
HETATM   27  C7  UNL     1       7.063 -12.875 -25.417  1.00  0.00     0.014 C 
ENDBRANCH   2  25
BRANCH  10  28
HETATM   28  O3  UNL     1      -0.407  -5.193 -26.073  1.00  0.00    -0.395 OA
ATOM     29  H3  UNL     1      -1.246  -5.518 -26.380  1.00  0.00     0.210 HD
ENDBRANCH  10  28
TORSDOF 4
ENDMDL
MODEL 2
REMARK VINA RESULT: -7.512528099      1.708      6.902
REMARK  4 active torsions:
REMARK  status: ('A' for Active; 'I' for Inactive)
REMARK    1  A    between atoms: C2_2  and  O2_4 
REMARK    2  A    between atoms: O2_4  and  C3_5 
REMARK    3  A    between atoms: C4_6  and  C5_7 
REMARK    4  A    between atoms: C15_17  and  O3_18 
ROOT
HETATM    1  C3  UNL     1       1.417  -5.565 -26.860  1.00  0.00     0.166 C 
HETATM    2  C4  UNL     1       2.295  -5.717 -28.056  1.00  0.00    -0.050 C 
HETATM    3  C8  UNL     1       1.855  -6.769 -28.727  1.00  0.00    -0.016 C 
HETATM    4  C9  UNL     1       0.710  -7.430 -28.129  1.00  0.00     0.016 C 
HETATM    5  C10 UNL     1       0.837  -8.901 -27.899  1.00  0.00     0.014 C 
HETATM    6  C11 UNL     1       0.195  -9.041 -26.570  1.00  0.00    -0.008 C 
HETATM    7  C12 UNL     1       0.598 -10.230 -25.772  1.00  0.00     0.011 C 
HETATM    8  C13 UNL     1       1.093  -9.624 -24.515  1.00  0.00     0.002 C 
HETATM    9  C14 UNL     1       1.911 -10.427 -23.623  1.00  0.00     0.028 C 
HETATM   10  C15 UNL     1       1.937 -11.925 -23.829  1.00  0.00     0.128 C 
HETATM   11  C16 UNL     1       3.430 -11.886 -23.703  1.00  0.00     0.019 C 
HETATM   12  C17 UNL     1       4.210 -12.640 -24.732  1.00  0.00     0.013 C 
HETATM   13  C18 UNL     1       3.385 -10.403 -23.830  1.00  0.00    -0.032 C 
HETATM   14  C19 UNL     1       4.209  -9.761 -22.711  1.00  0.00     0.016 C 
HETATM   15  C20 UNL     1       3.735  -9.798 -25.132  1.00  0.00     0.011 C 
HETATM   16  C21 UNL     1       3.088  -8.437 -25.355  1.00  0.00     0.011 C 
HETATM   17  C22 UNL     1       1.719  -8.269 -24.933  1.00  0.00    -0.035 C 
HETATM   18  C23 UNL     1       1.688  -7.469 -23.614  1.00  0.00     0.016 C 
HETATM   19  C24 UNL     1       0.641  -7.790 -25.774  1.00  0.00     0.006 C 
HETATM   20  C25 UNL     1       0.571  -6.773 -26.753  1.00  0.00     0.032 C 
ENDROOT
BRANCH   1  21
HETATM   21  O2  UNL     1       2.069  -5.145 -25.725  1.00  0.00    -0.311 OA
BRANCH  21  22
HETATM   22  C2  UNL     1       1.725  -4.053 -24.988  1.00  0.00     0.255 C 
HETATM   23  C1  UNL     1       0.717  -3.082 -25.433  1.00  0.00     0.126 C 
HETATM   24  O1  UNL     1       2.310  -3.910 -23.906  1.00  0.00    -0.266 OA
ENDBRANCH  21  22
ENDBRANCH   1  21
BRANCH   2  25
HETATM   25  C5  UNL     1       3.477  -4.873 -28.470  1.00  0.00     0.009 C 
HETATM   26  C6  UNL     1       3.222  -3.407 -28.209  1.00  0.00     0.014 C 
HETATM   27  C7  UNL     1       3.739  -5.041 -29.946  1.00  0.00     0.014 C 
ENDBRANCH   2  25
BRANCH  10  28
HETATM   28  O3  UNL     1       1.277 -12.649 -22.831  1.00  0.00    -0.395 OA
ATOM     29  H3  UNL     1       1.158 -12.169 -22.020  1.00  0.00     0.210 HD
ENDBRANCH  10  28
TORSDOF 4
ENDMDL
MODEL 3
REMARK VINA RESULT: -7.498692207      2.075      3.393
REMARK  4 active torsions:
REMARK  status: ('A' for Active; 'I' for Inactive)
REMARK    1  A    between atoms: C2_2  and  O2_4 
REMARK    2  A    between atoms: O2_4  and  C3_5 
REMARK    3  A    between atoms: C4_6  and  C5_7 
REMARK    4  A    between atoms: C15_17  and  O3_18 
ROOT
HETATM    1  C3  UNL     1       6.941 -12.469 -23.957  1.00  0.00     0.166 C 
HETATM    2  C4  UNL     1       7.775 -12.077 -25.129  1.00  0.00    -0.050 C 
HETATM    3  C8  UNL     1       8.243 -10.864 -24.883  1.00  0.00    -0.016 C 
HETATM    4  C9  UNL     1       7.824 -10.304 -23.610  1.00  0.00     0.016 C 
HETATM    5  C10 UNL     1       7.195  -8.949 -23.656  1.00  0.00     0.014 C 
HETATM    6  C11 UNL     1       6.098  -9.108 -22.671  1.00  0.00    -0.008 C 
HETATM    7  C12 UNL     1       4.941  -8.187 -22.827  1.00  0.00     0.011 C 
HETATM    8  C13 UNL     1       3.800  -9.120 -22.960  1.00  0.00     0.002 C 
HETATM    9  C14 UNL     1       2.543  -8.621 -23.493  1.00  0.00     0.028 C 
HETATM   10  C15 UNL     1       2.339  -7.124 -23.561  1.00  0.00     0.128 C 
HETATM   11  C16 UNL     1       1.831  -7.288 -24.962  1.00  0.00     0.019 C 
HETATM   12  C17 UNL     1       2.379  -6.350 -25.988  1.00  0.00     0.013 C 
HETATM   13  C18 UNL     1       2.346  -8.685 -24.967  1.00  0.00    -0.032 C 
HETATM   14  C19 UNL     1       1.253  -9.640 -25.456  1.00  0.00     0.016 C 
HETATM   15  C20 UNL     1       3.616  -8.963 -25.669  1.00  0.00     0.011 C 
HETATM   16  C21 UNL     1       4.351 -10.181 -25.121  1.00  0.00     0.011 C 
HETATM   17  C22 UNL     1       4.371 -10.363 -23.690  1.00  0.00    -0.035 C 
HETATM   18  C23 UNL     1       3.363 -11.466 -23.303  1.00  0.00     0.016 C 
HETATM   19  C24 UNL     1       5.565 -10.546 -22.891  1.00  0.00     0.006 C 
HETATM   20  C25 UNL     1       6.756 -11.276 -23.103  1.00  0.00     0.032 C 
ENDROOT
BRANCH   1  21
HETATM   21  O2  UNL     1       5.822 -13.202 -24.274  1.00  0.00    -0.311 OA
BRANCH  21  22
HETATM   22  C2  UNL     1       5.835 -14.469 -24.771  1.00  0.00     0.255 C 
HETATM   23  C1  UNL     1       4.717 -15.028 -25.544  1.00  0.00     0.126 C 
HETATM   24  O1  UNL     1       6.846 -15.144 -24.540  1.00  0.00    -0.266 OA
ENDBRANCH  21  22
ENDBRANCH   1  21
BRANCH   2  25
HETATM   25  C5  UNL     1       8.060 -12.863 -26.387  1.00  0.00     0.009 C 
HETATM   26  C6  UNL     1       9.346 -12.409 -27.038  1.00  0.00     0.014 C 
HETATM   27  C7  UNL     1       6.944 -12.665 -27.382  1.00  0.00     0.014 C 
ENDBRANCH   2  25
BRANCH  10  28
HETATM   28  O3  UNL     1       1.403  -6.635 -22.645  1.00  0.00    -0.395 OA
ATOM     29  H3  UNL     1       0.650  -7.201 -22.521  1.00  0.00     0.210 HD
ENDBRANCH  10  28
TORSDOF 4
ENDMDL
MODEL 4
REMARK VINA RESULT: -7.130926271      2.918      7.336
REMARK  4 active torsions:
REMARK  status: ('A' for Active; 'I' for Inactive)
REMARK    1  A    between atoms: C2_2  and  O2_4 
REMARK    2  A    between atoms: O2_4  and  C3_5 
REMARK    3  A    between atoms: C4_6  and  C5_7 
REMARK    4  A    between atoms: C15_17  and  O3_18 
ROOT
HETATM    1  C3  UNL     1       3.344  -4.287 -29.044  1.00  0.00     0.166 C 
HETATM    2  C4  UNL     1       4.748  -4.761 -29.212  1.00  0.00    -0.050 C 
HETATM    3  C8  UNL     1       4.689  -5.950 -29.791  1.00  0.00    -0.016 C 
HETATM    4  C9  UNL     1       3.343  -6.415 -30.074  1.00  0.00     0.016 C 
HETATM    5  C10 UNL     1       2.988  -7.773 -29.561  1.00  0.00     0.014 C 
HETATM    6  C11 UNL     1       1.603  -7.547 -29.083  1.00  0.00    -0.008 C 
HETATM    7  C12 UNL     1       1.111  -8.484 -28.039  1.00  0.00     0.011 C 
HETATM    8  C13 UNL     1       0.723  -7.570 -26.941  1.00  0.00     0.002 C 
HETATM    9  C14 UNL     1       0.536  -8.115 -25.606  1.00  0.00     0.028 C 
HETATM   10  C15 UNL     1       0.401  -9.614 -25.458  1.00  0.00     0.128 C 
HETATM   11  C16 UNL     1       1.377  -9.559 -24.322  1.00  0.00     0.019 C 
HETATM   12  C17 UNL     1       2.479 -10.568 -24.335  1.00  0.00     0.013 C 
HETATM   13  C18 UNL     1       1.722  -8.163 -24.709  1.00  0.00    -0.032 C 
HETATM   14  C19 UNL     1       1.668  -7.254 -23.477  1.00  0.00     0.016 C 
HETATM   15  C20 UNL     1       2.974  -7.931 -25.458  1.00  0.00     0.011 C 
HETATM   16  C21 UNL     1       2.936  -6.671 -26.315  1.00  0.00     0.011 C 
HETATM   17  C22 UNL     1       1.715  -6.382 -27.027  1.00  0.00    -0.035 C 
HETATM   18  C23 UNL     1       0.952  -5.260 -26.293  1.00  0.00     0.016 C 
HETATM   19  C24 UNL     1       1.621  -6.133 -28.451  1.00  0.00     0.006 C 
HETATM   20  C25 UNL     1       2.437  -5.413 -29.353  1.00  0.00     0.032 C 
ENDROOT
BRANCH   1  21
HETATM   21  O2  UNL     1       3.114  -3.587 -27.885  1.00  0.00    -0.311 OA
BRANCH  21  22
HETATM   22  C2  UNL     1       2.886  -2.246 -27.815  1.00  0.00     0.255 C 
HETATM   23  C1  UNL     1       1.897  -1.657 -26.901  1.00  0.00     0.126 C 
HETATM   24  O1  UNL     1       3.559  -1.531 -28.569  1.00  0.00    -0.266 OA
ENDBRANCH  21  22
ENDBRANCH   1  21
BRANCH   2  25
HETATM   25  C5  UNL     1       6.030  -4.071 -28.810  1.00  0.00     0.009 C 
HETATM   26  C6  UNL     1       7.237  -4.784 -29.372  1.00  0.00     0.014 C 
HETATM   27  C7  UNL     1       6.159  -4.059 -27.307  1.00  0.00     0.014 C 
ENDBRANCH   2  25
BRANCH  10  28
HETATM   28  O3  UNL     1      -0.886 -10.039 -25.114  1.00  0.00    -0.395 OA
ATOM     29  H3  UNL     1      -1.555  -9.795 -25.742  1.00  0.00     0.210 HD
ENDBRANCH  10  28
TORSDOF 4
ENDMDL
MODEL 5
REMARK VINA RESULT: -6.712341212      2.798      6.897
REMARK  4 active torsions:
REMARK  status: ('A' for Active; 'I' for Inactive)
REMARK    1  A    between atoms: C2_2  and  O2_4 
REMARK    2  A    between atoms: O2_4  and  C3_5 
REMARK    3  A    between atoms: C4_6  and  C5_7 
REMARK    4  A    between atoms: C15_17  and  O3_18 
ROOT
HETATM    1  C3  UNL     1       3.162  -6.342 -23.106  1.00  0.00     0.166 C 
HETATM    2  C4  UNL     1       3.712  -5.536 -24.234  1.00  0.00    -0.050 C 
HETATM    3  C8  UNL     1       3.262  -6.078 -25.354  1.00  0.00    -0.016 C 
HETATM    4  C9  UNL     1       2.411  -7.239 -25.161  1.00  0.00     0.016 C 
HETATM    5  C10 UNL     1       2.792  -8.473 -25.912  1.00  0.00     0.014 C 
HETATM    6  C11 UNL     1       2.541  -9.519 -24.891  1.00  0.00    -0.008 C 
HETATM    7  C12 UNL     1       3.294 -10.790 -25.059  1.00  0.00     0.011 C 
HETATM    8  C13 UNL     1       4.010 -10.916 -23.770  1.00  0.00     0.002 C 
HETATM    9  C14 UNL     1       5.133 -11.834 -23.676  1.00  0.00     0.028 C 
HETATM   10  C15 UNL     1       5.307 -12.864 -24.769  1.00  0.00     0.128 C 
HETATM   11  C16 UNL     1       6.763 -12.510 -24.828  1.00  0.00     0.019 C 
HETATM   12  C17 UNL     1       7.344 -12.292 -26.188  1.00  0.00     0.013 C 
HETATM   13  C18 UNL     1       6.485 -11.303 -24.001  1.00  0.00    -0.032 C 
HETATM   14  C19 UNL     1       7.476 -11.234 -22.836  1.00  0.00     0.016 C 
HETATM   15  C20 UNL     1       6.401  -9.992 -24.677  1.00  0.00     0.011 C 
HETATM   16  C21 UNL     1       5.539  -8.984 -23.926  1.00  0.00     0.011 C 
HETATM   17  C22 UNL     1       4.316  -9.462 -23.328  1.00  0.00    -0.035 C 
HETATM   18  C23 UNL     1       4.519  -9.614 -21.806  1.00  0.00     0.016 C 
HETATM   19  C24 UNL     1       3.003  -8.893 -23.552  1.00  0.00     0.006 C 
HETATM   20  C25 UNL     1       2.544  -7.561 -23.671  1.00  0.00     0.032 C 
ENDROOT
BRANCH   1  21
HETATM   21  O2  UNL     1       4.022  -6.500 -22.046  1.00  0.00    -0.311 OA
BRANCH  21  22
HETATM   22  C2  UNL     1       3.882  -5.898 -20.833  1.00  0.00     0.255 C 
HETATM   23  C1  UNL     1       3.624  -4.458 -20.688  1.00  0.00     0.126 C 
HETATM   24  O1  UNL     1       3.982  -6.628 -19.838  1.00  0.00    -0.266 OA
ENDBRANCH  21  22
ENDBRANCH   1  21
BRANCH   2  25
HETATM   25  C5  UNL     1       4.621  -4.331 -24.174  1.00  0.00     0.009 C 
HETATM   26  C6  UNL     1       4.296  -3.344 -25.270  1.00  0.00     0.014 C 
HETATM   27  C7  UNL     1       6.057  -4.760 -24.348  1.00  0.00     0.014 C 
ENDBRANCH   2  25
BRANCH  10  28
HETATM   28  O3  UNL     1       5.033 -14.175 -24.365  1.00  0.00    -0.395 OA
ATOM     29  H3  UNL     1       5.346 -14.839 -24.967  1.00  0.00     0.210 HD
ENDBRANCH  10  28
TORSDOF 4
ENDMDL
