MODEL 1
REMARK VINA RESULT: -6.837088497      0.000      0.000
REMARK  5 active torsions:
REMARK  status: ('A' for Active; 'I' for Inactive)
REMARK    1  A    between atoms: C2_2  and  C4_4 
REMARK    2  A    between atoms: C4_4  and  O1_5 
REMARK    3  A    between atoms: C7_12  and  O5_14 
REMARK    4  A    between atoms: C9_16  and  O6_17 
REMARK    5  A    between atoms: O6_17  and  C10_18 
ROOT
HETATM    1  C4  UNL     1     -20.278  -5.996  13.203  1.00  0.00     0.225 C 
HETATM    2  O2  UNL     1     -20.335  -6.078  11.791  1.00  0.00    -0.194 OA
HETATM    3  O3  UNL     1     -20.613  -4.845  11.349  1.00  0.00    -0.223 OA
HETATM    4  C5  UNL     1     -19.623  -4.139  12.069  1.00  0.00     0.131 C 
HETATM    5  C6  UNL     1     -18.319  -4.699  11.621  1.00  0.00     0.213 C 
HETATM    6  O4  UNL     1     -18.405  -4.697  10.207  1.00  0.00    -0.350 OA
HETATM    7  C7  UNL     1     -18.161  -3.477   9.638  1.00  0.00     0.185 C 
HETATM    8  C8  UNL     1     -17.750  -3.833   8.187  1.00  0.00     0.081 C 
HETATM    9  C9  UNL     1     -19.309  -2.562   9.478  1.00  0.00     0.194 C 
HETATM   10  C12 UNL     1     -20.172  -2.287  10.650  1.00  0.00     0.046 C 
HETATM   11  C13 UNL     1     -19.603  -2.689  11.959  1.00  0.00     0.032 C 
HETATM   12  C14 UNL     1     -20.238  -2.036  13.155  1.00  0.00    -0.011 C 
HETATM   13  C15 UNL     1     -19.947  -0.531  13.013  1.00  0.00     0.010 C 
HETATM   14  C16 UNL     1     -19.496  -2.467  14.404  1.00  0.00     0.005 C 
HETATM   15  C17 UNL     1     -19.286  -3.989  14.460  1.00  0.00     0.014 C 
HETATM   16  C18 UNL     1     -20.109  -4.560  13.427  1.00  0.00     0.096 C 
ENDROOT
BRANCH   1  17
HETATM   17  C2  UNL     1     -21.622  -6.471  13.698  1.00  0.00    -0.029 C 
HETATM   18  C1  UNL     1     -22.665  -5.677  13.757  1.00  0.00     0.019 C 
HETATM   19  C3  UNL     1     -21.764  -7.887  14.134  1.00  0.00     0.048 C 
ENDBRANCH   1  17
BRANCH   1  20
HETATM   20  O1  UNL     1     -19.340  -6.828  13.748  1.00  0.00    -0.359 OA
ATOM     21  H1  UNL     1     -18.493  -6.525  13.443  1.00  0.00     0.213 HD
ENDBRANCH   1  20
BRANCH   7  22
HETATM   22  O5  UNL     1     -17.012  -2.895  10.163  1.00  0.00    -0.363 OA
ATOM     23  H5  UNL     1     -17.074  -1.947  10.164  1.00  0.00     0.213 HD
ENDBRANCH   7  22
BRANCH   9  24
HETATM   24  O6  UNL     1     -18.848  -1.382   8.832  1.00  0.00    -0.311 OA
BRANCH  24  25
HETATM   25  C10 UNL     1     -18.722  -0.152   9.409  1.00  0.00     0.255 C 
HETATM   26  C11 UNL     1     -19.565   1.025   9.052  1.00  0.00     0.126 C 
HETATM   27  O7  UNL     1     -17.846  -0.005  10.289  1.00  0.00    -0.266 OA
ENDBRANCH  24  25
ENDBRANCH   9  24
TORSDOF 5
ENDMDL
MODEL 2
REMARK VINA RESULT: -6.782032237      2.248      5.236
REMARK  5 active torsions:
REMARK  status: ('A' for Active; 'I' for Inactive)
REMARK    1  A    between atoms: C2_2  and  C4_4 
REMARK    2  A    between atoms: C4_4  and  O1_5 
REMARK    3  A    between atoms: C7_12  and  O5_14 
REMARK    4  A    between atoms: C9_16  and  O6_17 
REMARK    5  A    between atoms: O6_17  and  C10_18 
ROOT
HETATM    1  C4  UNL     1     -19.424   0.519  13.290  1.00  0.00     0.225 C 
HETATM    2  O2  UNL     1     -18.538   0.520  12.186  1.00  0.00    -0.194 OA
HETATM    3  O3  UNL     1     -17.917  -0.667  12.196  1.00  0.00    -0.223 OA
HETATM    4  C5  UNL     1     -19.056  -1.495  12.304  1.00  0.00     0.131 C 
HETATM    5  C6  UNL     1     -19.878  -1.214  11.096  1.00  0.00     0.213 C 
HETATM    6  O4  UNL     1     -18.958  -1.290  10.022  1.00  0.00    -0.350 OA
HETATM    7  C7  UNL     1     -18.675  -2.567   9.623  1.00  0.00     0.185 C 
HETATM    8  C8  UNL     1     -18.164  -2.387   8.171  1.00  0.00     0.081 C 
HETATM    9  C9  UNL     1     -17.571  -3.265  10.313  1.00  0.00     0.194 C 
HETATM   10  C12 UNL     1     -17.565  -3.301  11.794  1.00  0.00     0.046 C 
HETATM   11  C13 UNL     1     -18.847  -2.928  12.438  1.00  0.00     0.032 C 
HETATM   12  C14 UNL     1     -18.995  -3.376  13.866  1.00  0.00    -0.011 C 
HETATM   13  C15 UNL     1     -18.974  -4.915  13.825  1.00  0.00     0.010 C 
HETATM   14  C16 UNL     1     -20.381  -3.011  14.356  1.00  0.00     0.005 C 
HETATM   15  C17 UNL     1     -20.747  -1.552  14.033  1.00  0.00     0.014 C 
HETATM   16  C18 UNL     1     -19.537  -0.907  13.600  1.00  0.00     0.096 C 
ENDROOT
BRANCH   1  17
HETATM   17  C2  UNL     1     -18.713   1.263  14.392  1.00  0.00    -0.029 C 
HETATM   18  C1  UNL     1     -19.161   1.280  15.626  1.00  0.00     0.019 C 
HETATM   19  C3  UNL     1     -17.463   2.002  14.065  1.00  0.00     0.048 C 
ENDBRANCH   1  17
BRANCH   1  20
HETATM   20  O1  UNL     1     -20.585   1.197  13.041  1.00  0.00    -0.359 OA
ATOM     21  H1  UNL     1     -20.857   1.588  13.863  1.00  0.00     0.213 HD
ENDBRANCH   1  20
BRANCH   7  22
HETATM   22  O5  UNL     1     -19.836  -3.317   9.463  1.00  0.00    -0.363 OA
ATOM     23  H5  UNL     1     -19.945  -3.941  10.171  1.00  0.00     0.213 HD
ENDBRANCH   7  22
BRANCH   9  24
HETATM   24  O6  UNL     1     -17.417  -4.547   9.720  1.00  0.00    -0.311 OA
BRANCH  24  25
HETATM   25  C10 UNL     1     -16.249  -5.246   9.623  1.00  0.00     0.255 C 
HETATM   26  C11 UNL     1     -16.160  -6.733   9.710  1.00  0.00     0.126 C 
HETATM   27  O7  UNL     1     -15.192  -4.601   9.450  1.00  0.00    -0.266 OA
ENDBRANCH  24  25
ENDBRANCH   9  24
TORSDOF 5
ENDMDL
MODEL 3
REMARK VINA RESULT: -6.516783930      2.034      3.078
REMARK  5 active torsions:
REMARK  status: ('A' for Active; 'I' for Inactive)
REMARK    1  A    between atoms: C2_2  and  C4_4 
REMARK    2  A    between atoms: C4_4  and  O1_5 
REMARK    3  A    between atoms: C7_12  and  O5_14 
REMARK    4  A    between atoms: C9_16  and  O6_17 
REMARK    5  A    between atoms: O6_17  and  C10_18 
ROOT
HETATM    1  C4  UNL     1     -20.626  -3.582  15.488  1.00  0.00     0.225 C 
HETATM    2  O2  UNL     1     -20.405  -4.640  14.573  1.00  0.00    -0.194 OA
HETATM    3  O3  UNL     1     -20.641  -4.143  13.352  1.00  0.00    -0.223 OA
HETATM    4  C5  UNL     1     -19.836  -2.985  13.442  1.00  0.00     0.131 C 
HETATM    5  C6  UNL     1     -18.450  -3.472  13.677  1.00  0.00     0.213 C 
HETATM    6  O4  UNL     1     -18.261  -4.477  12.698  1.00  0.00    -0.350 OA
HETATM    7  C7  UNL     1     -17.960  -3.993  11.455  1.00  0.00     0.185 C 
HETATM    8  C8  UNL     1     -17.263  -5.191  10.761  1.00  0.00     0.081 C 
HETATM    9  C9  UNL     1     -19.089  -3.661  10.564  1.00  0.00     0.194 C 
HETATM   10  C12 UNL     1     -20.172  -2.791  11.076  1.00  0.00     0.046 C 
HETATM   11  C13 UNL     1     -19.851  -2.055  12.323  1.00  0.00     0.032 C 
HETATM   12  C14 UNL     1     -20.730  -0.868  12.605  1.00  0.00    -0.011 C 
HETATM   13  C15 UNL     1     -20.476   0.122  11.453  1.00  0.00     0.010 C 
HETATM   14  C16 UNL     1     -20.227  -0.166  13.849  1.00  0.00     0.005 C 
HETATM   15  C17 UNL     1     -19.972  -1.146  15.007  1.00  0.00     0.014 C 
HETATM   16  C18 UNL     1     -20.558  -2.402  14.624  1.00  0.00     0.096 C 
ENDROOT
BRANCH   1  17
HETATM   17  C2  UNL     1     -22.020  -3.785  16.026  1.00  0.00    -0.029 C 
HETATM   18  C1  UNL     1     -22.757  -4.816  15.685  1.00  0.00     0.019 C 
HETATM   19  C3  UNL     1     -22.574  -2.781  16.974  1.00  0.00     0.048 C 
ENDBRANCH   1  17
BRANCH   1  20
HETATM   20  O1  UNL     1     -19.779  -3.620  16.560  1.00  0.00    -0.359 OA
ATOM     21  H1  UNL     1     -20.014  -4.386  17.069  1.00  0.00     0.213 HD
ENDBRANCH   1  20
BRANCH   7  22
HETATM   22  O5  UNL     1     -16.956  -3.031  11.517  1.00  0.00    -0.363 OA
ATOM     23  H5  UNL     1     -17.258  -2.195  11.180  1.00  0.00     0.213 HD
ENDBRANCH   7  22
BRANCH   9  24
HETATM   24  O6  UNL     1     -18.559  -3.223   9.320  1.00  0.00    -0.311 OA
BRANCH  24  25
HETATM   25  C10 UNL     1     -18.746  -3.832   8.113  1.00  0.00     0.255 C 
HETATM   26  C11 UNL     1     -17.644  -4.431   7.304  1.00  0.00     0.126 C 
HETATM   27  O7  UNL     1     -19.909  -3.891   7.660  1.00  0.00    -0.266 OA
ENDBRANCH  24  25
ENDBRANCH   9  24
TORSDOF 5
ENDMDL
MODEL 4
REMARK VINA RESULT: -6.434866235      2.190      5.248
REMARK  5 active torsions:
REMARK  status: ('A' for Active; 'I' for Inactive)
REMARK    1  A    between atoms: C2_2  and  C4_4 
REMARK    2  A    between atoms: C4_4  and  O1_5 
REMARK    3  A    between atoms: C7_12  and  O5_14 
REMARK    4  A    between atoms: C9_16  and  O6_17 
REMARK    5  A    between atoms: O6_17  and  C10_18 
ROOT
HETATM    1  C4  UNL     1     -19.357   0.586  13.359  1.00  0.00     0.225 C 
HETATM    2  O2  UNL     1     -18.559   0.568  12.190  1.00  0.00    -0.194 OA
HETATM    3  O3  UNL     1     -17.964  -0.631  12.154  1.00  0.00    -0.223 OA
HETATM    4  C5  UNL     1     -19.108  -1.436  12.351  1.00  0.00     0.131 C 
HETATM    5  C6  UNL     1     -20.016  -1.139  11.211  1.00  0.00     0.213 C 
HETATM    6  O4  UNL     1     -19.184  -1.234  10.068  1.00  0.00    -0.350 OA
HETATM    7  C7  UNL     1     -18.959  -2.517   9.651  1.00  0.00     0.185 C 
HETATM    8  C8  UNL     1     -18.560  -2.348   8.163  1.00  0.00     0.081 C 
HETATM    9  C9  UNL     1     -17.820  -3.237  10.255  1.00  0.00     0.194 C 
HETATM   10  C12 UNL     1     -17.698  -3.272  11.730  1.00  0.00     0.046 C 
HETATM   11  C13 UNL     1     -18.919  -2.873  12.472  1.00  0.00     0.032 C 
HETATM   12  C14 UNL     1     -18.964  -3.317  13.907  1.00  0.00    -0.011 C 
HETATM   13  C15 UNL     1     -18.978  -4.856  13.869  1.00  0.00     0.010 C 
HETATM   14  C16 UNL     1     -20.300  -2.923  14.504  1.00  0.00     0.005 C 
HETATM   15  C17 UNL     1     -20.660  -1.458  14.208  1.00  0.00     0.014 C 
HETATM   16  C18 UNL     1     -19.474  -0.838  13.680  1.00  0.00     0.096 C 
ENDROOT
BRANCH   1  17
HETATM   17  C2  UNL     1     -18.546   1.315  14.401  1.00  0.00    -0.029 C 
HETATM   18  C1  UNL     1     -17.440   1.956  14.102  1.00  0.00     0.019 C 
HETATM   19  C3  UNL     1     -19.019   1.306  15.811  1.00  0.00     0.048 C 
ENDBRANCH   1  17
BRANCH   1  20
HETATM   20  O1  UNL     1     -20.519   1.287  13.201  1.00  0.00    -0.359 OA
ATOM     21  H1  UNL     1     -21.134   0.949  13.841  1.00  0.00     0.213 HD
ENDBRANCH   1  20
BRANCH   7  22
HETATM   22  O5  UNL     1     -20.145  -3.242   9.584  1.00  0.00    -0.363 OA
ATOM     23  H5  UNL     1     -20.307  -3.715  10.392  1.00  0.00     0.213 HD
ENDBRANCH   7  22
BRANCH   9  24
HETATM   24  O6  UNL     1     -17.738  -4.522   9.654  1.00  0.00    -0.311 OA
BRANCH  24  25
HETATM   25  C10 UNL     1     -17.898  -5.716  10.296  1.00  0.00     0.255 C 
HETATM   26  C11 UNL     1     -19.222  -6.273  10.698  1.00  0.00     0.126 C 
HETATM   27  O7  UNL     1     -16.873  -6.380  10.562  1.00  0.00    -0.266 OA
ENDBRANCH  24  25
ENDBRANCH   9  24
TORSDOF 5
ENDMDL
MODEL 5
REMARK VINA RESULT: -6.337389016      2.382      4.663
REMARK  5 active torsions:
REMARK  status: ('A' for Active; 'I' for Inactive)
REMARK    1  A    between atoms: C2_2  and  C4_4 
REMARK    2  A    between atoms: C4_4  and  O1_5 
REMARK    3  A    between atoms: C7_12  and  O5_14 
REMARK    4  A    between atoms: C9_16  and  O6_17 
REMARK    5  A    between atoms: O6_17  and  C10_18 
ROOT
HETATM    1  C4  UNL     1     -18.520  -5.458  10.194  1.00  0.00     0.225 C 
HETATM    2  O2  UNL     1     -18.424  -5.510  11.605  1.00  0.00    -0.194 OA
HETATM    3  O3  UNL     1     -17.972  -4.312  12.000  1.00  0.00    -0.223 OA
HETATM    4  C5  UNL     1     -18.887  -3.502  11.292  1.00  0.00     0.131 C 
HETATM    5  C6  UNL     1     -20.235  -3.875  11.798  1.00  0.00     0.213 C 
HETATM    6  O4  UNL     1     -20.100  -3.847  13.207  1.00  0.00    -0.350 OA
HETATM    7  C7  UNL     1     -20.163  -2.592  13.747  1.00  0.00     0.185 C 
HETATM    8  C8  UNL     1     -20.565  -2.853  15.221  1.00  0.00     0.081 C 
HETATM    9  C9  UNL     1     -18.901  -1.831  13.841  1.00  0.00     0.194 C 
HETATM   10  C12 UNL     1     -18.052  -1.702  12.635  1.00  0.00     0.046 C 
HETATM   11  C13 UNL     1     -18.715  -2.059  11.358  1.00  0.00     0.032 C 
HETATM   12  C14 UNL     1     -18.044  -1.527  10.123  1.00  0.00    -0.011 C 
HETATM   13  C15 UNL     1     -18.131   0.007  10.228  1.00  0.00     0.010 C 
HETATM   14  C16 UNL     1     -18.880  -1.889   8.912  1.00  0.00     0.005 C 
HETATM   15  C17 UNL     1     -19.288  -3.372   8.909  1.00  0.00     0.014 C 
HETATM   16  C18 UNL     1     -18.509  -4.018   9.932  1.00  0.00     0.096 C 
ENDROOT
BRANCH   1  17
HETATM   17  C2  UNL     1     -17.268  -6.117   9.671  1.00  0.00    -0.029 C 
HETATM   18  C1  UNL     1     -17.133  -7.422   9.622  1.00  0.00     0.019 C 
HETATM   19  C3  UNL     1     -16.151  -5.256   9.195  1.00  0.00     0.048 C 
ENDBRANCH   1  17
BRANCH   1  20
HETATM   20  O1  UNL     1     -19.577  -6.174   9.705  1.00  0.00    -0.359 OA
ATOM     21  H1  UNL     1     -19.760  -6.860  10.336  1.00  0.00     0.213 HD
ENDBRANCH   1  20
BRANCH   7  22
HETATM   22  O5  UNL     1     -21.245  -1.878  13.241  1.00  0.00    -0.363 OA
ATOM     23  H5  UNL     1     -20.957  -1.130  12.730  1.00  0.00     0.213 HD
ENDBRANCH   7  22
BRANCH   9  24
HETATM   24  O6  UNL     1     -19.181  -0.585  14.466  1.00  0.00    -0.311 OA
BRANCH  24  25
HETATM   25  C10 UNL     1     -19.223   0.629  13.845  1.00  0.00     0.255 C 
HETATM   26  C11 UNL     1     -18.131   1.643  13.926  1.00  0.00     0.126 C 
HETATM   27  O7  UNL     1     -20.236   0.907  13.167  1.00  0.00    -0.266 OA
ENDBRANCH  24  25
ENDBRANCH   9  24
TORSDOF 5
ENDMDL
