MODEL 1
REMARK VINA RESULT: -5.924582886      0.000      0.000
REMARK  5 active torsions:
REMARK  status: ('A' for Active; 'I' for Inactive)
REMARK    1  A    between atoms: C2_2  and  O1_3 
REMARK    2  A    between atoms: C5_8  and  O2_9 
REMARK    3  A    between atoms: O2_9  and  C6_10 
REMARK    4  A    between atoms: C6_10  and  C7_11 
REMARK    5  A    between atoms: C12_20  and  O5_21 
ROOT
HETATM    1  C1  UNL     1      16.428 -34.456   9.425  1.00  0.00     0.049 C 
HETATM    2  C2  UNL     1      15.151 -33.670   9.224  1.00  0.00     0.091 C 
HETATM    3  C3  UNL     1      15.387 -32.251   9.692  1.00  0.00     0.114 C 
HETATM    4  S1  UNL     1      13.868 -31.614  10.452  1.00  0.00    -0.153 SA
HETATM    5  C4  UNL     1      13.437 -32.749  11.811  1.00  0.00     0.140 C 
HETATM    6  C5  UNL     1      14.305 -32.541  13.008  1.00  0.00     0.313 C 
HETATM    7  O3  UNL     1      15.504 -33.176  12.541  1.00  0.00    -0.206 OA
HETATM    8  O4  UNL     1      15.134 -34.293  12.020  1.00  0.00    -0.229 OA
HETATM    9  C11 UNL     1      13.946 -34.128  11.375  1.00  0.00     0.210 C 
HETATM   10  C12 UNL     1      13.966 -34.301   9.905  1.00  0.00     0.186 C 
ENDROOT
BRANCH   6  11
HETATM   11  O2  UNL     1      13.897 -33.288  14.061  1.00  0.00    -0.352 OA
BRANCH  11  12
HETATM   12  C6  UNL     1      12.745 -32.944  14.688  1.00  0.00     0.218 C 
BRANCH  12  13
HETATM   13  C7  UNL     1      11.904 -34.163  14.936  1.00  0.00     0.024 A 
HETATM   14  S2  UNL     1      11.782 -35.641  14.095  1.00  0.00    -0.103 SA
HETATM   15  C8  UNL     1      10.615 -36.425  15.044  1.00  0.00     0.051 A 
HETATM   16  C9  UNL     1      10.338 -35.503  16.017  1.00  0.00     0.027 A 
HETATM   17  C10 UNL     1      11.004 -34.333  15.962  1.00  0.00     0.027 A 
HETATM   18  S3  UNL     1      10.743 -33.010  17.183  1.00  0.00    -0.051 SA
ENDBRANCH  12  13
ENDBRANCH  11  12
ENDBRANCH   6  11
BRANCH  10  19
HETATM   19  O5  UNL     1      12.788 -33.801   9.355  1.00  0.00    -0.390 OA
ATOM     20  H5  UNL     1      12.173 -34.512   9.213  1.00  0.00     0.210 HD
ENDBRANCH  10  19
BRANCH   2  21
HETATM   21  O1  UNL     1      14.874 -33.704   7.839  1.00  0.00    -0.387 OA
ATOM     22  H1  UNL     1      13.968 -33.436   7.739  1.00  0.00     0.210 HD
ENDBRANCH   2  21
TORSDOF 5
ENDMDL
MODEL 2
REMARK VINA RESULT: -5.910602333      2.829      5.876
REMARK  5 active torsions:
REMARK  status: ('A' for Active; 'I' for Inactive)
REMARK    1  A    between atoms: C2_2  and  O1_3 
REMARK    2  A    between atoms: C5_8  and  O2_9 
REMARK    3  A    between atoms: O2_9  and  C6_10 
REMARK    4  A    between atoms: C6_10  and  C7_11 
REMARK    5  A    between atoms: C12_20  and  O5_21 
ROOT
HETATM    1  C1  UNL     1      14.482 -29.471  14.310  1.00  0.00     0.049 C 
HETATM    2  C2  UNL     1      13.219 -30.220  13.943  1.00  0.00     0.091 C 
HETATM    3  C3  UNL     1      13.140 -31.467  14.796  1.00  0.00     0.114 C 
HETATM    4  S1  UNL     1      12.406 -32.809  13.821  1.00  0.00    -0.153 SA
HETATM    5  C4  UNL     1      13.449 -33.023  12.342  1.00  0.00     0.140 C 
HETATM    6  C5  UNL     1      14.722 -33.740  12.656  1.00  0.00     0.313 C 
HETATM    7  O3  UNL     1      15.438 -32.676  13.298  1.00  0.00    -0.206 OA
HETATM    8  O4  UNL     1      15.280 -31.640  12.551  1.00  0.00    -0.229 OA
HETATM    9  C11 UNL     1      14.020 -31.634  12.034  1.00  0.00     0.210 C 
HETATM   10  C12 UNL     1      13.134 -30.533  12.473  1.00  0.00     0.186 C 
ENDROOT
BRANCH   6  11
HETATM   11  O2  UNL     1      15.431 -34.018  11.537  1.00  0.00    -0.352 OA
BRANCH  11  12
HETATM   12  C6  UNL     1      15.401 -35.284  11.051  1.00  0.00     0.218 C 
BRANCH  12  13
HETATM   13  C7  UNL     1      14.739 -35.307   9.703  1.00  0.00     0.024 A 
HETATM   14  S2  UNL     1      14.026 -34.070   8.773  1.00  0.00    -0.103 SA
HETATM   15  C8  UNL     1      13.536 -34.965   7.418  1.00  0.00     0.051 A 
HETATM   16  C9  UNL     1      13.945 -36.235   7.723  1.00  0.00     0.027 A 
HETATM   17  C10 UNL     1      14.567 -36.414   8.904  1.00  0.00     0.027 A 
HETATM   18  S3  UNL     1      15.167 -38.043   9.447  1.00  0.00    -0.051 SA
ENDBRANCH  12  13
ENDBRANCH  11  12
ENDBRANCH   6  11
BRANCH  10  19
HETATM   19  O5  UNL     1      11.815 -30.822  12.131  1.00  0.00    -0.390 OA
ATOM     20  H5  UNL     1      11.325 -30.014  12.031  1.00  0.00     0.210 HD
ENDBRANCH  10  19
BRANCH   2  21
HETATM   21  O1  UNL     1      12.142 -29.348  14.224  1.00  0.00    -0.387 OA
ATOM     22  H1  UNL     1      11.349 -29.822  14.004  1.00  0.00     0.210 HD
ENDBRANCH   2  21
TORSDOF 5
ENDMDL
MODEL 3
REMARK VINA RESULT: -5.860318640      2.271      3.392
REMARK  5 active torsions:
REMARK  status: ('A' for Active; 'I' for Inactive)
REMARK    1  A    between atoms: C2_2  and  O1_3 
REMARK    2  A    between atoms: C5_8  and  O2_9 
REMARK    3  A    between atoms: O2_9  and  C6_10 
REMARK    4  A    between atoms: C6_10  and  C7_11 
REMARK    5  A    between atoms: C12_20  and  O5_21 
ROOT
HETATM    1  C1  UNL     1      13.558 -35.017   7.433  1.00  0.00     0.049 C 
HETATM    2  C2  UNL     1      14.833 -34.596   8.130  1.00  0.00     0.091 C 
HETATM    3  C3  UNL     1      15.255 -35.709   9.064  1.00  0.00     0.114 C 
HETATM    4  S1  UNL     1      15.998 -34.987  10.553  1.00  0.00    -0.153 SA
HETATM    5  C4  UNL     1      14.749 -33.879  11.285  1.00  0.00     0.140 C 
HETATM    6  C5  UNL     1      13.680 -34.638  12.000  1.00  0.00     0.313 C 
HETATM    7  O3  UNL     1      12.937 -35.117  10.870  1.00  0.00    -0.206 OA
HETATM    8  O4  UNL     1      12.797 -34.108  10.084  1.00  0.00    -0.229 OA
HETATM    9  C11 UNL     1      13.927 -33.348  10.107  1.00  0.00     0.210 C 
HETATM   10  C12 UNL     1      14.698 -33.278   8.845  1.00  0.00     0.186 C 
ENDROOT
BRANCH   6  11
HETATM   11  O2  UNL     1      12.831 -33.813  12.656  1.00  0.00    -0.352 OA
BRANCH  11  12
HETATM   12  C6  UNL     1      13.056 -33.570  13.972  1.00  0.00     0.218 C 
BRANCH  12  13
HETATM   13  C7  UNL     1      12.994 -32.094  14.244  1.00  0.00     0.024 A 
HETATM   14  S2  UNL     1      13.664 -30.764  13.416  1.00  0.00    -0.103 SA
HETATM   15  C8  UNL     1      13.110 -29.496  14.398  1.00  0.00     0.051 A 
HETATM   16  C9  UNL     1      12.401 -30.147  15.371  1.00  0.00     0.027 A 
HETATM   17  C10 UNL     1      12.340 -31.490  15.293  1.00  0.00     0.027 A 
HETATM   18  S3  UNL     1      11.436 -32.493  16.512  1.00  0.00    -0.051 SA
ENDBRANCH  12  13
ENDBRANCH  11  12
ENDBRANCH   6  11
BRANCH  10  19
HETATM   19  O5  UNL     1      15.962 -32.747   9.093  1.00  0.00    -0.390 OA
ATOM     20  H5  UNL     1      16.113 -32.704  10.030  1.00  0.00     0.210 HD
ENDBRANCH  10  19
BRANCH   2  21
HETATM   21  O1  UNL     1      15.797 -34.397   7.115  1.00  0.00    -0.387 OA
ATOM     22  H1  UNL     1      15.686 -35.109   6.497  1.00  0.00     0.210 HD
ENDBRANCH   2  21
TORSDOF 5
ENDMDL
MODEL 4
REMARK VINA RESULT: -5.827829532      1.902      2.689
REMARK  5 active torsions:
REMARK  status: ('A' for Active; 'I' for Inactive)
REMARK    1  A    between atoms: C2_2  and  O1_3 
REMARK    2  A    between atoms: C5_8  and  O2_9 
REMARK    3  A    between atoms: O2_9  and  C6_10 
REMARK    4  A    between atoms: C6_10  and  C7_11 
REMARK    5  A    between atoms: C12_20  and  O5_21 
ROOT
HETATM    1  C1  UNL     1      13.608 -35.150   7.391  1.00  0.00     0.049 C 
HETATM    2  C2  UNL     1      14.894 -34.716   8.058  1.00  0.00     0.091 C 
HETATM    3  C3  UNL     1      15.249 -35.736   9.117  1.00  0.00     0.114 C 
HETATM    4  S1  UNL     1      16.009 -34.888  10.529  1.00  0.00    -0.153 SA
HETATM    5  C4  UNL     1      14.811 -33.645  11.111  1.00  0.00     0.140 C 
HETATM    6  C5  UNL     1      13.696 -34.266  11.888  1.00  0.00     0.313 C 
HETATM    7  O3  UNL     1      12.943 -34.832  10.806  1.00  0.00    -0.206 OA
HETATM    8  O4  UNL     1      12.863 -33.911   9.910  1.00  0.00    -0.229 OA
HETATM    9  C11 UNL     1      14.029 -33.210   9.867  1.00  0.00     0.210 C 
HETATM   10  C12 UNL     1      14.818 -33.321   8.619  1.00  0.00     0.186 C 
ENDROOT
BRANCH   6  11
HETATM   11  O2  UNL     1      12.882 -33.332  12.433  1.00  0.00    -0.352 OA
BRANCH  11  12
HETATM   12  C6  UNL     1      13.334 -32.627  13.502  1.00  0.00     0.218 C 
BRANCH  12  13
HETATM   13  C7  UNL     1      12.501 -32.933  14.713  1.00  0.00     0.024 A 
HETATM   14  S2  UNL     1      11.879 -34.401  15.316  1.00  0.00    -0.103 SA
HETATM   15  C8  UNL     1      11.071 -33.835  16.696  1.00  0.00     0.051 A 
HETATM   16  C9  UNL     1      11.307 -32.486  16.660  1.00  0.00     0.027 A 
HETATM   17  C10 UNL     1      12.046 -32.018  15.636  1.00  0.00     0.027 A 
HETATM   18  S3  UNL     1      12.442 -30.253  15.452  1.00  0.00    -0.051 SA
ENDBRANCH  12  13
ENDBRANCH  11  12
ENDBRANCH   6  11
BRANCH  10  19
HETATM   19  O5  UNL     1      16.104 -32.828   8.827  1.00  0.00    -0.390 OA
ATOM     20  H5  UNL     1      16.075 -32.110   9.450  1.00  0.00     0.210 HD
ENDBRANCH  10  19
BRANCH   2  21
HETATM   21  O1  UNL     1      15.878 -34.679   7.044  1.00  0.00    -0.387 OA
ATOM     22  H1  UNL     1      16.691 -34.959   7.448  1.00  0.00     0.210 HD
ENDBRANCH   2  21
TORSDOF 5
ENDMDL
MODEL 5
REMARK VINA RESULT: -5.818855128      1.553      2.564
REMARK  5 active torsions:
REMARK  status: ('A' for Active; 'I' for Inactive)
REMARK    1  A    between atoms: C2_2  and  O1_3 
REMARK    2  A    between atoms: C5_8  and  O2_9 
REMARK    3  A    between atoms: O2_9  and  C6_10 
REMARK    4  A    between atoms: C6_10  and  C7_11 
REMARK    5  A    between atoms: C12_20  and  O5_21 
ROOT
HETATM    1  C1  UNL     1      14.395 -31.211   8.992  1.00  0.00     0.049 C 
HETATM    2  C2  UNL     1      14.814 -32.640   9.256  1.00  0.00     0.091 C 
HETATM    3  C3  UNL     1      13.598 -33.528   9.111  1.00  0.00     0.114 C 
HETATM    4  S1  UNL     1      13.697 -34.876  10.321  1.00  0.00    -0.153 SA
HETATM    5  C4  UNL     1      13.821 -34.104  11.967  1.00  0.00     0.140 C 
HETATM    6  C5  UNL     1      12.505 -33.574  12.436  1.00  0.00     0.313 C 
HETATM    7  O3  UNL     1      12.427 -32.393  11.626  1.00  0.00    -0.206 OA
HETATM    8  O4  UNL     1      13.580 -31.828  11.710  1.00  0.00    -0.229 OA
HETATM    9  C11 UNL     1      14.555 -32.777  11.747  1.00  0.00     0.210 C 
HETATM   10  C12 UNL     1      15.483 -32.812  10.594  1.00  0.00     0.186 C 
ENDROOT
BRANCH   6  11
HETATM   11  O2  UNL     1      12.570 -33.125  13.710  1.00  0.00    -0.352 OA
BRANCH  11  12
HETATM   12  C6  UNL     1      12.878 -34.010  14.692  1.00  0.00     0.218 C 
BRANCH  12  13
HETATM   13  C7  UNL     1      11.713 -34.177  15.624  1.00  0.00     0.024 A 
HETATM   14  S2  UNL     1      11.156 -33.219  16.919  1.00  0.00    -0.103 SA
HETATM   15  C8  UNL     1       9.814 -34.134  17.408  1.00  0.00     0.051 A 
HETATM   16  C9  UNL     1       9.827 -35.189  16.535  1.00  0.00     0.027 A 
HETATM   17  C10 UNL     1      10.808 -35.213  15.612  1.00  0.00     0.027 A 
HETATM   18  S3  UNL     1      10.955 -36.549  14.387  1.00  0.00    -0.051 SA
ENDBRANCH  12  13
ENDBRANCH  11  12
ENDBRANCH   6  11
BRANCH  10  19
HETATM   19  O5  UNL     1      16.208 -34.002  10.606  1.00  0.00    -0.390 OA
ATOM     20  H5  UNL     1      17.049 -33.869  10.185  1.00  0.00     0.210 HD
ENDBRANCH  10  19
BRANCH   2  21
HETATM   21  O1  UNL     1      15.789 -32.957   8.284  1.00  0.00    -0.387 OA
ATOM     22  H1  UNL     1      15.328 -33.380   7.569  1.00  0.00     0.210 HD
ENDBRANCH   2  21
TORSDOF 5
ENDMDL
