MODEL 1
REMARK VINA RESULT: -6.979287533      0.000      0.000
REMARK  5 active torsions:
REMARK  status: ('A' for Active; 'I' for Inactive)
REMARK    1  A    between atoms: C2_3  and  C3_4 
REMARK       I    between atoms: C3_4  and  N2_6 
REMARK    2  A    between atoms: N2_6  and  C4_8 
REMARK    3  A    between atoms: C6_10  and  N3_11 
REMARK    4  A    between atoms: C7_12  and  O2_13 
REMARK    5  A    between atoms: C11_21  and  N4_22 
ROOT
HETATM    1  N1  UNL     1       9.831 -36.520  14.429  1.00  0.00    -0.196 NA
HETATM    2  C1  UNL     1      10.183 -35.701  15.168  1.00  0.00     0.079 C 
HETATM    3  C2  UNL     1      10.621 -34.665  16.129  1.00  0.00     0.129 A 
HETATM    4  C12 UNL     1      10.764 -35.175  17.601  1.00  0.00     0.037 A 
HETATM    5  C13 UNL     1       9.631 -34.295  17.171  1.00  0.00     0.037 A 
ENDROOT
BRANCH   3   6
HETATM    6  C3  UNL     1      11.663 -33.709  15.712  1.00  0.00     0.241 C 
HETATM    7  O1  UNL     1      11.788 -32.659  16.396  1.00  0.00    -0.272 OA
HETATM    8  N2  UNL     1      12.489 -33.929  14.618  1.00  0.00    -0.351 N 
ATOM      9  H2  UNL     1      12.335 -34.800  14.110  1.00  0.00     0.163 HD
BRANCH   8  10
HETATM   10  C4  UNL     1      13.540 -33.079  14.107  1.00  0.00     0.142 C 
HETATM   11  C5  UNL     1      14.576 -33.847  13.391  1.00  0.00     0.057 C 
HETATM   12  C6  UNL     1      14.663 -33.699  11.924  1.00  0.00     0.119 C 
HETATM   13  C10 UNL     1      13.603 -32.916  11.248  1.00  0.00     0.196 C 
HETATM   14  O3  UNL     1      12.477 -32.690  12.083  1.00  0.00    -0.356 OA
HETATM   15  C11 UNL     1      12.980 -32.012  13.171  1.00  0.00     0.341 C 
BRANCH  12  16
HETATM   16  N3  UNL     1      14.893 -35.014  11.244  1.00  0.00    -0.305 N 
HETATM   17  C7  UNL     1      15.998 -35.274  10.555  1.00  0.00     0.150 A 
HETATM   18  C8  UNL     1      16.111 -36.491   9.950  1.00  0.00     0.108 A 
HETATM   19  S1  UNL     1      14.647 -37.245  10.370  1.00  0.00    -0.068 SA
HETATM   20  C9  UNL     1      13.972 -35.981  11.287  1.00  0.00     0.147 A 
HETATM   21  S2  UNL     1      12.510 -36.097  11.995  1.00  0.00    -0.052 SA
BRANCH  17  22
HETATM   22  O2  UNL     1      17.074 -34.342  10.418  1.00  0.00    -0.346 OA
ATOM     23  H2  UNL     1      17.158 -33.747   9.681  1.00  0.00     0.219 HD
ENDBRANCH  17  22
ENDBRANCH  12  16
BRANCH  15  24
HETATM   24  N4  UNL     1      11.996 -31.187  13.833  1.00  0.00    -0.051 N 
ATOM     25  H43 UNL     1      11.726 -31.580  14.735  1.00  0.00     0.277 HD
ATOM     26  H42 UNL     1      12.403 -30.309  14.158  1.00  0.00     0.277 HD
ATOM     27  H41 UNL     1      11.182 -31.024  13.240  1.00  0.00     0.277 HD
ENDBRANCH  15  24
ENDBRANCH   8  10
ENDBRANCH   3   6
TORSDOF 5
ENDMDL
MODEL 2
REMARK VINA RESULT: -6.932628926      2.093      2.451
REMARK  5 active torsions:
REMARK  status: ('A' for Active; 'I' for Inactive)
REMARK    1  A    between atoms: C2_3  and  C3_4 
REMARK       I    between atoms: C3_4  and  N2_6 
REMARK    2  A    between atoms: N2_6  and  C4_8 
REMARK    3  A    between atoms: C6_10  and  N3_11 
REMARK    4  A    between atoms: C7_12  and  O2_13 
REMARK    5  A    between atoms: C11_21  and  N4_22 
ROOT
HETATM    1  N1  UNL     1      10.234 -36.522  14.281  1.00  0.00    -0.196 NA
HETATM    2  C1  UNL     1      10.399 -35.742  15.121  1.00  0.00     0.079 C 
HETATM    3  C2  UNL     1      10.597 -34.758  16.207  1.00  0.00     0.129 A 
HETATM    4  C12 UNL     1      10.657 -35.386  17.638  1.00  0.00     0.037 A 
HETATM    5  C13 UNL     1       9.467 -34.613  17.159  1.00  0.00     0.037 A 
ENDROOT
BRANCH   3   6
HETATM    6  C3  UNL     1      11.541 -33.645  15.990  1.00  0.00     0.241 C 
HETATM    7  O1  UNL     1      11.758 -32.876  16.965  1.00  0.00    -0.272 OA
HETATM    8  N2  UNL     1      12.182 -33.430  14.778  1.00  0.00    -0.351 N 
ATOM      9  H2  UNL     1      11.962 -34.091  14.034  1.00  0.00     0.163 HD
BRANCH   8  10
HETATM   10  C4  UNL     1      13.120 -32.386  14.437  1.00  0.00     0.142 C 
HETATM   11  C5  UNL     1      13.962 -32.752  13.283  1.00  0.00     0.057 C 
HETATM   12  C6  UNL     1      13.739 -32.043  12.006  1.00  0.00     0.119 C 
HETATM   13  C10 UNL     1      12.579 -31.125  11.923  1.00  0.00     0.196 C 
HETATM   14  O3  UNL     1      11.663 -31.309  12.991  1.00  0.00    -0.356 OA
HETATM   15  C11 UNL     1      12.401 -31.076  14.129  1.00  0.00     0.341 C 
BRANCH  12  16
HETATM   16  N3  UNL     1      13.788 -32.975  10.834  1.00  0.00    -0.305 N 
HETATM   17  C7  UNL     1      13.288 -34.204  10.882  1.00  0.00     0.150 A 
HETATM   18  C8  UNL     1      13.398 -34.991   9.775  1.00  0.00     0.108 A 
HETATM   19  S1  UNL     1      14.208 -33.971   8.683  1.00  0.00    -0.068 SA
HETATM   20  C9  UNL     1      14.365 -32.607   9.687  1.00  0.00     0.147 A 
HETATM   21  S2  UNL     1      15.087 -31.234   9.192  1.00  0.00    -0.052 SA
BRANCH  17  22
HETATM   22  O2  UNL     1      12.640 -34.741  12.039  1.00  0.00    -0.346 OA
ATOM     23  H2  UNL     1      13.112 -35.067  12.796  1.00  0.00     0.219 HD
ENDBRANCH  17  22
ENDBRANCH  12  16
BRANCH  15  24
HETATM   24  N4  UNL     1      11.600 -30.633  15.248  1.00  0.00    -0.051 N 
ATOM     25  H43 UNL     1      10.607 -30.799  15.085  1.00  0.00     0.277 HD
ATOM     26  H42 UNL     1      11.730 -31.237  16.061  1.00  0.00     0.277 HD
ATOM     27  H41 UNL     1      11.782 -29.656  15.476  1.00  0.00     0.277 HD
ENDBRANCH  15  24
ENDBRANCH   8  10
ENDBRANCH   3   6
TORSDOF 5
ENDMDL
MODEL 3
REMARK VINA RESULT: -6.838475319      1.075      1.465
REMARK  5 active torsions:
REMARK  status: ('A' for Active; 'I' for Inactive)
REMARK    1  A    between atoms: C2_3  and  C3_4 
REMARK       I    between atoms: C3_4  and  N2_6 
REMARK    2  A    between atoms: N2_6  and  C4_8 
REMARK    3  A    between atoms: C6_10  and  N3_11 
REMARK    4  A    between atoms: C7_12  and  O2_13 
REMARK    5  A    between atoms: C11_21  and  N4_22 
ROOT
HETATM    1  N1  UNL     1       9.461 -34.643  17.915  1.00  0.00    -0.196 NA
HETATM    2  C1  UNL     1      10.074 -34.821  16.949  1.00  0.00     0.079 C 
HETATM    3  C2  UNL     1      10.846 -35.066  15.710  1.00  0.00     0.129 A 
HETATM    4  C12 UNL     1      10.026 -35.753  14.570  1.00  0.00     0.037 A 
HETATM    5  C13 UNL     1      11.062 -36.491  15.359  1.00  0.00     0.037 A 
ENDROOT
BRANCH   3   6
HETATM    6  C3  UNL     1      11.785 -34.028  15.245  1.00  0.00     0.241 C 
HETATM    7  O1  UNL     1      11.805 -32.942  15.884  1.00  0.00    -0.272 OA
HETATM    8  N2  UNL     1      12.625 -34.209  14.156  1.00  0.00    -0.351 N 
ATOM      9  H2  UNL     1      12.558 -35.112  13.686  1.00  0.00     0.163 HD
BRANCH   8  10
HETATM   10  C4  UNL     1      13.583 -33.280  13.601  1.00  0.00     0.142 C 
HETATM   11  C5  UNL     1      14.735 -33.968  12.992  1.00  0.00     0.057 C 
HETATM   12  C6  UNL     1      14.865 -33.939  11.521  1.00  0.00     0.119 C 
HETATM   13  C10 UNL     1      13.745 -33.360  10.743  1.00  0.00     0.196 C 
HETATM   14  O3  UNL     1      12.567 -33.207  11.519  1.00  0.00    -0.356 OA
HETATM   15  C11 UNL     1      12.934 -32.378  12.555  1.00  0.00     0.341 C 
BRANCH  12  16
HETATM   16  N3  UNL     1      15.286 -35.268  10.971  1.00  0.00    -0.305 N 
HETATM   17  C7  UNL     1      16.446 -35.446  10.351  1.00  0.00     0.150 A 
HETATM   18  C8  UNL     1      16.735 -36.686   9.863  1.00  0.00     0.108 A 
HETATM   19  S1  UNL     1      15.354 -37.578  10.294  1.00  0.00    -0.068 SA
HETATM   20  C9  UNL     1      14.487 -36.335  11.067  1.00  0.00     0.147 A 
HETATM   21  S2  UNL     1      13.017 -36.572  11.727  1.00  0.00    -0.052 SA
BRANCH  17  22
HETATM   22  O2  UNL     1      17.407 -34.402  10.171  1.00  0.00    -0.346 OA
ATOM     23  H2  UNL     1      18.343 -34.535  10.258  1.00  0.00     0.219 HD
ENDBRANCH  17  22
ENDBRANCH  12  16
BRANCH  15  24
HETATM   24  N4  UNL     1      11.829 -31.631  13.108  1.00  0.00    -0.051 N 
ATOM     25  H43 UNL     1      10.990 -31.727  12.536  1.00  0.00     0.277 HD
ATOM     26  H42 UNL     1      11.484 -32.058  13.968  1.00  0.00     0.277 HD
ATOM     27  H41 UNL     1      12.072 -30.651  13.250  1.00  0.00     0.277 HD
ENDBRANCH  15  24
ENDBRANCH   8  10
ENDBRANCH   3   6
TORSDOF 5
ENDMDL
MODEL 4
REMARK VINA RESULT: -6.714612915      4.366      6.485
REMARK  5 active torsions:
REMARK  status: ('A' for Active; 'I' for Inactive)
REMARK    1  A    between atoms: C2_3  and  C3_4 
REMARK       I    between atoms: C3_4  and  N2_6 
REMARK    2  A    between atoms: N2_6  and  C4_8 
REMARK    3  A    between atoms: C6_10  and  N3_11 
REMARK    4  A    between atoms: C7_12  and  O2_13 
REMARK    5  A    between atoms: C11_21  and  N4_22 
ROOT
HETATM    1  N1  UNL     1      13.402 -27.468   8.217  1.00  0.00    -0.196 NA
HETATM    2  C1  UNL     1      13.973 -28.449   8.443  1.00  0.00     0.079 C 
HETATM    3  C2  UNL     1      14.720 -29.696   8.720  1.00  0.00     0.129 A 
HETATM    4  C12 UNL     1      16.266 -29.500   8.856  1.00  0.00     0.037 A 
HETATM    5  C13 UNL     1      15.649 -30.141   7.651  1.00  0.00     0.037 A 
ENDROOT
BRANCH   3   6
HETATM    6  C3  UNL     1      14.144 -30.670   9.665  1.00  0.00     0.241 C 
HETATM    7  O1  UNL     1      13.452 -30.212  10.613  1.00  0.00    -0.272 OA
HETATM    8  N2  UNL     1      14.335 -32.039   9.542  1.00  0.00    -0.351 N 
ATOM      9  H2  UNL     1      14.903 -32.341   8.751  1.00  0.00     0.163 HD
BRANCH   8  10
HETATM   10  C4  UNL     1      13.831 -33.092  10.393  1.00  0.00     0.142 C 
HETATM   11  C5  UNL     1      13.427 -34.283   9.624  1.00  0.00     0.057 C 
HETATM   12  C6  UNL     1      14.255 -35.502   9.743  1.00  0.00     0.119 C 
HETATM   13  C10 UNL     1      15.524 -35.399  10.501  1.00  0.00     0.196 C 
HETATM   14  O3  UNL     1      15.913 -34.053  10.730  1.00  0.00    -0.356 OA
HETATM   15  C11 UNL     1      14.867 -33.503  11.435  1.00  0.00     0.341 C 
BRANCH  12  16
HETATM   16  N3  UNL     1      14.458 -36.170   8.418  1.00  0.00    -0.305 N 
HETATM   17  C7  UNL     1      15.082 -35.573   7.409  1.00  0.00     0.150 A 
HETATM   18  C8  UNL     1      15.201 -36.249   6.231  1.00  0.00     0.108 A 
HETATM   19  S1  UNL     1      14.425 -37.721   6.576  1.00  0.00    -0.068 SA
HETATM   20  C9  UNL     1      13.992 -37.401   8.190  1.00  0.00     0.147 A 
HETATM   21  S2  UNL     1      13.189 -38.477   9.112  1.00  0.00    -0.052 SA
BRANCH  17  22
HETATM   22  O2  UNL     1      15.636 -34.257   7.498  1.00  0.00    -0.346 OA
ATOM     23  H2  UNL     1      16.352 -34.032   8.081  1.00  0.00     0.219 HD
ENDBRANCH  17  22
ENDBRANCH  12  16
BRANCH  15  24
HETATM   24  N4  UNL     1      15.261 -32.386  12.262  1.00  0.00    -0.051 N 
ATOM     25  H43 UNL     1      15.994 -31.833  11.817  1.00  0.00     0.277 HD
ATOM     26  H42 UNL     1      14.530 -31.675  12.303  1.00  0.00     0.277 HD
ATOM     27  H41 UNL     1      15.539 -32.689  13.196  1.00  0.00     0.277 HD
ENDBRANCH  15  24
ENDBRANCH   8  10
ENDBRANCH   3   6
TORSDOF 5
ENDMDL
MODEL 5
REMARK VINA RESULT: -6.659883869      1.434      1.824
REMARK  5 active torsions:
REMARK  status: ('A' for Active; 'I' for Inactive)
REMARK    1  A    between atoms: C2_3  and  C3_4 
REMARK       I    between atoms: C3_4  and  N2_6 
REMARK    2  A    between atoms: N2_6  and  C4_8 
REMARK    3  A    between atoms: C6_10  and  N3_11 
REMARK    4  A    between atoms: C7_12  and  O2_13 
REMARK    5  A    between atoms: C11_21  and  N4_22 
ROOT
HETATM    1  N1  UNL     1       9.697 -36.517  14.595  1.00  0.00    -0.196 NA
HETATM    2  C1  UNL     1      10.101 -35.683  15.289  1.00  0.00     0.079 C 
HETATM    3  C2  UNL     1      10.604 -34.625  16.193  1.00  0.00     0.129 A 
HETATM    4  C12 UNL     1      10.731 -35.067  17.688  1.00  0.00     0.037 A 
HETATM    5  C13 UNL     1       9.646 -34.147  17.220  1.00  0.00     0.037 A 
ENDROOT
BRANCH   3   6
HETATM    6  C3  UNL     1      11.695 -33.752  15.720  1.00  0.00     0.241 C 
HETATM    7  O1  UNL     1      11.989 -32.759  16.438  1.00  0.00    -0.272 OA
HETATM    8  N2  UNL     1      12.389 -33.988  14.542  1.00  0.00    -0.351 N 
ATOM      9  H2  UNL     1      12.101 -34.811  14.011  1.00  0.00     0.163 HD
BRANCH   8  10
HETATM   10  C4  UNL     1      13.468 -33.217  13.971  1.00  0.00     0.142 C 
HETATM   11  C5  UNL     1      14.366 -34.044  13.143  1.00  0.00     0.057 C 
HETATM   12  C6  UNL     1      14.344 -33.845  11.680  1.00  0.00     0.119 C 
HETATM   13  C10 UNL     1      13.309 -32.942  11.124  1.00  0.00     0.196 C 
HETATM   14  O3  UNL     1      12.283 -32.650  12.061  1.00  0.00    -0.356 OA
HETATM   15  C11 UNL     1      12.935 -32.065  13.123  1.00  0.00     0.341 C 
BRANCH  12  16
HETATM   16  N3  UNL     1      14.393 -35.146  10.939  1.00  0.00    -0.305 N 
HETATM   17  C7  UNL     1      13.441 -36.065  11.050  1.00  0.00     0.150 A 
HETATM   18  C8  UNL     1      13.581 -37.229  10.356  1.00  0.00     0.108 A 
HETATM   19  S1  UNL     1      15.063 -37.000   9.556  1.00  0.00    -0.068 SA
HETATM   20  C9  UNL     1      15.424 -35.446  10.143  1.00  0.00     0.147 A 
HETATM   21  S2  UNL     1      16.776 -34.642   9.721  1.00  0.00    -0.052 SA
BRANCH  17  22
HETATM   22  O2  UNL     1      12.276 -35.890  11.862  1.00  0.00    -0.346 OA
ATOM     23  H2  UNL     1      12.312 -35.745  12.800  1.00  0.00     0.219 HD
ENDBRANCH  17  22
ENDBRANCH  12  16
BRANCH  15  24
HETATM   24  N4  UNL     1      12.091 -31.183  13.895  1.00  0.00    -0.051 N 
ATOM     25  H43 UNL     1      12.064 -30.246  13.493  1.00  0.00     0.277 HD
ATOM     26  H42 UNL     1      11.105 -31.427  13.794  1.00  0.00     0.277 HD
ATOM     27  H41 UNL     1      12.370 -31.160  14.876  1.00  0.00     0.277 HD
ENDBRANCH  15  24
ENDBRANCH   8  10
ENDBRANCH   3   6
TORSDOF 5
ENDMDL
