MODEL 1
REMARK VINA RESULT: -6.255796086      0.000      0.000
REMARK  6 active torsions:
REMARK  status: ('A' for Active; 'I' for Inactive)
REMARK    1  A    between atoms: O1_2  and  C2_3 
REMARK    2  A    between atoms: C3_6  and  N2_7 
REMARK    3  A    between atoms: C9_14  and  O2_16 
REMARK    4  A    between atoms: C11_19  and  C12_20 
REMARK    5  A    between atoms: C14_23  and  O4_24 
REMARK    6  A    between atoms: C15_26  and  O5_27 
ROOT
HETATM    1  C2  UNL     1      13.641 -31.149  11.049  1.00  0.00     0.160 A 
HETATM    2  N1  UNL     1      14.433 -31.948  10.413  1.00  0.00    -0.316 N 
ATOM      3  H1  UNL     1      14.597 -31.807   9.416  1.00  0.00     0.170 HD
HETATM    4  C3  UNL     1      15.033 -32.944  11.040  1.00  0.00     0.151 A 
HETATM    5  S1  UNL     1      14.448 -32.751  12.629  1.00  0.00    -0.051 SA
HETATM    6  C11 UNL     1      13.450 -31.378  12.388  1.00  0.00     0.068 A 
ENDROOT
BRANCH   4   7
HETATM    7  N2  UNL     1      15.917 -33.868  10.423  1.00  0.00    -0.341 N 
HETATM    8  C4  UNL     1      15.615 -34.848   9.684  1.00  0.00     0.022 C 
HETATM    9  C5  UNL     1      16.744 -35.674   9.156  1.00  0.00     0.056 C 
HETATM   10  C9  UNL     1      14.258 -35.276   9.276  1.00  0.00     0.092 C 
HETATM   11  C6  UNL     1      16.553 -35.989   7.690  1.00  0.00     0.006 C 
HETATM   12  C7  UNL     1      15.229 -36.610   7.393  1.00  0.00     0.004 C 
HETATM   13  C8  UNL     1      14.338 -36.632   8.611  1.00  0.00     0.043 C 
HETATM   14  C10 UNL     1      13.309 -35.398  10.436  1.00  0.00     0.052 C 
ATOM     15  H2  UNL     1      16.912 -33.724  10.597  1.00  0.00     0.167 HD
BRANCH  10  16
HETATM   16  O2  UNL     1      13.742 -34.309   8.422  1.00  0.00    -0.384 OA
ATOM     17  H2  UNL     1      13.950 -34.564   7.531  1.00  0.00     0.211 HD
ENDBRANCH  10  16
ENDBRANCH   4   7
BRANCH   1  18
HETATM   18  O1  UNL     1      12.985 -30.072  10.401  1.00  0.00    -0.340 OA
HETATM   19  C1  UNL     1      13.479 -29.470   9.238  1.00  0.00     0.211 C 
ENDBRANCH   1  18
BRANCH   6  20
HETATM   20  C12 UNL     1      12.587 -30.592  13.317  1.00  0.00     0.197 C 
HETATM   21  O3  UNL     1      12.097 -31.376  14.320  1.00  0.00    -0.375 OA
HETATM   22  C13 UNL     1      12.474 -30.885  15.540  1.00  0.00     0.203 C 
HETATM   23  C14 UNL     1      12.756 -29.399  15.323  1.00  0.00     0.173 C 
HETATM   24  C15 UNL     1      13.371 -29.463  13.918  1.00  0.00     0.183 C 
BRANCH  23  25
HETATM   25  O4  UNL     1      11.532 -28.720  15.278  1.00  0.00    -0.391 OA
ATOM     26  H4  UNL     1      11.671 -27.880  14.856  1.00  0.00     0.210 HD
ENDBRANCH  23  25
BRANCH  24  27
HETATM   27  O5  UNL     1      14.725 -29.679  13.975  1.00  0.00    -0.390 OA
ATOM     28  H5  UNL     1      15.203 -29.043  14.494  1.00  0.00     0.210 HD
ENDBRANCH  24  27
ENDBRANCH   6  20
TORSDOF 6
ENDMDL
MODEL 2
REMARK VINA RESULT: -6.016542017      1.824      2.257
REMARK  6 active torsions:
REMARK  status: ('A' for Active; 'I' for Inactive)
REMARK    1  A    between atoms: O1_2  and  C2_3 
REMARK    2  A    between atoms: C3_6  and  N2_7 
REMARK    3  A    between atoms: C9_14  and  O2_16 
REMARK    4  A    between atoms: C11_19  and  C12_20 
REMARK    5  A    between atoms: C14_23  and  O4_24 
REMARK    6  A    between atoms: C15_26  and  O5_27 
ROOT
HETATM    1  C2  UNL     1      13.576 -31.928  10.064  1.00  0.00     0.160 A 
HETATM    2  N1  UNL     1      13.852 -32.958   9.334  1.00  0.00    -0.316 N 
ATOM      3  H1  UNL     1      14.307 -32.829   8.430  1.00  0.00     0.170 HD
HETATM    4  C3  UNL     1      13.550 -34.177   9.744  1.00  0.00     0.151 A 
HETATM    5  S1  UNL     1      12.831 -33.860  11.257  1.00  0.00    -0.051 SA
HETATM    6  C11 UNL     1      12.964 -32.151  11.270  1.00  0.00     0.068 A 
ENDROOT
BRANCH   4   7
HETATM    7  N2  UNL     1      13.814 -35.363   9.011  1.00  0.00    -0.341 N 
HETATM    8  C4  UNL     1      14.730 -36.209   9.216  1.00  0.00     0.022 C 
HETATM    9  C5  UNL     1      14.793 -37.382   8.291  1.00  0.00     0.056 C 
HETATM   10  C9  UNL     1      15.760 -36.171  10.279  1.00  0.00     0.092 C 
HETATM   11  C6  UNL     1      15.015 -38.669   9.052  1.00  0.00     0.006 C 
HETATM   12  C7  UNL     1      16.203 -38.615   9.956  1.00  0.00     0.004 C 
HETATM   13  C8  UNL     1      16.804 -37.232  10.004  1.00  0.00     0.043 C 
HETATM   14  C10 UNL     1      16.470 -34.849  10.360  1.00  0.00     0.052 C 
ATOM     15  H2  UNL     1      13.191 -35.555   8.226  1.00  0.00     0.167 HD
BRANCH  10  16
HETATM   16  O2  UNL     1      15.125 -36.374  11.499  1.00  0.00    -0.384 OA
ATOM     17  H2  UNL     1      15.783 -36.633  12.133  1.00  0.00     0.211 HD
ENDBRANCH  10  16
ENDBRANCH   4   7
BRANCH   1  18
HETATM   18  O1  UNL     1      13.890 -30.609   9.647  1.00  0.00    -0.340 OA
HETATM   19  C1  UNL     1      15.149 -30.246   9.155  1.00  0.00     0.211 C 
ENDBRANCH   1  18
BRANCH   6  20
HETATM   20  C12 UNL     1      12.554 -31.122  12.271  1.00  0.00     0.197 C 
HETATM   21  O3  UNL     1      11.712 -31.648  13.205  1.00  0.00    -0.375 OA
HETATM   22  C13 UNL     1      12.235 -31.501  14.460  1.00  0.00     0.203 C 
HETATM   23  C14 UNL     1      13.207 -30.324  14.372  1.00  0.00     0.173 C 
HETATM   24  C15 UNL     1      13.764 -30.565  12.961  1.00  0.00     0.183 C 
BRANCH  23  25
HETATM   25  O4  UNL     1      12.465 -29.138  14.396  1.00  0.00    -0.391 OA
ATOM     26  H4  UNL     1      12.107 -28.991  13.528  1.00  0.00     0.210 HD
ENDBRANCH  23  25
BRANCH  24  27
HETATM   27  O5  UNL     1      14.843 -31.413  12.989  1.00  0.00    -0.390 OA
ATOM     28  H5  UNL     1      15.502 -31.190  13.635  1.00  0.00     0.210 HD
ENDBRANCH  24  27
ENDBRANCH   6  20
TORSDOF 6
ENDMDL
MODEL 3
REMARK VINA RESULT: -5.916937308      2.323      7.580
REMARK  6 active torsions:
REMARK  status: ('A' for Active; 'I' for Inactive)
REMARK    1  A    between atoms: O1_2  and  C2_3 
REMARK    2  A    between atoms: C3_6  and  N2_7 
REMARK    3  A    between atoms: C9_14  and  O2_16 
REMARK    4  A    between atoms: C11_19  and  C12_20 
REMARK    5  A    between atoms: C14_23  and  O4_24 
REMARK    6  A    between atoms: C15_26  and  O5_27 
ROOT
HETATM    1  C2  UNL     1      15.903 -34.609  10.043  1.00  0.00     0.160 A 
HETATM    2  N1  UNL     1      15.487 -33.523  10.606  1.00  0.00    -0.316 N 
ATOM      3  H1  UNL     1      16.121 -32.989  11.202  1.00  0.00     0.170 HD
HETATM    4  C3  UNL     1      14.252 -33.094  10.419  1.00  0.00     0.151 A 
HETATM    5  S1  UNL     1      13.627 -34.296   9.385  1.00  0.00    -0.051 SA
HETATM    6  C11 UNL     1      15.016 -35.292   9.252  1.00  0.00     0.068 A 
ENDROOT
BRANCH   4   7
HETATM    7  N2  UNL     1      13.711 -31.916  10.996  1.00  0.00    -0.341 N 
HETATM    8  C4  UNL     1      13.245 -31.772  12.162  1.00  0.00     0.022 C 
HETATM    9  C5  UNL     1      12.731 -30.416  12.527  1.00  0.00     0.056 C 
HETATM   10  C9  UNL     1      13.147 -32.803  13.220  1.00  0.00     0.092 C 
HETATM   11  C6  UNL     1      13.197 -30.007  13.906  1.00  0.00     0.006 C 
HETATM   12  C7  UNL     1      12.875 -31.018  14.955  1.00  0.00     0.004 C 
HETATM   13  C8  UNL     1      12.298 -32.278  14.357  1.00  0.00     0.043 C 
HETATM   14  C10 UNL     1      12.515 -34.079  12.737  1.00  0.00     0.052 C 
ATOM     15  H2  UNL     1      13.697 -31.088  10.400  1.00  0.00     0.167 HD
BRANCH  10  16
HETATM   16  O2  UNL     1      14.437 -33.114  13.636  1.00  0.00    -0.384 OA
ATOM     17  H2  UNL     1      14.607 -34.021  13.411  1.00  0.00     0.211 HD
ENDBRANCH  10  16
ENDBRANCH   4   7
BRANCH   1  18
HETATM   18  O1  UNL     1      17.224 -35.089  10.226  1.00  0.00    -0.340 OA
HETATM   19  C1  UNL     1      18.285 -34.736   9.385  1.00  0.00     0.211 C 
ENDBRANCH   1  18
BRANCH   6  20
HETATM   20  C12 UNL     1      15.271 -36.561   8.508  1.00  0.00     0.197 C 
HETATM   21  O3  UNL     1      14.135 -37.307   8.396  1.00  0.00    -0.375 OA
HETATM   22  C13 UNL     1      13.839 -37.535   7.080  1.00  0.00     0.203 C 
HETATM   23  C14 UNL     1      15.161 -37.396   6.325  1.00  0.00     0.173 C 
HETATM   24  C15 UNL     1      15.793 -36.256   7.135  1.00  0.00     0.183 C 
BRANCH  23  25
HETATM   25  O4  UNL     1      15.896 -38.574   6.504  1.00  0.00    -0.391 OA
ATOM     26  H4  UNL     1      15.438 -39.282   6.065  1.00  0.00     0.210 HD
ENDBRANCH  23  25
BRANCH  24  27
HETATM   27  O5  UNL     1      15.421 -35.029   6.645  1.00  0.00    -0.390 OA
ATOM     28  H5  UNL     1      14.690 -34.629   7.101  1.00  0.00     0.210 HD
ENDBRANCH  24  27
ENDBRANCH   6  20
TORSDOF 6
ENDMDL
MODEL 4
REMARK VINA RESULT: -5.783259603      5.642      9.378
REMARK  6 active torsions:
REMARK  status: ('A' for Active; 'I' for Inactive)
REMARK    1  A    between atoms: O1_2  and  C2_3 
REMARK    2  A    between atoms: C3_6  and  N2_7 
REMARK    3  A    between atoms: C9_14  and  O2_16 
REMARK    4  A    between atoms: C11_19  and  C12_20 
REMARK    5  A    between atoms: C14_23  and  O4_24 
REMARK    6  A    between atoms: C15_26  and  O5_27 
ROOT
HETATM    1  C2  UNL     1      12.537 -38.890  13.088  1.00  0.00     0.160 A 
HETATM    2  N1  UNL     1      12.550 -37.861  13.870  1.00  0.00    -0.316 N 
ATOM      3  H1  UNL     1      12.698 -37.991  14.871  1.00  0.00     0.170 HD
HETATM    4  C3  UNL     1      12.373 -36.644  13.388  1.00  0.00     0.151 A 
HETATM    5  S1  UNL     1      12.174 -36.960  11.726  1.00  0.00    -0.051 SA
HETATM    6  C11 UNL     1      12.334 -38.667  11.751  1.00  0.00     0.068 A 
ENDROOT
BRANCH   4   7
HETATM    7  N2  UNL     1      12.371 -35.460  14.171  1.00  0.00    -0.341 N 
HETATM    8  C4  UNL     1      11.494 -35.086  15.002  1.00  0.00     0.022 C 
HETATM    9  C5  UNL     1      11.731 -33.786  15.701  1.00  0.00     0.056 C 
HETATM   10  C9  UNL     1      10.247 -35.795  15.365  1.00  0.00     0.092 C 
HETATM   11  C6  UNL     1      11.430 -33.896  17.178  1.00  0.00     0.006 C 
HETATM   12  C7  UNL     1      10.066 -34.432  17.458  1.00  0.00     0.004 C 
HETATM   13  C8  UNL     1       9.373 -34.880  16.195  1.00  0.00     0.043 C 
HETATM   14  C10 UNL     1       9.445 -36.222  14.167  1.00  0.00     0.052 C 
ATOM     15  H2  UNL     1      13.170 -34.838  14.049  1.00  0.00     0.167 HD
BRANCH  10  16
HETATM   16  O2  UNL     1      10.596 -36.948  16.059  1.00  0.00    -0.384 OA
ATOM     17  H2  UNL     1       9.986 -37.052  16.780  1.00  0.00     0.211 HD
ENDBRANCH  10  16
ENDBRANCH   4   7
BRANCH   1  18
HETATM   18  O1  UNL     1      12.726 -40.207  13.579  1.00  0.00    -0.340 OA
HETATM   19  C1  UNL     1      13.968 -40.687  14.010  1.00  0.00     0.211 C 
ENDBRANCH   1  18
BRANCH   6  20
HETATM   20  C12 UNL     1      12.280 -39.694  10.669  1.00  0.00     0.197 C 
HETATM   21  O3  UNL     1      11.600 -39.231   9.580  1.00  0.00    -0.375 OA
HETATM   22  C13 UNL     1      12.396 -39.264   8.469  1.00  0.00     0.203 C 
HETATM   23  C14 UNL     1      13.463 -40.322   8.750  1.00  0.00     0.173 C 
HETATM   24  C15 UNL     1      13.669 -40.076  10.252  1.00  0.00     0.183 C 
BRANCH  23  25
HETATM   25  O4  UNL     1      12.896 -41.585   8.546  1.00  0.00    -0.391 OA
ATOM     26  H4  UNL     1      12.314 -41.534   7.797  1.00  0.00     0.210 HD
ENDBRANCH  23  25
BRANCH  24  27
HETATM   27  O5  UNL     1      14.616 -39.107  10.474  1.00  0.00    -0.390 OA
ATOM     28  H5  UNL     1      14.817 -38.957  11.390  1.00  0.00     0.210 HD
ENDBRANCH  24  27
ENDBRANCH   6  20
TORSDOF 6
ENDMDL
MODEL 5
REMARK VINA RESULT: -5.734270903      3.163      7.378
REMARK  6 active torsions:
REMARK  status: ('A' for Active; 'I' for Inactive)
REMARK    1  A    between atoms: O1_2  and  C2_3 
REMARK    2  A    between atoms: C3_6  and  N2_7 
REMARK    3  A    between atoms: C9_14  and  O2_16 
REMARK    4  A    between atoms: C11_19  and  C12_20 
REMARK    5  A    between atoms: C14_23  and  O4_24 
REMARK    6  A    between atoms: C15_26  and  O5_27 
ROOT
HETATM    1  C2  UNL     1      13.364 -34.235  10.252  1.00  0.00     0.160 A 
HETATM    2  N1  UNL     1      12.589 -34.560  11.233  1.00  0.00    -0.316 N 
ATOM      3  H1  UNL     1      11.953 -33.865  11.625  1.00  0.00     0.170 HD
HETATM    4  C3  UNL     1      12.610 -35.782  11.735  1.00  0.00     0.151 A 
HETATM    5  S1  UNL     1      13.798 -36.528  10.767  1.00  0.00    -0.051 SA
HETATM    6  C11 UNL     1      14.202 -35.202   9.759  1.00  0.00     0.068 A 
ENDROOT
BRANCH   4   7
HETATM    7  N2  UNL     1      11.797 -36.226  12.810  1.00  0.00    -0.341 N 
HETATM    8  C4  UNL     1      11.721 -35.737  13.973  1.00  0.00     0.022 C 
HETATM    9  C5  UNL     1      10.779 -36.396  14.928  1.00  0.00     0.056 C 
HETATM   10  C9  UNL     1      12.466 -34.573  14.504  1.00  0.00     0.092 C 
HETATM   11  C6  UNL     1       9.968 -35.374  15.691  1.00  0.00     0.006 C 
HETATM   12  C7  UNL     1      10.812 -34.348  16.370  1.00  0.00     0.004 C 
HETATM   13  C8  UNL     1      12.268 -34.491  16.001  1.00  0.00     0.043 C 
HETATM   14  C10 UNL     1      13.945 -34.658  14.247  1.00  0.00     0.052 C 
ATOM     15  H2  UNL     1      11.204 -37.034  12.622  1.00  0.00     0.167 HD
BRANCH  10  16
HETATM   16  O2  UNL     1      12.000 -33.434  13.856  1.00  0.00    -0.384 OA
ATOM     17  H2  UNL     1      11.843 -33.658  12.947  1.00  0.00     0.211 HD
ENDBRANCH  10  16
ENDBRANCH   4   7
BRANCH   1  18
HETATM   18  O1  UNL     1      13.360 -32.931   9.694  1.00  0.00    -0.340 OA
HETATM   19  C1  UNL     1      13.981 -31.839  10.311  1.00  0.00     0.211 C 
ENDBRANCH   1  18
BRANCH   6  20
HETATM   20  C12 UNL     1      15.177 -35.057   8.638  1.00  0.00     0.197 C 
HETATM   21  O3  UNL     1      16.233 -35.907   8.786  1.00  0.00    -0.375 OA
HETATM   22  C13 UNL     1      16.336 -36.736   7.704  1.00  0.00     0.203 C 
HETATM   23  C14 UNL     1      15.645 -36.007   6.552  1.00  0.00     0.173 C 
HETATM   24  C15 UNL     1      14.502 -35.339   7.328  1.00  0.00     0.183 C 
BRANCH  23  25
HETATM   25  O4  UNL     1      16.522 -35.033   6.059  1.00  0.00    -0.391 OA
ATOM     26  H4  UNL     1      16.069 -34.536   5.386  1.00  0.00     0.210 HD
ENDBRANCH  23  25
BRANCH  24  27
HETATM   27  O5  UNL     1      13.410 -36.165   7.418  1.00  0.00    -0.390 OA
ATOM     28  H5  UNL     1      13.036 -36.229   8.289  1.00  0.00     0.210 HD
ENDBRANCH  24  27
ENDBRANCH   6  20
TORSDOF 6
ENDMDL
