MODEL 1
REMARK VINA RESULT: -10.072834025      0.000      0.000
REMARK  5 active torsions:
REMARK  status: ('A' for Active; 'I' for Inactive)
REMARK    1  A    between atoms: N1_7  and  C6_8 
REMARK    2  A    between atoms: C6_8  and  C7_9 
REMARK    3  A    between atoms: C7_9  and  C8_10 
REMARK    4  A    between atoms: C11_13  and  N2_14 
REMARK    5  A    between atoms: C13_19  and  C14_20 
ROOT
HETATM    1  N2  UNL     1      18.529  69.220  47.551  1.00  0.00    -0.192 N 
ATOM      2  H2  UNL     1      18.200  69.160  48.515  1.00  0.00     0.184 HD
HETATM    3  C12 UNL     1      19.343  70.159  47.369  1.00  0.00     0.683 A 
HETATM    4  N3  UNL     1      19.699  70.969  48.415  1.00  0.00    -0.191 N 
ATOM      5  H3  UNL     1      19.264  70.789  49.320  1.00  0.00     0.184 HD
HETATM    6  C13 UNL     1      20.569  71.973  48.340  1.00  0.00     0.063 A 
HETATM    7  C18 UNL     1      21.144  72.205  47.109  1.00  0.00     0.048 A 
HETATM    8  C19 UNL     1      20.809  71.411  46.024  1.00  0.00     0.108 A 
HETATM    9  N6  UNL     1      19.931  70.422  46.181  1.00  0.00    -0.202 N 
ATOM     10  H6  UNL     1      19.694  69.843  45.376  1.00  0.00     0.183 HD
ENDROOT
BRANCH   1  11
HETATM   11  C11 UNL     1      17.985  68.257  46.742  1.00  0.00     0.049 A 
HETATM   12  C10 UNL     1      18.885  67.286  46.241  1.00  0.00     0.030 A 
HETATM   13  C9  UNL     1      18.437  66.264  45.475  1.00  0.00     0.010 A 
HETATM   14  C8  UNL     1      17.080  66.109  45.141  1.00  0.00    -0.044 A 
HETATM   15  C21 UNL     1      16.237  67.033  45.614  1.00  0.00     0.010 A 
HETATM   16  C20 UNL     1      16.679  68.108  46.414  1.00  0.00     0.030 A 
BRANCH  14  17
HETATM   17  C7  UNL     1      16.732  64.902  44.379  1.00  0.00     0.019 A 
HETATM   18  C22 UNL     1      17.818  63.984  43.911  1.00  0.00     0.021 A 
HETATM   19  C23 UNL     1      17.045  63.584  45.087  1.00  0.00     0.021 A 
BRANCH  17  20
HETATM   20  C6  UNL     1      15.532  64.975  43.463  1.00  0.00     0.078 C 
BRANCH  20  21
HETATM   21  N1  UNL     1      15.488  66.000  42.560  1.00  0.00    -0.364 N 
HETATM   22  C2  UNL     1      14.130  66.501  42.286  1.00  0.00     0.108 C 
HETATM   23  C1  UNL     1      13.036  65.817  42.998  1.00  0.00     0.035 C 
HETATM   24  C3  UNL     1      13.808  66.625  40.840  1.00  0.00     0.193 C 
HETATM   25  O1  UNL     1      14.253  65.549  40.076  1.00  0.00    -0.384 OA
HETATM   26  C4  UNL     1      15.622  65.533  40.129  1.00  0.00     0.212 C 
HETATM   27  C5  UNL     1      16.200  66.188  41.379  1.00  0.00     0.089 C 
ENDBRANCH  20  21
ENDBRANCH  17  20
ENDBRANCH  14  17
ENDBRANCH   1  11
BRANCH   6  28
HETATM   28  C14 UNL     1      20.929  72.788  49.495  1.00  0.00     0.022 A 
HETATM   29  C15 UNL     1      22.256  72.843  49.908  1.00  0.00     0.104 A 
HETATM   30  N4  UNL     1      22.640  73.632  50.938  1.00  0.00    -0.361 N 
HETATM   31  C16 UNL     1      21.762  74.397  51.610  1.00  0.00     0.180 A 
ATOM     32  H4  UNL     1      23.623  73.647  51.211  1.00  0.00     0.166 HD
HETATM   33  N5  UNL     1      20.484  74.353  51.223  1.00  0.00    -0.361 N 
HETATM   34  C17 UNL     1      20.041  73.571  50.187  1.00  0.00     0.104 A 
ATOM     35  H5  UNL     1      19.805  74.928  51.722  1.00  0.00     0.166 HD
ENDBRANCH   6  28
TORSDOF 5
ENDMDL
MODEL 2
REMARK VINA RESULT: -10.068318607      5.199      6.703
REMARK  5 active torsions:
REMARK  status: ('A' for Active; 'I' for Inactive)
REMARK    1  A    between atoms: N1_7  and  C6_8 
REMARK    2  A    between atoms: C6_8  and  C7_9 
REMARK    3  A    between atoms: C7_9  and  C8_10 
REMARK    4  A    between atoms: C11_13  and  N2_14 
REMARK    5  A    between atoms: C13_19  and  C14_20 
ROOT
HETATM    1  N2  UNL     1      13.877  69.249  46.351  1.00  0.00    -0.192 N 
ATOM      2  H2  UNL     1      13.935  70.175  45.925  1.00  0.00     0.184 HD
HETATM    3  C12 UNL     1      13.107  69.214  47.342  1.00  0.00     0.683 A 
HETATM    4  N3  UNL     1      12.448  70.348  47.738  1.00  0.00    -0.191 N 
ATOM      5  H3  UNL     1      12.629  71.204  47.215  1.00  0.00     0.184 HD
HETATM    6  C13 UNL     1      11.591  70.417  48.754  1.00  0.00     0.063 A 
HETATM    7  C18 UNL     1      11.363  69.251  49.452  1.00  0.00     0.048 A 
HETATM    8  C19 UNL     1      12.010  68.082  49.087  1.00  0.00     0.108 A 
HETATM    9  N6  UNL     1      12.852  68.094  48.054  1.00  0.00    -0.202 N 
ATOM     10  H6  UNL     1      13.320  67.227  47.792  1.00  0.00     0.183 HD
ENDROOT
BRANCH   1  11
HETATM   11  C11 UNL     1      14.658  68.320  45.714  1.00  0.00     0.049 A 
HETATM   12  C10 UNL     1      14.025  67.571  44.694  1.00  0.00     0.030 A 
HETATM   13  C9  UNL     1      14.724  66.664  43.972  1.00  0.00     0.010 A 
HETATM   14  C8  UNL     1      16.092  66.421  44.187  1.00  0.00    -0.044 A 
HETATM   15  C21 UNL     1      16.682  67.130  45.155  1.00  0.00     0.010 A 
HETATM   16  C20 UNL     1      15.975  68.080  45.923  1.00  0.00     0.030 A 
BRANCH  14  17
HETATM   17  C7  UNL     1      16.736  65.475  43.265  1.00  0.00     0.019 A 
HETATM   18  C22 UNL     1      18.190  65.156  43.428  1.00  0.00     0.021 A 
HETATM   19  C23 UNL     1      17.217  64.176  43.911  1.00  0.00     0.021 A 
BRANCH  17  20
HETATM   20  C6  UNL     1      16.241  65.445  41.837  1.00  0.00     0.078 C 
BRANCH  20  21
HETATM   21  N1  UNL     1      16.365  66.590  41.101  1.00  0.00    -0.364 N 
HETATM   22  C2  UNL     1      15.479  66.646  39.925  1.00  0.00     0.108 C 
HETATM   23  C1  UNL     1      14.622  65.468  39.709  1.00  0.00     0.035 C 
HETATM   24  C3  UNL     1      16.167  67.025  38.664  1.00  0.00     0.193 C 
HETATM   25  O1  UNL     1      17.404  66.406  38.497  1.00  0.00    -0.384 OA
HETATM   26  C4  UNL     1      18.233  66.848  39.493  1.00  0.00     0.212 C 
HETATM   27  C5  UNL     1      17.501  67.312  40.748  1.00  0.00     0.089 C 
ENDBRANCH  20  21
ENDBRANCH  17  20
ENDBRANCH  14  17
ENDBRANCH   1  11
BRANCH   6  28
HETATM   28  C14 UNL     1      10.900  71.649  49.116  1.00  0.00     0.022 A 
HETATM   29  C15 UNL     1      10.902  72.070  50.442  1.00  0.00     0.104 A 
HETATM   30  N4  UNL     1      10.322  73.236  50.811  1.00  0.00    -0.361 N 
HETATM   31  C16 UNL     1       9.717  74.039  49.918  1.00  0.00     0.180 A 
ATOM     32  H4  UNL     1      10.344  73.512  51.792  1.00  0.00     0.166 HD
HETATM   33  N5  UNL     1       9.708  73.646  48.641  1.00  0.00    -0.361 N 
HETATM   34  C17 UNL     1      10.280  72.474  48.214  1.00  0.00     0.104 A 
ATOM     35  H5  UNL     1       9.254  74.244  47.951  1.00  0.00     0.166 HD
ENDBRANCH   6  28
TORSDOF 5
ENDMDL
MODEL 3
REMARK VINA RESULT: -9.977342059      0.905      1.656
REMARK  5 active torsions:
REMARK  status: ('A' for Active; 'I' for Inactive)
REMARK    1  A    between atoms: N1_7  and  C6_8 
REMARK    2  A    between atoms: C6_8  and  C7_9 
REMARK    3  A    between atoms: C7_9  and  C8_10 
REMARK    4  A    between atoms: C11_13  and  N2_14 
REMARK    5  A    between atoms: C13_19  and  C14_20 
ROOT
HETATM    1  N2  UNL     1      18.675  69.007  47.544  1.00  0.00    -0.192 N 
ATOM      2  H2  UNL     1      18.323  68.966  48.501  1.00  0.00     0.184 HD
HETATM    3  C12 UNL     1      19.464  69.965  47.354  1.00  0.00     0.683 A 
HETATM    4  N3  UNL     1      19.768  70.816  48.382  1.00  0.00    -0.191 N 
ATOM      5  H3  UNL     1      19.315  70.650  49.280  1.00  0.00     0.184 HD
HETATM    6  C13 UNL     1      20.609  71.844  48.298  1.00  0.00     0.063 A 
HETATM    7  C18 UNL     1      21.208  72.057  47.075  1.00  0.00     0.048 A 
HETATM    8  C19 UNL     1      20.926  71.221  46.007  1.00  0.00     0.108 A 
HETATM    9  N6  UNL     1      20.075  70.210  46.173  1.00  0.00    -0.202 N 
ATOM     10  H6  UNL     1      19.877  69.599  45.381  1.00  0.00     0.183 HD
ENDROOT
BRANCH   1  11
HETATM   11  C11 UNL     1      18.182  68.003  46.751  1.00  0.00     0.049 A 
HETATM   12  C10 UNL     1      16.936  68.257  46.129  1.00  0.00     0.030 A 
HETATM   13  C9  UNL     1      16.390  67.350  45.287  1.00  0.00     0.010 A 
HETATM   14  C8  UNL     1      17.017  66.128  44.985  1.00  0.00    -0.044 A 
HETATM   15  C21 UNL     1      18.191  65.893  45.579  1.00  0.00     0.010 A 
HETATM   16  C20 UNL     1      18.781  66.823  46.462  1.00  0.00     0.030 A 
BRANCH  14  17
HETATM   17  C7  UNL     1      16.348  65.285  43.984  1.00  0.00     0.019 A 
HETATM   18  C22 UNL     1      16.938  63.959  43.618  1.00  0.00     0.021 A 
HETATM   19  C23 UNL     1      15.789  63.968  44.523  1.00  0.00     0.021 A 
BRANCH  17  20
HETATM   20  C6  UNL     1      15.621  65.983  42.857  1.00  0.00     0.078 C 
BRANCH  20  21
HETATM   21  N1  UNL     1      15.860  65.545  41.584  1.00  0.00    -0.364 N 
HETATM   22  C2  UNL     1      16.950  66.258  40.898  1.00  0.00     0.108 C 
HETATM   23  C1  UNL     1      17.597  67.337  41.666  1.00  0.00     0.035 C 
HETATM   24  C3  UNL     1      16.602  66.732  39.533  1.00  0.00     0.193 C 
HETATM   25  O1  UNL     1      15.327  67.286  39.444  1.00  0.00    -0.384 OA
HETATM   26  C4  UNL     1      14.419  66.296  39.712  1.00  0.00     0.212 C 
HETATM   27  C5  UNL     1      14.969  65.171  40.582  1.00  0.00     0.089 C 
ENDBRANCH  20  21
ENDBRANCH  17  20
ENDBRANCH  14  17
ENDBRANCH   1  11
BRANCH   6  28
HETATM   28  C14 UNL     1      20.913  72.706  49.435  1.00  0.00     0.022 A 
HETATM   29  C15 UNL     1      22.212  72.754  49.929  1.00  0.00     0.104 A 
HETATM   30  N4  UNL     1      22.548  73.582  50.945  1.00  0.00    -0.361 N 
HETATM   31  C16 UNL     1      21.646  74.394  51.525  1.00  0.00     0.180 A 
ATOM     32  H4  UNL     1      23.512  73.591  51.280  1.00  0.00     0.166 HD
HETATM   33  N5  UNL     1      20.395  74.357  51.060  1.00  0.00    -0.361 N 
HETATM   34  C17 UNL     1      20.001  73.536  50.033  1.00  0.00     0.104 A 
ATOM     35  H5  UNL     1      19.699  74.967  51.488  1.00  0.00     0.166 HD
ENDBRANCH   6  28
TORSDOF 5
ENDMDL
MODEL 4
REMARK VINA RESULT: -9.947174788      3.818     10.300
REMARK  5 active torsions:
REMARK  status: ('A' for Active; 'I' for Inactive)
REMARK    1  A    between atoms: N1_7  and  C6_8 
REMARK    2  A    between atoms: C6_8  and  C7_9 
REMARK    3  A    between atoms: C7_9  and  C8_10 
REMARK    4  A    between atoms: C11_13  and  N2_14 
REMARK    5  A    between atoms: C13_19  and  C14_20 
ROOT
HETATM    1  N2  UNL     1      18.668  67.863  46.440  1.00  0.00    -0.192 N 
ATOM      2  H2  UNL     1      18.890  67.420  47.332  1.00  0.00     0.184 HD
HETATM    3  C12 UNL     1      18.144  67.071  45.618  1.00  0.00     0.683 A 
HETATM    4  N3  UNL     1      17.924  65.766  45.968  1.00  0.00    -0.191 N 
ATOM      5  H3  UNL     1      18.221  65.472  46.898  1.00  0.00     0.184 HD
HETATM    6  C13 UNL     1      17.353  64.852  45.187  1.00  0.00     0.063 A 
HETATM    7  C18 UNL     1      16.962  65.267  43.932  1.00  0.00     0.048 A 
HETATM    8  C19 UNL     1      17.169  66.578  43.536  1.00  0.00     0.108 A 
HETATM    9  N6  UNL     1      17.745  67.434  44.378  1.00  0.00    -0.202 N 
ATOM     10  H6  UNL     1      17.889  68.397  44.077  1.00  0.00     0.183 HD
ENDROOT
BRANCH   1  11
HETATM   11  C11 UNL     1      19.009  69.190  46.404  1.00  0.00     0.049 A 
HETATM   12  C10 UNL     1      18.287  70.041  47.274  1.00  0.00     0.030 A 
HETATM   13  C9  UNL     1      18.583  71.359  47.351  1.00  0.00     0.010 A 
HETATM   14  C8  UNL     1      19.608  71.947  46.588  1.00  0.00    -0.044 A 
HETATM   15  C21 UNL     1      20.283  71.138  45.766  1.00  0.00     0.010 A 
HETATM   16  C20 UNL     1      19.992  69.761  45.667  1.00  0.00     0.030 A 
BRANCH  14  17
HETATM   17  C7  UNL     1      19.873  73.370  46.846  1.00  0.00     0.019 A 
HETATM   18  C22 UNL     1      20.596  74.185  45.820  1.00  0.00     0.021 A 
HETATM   19  C23 UNL     1      19.144  74.338  45.915  1.00  0.00     0.021 A 
BRANCH  17  20
HETATM   20  C6  UNL     1      20.133  73.784  48.276  1.00  0.00     0.078 C 
BRANCH  20  21
HETATM   21  N1  UNL     1      21.137  73.143  48.948  1.00  0.00    -0.364 N 
HETATM   22  C2  UNL     1      21.049  73.261  50.413  1.00  0.00     0.108 C 
HETATM   23  C1  UNL     1      19.923  74.059  50.929  1.00  0.00     0.035 C 
HETATM   24  C3  UNL     1      22.318  73.675  51.066  1.00  0.00     0.193 C 
HETATM   25  O1  UNL     1      22.989  74.690  50.387  1.00  0.00    -0.384 OA
HETATM   26  C4  UNL     1      23.368  74.199  49.166  1.00  0.00     0.212 C 
HETATM   27  C5  UNL     1      22.495  73.056  48.660  1.00  0.00     0.089 C 
ENDBRANCH  20  21
ENDBRANCH  17  20
ENDBRANCH  14  17
ENDBRANCH   1  11
BRANCH   6  28
HETATM   28  C14 UNL     1      17.123  63.480  45.623  1.00  0.00     0.022 A 
HETATM   29  C15 UNL     1      17.953  62.918  46.587  1.00  0.00     0.104 A 
HETATM   30  N4  UNL     1      17.738  61.669  47.060  1.00  0.00    -0.361 N 
HETATM   31  C16 UNL     1      16.717  60.912  46.620  1.00  0.00     0.180 A 
ATOM     32  H4  UNL     1      18.368  61.292  47.768  1.00  0.00     0.166 HD
HETATM   33  N5  UNL     1      15.913  61.439  45.694  1.00  0.00    -0.361 N 
HETATM   34  C17 UNL     1      16.086  62.699  45.181  1.00  0.00     0.104 A 
ATOM     35  H5  UNL     1      15.133  60.877  45.351  1.00  0.00     0.166 HD
ENDBRANCH   6  28
TORSDOF 5
ENDMDL
MODEL 5
REMARK VINA RESULT: -9.874923528      1.963      2.573
REMARK  5 active torsions:
REMARK  status: ('A' for Active; 'I' for Inactive)
REMARK    1  A    between atoms: N1_7  and  C6_8 
REMARK    2  A    between atoms: C6_8  and  C7_9 
REMARK    3  A    between atoms: C7_9  and  C8_10 
REMARK    4  A    between atoms: C11_13  and  N2_14 
REMARK    5  A    between atoms: C13_19  and  C14_20 
ROOT
HETATM    1  N2  UNL     1      20.523  70.304  46.710  1.00  0.00    -0.192 N 
ATOM      2  H2  UNL     1      21.256  69.899  47.293  1.00  0.00     0.184 HD
HETATM    3  C12 UNL     1      20.594  71.555  46.632  1.00  0.00     0.683 A 
HETATM    4  N3  UNL     1      21.589  72.226  47.290  1.00  0.00    -0.191 N 
ATOM      5  H3  UNL     1      22.238  71.675  47.851  1.00  0.00     0.184 HD
HETATM    6  C13 UNL     1      21.774  73.544  47.255  1.00  0.00     0.063 A 
HETATM    7  C18 UNL     1      20.885  74.274  46.496  1.00  0.00     0.048 A 
HETATM    8  C19 UNL     1      19.861  73.635  45.816  1.00  0.00     0.108 A 
HETATM    9  N6  UNL     1      19.746  72.311  45.899  1.00  0.00    -0.202 N 
ATOM     10  H6  UNL     1      18.990  71.850  45.392  1.00  0.00     0.183 HD
ENDROOT
BRANCH   1  11
HETATM   11  C11 UNL     1      19.677  69.361  46.185  1.00  0.00     0.049 A 
HETATM   12  C10 UNL     1      19.942  68.962  44.853  1.00  0.00     0.030 A 
HETATM   13  C9  UNL     1      19.196  67.999  44.262  1.00  0.00     0.010 A 
HETATM   14  C8  UNL     1      18.139  67.351  44.925  1.00  0.00    -0.044 A 
HETATM   15  C21 UNL     1      17.893  67.735  46.181  1.00  0.00     0.010 A 
HETATM   16  C20 UNL     1      18.655  68.738  46.819  1.00  0.00     0.030 A 
BRANCH  14  17
HETATM   17  C7  UNL     1      17.480  66.264  44.187  1.00  0.00     0.019 A 
HETATM   18  C22 UNL     1      18.294  65.117  43.675  1.00  0.00     0.021 A 
HETATM   19  C23 UNL     1      17.504  64.906  44.888  1.00  0.00     0.021 A 
BRANCH  17  20
HETATM   20  C6  UNL     1      16.290  66.625  43.327  1.00  0.00     0.078 C 
BRANCH  20  21
HETATM   21  N1  UNL     1      15.500  65.603  42.881  1.00  0.00    -0.364 N 
HETATM   22  C2  UNL     1      15.457  65.473  41.414  1.00  0.00     0.108 C 
HETATM   23  C1  UNL     1      16.243  66.463  40.657  1.00  0.00     0.035 C 
HETATM   24  C3  UNL     1      14.086  65.363  40.853  1.00  0.00     0.193 C 
HETATM   25  O1  UNL     1      13.173  66.237  41.439  1.00  0.00    -0.384 OA
HETATM   26  C4  UNL     1      13.041  65.886  42.756  1.00  0.00     0.212 C 
HETATM   27  C5  UNL     1      14.257  65.168  43.331  1.00  0.00     0.089 C 
ENDBRANCH  20  21
ENDBRANCH  17  20
ENDBRANCH  14  17
ENDBRANCH   1  11
BRANCH   6  28
HETATM   28  C14 UNL     1      22.868  74.203  47.960  1.00  0.00     0.022 A 
HETATM   29  C15 UNL     1      24.050  74.481  47.282  1.00  0.00     0.104 A 
HETATM   30  N4  UNL     1      25.066  75.142  47.882  1.00  0.00    -0.361 N 
HETATM   31  C16 UNL     1      24.984  75.560  49.158  1.00  0.00     0.180 A 
ATOM     32  H4  UNL     1      25.918  75.329  47.352  1.00  0.00     0.166 HD
HETATM   33  N5  UNL     1      23.854  75.299  49.820  1.00  0.00    -0.361 N 
HETATM   34  C17 UNL     1      22.794  74.632  49.259  1.00  0.00     0.104 A 
ATOM     35  H5  UNL     1      23.775  75.611  50.788  1.00  0.00     0.166 HD
ENDBRANCH   6  28
TORSDOF 5
ENDMDL
