MODEL 1
REMARK VINA RESULT: -8.943903745      0.000      0.000
REMARK  7 active torsions:
REMARK  status: ('A' for Active; 'I' for Inactive)
REMARK    1  A    between atoms: N1_2  and  C2_3 
REMARK    2  A    between atoms: N1_2  and  C7_12 
REMARK    3  A    between atoms: C2_3  and  C3_4 
REMARK    4  A    between atoms: C6_7  and  N2_8 
REMARK    5  A    between atoms: C7_12  and  C8_18 
REMARK    6  A    between atoms: N3_13  and  N4_15 
REMARK    7  A    between atoms: N5_23  and  C13_24 
ROOT
HETATM    1  C7  UNL     1      16.363  67.158  45.259  1.00  0.00     0.127 C 
HETATM    2  N3  UNL     1      15.163  67.535  44.983  1.00  0.00    -0.294 N 
ATOM      3  H3  UNL     1      14.823  68.372  45.457  1.00  0.00     0.187 HD
ENDROOT
BRANCH   1   4
HETATM    4  N1  UNL     1      17.021  67.999  46.203  1.00  0.00    -0.367 N 
HETATM    5  C1  UNL     1      16.308  69.042  46.908  1.00  0.00     0.151 C 
BRANCH   4   6
HETATM    6  C2  UNL     1      18.430  67.857  46.495  1.00  0.00     0.169 C 
BRANCH   6   7
HETATM    7  C3  UNL     1      19.227  69.084  46.268  1.00  0.00     0.003 A 
HETATM    8  C4  UNL     1      19.656  69.746  45.166  1.00  0.00     0.019 A 
HETATM    9  C5  UNL     1      20.384  70.864  45.340  1.00  0.00     0.045 A 
HETATM   10  C6  UNL     1      20.640  71.253  46.626  1.00  0.00     0.144 A 
HETATM   11  S1  UNL     1      19.844  70.030  47.546  1.00  0.00    -0.069 SA
BRANCH  10  12
HETATM   12  N2  UNL     1      21.380  72.392  47.093  1.00  0.00    -0.108 N 
HETATM   13  O1  UNL     1      22.581  72.453  46.804  1.00  0.00    -0.531 OA
HETATM   14  O2  UNL     1      20.801  73.381  47.829  1.00  0.00    -0.531 OA
ENDBRANCH  10  12
ENDBRANCH   6   7
ENDBRANCH   4   6
ENDBRANCH   1   4
BRANCH   1  15
HETATM   15  C8  UNL     1      16.931  65.968  44.647  1.00  0.00     0.291 C 
HETATM   16  C9  UNL     1      17.499  65.064  45.763  1.00  0.00     0.044 C 
HETATM   17  C10 UNL     1      17.255  63.609  45.313  1.00  0.00     0.004 C 
HETATM   18  C11 UNL     1      17.698  63.533  43.862  1.00  0.00     0.030 C 
HETATM   19  C12 UNL     1      18.532  64.724  43.487  1.00  0.00     0.274 C 
HETATM   20  N5  UNL     1      17.888  66.019  43.652  1.00  0.00     0.105 N 
BRANCH  20  21
HETATM   21  C13 UNL     1      17.647  66.579  42.369  1.00  0.00     0.224 C 
HETATM   22  C14 UNL     1      16.677  65.694  41.600  1.00  0.00     0.036 C 
HETATM   23  C15 UNL     1      15.602  66.519  40.918  1.00  0.00     0.002 C 
HETATM   24  C16 UNL     1      16.045  66.972  39.525  1.00  0.00     0.000 C 
HETATM   25  C17 UNL     1      17.239  67.850  39.723  1.00  0.00     0.000 C 
HETATM   26  C18 UNL     1      18.442  66.993  40.009  1.00  0.00     0.002 C 
HETATM   27  C19 UNL     1      18.754  66.921  41.487  1.00  0.00     0.036 C 
ENDBRANCH  20  21
ENDBRANCH   1  15
BRANCH   2  28
HETATM   28  N4  UNL     1      14.292  66.919  44.112  1.00  0.00    -0.344 N 
ATOM     29  H42 UNL     1      14.212  65.907  44.208  1.00  0.00     0.176 HD
ATOM     30  H41 UNL     1      13.730  67.375  43.393  1.00  0.00     0.176 HD
ENDBRANCH   2  28
TORSDOF 7
ENDMDL
MODEL 2
REMARK VINA RESULT: -8.729672518      1.547      2.217
REMARK  7 active torsions:
REMARK  status: ('A' for Active; 'I' for Inactive)
REMARK    1  A    between atoms: N1_2  and  C2_3 
REMARK    2  A    between atoms: N1_2  and  C7_12 
REMARK    3  A    between atoms: C2_3  and  C3_4 
REMARK    4  A    between atoms: C6_7  and  N2_8 
REMARK    5  A    between atoms: C7_12  and  C8_18 
REMARK    6  A    between atoms: N3_13  and  N4_15 
REMARK    7  A    between atoms: N5_23  and  C13_24 
ROOT
HETATM    1  C7  UNL     1      17.271  67.274  45.169  1.00  0.00     0.127 C 
HETATM    2  N3  UNL     1      16.154  67.915  45.131  1.00  0.00    -0.294 N 
ATOM      3  H3  UNL     1      16.180  68.898  45.403  1.00  0.00     0.187 HD
ENDROOT
BRANCH   1   4
HETATM    4  N1  UNL     1      18.372  68.072  45.596  1.00  0.00    -0.367 N 
HETATM    5  C1  UNL     1      19.350  68.572  44.655  1.00  0.00     0.151 C 
BRANCH   4   6
HETATM    6  C2  UNL     1      18.568  68.412  46.988  1.00  0.00     0.169 C 
BRANCH   6   7
HETATM    7  C3  UNL     1      18.916  69.831  47.225  1.00  0.00     0.003 A 
HETATM    8  C4  UNL     1      20.044  70.481  47.603  1.00  0.00     0.019 A 
HETATM    9  C5  UNL     1      19.995  71.820  47.723  1.00  0.00     0.045 A 
HETATM   10  C6  UNL     1      18.802  72.432  47.455  1.00  0.00     0.144 A 
HETATM   11  S1  UNL     1      17.789  71.099  47.041  1.00  0.00    -0.069 SA
BRANCH  10  12
HETATM   12  N2  UNL     1      18.474  73.830  47.503  1.00  0.00    -0.108 N 
HETATM   13  O1  UNL     1      17.361  74.172  47.086  1.00  0.00    -0.531 OA
HETATM   14  O2  UNL     1      19.341  74.761  47.987  1.00  0.00    -0.531 OA
ENDBRANCH  10  12
ENDBRANCH   6   7
ENDBRANCH   4   6
ENDBRANCH   1   4
BRANCH   1  15
HETATM   15  C8  UNL     1      17.333  65.865  44.816  1.00  0.00     0.291 C 
HETATM   16  C9  UNL     1      18.067  65.108  45.944  1.00  0.00     0.044 C 
HETATM   17  C10 UNL     1      17.394  63.724  46.050  1.00  0.00     0.004 C 
HETATM   18  C11 UNL     1      17.267  63.202  44.630  1.00  0.00     0.030 C 
HETATM   19  C12 UNL     1      18.134  63.984  43.686  1.00  0.00     0.274 C 
HETATM   20  N5  UNL     1      17.864  65.413  43.623  1.00  0.00     0.105 N 
BRANCH  20  21
HETATM   21  C13 UNL     1      17.300  65.718  42.356  1.00  0.00     0.224 C 
HETATM   22  C14 UNL     1      17.784  67.086  41.898  1.00  0.00     0.036 C 
HETATM   23  C15 UNL     1      18.212  67.061  40.443  1.00  0.00     0.002 C 
HETATM   24  C16 UNL     1      17.033  67.342  39.510  1.00  0.00     0.000 C 
HETATM   25  C17 UNL     1      16.052  66.233  39.718  1.00  0.00     0.000 C 
HETATM   26  C18 UNL     1      15.305  66.467  41.002  1.00  0.00     0.002 C 
HETATM   27  C19 UNL     1      15.861  65.646  42.144  1.00  0.00     0.036 C 
ENDBRANCH  20  21
ENDBRANCH   1  15
BRANCH   2  28
HETATM   28  N4  UNL     1      14.929  67.406  44.761  1.00  0.00    -0.344 N 
ATOM     29  H42 UNL     1      14.945  66.474  44.348  1.00  0.00     0.176 HD
ATOM     30  H41 UNL     1      14.025  67.868  44.861  1.00  0.00     0.176 HD
ENDBRANCH   2  28
TORSDOF 7
ENDMDL
MODEL 3
REMARK VINA RESULT: -8.707170436      1.281      1.667
REMARK  7 active torsions:
REMARK  status: ('A' for Active; 'I' for Inactive)
REMARK    1  A    between atoms: N1_2  and  C2_3 
REMARK    2  A    between atoms: N1_2  and  C7_12 
REMARK    3  A    between atoms: C2_3  and  C3_4 
REMARK    4  A    between atoms: C6_7  and  N2_8 
REMARK    5  A    between atoms: C7_12  and  C8_18 
REMARK    6  A    between atoms: N3_13  and  N4_15 
REMARK    7  A    between atoms: N5_23  and  C13_24 
ROOT
HETATM    1  C7  UNL     1      17.097  67.628  45.241  1.00  0.00     0.127 C 
HETATM    2  N3  UNL     1      15.908  68.121  45.276  1.00  0.00    -0.294 N 
ATOM      3  H3  UNL     1      15.807  69.048  45.690  1.00  0.00     0.187 HD
ENDROOT
BRANCH   1   4
HETATM    4  N1  UNL     1      18.086  68.486  45.804  1.00  0.00    -0.367 N 
HETATM    5  C1  UNL     1      19.236  68.914  45.037  1.00  0.00     0.151 C 
BRANCH   4   6
HETATM    6  C2  UNL     1      17.993  68.962  47.166  1.00  0.00     0.169 C 
BRANCH   6   7
HETATM    7  C3  UNL     1      18.732  70.218  47.426  1.00  0.00     0.003 A 
HETATM    8  C4  UNL     1      19.932  70.516  47.979  1.00  0.00     0.019 A 
HETATM    9  C5  UNL     1      20.293  71.810  48.055  1.00  0.00     0.045 A 
HETATM   10  C6  UNL     1      19.415  72.737  47.566  1.00  0.00     0.144 A 
HETATM   11  S1  UNL     1      18.110  71.753  47.013  1.00  0.00    -0.069 SA
BRANCH  10  12
HETATM   12  N2  UNL     1      19.545  74.167  47.520  1.00  0.00    -0.108 N 
HETATM   13  O1  UNL     1      20.683  74.642  47.612  1.00  0.00    -0.531 OA
HETATM   14  O2  UNL     1      18.468  74.988  47.381  1.00  0.00    -0.531 OA
ENDBRANCH  10  12
ENDBRANCH   6   7
ENDBRANCH   4   6
ENDBRANCH   1   4
BRANCH   1  15
HETATM   15  C8  UNL     1      17.340  66.307  44.685  1.00  0.00     0.291 C 
HETATM   16  C9  UNL     1      18.010  65.433  45.768  1.00  0.00     0.044 C 
HETATM   17  C10 UNL     1      17.470  64.002  45.570  1.00  0.00     0.004 C 
HETATM   18  C11 UNL     1      17.561  63.715  44.082  1.00  0.00     0.030 C 
HETATM   19  C12 UNL     1      18.449  64.709  43.391  1.00  0.00     0.274 C 
HETATM   20  N5  UNL     1      18.047  66.102  43.516  1.00  0.00     0.105 N 
BRANCH  20  21
HETATM   21  C13 UNL     1      17.606  66.568  42.249  1.00  0.00     0.224 C 
HETATM   22  C14 UNL     1      16.557  65.618  41.692  1.00  0.00     0.036 C 
HETATM   23  C15 UNL     1      15.372  66.377  41.124  1.00  0.00     0.002 C 
HETATM   24  C16 UNL     1      15.595  66.739  39.654  1.00  0.00     0.000 C 
HETATM   25  C17 UNL     1      16.782  67.647  39.614  1.00  0.00     0.000 C 
HETATM   26  C18 UNL     1      18.035  66.831  39.775  1.00  0.00     0.002 C 
HETATM   27  C19 UNL     1      18.563  66.866  41.192  1.00  0.00     0.036 C 
ENDBRANCH  20  21
ENDBRANCH   1  15
BRANCH   2  28
HETATM   28  N4  UNL     1      14.758  67.522  44.810  1.00  0.00    -0.344 N 
ATOM     29  H42 UNL     1      14.089  68.143  44.357  1.00  0.00     0.176 HD
ATOM     30  H41 UNL     1      14.522  66.532  44.876  1.00  0.00     0.176 HD
ENDBRANCH   2  28
TORSDOF 7
ENDMDL
MODEL 4
REMARK VINA RESULT: -8.676082837      1.001      1.167
REMARK  7 active torsions:
REMARK  status: ('A' for Active; 'I' for Inactive)
REMARK    1  A    between atoms: N1_2  and  C2_3 
REMARK    2  A    between atoms: N1_2  and  C7_12 
REMARK    3  A    between atoms: C2_3  and  C3_4 
REMARK    4  A    between atoms: C6_7  and  N2_8 
REMARK    5  A    between atoms: C7_12  and  C8_18 
REMARK    6  A    between atoms: N3_13  and  N4_15 
REMARK    7  A    between atoms: N5_23  and  C13_24 
ROOT
HETATM    1  C7  UNL     1      15.430  66.559  44.622  1.00  0.00     0.127 C 
HETATM    2  N3  UNL     1      14.203  66.440  44.251  1.00  0.00    -0.294 N 
ATOM      3  H3  UNL     1      13.537  67.106  44.643  1.00  0.00     0.187 HD
ENDROOT
BRANCH   1   4
HETATM    4  N1  UNL     1      15.646  67.628  45.540  1.00  0.00    -0.367 N 
HETATM    5  C1  UNL     1      14.787  68.792  45.558  1.00  0.00     0.151 C 
BRANCH   4   6
HETATM    6  C2  UNL     1      16.737  67.605  46.490  1.00  0.00     0.169 C 
BRANCH   6   7
HETATM    7  C3  UNL     1      17.855  68.515  46.156  1.00  0.00     0.003 A 
HETATM    8  C4  UNL     1      18.755  68.582  45.144  1.00  0.00     0.019 A 
HETATM    9  C5  UNL     1      19.661  69.577  45.164  1.00  0.00     0.045 A 
HETATM   10  C6  UNL     1      19.607  70.454  46.212  1.00  0.00     0.144 A 
HETATM   11  S1  UNL     1      18.282  69.847  47.133  1.00  0.00    -0.069 SA
BRANCH  10  12
HETATM   12  N2  UNL     1      20.441  71.593  46.478  1.00  0.00    -0.108 N 
HETATM   13  O1  UNL     1      21.649  71.490  46.230  1.00  0.00    -0.531 OA
HETATM   14  O2  UNL     1      19.943  72.754  46.984  1.00  0.00    -0.531 OA
ENDBRANCH  10  12
ENDBRANCH   6   7
ENDBRANCH   4   6
ENDBRANCH   1   4
BRANCH   1  15
HETATM   15  C8  UNL     1      16.450  65.647  44.131  1.00  0.00     0.291 C 
HETATM   16  C9  UNL     1      17.039  64.876  45.332  1.00  0.00     0.044 C 
HETATM   17  C10 UNL     1      17.356  63.453  44.826  1.00  0.00     0.004 C 
HETATM   18  C11 UNL     1      18.077  63.625  43.500  1.00  0.00     0.030 C 
HETATM   19  C12 UNL     1      18.555  65.037  43.321  1.00  0.00     0.274 C 
HETATM   20  N5  UNL     1      17.520  66.060  43.361  1.00  0.00     0.105 N 
BRANCH  20  21
HETATM   21  C13 UNL     1      17.374  66.616  42.062  1.00  0.00     0.224 C 
HETATM   22  C14 UNL     1      16.462  65.730  41.227  1.00  0.00     0.036 C 
HETATM   23  C15 UNL     1      15.440  66.554  40.465  1.00  0.00     0.002 C 
HETATM   24  C16 UNL     1      15.985  67.002  39.108  1.00  0.00     0.000 C 
HETATM   25  C17 UNL     1      17.163  67.879  39.390  1.00  0.00     0.000 C 
HETATM   26  C18 UNL     1      18.340  67.022  39.765  1.00  0.00     0.002 C 
HETATM   27  C19 UNL     1      18.544  66.955  41.262  1.00  0.00     0.036 C 
ENDBRANCH  20  21
ENDBRANCH   1  15
BRANCH   2  28
HETATM   28  N4  UNL     1      13.699  65.502  43.377  1.00  0.00    -0.344 N 
ATOM     29  H42 UNL     1      12.755  65.173  43.578  1.00  0.00     0.176 HD
ATOM     30  H41 UNL     1      14.176  65.114  42.564  1.00  0.00     0.176 HD
ENDBRANCH   2  28
TORSDOF 7
ENDMDL
MODEL 5
REMARK VINA RESULT: -8.642121195      1.734      2.328
REMARK  7 active torsions:
REMARK  status: ('A' for Active; 'I' for Inactive)
REMARK    1  A    between atoms: N1_2  and  C2_3 
REMARK    2  A    between atoms: N1_2  and  C7_12 
REMARK    3  A    between atoms: C2_3  and  C3_4 
REMARK    4  A    between atoms: C6_7  and  N2_8 
REMARK    5  A    between atoms: C7_12  and  C8_18 
REMARK    6  A    between atoms: N3_13  and  N4_15 
REMARK    7  A    between atoms: N5_23  and  C13_24 
ROOT
HETATM    1  C7  UNL     1      17.142  67.705  45.720  1.00  0.00     0.127 C 
HETATM    2  N3  UNL     1      16.045  68.342  45.943  1.00  0.00    -0.294 N 
ATOM      3  H3  UNL     1      16.127  69.331  46.180  1.00  0.00     0.187 HD
ENDROOT
BRANCH   1   4
HETATM    4  N1  UNL     1      18.307  68.516  45.850  1.00  0.00    -0.367 N 
HETATM    5  C1  UNL     1      19.125  68.849  44.704  1.00  0.00     0.151 C 
BRANCH   4   6
HETATM    6  C2  UNL     1      18.732  69.035  47.131  1.00  0.00     0.169 C 
BRANCH   6   7
HETATM    7  C3  UNL     1      18.744  70.513  47.217  1.00  0.00     0.003 A 
HETATM    8  C4  UNL     1      17.816  71.482  47.029  1.00  0.00     0.019 A 
HETATM    9  C5  UNL     1      18.192  72.763  47.197  1.00  0.00     0.045 A 
HETATM   10  C6  UNL     1      19.493  72.995  47.547  1.00  0.00     0.144 A 
HETATM   11  S1  UNL     1      20.142  71.400  47.629  1.00  0.00    -0.069 SA
BRANCH  10  12
HETATM   12  N2  UNL     1      20.152  74.248  47.788  1.00  0.00    -0.108 N 
HETATM   13  O1  UNL     1      21.233  74.446  47.220  1.00  0.00    -0.531 OA
HETATM   14  O2  UNL     1      19.625  75.199  48.608  1.00  0.00    -0.531 OA
ENDBRANCH  10  12
ENDBRANCH   6   7
ENDBRANCH   4   6
ENDBRANCH   1   4
BRANCH   1  15
HETATM   15  C8  UNL     1      17.129  66.289  45.391  1.00  0.00     0.291 C 
HETATM   16  C9  UNL     1      18.272  65.595  46.162  1.00  0.00     0.044 C 
HETATM   17  C10 UNL     1      17.754  64.191  46.540  1.00  0.00     0.004 C 
HETATM   18  C11 UNL     1      17.117  63.621  45.285  1.00  0.00     0.030 C 
HETATM   19  C12 UNL     1      17.520  64.404  44.068  1.00  0.00     0.274 C 
HETATM   20  N5  UNL     1      17.181  65.819  44.093  1.00  0.00     0.105 N 
BRANCH  20  21
HETATM   21  C13 UNL     1      16.163  66.065  43.135  1.00  0.00     0.224 C 
HETATM   22  C14 UNL     1      15.013  65.092  43.351  1.00  0.00     0.036 C 
HETATM   23  C15 UNL     1      13.673  65.801  43.293  1.00  0.00     0.002 C 
HETATM   24  C16 UNL     1      13.138  65.866  41.861  1.00  0.00     0.000 C 
HETATM   25  C17 UNL     1      14.120  66.677  41.076  1.00  0.00     0.000 C 
HETATM   26  C18 UNL     1      15.324  65.831  40.765  1.00  0.00     0.002 C 
HETATM   27  C19 UNL     1      16.472  66.100  41.712  1.00  0.00     0.036 C 
ENDBRANCH  20  21
ENDBRANCH   1  15
BRANCH   2  28
HETATM   28  N4  UNL     1      14.770  67.821  45.892  1.00  0.00    -0.344 N 
ATOM     29  H42 UNL     1      14.138  68.266  45.228  1.00  0.00     0.176 HD
ATOM     30  H41 UNL     1      14.410  67.046  46.449  1.00  0.00     0.176 HD
ENDBRANCH   2  28
TORSDOF 7
ENDMDL
