MODEL 1
REMARK VINA RESULT: -6.606991251      0.000      0.000
REMARK  12 active torsions:
REMARK  status: ('A' for Active; 'I' for Inactive)
REMARK    1  A    between atoms: C2_2  and  C3_3 
REMARK    2  A    between atoms: C3_3  and  C4_4 
REMARK    3  A    between atoms: C4_4  and  C5_5 
REMARK    4  A    between atoms: C5_5  and  C6_6 
REMARK    5  A    between atoms: C6_6  and  O2_8 
REMARK    6  A    between atoms: O2_8  and  C7_9 
REMARK    7  A    between atoms: C7_9  and  C8_10 
REMARK    8  A    between atoms: C15_19  and  O5_20 
REMARK    9  A    between atoms: C16_22  and  O6_23 
REMARK   10  A    between atoms: O6_23  and  C17_24 
REMARK   11  A    between atoms: C19_27  and  O8_28 
REMARK   12  A    between atoms: O8_28  and  C20_29 
ROOT
HETATM    1  C7  UNL     1     -11.474  10.087  30.441  1.00  0.00     0.162 C 
HETATM    2  C9  UNL     1     -11.941  11.341  29.710  1.00  0.00     0.051 C 
HETATM    3  C10 UNL     1     -11.535  11.110  28.239  1.00  0.00     0.015 C 
HETATM    4  C11 UNL     1     -10.141  10.566  28.505  1.00  0.00    -0.012 C 
HETATM    5  C12 UNL     1      -9.380  11.673  29.147  1.00  0.00     0.018 C 
HETATM    6  C13 UNL     1     -10.549   9.442  29.429  1.00  0.00     0.044 C 
HETATM    7  C14 UNL     1      -9.323   8.854  29.996  1.00  0.00     0.044 C 
HETATM    8  C15 UNL     1      -8.313   8.504  28.979  1.00  0.00     0.158 C 
HETATM    9  C16 UNL     1      -8.616   8.777  27.557  1.00  0.00     0.144 C 
HETATM   10  C19 UNL     1      -9.304   7.656  26.852  1.00  0.00     0.161 C 
HETATM   11  C23 UNL     1     -10.505   8.258  26.121  1.00  0.00     0.037 C 
HETATM   12  C24 UNL     1     -10.284   9.725  26.145  1.00  0.00     0.032 C 
HETATM   13  C25 UNL     1      -9.424  10.043  27.321  1.00  0.00     0.081 C 
HETATM   14 CL1  UNL     1      -8.349  11.394  26.772  1.00  0.00    -0.115 Cl
ENDROOT
BRANCH   1  15
HETATM   15  O2  UNL     1     -10.810  10.338  31.628  1.00  0.00    -0.298 OA
BRANCH  15  16
HETATM   16  C6  UNL     1     -10.946  11.366  32.506  1.00  0.00     0.260 C 
HETATM   17  O1  UNL     1     -10.055  12.234  32.531  1.00  0.00    -0.265 OA
BRANCH  16  18
HETATM   18  C5  UNL     1     -12.155  11.399  33.391  1.00  0.00     0.111 C 
BRANCH  18  19
HETATM   19  C4  UNL     1     -12.336  10.048  34.033  1.00  0.00     0.010 C 
BRANCH  19  20
HETATM   20  C3  UNL     1     -11.589  10.022  35.345  1.00  0.00     0.000 C 
BRANCH  20  21
HETATM   21  C2  UNL     1     -12.304   9.230  36.402  1.00  0.00    -0.005 C 
HETATM   22  C1  UNL     1     -13.709   9.838  36.516  1.00  0.00     0.005 C 
ENDBRANCH  20  21
ENDBRANCH  19  20
ENDBRANCH  18  19
ENDBRANCH  16  18
ENDBRANCH  15  16
ENDBRANCH   1  15
BRANCH   1  23
HETATM   23  C8  UNL     1     -12.691   9.251  30.613  1.00  0.00     0.210 C 
HETATM   24  O3  UNL     1     -13.842   9.645  30.312  1.00  0.00    -0.646 OA
HETATM   25  O4  UNL     1     -12.563   7.977  31.127  1.00  0.00    -0.646 OA
ENDBRANCH   1  23
BRANCH   8  26
HETATM   26  O5  UNL     1      -7.085   9.101  29.379  1.00  0.00    -0.392 OA
ATOM     27  H5  UNL     1      -6.433   8.870  28.728  1.00  0.00     0.210 HD
ENDBRANCH   8  26
BRANCH   9  28
HETATM   28  O6  UNL     1      -7.364   9.072  26.932  1.00  0.00    -0.303 OA
BRANCH  28  29
HETATM   29  C17 UNL     1      -6.756   8.348  25.956  1.00  0.00     0.255 C 
HETATM   30  C18 UNL     1      -5.763   7.285  26.341  1.00  0.00     0.126 C 
HETATM   31  O7  UNL     1      -7.034   8.580  24.778  1.00  0.00    -0.266 OA
ENDBRANCH  28  29
ENDBRANCH   9  28
BRANCH  10  32
HETATM   32  O8  UNL     1      -9.761   6.607  27.592  1.00  0.00    -0.378 OA
BRANCH  32  33
HETATM   33  C20 UNL     1      -9.867   5.388  27.041  1.00  0.00     0.114 C 
HETATM   34  C21 UNL     1     -10.897   4.479  27.683  1.00  0.00     0.039 C 
HETATM   35  C22 UNL     1      -8.574   4.633  26.963  1.00  0.00     0.039 C 
ENDBRANCH  32  33
ENDBRANCH  10  32
TORSDOF 12
ENDMDL
MODEL 2
REMARK VINA RESULT: -6.528057183      4.847      8.537
REMARK  12 active torsions:
REMARK  status: ('A' for Active; 'I' for Inactive)
REMARK    1  A    between atoms: C2_2  and  C3_3 
REMARK    2  A    between atoms: C3_3  and  C4_4 
REMARK    3  A    between atoms: C4_4  and  C5_5 
REMARK    4  A    between atoms: C5_5  and  C6_6 
REMARK    5  A    between atoms: C6_6  and  O2_8 
REMARK    6  A    between atoms: O2_8  and  C7_9 
REMARK    7  A    between atoms: C7_9  and  C8_10 
REMARK    8  A    between atoms: C15_19  and  O5_20 
REMARK    9  A    between atoms: C16_22  and  O6_23 
REMARK   10  A    between atoms: O6_23  and  C17_24 
REMARK   11  A    between atoms: C19_27  and  O8_28 
REMARK   12  A    between atoms: O8_28  and  C20_29 
ROOT
HETATM    1  C7  UNL     1      -3.343   7.756  28.939  1.00  0.00     0.162 C 
HETATM    2  C9  UNL     1      -3.306   9.035  29.768  1.00  0.00     0.051 C 
HETATM    3  C10 UNL     1      -4.671   9.708  29.511  1.00  0.00     0.015 C 
HETATM    4  C11 UNL     1      -4.716   9.489  28.008  1.00  0.00    -0.012 C 
HETATM    5  C12 UNL     1      -3.575  10.262  27.444  1.00  0.00     0.018 C 
HETATM    6  C13 UNL     1      -4.532   7.990  28.028  1.00  0.00     0.044 C 
HETATM    7  C14 UNL     1      -4.345   7.537  26.638  1.00  0.00     0.044 C 
HETATM    8  C15 UNL     1      -5.380   8.037  25.713  1.00  0.00     0.158 C 
HETATM    9  C16 UNL     1      -6.446   8.912  26.248  1.00  0.00     0.144 C 
HETATM   10  C19 UNL     1      -7.646   8.179  26.748  1.00  0.00     0.161 C 
HETATM   11  C23 UNL     1      -7.964   8.734  28.137  1.00  0.00     0.037 C 
HETATM   12  C24 UNL     1      -7.164   9.978  28.254  1.00  0.00     0.032 C 
HETATM   13  C25 UNL     1      -5.987   9.858  27.347  1.00  0.00     0.081 C 
HETATM   14 CL1  UNL     1      -5.723  11.524  26.686  1.00  0.00    -0.115 Cl
ENDROOT
BRANCH   1  15
HETATM   15  O2  UNL     1      -2.195   7.524  28.205  1.00  0.00    -0.298 OA
BRANCH  15  16
HETATM   16  C6  UNL     1      -0.901   7.828  28.485  1.00  0.00     0.260 C 
HETATM   17  O1  UNL     1      -0.318   7.153  29.351  1.00  0.00    -0.265 OA
BRANCH  16  18
HETATM   18  C5  UNL     1      -0.250   8.953  27.739  1.00  0.00     0.111 C 
BRANCH  18  19
HETATM   19  C4  UNL     1       1.215   8.649  27.561  1.00  0.00     0.010 C 
BRANCH  19  20
HETATM   20  C3  UNL     1       1.603   8.919  26.128  1.00  0.00     0.000 C 
BRANCH  20  21
HETATM   21  C2  UNL     1       0.542   9.666  25.372  1.00  0.00    -0.005 C 
HETATM   22  C1  UNL     1       0.949   9.609  23.892  1.00  0.00     0.005 C 
ENDBRANCH  20  21
ENDBRANCH  19  20
ENDBRANCH  18  19
ENDBRANCH  16  18
ENDBRANCH  15  16
ENDBRANCH   1  15
BRANCH   1  23
HETATM   23  C8  UNL     1      -3.656   6.668  29.902  1.00  0.00     0.210 C 
HETATM   24  O3  UNL     1      -4.397   5.696  29.624  1.00  0.00    -0.646 OA
HETATM   25  O4  UNL     1      -3.111   6.715  31.169  1.00  0.00    -0.646 OA
ENDBRANCH   1  23
BRANCH   8  26
HETATM   26  O5  UNL     1      -4.709   8.639  24.612  1.00  0.00    -0.392 OA
ATOM     27  H5  UNL     1      -5.307   8.625  23.875  1.00  0.00     0.210 HD
ENDBRANCH   8  26
BRANCH   9  28
HETATM   28  O6  UNL     1      -6.804   9.800  25.186  1.00  0.00    -0.303 OA
BRANCH  28  29
HETATM   29  C17 UNL     1      -7.837   9.648  24.317  1.00  0.00     0.255 C 
HETATM   30  C18 UNL     1      -9.101  10.434  24.534  1.00  0.00     0.126 C 
HETATM   31  O7  UNL     1      -7.713   8.868  23.370  1.00  0.00    -0.266 OA
ENDBRANCH  28  29
ENDBRANCH   9  28
BRANCH  10  32
HETATM   32  O8  UNL     1      -7.580   6.822  26.856  1.00  0.00    -0.378 OA
BRANCH  32  33
HETATM   33  C20 UNL     1      -8.457   6.163  27.629  1.00  0.00     0.114 C 
HETATM   34  C21 UNL     1      -7.840   5.213  28.636  1.00  0.00     0.039 C 
HETATM   35  C22 UNL     1      -9.504   5.408  26.867  1.00  0.00     0.039 C 
ENDBRANCH  32  33
ENDBRANCH  10  32
TORSDOF 12
ENDMDL
MODEL 3
REMARK VINA RESULT: -6.491608972      3.151      6.715
REMARK  12 active torsions:
REMARK  status: ('A' for Active; 'I' for Inactive)
REMARK    1  A    between atoms: C2_2  and  C3_3 
REMARK    2  A    between atoms: C3_3  and  C4_4 
REMARK    3  A    between atoms: C4_4  and  C5_5 
REMARK    4  A    between atoms: C5_5  and  C6_6 
REMARK    5  A    between atoms: C6_6  and  O2_8 
REMARK    6  A    between atoms: O2_8  and  C7_9 
REMARK    7  A    between atoms: C7_9  and  C8_10 
REMARK    8  A    between atoms: C15_19  and  O5_20 
REMARK    9  A    between atoms: C16_22  and  O6_23 
REMARK   10  A    between atoms: O6_23  and  C17_24 
REMARK   11  A    between atoms: C19_27  and  O8_28 
REMARK   12  A    between atoms: O8_28  and  C20_29 
ROOT
HETATM    1  C7  UNL     1      -5.907   7.537  28.265  1.00  0.00     0.162 C 
HETATM    2  C9  UNL     1      -5.854   7.387  26.748  1.00  0.00     0.051 C 
HETATM    3  C10 UNL     1      -7.246   7.842  26.261  1.00  0.00     0.015 C 
HETATM    4  C11 UNL     1      -8.067   7.114  27.311  1.00  0.00    -0.012 C 
HETATM    5  C12 UNL     1      -7.824   5.661  27.091  1.00  0.00     0.018 C 
HETATM    6  C13 UNL     1      -7.391   7.704  28.526  1.00  0.00     0.044 C 
HETATM    7  C14 UNL     1      -7.894   6.995  29.715  1.00  0.00     0.044 C 
HETATM    8  C15 UNL     1      -9.367   6.927  29.779  1.00  0.00     0.158 C 
HETATM    9  C16 UNL     1     -10.153   7.540  28.686  1.00  0.00     0.144 C 
HETATM   10  C19 UNL     1     -10.491   8.977  28.907  1.00  0.00     0.161 C 
HETATM   11  C23 UNL     1     -10.120   9.725  27.627  1.00  0.00     0.037 C 
HETATM   12  C24 UNL     1      -9.903   8.672  26.605  1.00  0.00     0.032 C 
HETATM   13  C25 UNL     1      -9.515   7.417  27.311  1.00  0.00     0.081 C 
HETATM   14 CL1  UNL     1     -10.290   6.080  26.365  1.00  0.00    -0.115 Cl
ENDROOT
BRANCH   1  15
HETATM   15  O2  UNL     1      -5.403   6.453  28.958  1.00  0.00    -0.298 OA
BRANCH  15  16
HETATM   16  C6  UNL     1      -4.154   6.231  29.447  1.00  0.00     0.260 C 
HETATM   17  O1  UNL     1      -3.222   6.109  28.632  1.00  0.00    -0.265 OA
BRANCH  16  18
HETATM   18  C5  UNL     1      -3.969   6.146  30.931  1.00  0.00     0.111 C 
BRANCH  18  19
HETATM   19  C4  UNL     1      -4.737   4.963  31.460  1.00  0.00     0.010 C 
BRANCH  19  20
HETATM   20  C3  UNL     1      -5.821   5.455  32.388  1.00  0.00     0.000 C 
BRANCH  20  21
HETATM   21  C2  UNL     1      -6.120   4.485  33.495  1.00  0.00    -0.005 C 
HETATM   22  C1  UNL     1      -5.812   5.222  34.806  1.00  0.00     0.005 C 
ENDBRANCH  20  21
ENDBRANCH  19  20
ENDBRANCH  18  19
ENDBRANCH  16  18
ENDBRANCH  15  16
ENDBRANCH   1  15
BRANCH   1  23
HETATM   23  C8  UNL     1      -5.199   8.809  28.563  1.00  0.00     0.210 C 
HETATM   24  O3  UNL     1      -5.460   9.523  29.560  1.00  0.00    -0.646 OA
HETATM   25  O4  UNL     1      -4.201   9.239  27.711  1.00  0.00    -0.646 OA
ENDBRANCH   1  23
BRANCH   8  26
HETATM   26  O5  UNL     1      -9.719   5.563  29.979  1.00  0.00    -0.392 OA
ATOM     27  H5  UNL     1     -10.666   5.522  30.044  1.00  0.00     0.210 HD
ENDBRANCH   8  26
BRANCH   9  28
HETATM   28  O6  UNL     1     -11.342   6.755  28.562  1.00  0.00    -0.303 OA
BRANCH  28  29
HETATM   29  C17 UNL     1     -12.540   7.001  29.156  1.00  0.00     0.255 C 
HETATM   30  C18 UNL     1     -13.693   7.472  28.314  1.00  0.00     0.126 C 
HETATM   31  O7  UNL     1     -12.650   6.830  30.372  1.00  0.00    -0.266 OA
ENDBRANCH  28  29
ENDBRANCH   9  28
BRANCH  10  32
HETATM   32  O8  UNL     1      -9.901   9.630  29.947  1.00  0.00    -0.378 OA
BRANCH  32  33
HETATM   33  C20 UNL     1     -10.644  10.355  30.798  1.00  0.00     0.114 C 
HETATM   34  C21 UNL     1     -10.032  11.676  31.221  1.00  0.00     0.039 C 
HETATM   35  C22 UNL     1     -11.055   9.621  32.038  1.00  0.00     0.039 C 
ENDBRANCH  32  33
ENDBRANCH  10  32
TORSDOF 12
ENDMDL
MODEL 4
REMARK VINA RESULT: -6.342894039      2.477      6.995
REMARK  12 active torsions:
REMARK  status: ('A' for Active; 'I' for Inactive)
REMARK    1  A    between atoms: C2_2  and  C3_3 
REMARK    2  A    between atoms: C3_3  and  C4_4 
REMARK    3  A    between atoms: C4_4  and  C5_5 
REMARK    4  A    between atoms: C5_5  and  C6_6 
REMARK    5  A    between atoms: C6_6  and  O2_8 
REMARK    6  A    between atoms: O2_8  and  C7_9 
REMARK    7  A    between atoms: C7_9  and  C8_10 
REMARK    8  A    between atoms: C15_19  and  O5_20 
REMARK    9  A    between atoms: C16_22  and  O6_23 
REMARK   10  A    between atoms: O6_23  and  C17_24 
REMARK   11  A    between atoms: C19_27  and  O8_28 
REMARK   12  A    between atoms: O8_28  and  C20_29 
ROOT
HETATM    1  C7  UNL     1      -7.324   8.915  27.731  1.00  0.00     0.162 C 
HETATM    2  C9  UNL     1      -7.717   9.303  26.309  1.00  0.00     0.051 C 
HETATM    3  C10 UNL     1      -9.187   9.760  26.420  1.00  0.00     0.015 C 
HETATM    4  C11 UNL     1      -9.672   8.639  27.323  1.00  0.00    -0.012 C 
HETATM    5  C12 UNL     1      -9.515   7.381  26.541  1.00  0.00     0.018 C 
HETATM    6  C13 UNL     1      -8.665   8.838  28.432  1.00  0.00     0.044 C 
HETATM    7  C14 UNL     1      -8.805   7.717  29.379  1.00  0.00     0.044 C 
HETATM    8  C15 UNL     1     -10.195   7.488  29.818  1.00  0.00     0.158 C 
HETATM    9  C16 UNL     1     -11.261   8.361  29.278  1.00  0.00     0.144 C 
HETATM   10  C19 UNL     1     -11.508   9.593  30.083  1.00  0.00     0.161 C 
HETATM   11  C23 UNL     1     -11.521  10.769  29.105  1.00  0.00     0.037 C 
HETATM   12  C24 UNL     1     -11.620  10.159  27.757  1.00  0.00     0.032 C 
HETATM   13  C25 UNL     1     -11.054   8.781  27.832  1.00  0.00     0.081 C 
HETATM   14 CL1  UNL     1     -12.082   7.783  26.723  1.00  0.00    -0.115 Cl
ENDROOT
BRANCH   1  15
HETATM   15  O2  UNL     1      -6.647   7.713  27.823  1.00  0.00    -0.298 OA
BRANCH  15  16
HETATM   16  C6  UNL     1      -5.321   7.443  27.698  1.00  0.00     0.260 C 
HETATM   17  O1  UNL     1      -4.828   7.463  26.556  1.00  0.00    -0.265 OA
BRANCH  16  18
HETATM   18  C5  UNL     1      -4.531   7.139  28.934  1.00  0.00     0.111 C 
BRANCH  18  19
HETATM   19  C4  UNL     1      -5.374   6.314  29.870  1.00  0.00     0.010 C 
BRANCH  19  20
HETATM   20  C3  UNL     1      -4.468   5.561  30.815  1.00  0.00     0.000 C 
BRANCH  20  21
HETATM   21  C2  UNL     1      -3.013   5.835  30.561  1.00  0.00    -0.005 C 
HETATM   22  C1  UNL     1      -2.321   4.465  30.519  1.00  0.00     0.005 C 
ENDBRANCH  20  21
ENDBRANCH  19  20
ENDBRANCH  18  19
ENDBRANCH  16  18
ENDBRANCH  15  16
ENDBRANCH   1  15
BRANCH   1  23
HETATM   23  C8  UNL     1      -6.549  10.069  28.256  1.00  0.00     0.210 C 
HETATM   24  O3  UNL     1      -6.418  10.309  29.480  1.00  0.00    -0.646 OA
HETATM   25  O4  UNL     1      -5.936  10.929  27.366  1.00  0.00    -0.646 OA
ENDBRANCH   1  23
BRANCH   8  26
HETATM   26  O5  UNL     1     -10.484   6.111  29.605  1.00  0.00    -0.392 OA
ATOM     27  H5  UNL     1     -11.158   5.865  30.228  1.00  0.00     0.210 HD
ENDBRANCH   8  26
BRANCH   9  28
HETATM   28  O6  UNL     1     -12.441   7.555  29.215  1.00  0.00    -0.303 OA
BRANCH  28  29
HETATM   29  C17 UNL     1     -13.432   7.497  30.143  1.00  0.00     0.255 C 
HETATM   30  C18 UNL     1     -14.769   8.110  29.828  1.00  0.00     0.126 C 
HETATM   31  O7  UNL     1     -13.210   6.941  31.221  1.00  0.00    -0.266 OA
ENDBRANCH  28  29
ENDBRANCH   9  28
BRANCH  10  32
HETATM   32  O8  UNL     1     -10.634   9.903  31.081  1.00  0.00    -0.378 OA
BRANCH  32  33
HETATM   33  C20 UNL     1     -11.092  10.265  32.290  1.00  0.00     0.114 C 
HETATM   34  C21 UNL     1     -12.593  10.154  32.469  1.00  0.00     0.039 C 
HETATM   35  C22 UNL     1     -10.678  11.641  32.719  1.00  0.00     0.039 C 
ENDBRANCH  32  33
ENDBRANCH  10  32
TORSDOF 12
ENDMDL
MODEL 5
REMARK VINA RESULT: -6.342057269      2.881      4.889
REMARK  12 active torsions:
REMARK  status: ('A' for Active; 'I' for Inactive)
REMARK    1  A    between atoms: C2_2  and  C3_3 
REMARK    2  A    between atoms: C3_3  and  C4_4 
REMARK    3  A    between atoms: C4_4  and  C5_5 
REMARK    4  A    between atoms: C5_5  and  C6_6 
REMARK    5  A    between atoms: C6_6  and  O2_8 
REMARK    6  A    between atoms: O2_8  and  C7_9 
REMARK    7  A    between atoms: C7_9  and  C8_10 
REMARK    8  A    between atoms: C15_19  and  O5_20 
REMARK    9  A    between atoms: C16_22  and  O6_23 
REMARK   10  A    between atoms: O6_23  and  C17_24 
REMARK   11  A    between atoms: C19_27  and  O8_28 
REMARK   12  A    between atoms: O8_28  and  C20_29 
ROOT
HETATM    1  C7  UNL     1      -8.459   7.782  28.951  1.00  0.00     0.162 C 
HETATM    2  C9  UNL     1      -8.902   7.167  27.627  1.00  0.00     0.051 C 
HETATM    3  C10 UNL     1      -7.600   7.007  26.814  1.00  0.00     0.015 C 
HETATM    4  C11 UNL     1      -7.001   8.366  27.137  1.00  0.00    -0.012 C 
HETATM    5  C12 UNL     1      -7.927   9.376  26.553  1.00  0.00     0.018 C 
HETATM    6  C13 UNL     1      -7.049   8.242  28.642  1.00  0.00     0.044 C 
HETATM    7  C14 UNL     1      -6.684   9.549  29.217  1.00  0.00     0.044 C 
HETATM    8  C15 UNL     1      -5.434  10.106  28.665  1.00  0.00     0.158 C 
HETATM    9  C16 UNL     1      -4.712   9.335  27.629  1.00  0.00     0.144 C 
HETATM   10  C19 UNL     1      -3.711   8.370  28.172  1.00  0.00     0.161 C 
HETATM   11  C23 UNL     1      -3.963   7.029  27.481  1.00  0.00     0.037 C 
HETATM   12  C24 UNL     1      -4.856   7.338  26.338  1.00  0.00     0.032 C 
HETATM   13  C25 UNL     1      -5.615   8.580  26.668  1.00  0.00     0.081 C 
HETATM   14 CL1  UNL     1      -5.768   9.474  25.099  1.00  0.00    -0.115 Cl
ENDROOT
BRANCH   1  15
HETATM   15  O2  UNL     1      -9.243   8.839  29.374  1.00  0.00    -0.298 OA
BRANCH  15  16
HETATM   16  C6  UNL     1     -10.479   8.841  29.938  1.00  0.00     0.260 C 
HETATM   17  O1  UNL     1     -11.435   8.439  29.251  1.00  0.00    -0.265 OA
BRANCH  16  18
HETATM   18  C5  UNL     1     -10.623   9.324  31.349  1.00  0.00     0.111 C 
BRANCH  18  19
HETATM   19  C4  UNL     1     -12.007   8.998  31.847  1.00  0.00     0.010 C 
BRANCH  19  20
HETATM   20  C3  UNL     1     -12.333   9.893  33.018  1.00  0.00     0.000 C 
BRANCH  20  21
HETATM   21  C2  UNL     1     -11.122  10.241  33.834  1.00  0.00    -0.005 C 
HETATM   22  C1  UNL     1     -11.519  10.030  35.302  1.00  0.00     0.005 C 
ENDBRANCH  20  21
ENDBRANCH  19  20
ENDBRANCH  18  19
ENDBRANCH  16  18
ENDBRANCH  15  16
ENDBRANCH   1  15
BRANCH   1  23
HETATM   23  C8  UNL     1      -8.419   6.654  29.918  1.00  0.00     0.210 C 
HETATM   24  O3  UNL     1      -7.538   6.539  30.803  1.00  0.00    -0.646 OA
HETATM   25  O4  UNL     1      -9.392   5.677  29.852  1.00  0.00    -0.646 OA
ENDBRANCH   1  23
BRANCH   8  26
HETATM   26  O5  UNL     1      -5.716  11.432  28.233  1.00  0.00    -0.392 OA
ATOM     27  H5  UNL     1      -6.383  11.374  27.560  1.00  0.00     0.210 HD
ENDBRANCH   8  26
BRANCH   9  28
HETATM   28  O6  UNL     1      -4.076  10.299  26.786  1.00  0.00    -0.303 OA
BRANCH  28  29
HETATM   29  C17 UNL     1      -2.742  10.417  26.554  1.00  0.00     0.255 C 
HETATM   30  C18 UNL     1      -2.172   9.889  25.267  1.00  0.00     0.126 C 
HETATM   31  O7  UNL     1      -2.032  10.957  27.405  1.00  0.00    -0.266 OA
ENDBRANCH  28  29
ENDBRANCH   9  28
BRANCH  10  32
HETATM   32  O8  UNL     1      -3.693   8.139  29.515  1.00  0.00    -0.378 OA
BRANCH  32  33
HETATM   33  C20 UNL     1      -3.150   7.011  29.999  1.00  0.00     0.114 C 
HETATM   34  C21 UNL     1      -4.052   6.205  30.913  1.00  0.00     0.039 C 
HETATM   35  C22 UNL     1      -1.842   7.209  30.702  1.00  0.00     0.039 C 
ENDBRANCH  32  33
ENDBRANCH  10  32
TORSDOF 12
ENDMDL
