MODEL 1
REMARK VINA RESULT: -7.542890254      0.000      0.000
REMARK  6 active torsions:
REMARK  status: ('A' for Active; 'I' for Inactive)
REMARK    1  A    between atoms: C4_4  and  C5_5 
REMARK    2  A    between atoms: C5_5  and  O2_7 
REMARK    3  A    between atoms: O2_7  and  C6_8 
REMARK    4  A    between atoms: C8_11  and  C9_12 
REMARK    5  A    between atoms: C9_12  and  C10_13 
REMARK    6  A    between atoms: C10_13  and  O4_14 
ROOT
HETATM    1  C6  UNL     1      14.453   9.941  19.919  1.00  0.00     0.302 C 
HETATM    2  O3  UNL     1      14.901  11.277  19.973  1.00  0.00    -0.344 OA
HETATM    3  C7  UNL     1      13.597  11.609  20.362  1.00  0.00     0.204 C 
HETATM    4  C8  UNL     1      13.514  12.771  21.285  1.00  0.00     0.018 C 
HETATM    5  N1  UNL     1      13.675  12.571  22.516  1.00  0.00    -0.363 N 
ATOM      6  H1  UNL     1      13.612  13.387  23.125  1.00  0.00     0.162 HD
HETATM    7  C11 UNL     1      13.934  11.328  23.145  1.00  0.00     0.127 C 
HETATM    8  C12 UNL     1      12.694  10.806  23.884  1.00  0.00     0.070 C 
HETATM    9  C13 UNL     1      15.090  11.446  24.146  1.00  0.00     0.070 C 
HETATM   10  O5  UNL     1      14.304  10.321  22.256  1.00  0.00    -0.349 OA
HETATM   11  C14 UNL     1      13.556  10.293  21.108  1.00  0.00     0.214 C 
ENDROOT
BRANCH   1  12
HETATM   12  O2  UNL     1      15.402   8.983  20.286  1.00  0.00    -0.281 OA
BRANCH  12  13
HETATM   13  C5  UNL     1      15.347   7.646  19.990  1.00  0.00     0.319 C 
HETATM   14  O1  UNL     1      14.206   7.123  19.892  1.00  0.00    -0.257 OA
BRANCH  13  15
HETATM   15  C4  UNL     1      16.528   6.810  19.786  1.00  0.00     0.144 C 
HETATM   16  C3  UNL     1      17.617   7.251  19.182  1.00  0.00     0.023 C 
HETATM   17  C2  UNL     1      18.840   6.448  18.949  1.00  0.00     0.041 C 
HETATM   18  C1  UNL     1      19.327   6.811  17.547  1.00  0.00     0.017 C 
HETATM   19  C19 UNL     1      18.669   4.981  19.112  1.00  0.00     0.188 C 
HETATM   20  C15 UNL     1      17.314   4.516  19.517  1.00  0.00     0.299 C 
HETATM   21  O8  UNL     1      19.501   4.517  20.132  1.00  0.00    -0.345 OA
HETATM   22  O6  UNL     1      16.569   5.492  20.219  1.00  0.00    -0.312 OA
HETATM   23  O7  UNL     1      17.544   3.467  20.408  1.00  0.00    -0.323 OA
HETATM   24  C16 UNL     1      18.899   3.380  20.614  1.00  0.00     0.160 C 
HETATM   25  C17 UNL     1      19.214   3.271  22.095  1.00  0.00     0.078 C 
HETATM   26  C18 UNL     1      19.429   2.189  19.854  1.00  0.00     0.078 C 
ENDBRANCH  13  15
ENDBRANCH  12  13
ENDBRANCH   1  12
BRANCH   4  27
HETATM   27  C9  UNL     1      13.243  14.099  20.662  1.00  0.00     0.081 C 
BRANCH  27  28
HETATM   28  C10 UNL     1      12.840  13.884  19.211  1.00  0.00     0.170 C 
BRANCH  28  29
HETATM   29  O4  UNL     1      13.430  14.821  18.373  1.00  0.00    -0.401 OA
ATOM     30  H4  UNL     1      12.866  15.038  17.640  1.00  0.00     0.209 HD
ENDBRANCH  28  29
ENDBRANCH  27  28
ENDBRANCH   4  27
TORSDOF 6
ENDMDL
MODEL 2
REMARK VINA RESULT: -7.464799514      2.175      2.770
REMARK  6 active torsions:
REMARK  status: ('A' for Active; 'I' for Inactive)
REMARK    1  A    between atoms: C4_4  and  C5_5 
REMARK    2  A    between atoms: C5_5  and  O2_7 
REMARK    3  A    between atoms: O2_7  and  C6_8 
REMARK    4  A    between atoms: C8_11  and  C9_12 
REMARK    5  A    between atoms: C9_12  and  C10_13 
REMARK    6  A    between atoms: C10_13  and  O4_14 
ROOT
HETATM    1  C6  UNL     1      15.414   9.542  18.843  1.00  0.00     0.302 C 
HETATM    2  O3  UNL     1      16.411  10.537  18.767  1.00  0.00    -0.344 OA
HETATM    3  C7  UNL     1      15.576  11.184  17.847  1.00  0.00     0.204 C 
HETATM    4  C8  UNL     1      15.669  12.667  17.878  1.00  0.00     0.018 C 
HETATM    5  N1  UNL     1      14.980  13.293  18.725  1.00  0.00    -0.363 N 
ATOM      6  H1  UNL     1      15.064  14.309  18.722  1.00  0.00     0.162 HD
HETATM    7  C11 UNL     1      14.098  12.730  19.681  1.00  0.00     0.127 C 
HETATM    8  C12 UNL     1      12.631  12.951  19.287  1.00  0.00     0.070 C 
HETATM    9  C13 UNL     1      14.330  13.337  21.070  1.00  0.00     0.070 C 
HETATM   10  O5  UNL     1      14.251  11.354  19.838  1.00  0.00    -0.349 OA
HETATM   11  C14 UNL     1      14.403  10.675  18.658  1.00  0.00     0.214 C 
ENDROOT
BRANCH   1  12
HETATM   12  O2  UNL     1      15.263   8.950  20.099  1.00  0.00    -0.281 OA
BRANCH  12  13
HETATM   13  C5  UNL     1      15.316   7.606  20.363  1.00  0.00     0.319 C 
HETATM   14  O1  UNL     1      14.300   7.079  20.886  1.00  0.00    -0.257 OA
BRANCH  13  15
HETATM   15  C4  UNL     1      16.477   6.766  20.072  1.00  0.00     0.144 C 
HETATM   16  C3  UNL     1      17.539   7.217  19.428  1.00  0.00     0.023 C 
HETATM   17  C2  UNL     1      18.739   6.411  19.107  1.00  0.00     0.041 C 
HETATM   18  C1  UNL     1      19.158   6.814  17.694  1.00  0.00     0.017 C 
HETATM   19  C19 UNL     1      18.562   4.941  19.233  1.00  0.00     0.188 C 
HETATM   20  C15 UNL     1      17.225   4.475  19.691  1.00  0.00     0.299 C 
HETATM   21  O8  UNL     1      19.440   4.438  20.194  1.00  0.00    -0.345 OA
HETATM   22  O6  UNL     1      16.526   5.434  20.462  1.00  0.00    -0.312 OA
HETATM   23  O7  UNL     1      17.488   3.396  20.536  1.00  0.00    -0.323 OA
HETATM   24  C16 UNL     1      18.851   3.291  20.670  1.00  0.00     0.160 C 
HETATM   25  C17 UNL     1      19.241   3.132  22.128  1.00  0.00     0.078 C 
HETATM   26  C18 UNL     1      19.329   2.120  19.846  1.00  0.00     0.078 C 
ENDBRANCH  13  15
ENDBRANCH  12  13
ENDBRANCH   1  12
BRANCH   4  27
HETATM   27  C9  UNL     1      16.587  13.298  16.888  1.00  0.00     0.081 C 
BRANCH  27  28
HETATM   28  C10 UNL     1      17.334  12.200  16.147  1.00  0.00     0.170 C 
BRANCH  28  29
HETATM   29  O4  UNL     1      18.336  12.720  15.337  1.00  0.00    -0.401 OA
ATOM     30  H4  UNL     1      19.196  12.434  15.617  1.00  0.00     0.209 HD
ENDBRANCH  28  29
ENDBRANCH  27  28
ENDBRANCH   4  27
TORSDOF 6
ENDMDL
MODEL 3
REMARK VINA RESULT: -7.435990905      1.326      2.166
REMARK  6 active torsions:
REMARK  status: ('A' for Active; 'I' for Inactive)
REMARK    1  A    between atoms: C4_4  and  C5_5 
REMARK    2  A    between atoms: C5_5  and  O2_7 
REMARK    3  A    between atoms: O2_7  and  C6_8 
REMARK    4  A    between atoms: C8_11  and  C9_12 
REMARK    5  A    between atoms: C9_12  and  C10_13 
REMARK    6  A    between atoms: C10_13  and  O4_14 
ROOT
HETATM    1  C6  UNL     1      15.040  10.382  19.619  1.00  0.00     0.302 C 
HETATM    2  O3  UNL     1      15.202  11.758  19.882  1.00  0.00    -0.344 OA
HETATM    3  C7  UNL     1      13.825  11.783  20.140  1.00  0.00     0.204 C 
HETATM    4  C8  UNL     1      13.417  12.771  21.172  1.00  0.00     0.018 C 
HETATM    5  N1  UNL     1      13.491  12.438  22.383  1.00  0.00    -0.363 N 
ATOM      6  H1  UNL     1      13.205  13.137  23.069  1.00  0.00     0.162 HD
HETATM    7  C11 UNL     1      13.932  11.191  22.893  1.00  0.00     0.127 C 
HETATM    8  C12 UNL     1      12.756  10.350  23.406  1.00  0.00     0.070 C 
HETATM    9  C13 UNL     1      14.935  11.386  24.037  1.00  0.00     0.070 C 
HETATM   10  O5  UNL     1      14.585  10.403  21.947  1.00  0.00    -0.349 OA
HETATM   11  C14 UNL     1      13.977  10.393  20.719  1.00  0.00     0.214 C 
ENDROOT
BRANCH   1  12
HETATM   12  O2  UNL     1      16.122   9.578  19.989  1.00  0.00    -0.281 OA
BRANCH  12  13
HETATM   13  C5  UNL     1      16.843   8.769  19.150  1.00  0.00     0.319 C 
HETATM   14  O1  UNL     1      17.354   9.302  18.131  1.00  0.00    -0.257 OA
BRANCH  13  15
HETATM   15  C4  UNL     1      17.045   7.338  19.376  1.00  0.00     0.144 C 
HETATM   16  C3  UNL     1      16.307   6.640  20.220  1.00  0.00     0.023 C 
HETATM   17  C2  UNL     1      16.469   5.192  20.486  1.00  0.00     0.041 C 
HETATM   18  C1  UNL     1      16.277   5.012  21.991  1.00  0.00     0.017 C 
HETATM   19  C19 UNL     1      17.751   4.605  20.017  1.00  0.00     0.188 C 
HETATM   20  C15 UNL     1      18.683   5.532  19.319  1.00  0.00     0.299 C 
HETATM   21  O8  UNL     1      17.499   3.608  19.073  1.00  0.00    -0.345 OA
HETATM   22  O6  UNL     1      18.034   6.630  18.708  1.00  0.00    -0.312 OA
HETATM   23  O7  UNL     1      19.243   4.773  18.291  1.00  0.00    -0.323 OA
HETATM   24  C16 UNL     1      18.627   3.546  18.291  1.00  0.00     0.160 C 
HETATM   25  C17 UNL     1      18.205   3.152  16.887  1.00  0.00     0.078 C 
HETATM   26  C18 UNL     1      19.574   2.529  18.882  1.00  0.00     0.078 C 
ENDBRANCH  13  15
ENDBRANCH  12  13
ENDBRANCH   1  12
BRANCH   4  27
HETATM   27  C9  UNL     1      12.948  14.097  20.677  1.00  0.00     0.081 C 
BRANCH  27  28
HETATM   28  C10 UNL     1      12.641  13.982  19.192  1.00  0.00     0.170 C 
BRANCH  28  29
HETATM   29  O4  UNL     1      13.402  14.870  18.442  1.00  0.00    -0.401 OA
ATOM     30  H4  UNL     1      13.560  14.542  17.566  1.00  0.00     0.209 HD
ENDBRANCH  28  29
ENDBRANCH  27  28
ENDBRANCH   4  27
TORSDOF 6
ENDMDL
MODEL 4
REMARK VINA RESULT: -7.284813046      2.431      3.428
REMARK  6 active torsions:
REMARK  status: ('A' for Active; 'I' for Inactive)
REMARK    1  A    between atoms: C4_4  and  C5_5 
REMARK    2  A    between atoms: C5_5  and  O2_7 
REMARK    3  A    between atoms: O2_7  and  C6_8 
REMARK    4  A    between atoms: C8_11  and  C9_12 
REMARK    5  A    between atoms: C9_12  and  C10_13 
REMARK    6  A    between atoms: C10_13  and  O4_14 
ROOT
HETATM    1  C6  UNL     1      15.634   9.543  19.009  1.00  0.00     0.302 C 
HETATM    2  O3  UNL     1      16.559  10.601  18.889  1.00  0.00    -0.344 OA
HETATM    3  C7  UNL     1      15.678  11.152  17.949  1.00  0.00     0.204 C 
HETATM    4  C8  UNL     1      15.668  12.638  17.923  1.00  0.00     0.018 C 
HETATM    5  N1  UNL     1      14.940  13.247  18.748  1.00  0.00    -0.363 N 
ATOM      6  H1  UNL     1      14.953  14.266  18.706  1.00  0.00     0.162 HD
HETATM    7  C11 UNL     1      14.102  12.663  19.730  1.00  0.00     0.127 C 
HETATM    8  C12 UNL     1      12.623  12.766  19.336  1.00  0.00     0.070 C 
HETATM    9  C13 UNL     1      14.296  13.338  21.093  1.00  0.00     0.070 C 
HETATM   10  O5  UNL     1      14.351  11.308  19.940  1.00  0.00    -0.349 OA
HETATM   11  C14 UNL     1      14.546  10.595  18.786  1.00  0.00     0.214 C 
ENDROOT
BRANCH   1  12
HETATM   12  O2  UNL     1      15.528   8.991  20.288  1.00  0.00    -0.281 OA
BRANCH  12  13
HETATM   13  C5  UNL     1      15.095   7.725  20.581  1.00  0.00     0.319 C 
HETATM   14  O1  UNL     1      13.875   7.581  20.858  1.00  0.00    -0.257 OA
BRANCH  13  15
HETATM   15  C4  UNL     1      15.964   6.549  20.589  1.00  0.00     0.144 C 
HETATM   16  C3  UNL     1      15.817   5.560  21.452  1.00  0.00     0.023 C 
HETATM   17  C2  UNL     1      16.668   4.349  21.505  1.00  0.00     0.041 C 
HETATM   18  C1  UNL     1      16.896   4.053  22.986  1.00  0.00     0.017 C 
HETATM   19  C19 UNL     1      17.948   4.448  20.757  1.00  0.00     0.188 C 
HETATM   20  C15 UNL     1      18.192   5.725  20.032  1.00  0.00     0.299 C 
HETATM   21  O8  UNL     1      17.986   3.480  19.752  1.00  0.00    -0.345 OA
HETATM   22  O6  UNL     1      17.005   6.410  19.681  1.00  0.00    -0.312 OA
HETATM   23  O7  UNL     1      18.808   5.350  18.838  1.00  0.00    -0.323 OA
HETATM   24  C16 UNL     1      18.830   3.978  18.789  1.00  0.00     0.160 C 
HETATM   25  C17 UNL     1      18.352   3.477  17.439  1.00  0.00     0.078 C 
HETATM   26  C18 UNL     1      20.234   3.506  19.081  1.00  0.00     0.078 C 
ENDBRANCH  13  15
ENDBRANCH  12  13
ENDBRANCH   1  12
BRANCH   4  27
HETATM   27  C9  UNL     1      16.538  13.292  16.903  1.00  0.00     0.081 C 
BRANCH  27  28
HETATM   28  C10 UNL     1      17.329  12.216  16.175  1.00  0.00     0.170 C 
BRANCH  28  29
HETATM   29  O4  UNL     1      18.321  12.766  15.373  1.00  0.00    -0.401 OA
ATOM     30  H4  UNL     1      17.972  13.073  14.545  1.00  0.00     0.209 HD
ENDBRANCH  28  29
ENDBRANCH  27  28
ENDBRANCH   4  27
TORSDOF 6
ENDMDL
MODEL 5
REMARK VINA RESULT: -7.272840843      1.697      2.524
REMARK  6 active torsions:
REMARK  status: ('A' for Active; 'I' for Inactive)
REMARK    1  A    between atoms: C4_4  and  C5_5 
REMARK    2  A    between atoms: C5_5  and  O2_7 
REMARK    3  A    between atoms: O2_7  and  C6_8 
REMARK    4  A    between atoms: C8_11  and  C9_12 
REMARK    5  A    between atoms: C9_12  and  C10_13 
REMARK    6  A    between atoms: C10_13  and  O4_14 
ROOT
HETATM    1  C6  UNL     1      15.877  10.296  18.388  1.00  0.00     0.302 C 
HETATM    2  O3  UNL     1      15.727  11.670  18.669  1.00  0.00    -0.344 OA
HETATM    3  C7  UNL     1      14.350  11.422  18.721  1.00  0.00     0.204 C 
HETATM    4  C8  UNL     1      13.611  12.284  19.680  1.00  0.00     0.018 C 
HETATM    5  N1  UNL     1      13.571  11.939  20.889  1.00  0.00    -0.363 N 
ATOM      6  H1  UNL     1      13.057  12.550  21.523  1.00  0.00     0.162 HD
HETATM    7  C11 UNL     1      14.168  10.787  21.460  1.00  0.00     0.127 C 
HETATM    8  C12 UNL     1      13.116   9.721  21.795  1.00  0.00     0.070 C 
HETATM    9  C13 UNL     1      14.935  11.140  22.740  1.00  0.00     0.070 C 
HETATM   10  O5  UNL     1      15.093  10.166  20.623  1.00  0.00    -0.349 OA
HETATM   11  C14 UNL     1      14.684  10.072  19.318  1.00  0.00     0.214 C 
ENDROOT
BRANCH   1  12
HETATM   12  O2  UNL     1      17.029   9.706  18.916  1.00  0.00    -0.281 OA
BRANCH  12  13
HETATM   13  C5  UNL     1      17.650   8.586  18.429  1.00  0.00     0.319 C 
HETATM   14  O1  UNL     1      18.319   8.710  17.371  1.00  0.00    -0.257 OA
BRANCH  13  15
HETATM   15  C4  UNL     1      17.574   7.272  19.068  1.00  0.00     0.144 C 
HETATM   16  C3  UNL     1      16.523   6.879  19.765  1.00  0.00     0.023 C 
HETATM   17  C2  UNL     1      16.395   5.563  20.432  1.00  0.00     0.041 C 
HETATM   18  C1  UNL     1      15.724   5.831  21.778  1.00  0.00     0.017 C 
HETATM   19  C19 UNL     1      17.666   4.809  20.587  1.00  0.00     0.188 C 
HETATM   20  C15 UNL     1      18.886   5.454  20.029  1.00  0.00     0.299 C 
HETATM   21  O8  UNL     1      17.585   3.596  19.902  1.00  0.00    -0.345 OA
HETATM   22  O6  UNL     1      18.615   6.359  18.976  1.00  0.00    -0.312 OA
HETATM   23  O7  UNL     1      19.627   4.407  19.479  1.00  0.00    -0.323 OA
HETATM   24  C16 UNL     1      18.879   3.261  19.587  1.00  0.00     0.160 C 
HETATM   25  C17 UNL     1      18.862   2.500  18.274  1.00  0.00     0.078 C 
HETATM   26  C18 UNL     1      19.448   2.415  20.701  1.00  0.00     0.078 C 
ENDBRANCH  13  15
ENDBRANCH  12  13
ENDBRANCH   1  12
BRANCH   4  27
HETATM   27  C9  UNL     1      12.969  13.507  19.118  1.00  0.00     0.081 C 
BRANCH  27  28
HETATM   28  C10 UNL     1      11.638  13.726  19.820  1.00  0.00     0.170 C 
BRANCH  28  29
HETATM   29  O4  UNL     1      10.872  12.567  19.835  1.00  0.00    -0.401 OA
ATOM     30  H4  UNL     1      10.046  12.701  20.284  1.00  0.00     0.209 HD
ENDBRANCH  28  29
ENDBRANCH  27  28
ENDBRANCH   4  27
TORSDOF 6
ENDMDL
