MODEL 1
REMARK VINA RESULT: -7.697107031      0.000      0.000
REMARK  5 active torsions:
REMARK  status: ('A' for Active; 'I' for Inactive)
REMARK    1  A    between atoms: C2_3  and  C3_4 
REMARK    2  A    between atoms: C3_4  and  N2_5 
REMARK    3  A    between atoms: C7_11  and  S2_12 
REMARK    4  A    between atoms: S2_12  and  N3_15 
REMARK    5  A    between atoms: N3_15  and  C8_17 
ROOT
HETATM    1  N1  UNL     1      19.057  14.062  14.060  1.00  0.00    -0.197 NA
HETATM    2  C1  UNL     1      18.469  13.303  14.710  1.00  0.00     0.060 C 
HETATM    3  C2  UNL     1      17.710  12.336  15.537  1.00  0.00     0.144 C 
ENDROOT
BRANCH   3   4
HETATM    4  C3  UNL     1      16.958  13.105  16.535  1.00  0.00     0.150 C 
BRANCH   4   5
HETATM    5  N2  UNL     1      16.190  12.343  17.488  1.00  0.00    -0.274 N 
HETATM    6  C4  UNL     1      16.634  11.144  17.893  1.00  0.00     0.293 A 
HETATM    7  O1  UNL     1      17.674  10.606  17.518  1.00  0.00    -0.259 OA
HETATM    8  S1  UNL     1      15.674  10.307  19.012  1.00  0.00    -0.028 SA
HETATM    9  C5  UNL     1      14.248  11.178  19.448  1.00  0.00     0.027 A 
HETATM   10  C6  UNL     1      13.326  10.692  20.338  1.00  0.00     0.045 A 
HETATM   11  C13 UNL     1      14.155  12.391  18.804  1.00  0.00     0.050 A 
HETATM   12  C7  UNL     1      12.202  11.439  20.646  1.00  0.00     0.081 A 
HETATM   13  C11 UNL     1      12.066  12.643  20.037  1.00  0.00     0.026 A 
HETATM   14  C12 UNL     1      13.001  13.121  19.141  1.00  0.00     0.020 A 
HETATM   15  C14 UNL     1      15.042  12.915  17.914  1.00  0.00     0.262 A 
HETATM   16  O4  UNL     1      14.731  14.074  17.446  1.00  0.00    -0.267 OA
BRANCH  12  17
HETATM   17  S2  UNL     1      11.049  10.814  21.770  1.00  0.00     0.264 S 
HETATM   18  O2  UNL     1      11.502  11.142  23.162  1.00  0.00    -0.200 OA
HETATM   19  O3  UNL     1      10.972   9.310  21.666  1.00  0.00    -0.200 OA
BRANCH  17  20
HETATM   20  N3  UNL     1       9.481  11.431  21.451  1.00  0.00    -0.260 N 
ATOM     21  H3  UNL     1       9.037  12.067  22.113  1.00  0.00     0.181 HD
BRANCH  20  22
HETATM   22  C8  UNL     1       8.855  11.081  20.350  1.00  0.00     0.158 A 
HETATM   23  N4  UNL     1       8.598   9.846  19.928  1.00  0.00    -0.345 N 
HETATM   24  C9  UNL     1       7.959   9.691  18.800  1.00  0.00     0.097 A 
ATOM     25  H4  UNL     1       8.893   9.037  20.474  1.00  0.00     0.167 HD
HETATM   26  C10 UNL     1       7.590  10.817  18.114  1.00  0.00     0.070 A 
HETATM   27  S3  UNL     1       8.179  12.057  19.127  1.00  0.00    -0.064 SA
ENDBRANCH  20  22
ENDBRANCH  17  20
ENDBRANCH  12  17
ENDBRANCH   4   5
ENDBRANCH   3   4
TORSDOF 5
ENDMDL
MODEL 2
REMARK VINA RESULT: -7.684660837      4.531      6.712
REMARK  5 active torsions:
REMARK  status: ('A' for Active; 'I' for Inactive)
REMARK    1  A    between atoms: C2_3  and  C3_4 
REMARK    2  A    between atoms: C3_4  and  N2_5 
REMARK    3  A    between atoms: C7_11  and  S2_12 
REMARK    4  A    between atoms: S2_12  and  N3_15 
REMARK    5  A    between atoms: N3_15  and  C8_17 
ROOT
HETATM    1  N1  UNL     1      20.718   2.846  18.770  1.00  0.00    -0.197 NA
HETATM    2  C1  UNL     1      19.703   3.402  18.843  1.00  0.00     0.060 C 
HETATM    3  C2  UNL     1      18.410   4.118  18.932  1.00  0.00     0.144 C 
ENDROOT
BRANCH   3   4
HETATM    4  C3  UNL     1      18.539   5.131  19.987  1.00  0.00     0.150 C 
BRANCH   4   5
HETATM    5  N2  UNL     1      17.634   6.251  19.916  1.00  0.00    -0.274 N 
HETATM    6  C4  UNL     1      16.500   6.238  20.633  1.00  0.00     0.293 A 
HETATM    7  O1  UNL     1      16.140   5.328  21.377  1.00  0.00    -0.259 OA
HETATM    8  S1  UNL     1      15.487   7.589  20.494  1.00  0.00    -0.028 SA
HETATM    9  C5  UNL     1      16.117   8.784  19.418  1.00  0.00     0.027 A 
HETATM   10  C6  UNL     1      15.464   9.960  19.154  1.00  0.00     0.045 A 
HETATM   11  C13 UNL     1      17.326   8.416  18.872  1.00  0.00     0.050 A 
HETATM   12  C7  UNL     1      16.020  10.879  18.281  1.00  0.00     0.081 A 
HETATM   13  C11 UNL     1      17.213  10.562  17.717  1.00  0.00     0.026 A 
HETATM   14  C12 UNL     1      17.860   9.374  17.990  1.00  0.00     0.020 A 
HETATM   15  C14 UNL     1      18.010   7.263  19.103  1.00  0.00     0.262 A 
HETATM   16  O4  UNL     1      19.126   7.150  18.469  1.00  0.00    -0.267 OA
BRANCH  12  17
HETATM   17  S2  UNL     1      15.187  12.357  17.957  1.00  0.00     0.264 S 
HETATM   18  O2  UNL     1      13.978  12.058  17.120  1.00  0.00    -0.200 OA
HETATM   19  O3  UNL     1      16.064  13.294  17.163  1.00  0.00    -0.200 OA
BRANCH  17  20
HETATM   20  N3  UNL     1      14.766  13.158  19.414  1.00  0.00    -0.260 N 
ATOM     21  H3  UNL     1      15.263  14.002  19.697  1.00  0.00     0.181 HD
BRANCH  20  22
HETATM   22  C8  UNL     1      13.799  12.679  20.165  1.00  0.00     0.158 A 
HETATM   23  N4  UNL     1      12.559  12.380  19.786  1.00  0.00    -0.345 N 
HETATM   24  C9  UNL     1      11.729  11.911  20.678  1.00  0.00     0.097 A 
ATOM     25  H4  UNL     1      12.263  12.514  18.819  1.00  0.00     0.167 HD
HETATM   26  C10 UNL     1      12.188  11.754  21.958  1.00  0.00     0.070 A 
HETATM   27  S3  UNL     1      13.801  12.290  21.824  1.00  0.00    -0.064 SA
ENDBRANCH  20  22
ENDBRANCH  17  20
ENDBRANCH  12  17
ENDBRANCH   4   5
ENDBRANCH   3   4
TORSDOF 5
ENDMDL
MODEL 3
REMARK VINA RESULT: -7.646091803      2.132      3.494
REMARK  5 active torsions:
REMARK  status: ('A' for Active; 'I' for Inactive)
REMARK    1  A    between atoms: C2_3  and  C3_4 
REMARK    2  A    between atoms: C3_4  and  N2_5 
REMARK    3  A    between atoms: C7_11  and  S2_12 
REMARK    4  A    between atoms: S2_12  and  N3_15 
REMARK    5  A    between atoms: N3_15  and  C8_17 
ROOT
HETATM    1  N1  UNL     1      19.044  14.082  13.993  1.00  0.00    -0.197 NA
HETATM    2  C1  UNL     1      18.456  13.330  14.650  1.00  0.00     0.060 C 
HETATM    3  C2  UNL     1      17.697  12.373  15.488  1.00  0.00     0.144 C 
ENDROOT
BRANCH   3   4
HETATM    4  C3  UNL     1      16.997  13.147  16.519  1.00  0.00     0.150 C 
BRANCH   4   5
HETATM    5  N2  UNL     1      16.207  12.395  17.463  1.00  0.00    -0.274 N 
HETATM    6  C4  UNL     1      16.630  11.191  17.874  1.00  0.00     0.293 A 
HETATM    7  O1  UNL     1      17.668  10.640  17.514  1.00  0.00    -0.259 OA
HETATM    8  S1  UNL     1      15.644  10.367  18.980  1.00  0.00    -0.028 SA
HETATM    9  C5  UNL     1      14.223  11.257  19.395  1.00  0.00     0.027 A 
HETATM   10  C6  UNL     1      13.283  10.783  20.273  1.00  0.00     0.045 A 
HETATM   11  C13 UNL     1      14.155  12.470  18.749  1.00  0.00     0.050 A 
HETATM   12  C7  UNL     1      12.165  11.544  20.566  1.00  0.00     0.081 A 
HETATM   13  C11 UNL     1      12.052  12.749  19.954  1.00  0.00     0.026 A 
HETATM   14  C12 UNL     1      13.005  13.215  19.071  1.00  0.00     0.020 A 
HETATM   15  C14 UNL     1      15.061  12.982  17.872  1.00  0.00     0.262 A 
HETATM   16  O4  UNL     1      14.771  14.145  17.399  1.00  0.00    -0.267 OA
BRANCH  12  17
HETATM   17  S2  UNL     1      10.988  10.934  21.674  1.00  0.00     0.264 S 
HETATM   18  O2  UNL     1      11.272   9.483  21.932  1.00  0.00    -0.200 OA
HETATM   19  O3  UNL     1       9.605  11.022  21.076  1.00  0.00    -0.200 OA
BRANCH  17  20
HETATM   20  N3  UNL     1      10.980  11.846  23.126  1.00  0.00    -0.260 N 
ATOM     21  H3  UNL     1      10.332  12.626  23.237  1.00  0.00     0.181 HD
BRANCH  20  22
HETATM   22  C8  UNL     1      11.810  11.535  24.096  1.00  0.00     0.158 A 
HETATM   23  N4  UNL     1      13.135  11.438  24.021  1.00  0.00    -0.345 N 
HETATM   24  C9  UNL     1      13.801  11.115  25.096  1.00  0.00     0.097 A 
ATOM     25  H4  UNL     1      13.621  11.612  23.140  1.00  0.00     0.167 HD
HETATM   26  C10 UNL     1      13.090  10.895  26.245  1.00  0.00     0.070 A 
HETATM   27  S3  UNL     1      11.487  11.163  25.727  1.00  0.00    -0.064 SA
ENDBRANCH  20  22
ENDBRANCH  17  20
ENDBRANCH  12  17
ENDBRANCH   4   5
ENDBRANCH   3   4
TORSDOF 5
ENDMDL
MODEL 4
REMARK VINA RESULT: -7.626079917      6.559      9.632
REMARK  5 active torsions:
REMARK  status: ('A' for Active; 'I' for Inactive)
REMARK    1  A    between atoms: C2_3  and  C3_4 
REMARK    2  A    between atoms: C3_4  and  N2_5 
REMARK    3  A    between atoms: C7_11  and  S2_12 
REMARK    4  A    between atoms: S2_12  and  N3_15 
REMARK    5  A    between atoms: N3_15  and  C8_17 
ROOT
HETATM    1  N1  UNL     1      14.341  14.081  17.419  1.00  0.00    -0.197 NA
HETATM    2  C1  UNL     1      14.345  12.944  17.646  1.00  0.00     0.060 C 
HETATM    3  C2  UNL     1      14.345  11.493  17.942  1.00  0.00     0.144 C 
ENDROOT
BRANCH   3   4
HETATM    4  C3  UNL     1      15.203  11.283  19.114  1.00  0.00     0.150 C 
BRANCH   4   5
HETATM    5  N2  UNL     1      15.485   9.913  19.466  1.00  0.00    -0.274 N 
HETATM    6  C4  UNL     1      14.643   9.245  20.269  1.00  0.00     0.293 A 
HETATM    7  O1  UNL     1      13.610   9.702  20.755  1.00  0.00    -0.259 OA
HETATM    8  S1  UNL     1      15.046   7.641  20.640  1.00  0.00    -0.028 SA
HETATM    9  C5  UNL     1      16.518   7.135  19.892  1.00  0.00     0.027 A 
HETATM   10  C6  UNL     1      17.035   5.875  20.053  1.00  0.00     0.045 A 
HETATM   11  C13 UNL     1      17.092   8.129  19.133  1.00  0.00     0.050 A 
HETATM   12  C7  UNL     1      18.220   5.530  19.426  1.00  0.00     0.081 A 
HETATM   13  C11 UNL     1      18.824   6.478  18.666  1.00  0.00     0.026 A 
HETATM   14  C12 UNL     1      18.293   7.742  18.512  1.00  0.00     0.020 A 
HETATM   15  C14 UNL     1      16.616   9.390  18.943  1.00  0.00     0.262 A 
HETATM   16  O4  UNL     1      17.338  10.141  18.185  1.00  0.00    -0.267 OA
BRANCH  12  17
HETATM   17  S2  UNL     1      18.861   3.940  19.638  1.00  0.00     0.264 S 
HETATM   18  O2  UNL     1      17.845   2.942  19.167  1.00  0.00    -0.200 OA
HETATM   19  O3  UNL     1      19.116   3.665  21.100  1.00  0.00    -0.200 OA
BRANCH  17  20
HETATM   20  N3  UNL     1      20.354   3.763  18.814  1.00  0.00    -0.260 N 
ATOM     21  H3  UNL     1      20.861   4.586  18.491  1.00  0.00     0.181 HD
BRANCH  20  22
HETATM   22  C8  UNL     1      20.842   2.561  18.601  1.00  0.00     0.158 A 
HETATM   23  N4  UNL     1      20.444   1.682  17.684  1.00  0.00    -0.345 N 
HETATM   24  C9  UNL     1      21.052   0.528  17.619  1.00  0.00     0.097 A 
ATOM     25  H4  UNL     1      19.681   1.905  17.045  1.00  0.00     0.167 HD
HETATM   26  C10 UNL     1      22.068   0.291  18.505  1.00  0.00     0.070 A 
HETATM   27  S3  UNL     1      22.108   1.744  19.397  1.00  0.00    -0.064 SA
ENDBRANCH  20  22
ENDBRANCH  17  20
ENDBRANCH  12  17
ENDBRANCH   4   5
ENDBRANCH   3   4
TORSDOF 5
ENDMDL
MODEL 5
REMARK VINA RESULT: -7.521828106      4.559      6.603
REMARK  5 active torsions:
REMARK  status: ('A' for Active; 'I' for Inactive)
REMARK    1  A    between atoms: C2_3  and  C3_4 
REMARK    2  A    between atoms: C3_4  and  N2_5 
REMARK    3  A    between atoms: C7_11  and  S2_12 
REMARK    4  A    between atoms: S2_12  and  N3_15 
REMARK    5  A    between atoms: N3_15  and  C8_17 
ROOT
HETATM    1  N1  UNL     1      20.913   2.696  19.312  1.00  0.00    -0.197 NA
HETATM    2  C1  UNL     1      20.315   3.599  19.723  1.00  0.00     0.060 C 
HETATM    3  C2  UNL     1      19.545   4.749  20.252  1.00  0.00     0.144 C 
ENDROOT
BRANCH   3   4
HETATM    4  C3  UNL     1      18.364   4.918  19.397  1.00  0.00     0.150 C 
BRANCH   4   5
HETATM    5  N2  UNL     1      18.137   6.241  18.869  1.00  0.00    -0.274 N 
HETATM    6  C4  UNL     1      18.878   6.684  17.842  1.00  0.00     0.293 A 
HETATM    7  O1  UNL     1      19.768   6.048  17.281  1.00  0.00    -0.259 OA
HETATM    8  S1  UNL     1      18.554   8.250  17.280  1.00  0.00    -0.028 SA
HETATM    9  C5  UNL     1      17.283   9.022  18.159  1.00  0.00     0.027 A 
HETATM   10  C6  UNL     1      16.854  10.293  17.876  1.00  0.00     0.045 A 
HETATM   11  C13 UNL     1      16.770   8.222  19.154  1.00  0.00     0.050 A 
HETATM   12  C7  UNL     1      15.830  10.858  18.618  1.00  0.00     0.081 A 
HETATM   13  C11 UNL     1      15.291  10.107  19.611  1.00  0.00     0.026 A 
HETATM   14  C12 UNL     1      15.732   8.829  19.886  1.00  0.00     0.020 A 
HETATM   15  C14 UNL     1      17.162   6.958  19.471  1.00  0.00     0.262 A 
HETATM   16  O4  UNL     1      16.524   6.414  20.449  1.00  0.00    -0.267 OA
BRANCH  12  17
HETATM   17  S2  UNL     1      15.299  12.460  18.250  1.00  0.00     0.264 S 
HETATM   18  O2  UNL     1      14.292  12.394  17.140  1.00  0.00    -0.200 OA
HETATM   19  O3  UNL     1      16.454  13.299  17.761  1.00  0.00    -0.200 OA
BRANCH  17  20
HETATM   20  N3  UNL     1      14.659  13.230  19.642  1.00  0.00    -0.260 N 
ATOM     21  H3  UNL     1      15.102  14.072  20.011  1.00  0.00     0.181 HD
BRANCH  20  22
HETATM   22  C8  UNL     1      13.595  12.732  20.231  1.00  0.00     0.158 A 
HETATM   23  N4  UNL     1      12.456  12.358  19.653  1.00  0.00    -0.345 N 
HETATM   24  C9  UNL     1      11.500  11.882  20.404  1.00  0.00     0.097 A 
ATOM     25  H4  UNL     1      12.332  12.442  18.644  1.00  0.00     0.167 HD
HETATM   26  C10 UNL     1      11.730  11.795  21.751  1.00  0.00     0.070 A 
HETATM   27  S3  UNL     1      13.317  12.405  21.880  1.00  0.00    -0.064 SA
ENDBRANCH  20  22
ENDBRANCH  17  20
ENDBRANCH  12  17
ENDBRANCH   4   5
ENDBRANCH   3   4
TORSDOF 5
ENDMDL
