MODEL 1
REMARK VINA RESULT: -8.236831582      0.000      0.000
REMARK  5 active torsions:
REMARK  status: ('A' for Active; 'I' for Inactive)
REMARK    1  A    between atoms: C3_5  and  C4_6 
REMARK    2  A    between atoms: C4_6  and  S1_7 
REMARK    3  A    between atoms: S1_7  and  C5_10 
REMARK    4  A    between atoms: C8_13  and  O5_14 
REMARK    5  A    between atoms: C9_16  and  N1_17 
ROOT
HETATM    1  C4  UNL     1      14.504   9.582  21.850  1.00  0.00     0.166 C 
ENDROOT
BRANCH   1   2
HETATM    2  C3  UNL     1      13.985   8.474  21.006  1.00  0.00     0.153 C 
HETATM    3  C2  UNL     1      13.613   7.241  21.726  1.00  0.00     0.212 C 
HETATM    4  C1  UNL     1      14.667   6.238  21.919  1.00  0.00     0.229 C 
HETATM    5  O2  UNL     1      12.469   7.005  22.175  1.00  0.00    -0.288 OA
HETATM    6  O1  UNL     1      14.525   5.358  22.809  1.00  0.00    -0.283 OA
HETATM    7  C17 UNL     1      15.882   6.217  21.115  1.00  0.00     0.032 A 
HETATM    8  C12 UNL     1      16.051   7.168  20.142  1.00  0.00     0.025 A 
HETATM    9  C16 UNL     1      16.870   5.254  21.314  1.00  0.00     0.016 A 
HETATM   10  C11 UNL     1      15.012   8.161  19.949  1.00  0.00     0.173 C 
HETATM   11  C13 UNL     1      17.208   7.158  19.367  1.00  0.00     0.016 A 
HETATM   12  O8  UNL     1      14.952   8.789  18.874  1.00  0.00    -0.291 OA
HETATM   13  C14 UNL     1      18.177   6.199  19.577  1.00  0.00     0.001 A 
HETATM   14  C15 UNL     1      18.019   5.234  20.554  1.00  0.00     0.001 A 
ENDBRANCH   1   2
BRANCH   1  15
HETATM   15  S1  UNL     1      13.383  10.910  22.065  1.00  0.00     0.176 S 
HETATM   16  O3  UNL     1      13.643  11.697  23.317  1.00  0.00    -0.223 OA
HETATM   17  O4  UNL     1      11.983  10.344  22.055  1.00  0.00    -0.223 OA
BRANCH  15  18
HETATM   18  C5  UNL     1      13.488  12.049  20.749  1.00  0.00     0.061 A 
HETATM   19  C6  UNL     1      12.632  13.113  20.598  1.00  0.00     0.026 A 
HETATM   20  C7  UNL     1      12.770  13.993  19.521  1.00  0.00     0.040 A 
HETATM   21  C8  UNL     1      13.773  13.800  18.596  1.00  0.00     0.098 A 
HETATM   22  C9  UNL     1      14.630  12.748  18.736  1.00  0.00     0.137 A 
HETATM   23  C10 UNL     1      14.478  11.881  19.814  1.00  0.00     0.062 A 
BRANCH  21  24
HETATM   24  O5  UNL     1      13.958  14.648  17.501  1.00  0.00    -0.358 OA
ATOM     25  H5  UNL     1      14.402  14.370  16.708  1.00  0.00     0.217 HD
ENDBRANCH  21  24
BRANCH  22  26
HETATM   26  N1  UNL     1      15.679  12.518  17.797  1.00  0.00    -0.113 N 
HETATM   27  O6  UNL     1      16.661  13.265  17.673  1.00  0.00    -0.532 OA
HETATM   28  O7  UNL     1      15.593  11.413  16.991  1.00  0.00    -0.532 OA
ENDBRANCH  22  26
ENDBRANCH  15  18
ENDBRANCH   1  15
TORSDOF 5
ENDMDL
MODEL 2
REMARK VINA RESULT: -7.578961289      3.214      5.430
REMARK  5 active torsions:
REMARK  status: ('A' for Active; 'I' for Inactive)
REMARK    1  A    between atoms: C3_5  and  C4_6 
REMARK    2  A    between atoms: C4_6  and  S1_7 
REMARK    3  A    between atoms: S1_7  and  C5_10 
REMARK    4  A    between atoms: C8_13  and  O5_14 
REMARK    5  A    between atoms: C9_16  and  N1_17 
ROOT
HETATM    1  C4  UNL     1      14.328  11.215  21.458  1.00  0.00     0.166 C 
ENDROOT
BRANCH   1   2
HETATM    2  C3  UNL     1      13.980  10.513  20.195  1.00  0.00     0.153 C 
HETATM    3  C2  UNL     1      14.788   9.318  19.882  1.00  0.00     0.212 C 
HETATM    4  C1  UNL     1      16.017   9.529  19.109  1.00  0.00     0.229 C 
HETATM    5  O2  UNL     1      14.490   8.155  20.234  1.00  0.00    -0.288 OA
HETATM    6  O1  UNL     1      16.912   8.642  19.119  1.00  0.00    -0.283 OA
HETATM    7  C17 UNL     1      16.247  10.732  18.320  1.00  0.00     0.032 A 
HETATM    8  C12 UNL     1      15.284  11.706  18.298  1.00  0.00     0.025 A 
HETATM    9  C16 UNL     1      17.423  10.911  17.591  1.00  0.00     0.016 A 
HETATM   10  C11 UNL     1      14.068  11.502  19.062  1.00  0.00     0.173 C 
HETATM   11  C13 UNL     1      15.493  12.861  17.548  1.00  0.00     0.016 A 
HETATM   12  O8  UNL     1      13.048  12.162  18.784  1.00  0.00    -0.291 OA
HETATM   13  C14 UNL     1      16.660  13.023  16.832  1.00  0.00     0.001 A 
HETATM   14  C15 UNL     1      17.640  12.049  16.845  1.00  0.00     0.001 A 
ENDBRANCH   1   2
BRANCH   1  15
HETATM   15  S1  UNL     1      12.946  11.750  22.389  1.00  0.00     0.176 S 
HETATM   16  O3  UNL     1      12.600  13.191  22.145  1.00  0.00    -0.223 OA
HETATM   17  O4  UNL     1      13.241  11.498  23.849  1.00  0.00    -0.223 OA
BRANCH  15  18
HETATM   18  C5  UNL     1      11.516  10.837  21.987  1.00  0.00     0.061 A 
HETATM   19  C6  UNL     1      11.165   9.665  22.611  1.00  0.00     0.026 A 
HETATM   20  C7  UNL     1      10.005   8.979  22.244  1.00  0.00     0.040 A 
HETATM   21  C8  UNL     1       9.196   9.477  21.245  1.00  0.00     0.098 A 
HETATM   22  C9  UNL     1       9.534  10.640  20.617  1.00  0.00     0.137 A 
HETATM   23  C10 UNL     1      10.694  11.310  20.996  1.00  0.00     0.062 A 
BRANCH  21  24
HETATM   24  O5  UNL     1       8.024   8.834  20.836  1.00  0.00    -0.358 OA
ATOM     25  H5  UNL     1       7.200   8.931  21.298  1.00  0.00     0.217 HD
ENDBRANCH  21  24
BRANCH  22  26
HETATM   26  N1  UNL     1       8.721  11.184  19.579  1.00  0.00    -0.113 N 
HETATM   27  O6  UNL     1       8.304  12.351  19.577  1.00  0.00    -0.532 OA
HETATM   28  O7  UNL     1       8.383  10.369  18.530  1.00  0.00    -0.532 OA
ENDBRANCH  22  26
ENDBRANCH  15  18
ENDBRANCH   1  15
TORSDOF 5
ENDMDL
MODEL 3
REMARK VINA RESULT: -7.399231669      2.437      6.679
REMARK  5 active torsions:
REMARK  status: ('A' for Active; 'I' for Inactive)
REMARK    1  A    between atoms: C3_5  and  C4_6 
REMARK    2  A    between atoms: C4_6  and  S1_7 
REMARK    3  A    between atoms: S1_7  and  C5_10 
REMARK    4  A    between atoms: C8_13  and  O5_14 
REMARK    5  A    between atoms: C9_16  and  N1_17 
ROOT
HETATM    1  C4  UNL     1      14.101   8.829  20.216  1.00  0.00     0.166 C 
ENDROOT
BRANCH   1   2
HETATM    2  C3  UNL     1      15.083   9.859  20.644  1.00  0.00     0.153 C 
HETATM    3  C2  UNL     1      14.650  10.738  21.748  1.00  0.00     0.212 C 
HETATM    4  C1  UNL     1      13.932  11.964  21.381  1.00  0.00     0.229 C 
HETATM    5  O2  UNL     1      14.856  10.501  22.959  1.00  0.00    -0.288 OA
HETATM    6  O1  UNL     1      13.237  12.555  22.250  1.00  0.00    -0.283 OA
HETATM    7  C17 UNL     1      13.992  12.533  20.041  1.00  0.00     0.032 A 
HETATM    8  C12 UNL     1      14.743  11.902  19.085  1.00  0.00     0.025 A 
HETATM    9  C16 UNL     1      13.302  13.700  19.714  1.00  0.00     0.016 A 
HETATM   10  C11 UNL     1      15.454  10.689  19.443  1.00  0.00     0.173 C 
HETATM   11  C13 UNL     1      14.808  12.436  17.800  1.00  0.00     0.016 A 
HETATM   12  O8  UNL     1      16.410  10.305  18.742  1.00  0.00    -0.291 OA
HETATM   13  C14 UNL     1      14.120  13.592  17.493  1.00  0.00     0.001 A 
HETATM   14  C15 UNL     1      13.358  14.238  18.447  1.00  0.00     0.001 A 
ENDBRANCH   1   2
BRANCH   1  15
HETATM   15  S1  UNL     1      14.251   7.299  21.054  1.00  0.00     0.176 S 
HETATM   16  O3  UNL     1      13.198   6.307  20.651  1.00  0.00    -0.223 OA
HETATM   17  O4  UNL     1      14.205   7.574  22.538  1.00  0.00    -0.223 OA
BRANCH  15  18
HETATM   18  C5  UNL     1      15.783   6.538  20.718  1.00  0.00     0.061 A 
HETATM   19  C6  UNL     1      16.318   5.536  21.491  1.00  0.00     0.026 A 
HETATM   20  C7  UNL     1      17.551   4.965  21.168  1.00  0.00     0.040 A 
HETATM   21  C8  UNL     1      18.247   5.404  20.062  1.00  0.00     0.098 A 
HETATM   22  C9  UNL     1      17.727   6.399  19.286  1.00  0.00     0.137 A 
HETATM   23  C10 UNL     1      16.497   6.957  19.623  1.00  0.00     0.062 A 
BRANCH  21  24
HETATM   24  O5  UNL     1      19.483   4.870  19.691  1.00  0.00    -0.358 OA
ATOM     25  H5  UNL     1      20.289   5.372  19.727  1.00  0.00     0.217 HD
ENDBRANCH  21  24
BRANCH  22  26
HETATM   26  N1  UNL     1      18.419   6.878  18.135  1.00  0.00    -0.113 N 
HETATM   27  O6  UNL     1      18.472   8.076  17.819  1.00  0.00    -0.532 OA
HETATM   28  O7  UNL     1      19.059   5.964  17.339  1.00  0.00    -0.532 OA
ENDBRANCH  22  26
ENDBRANCH  15  18
ENDBRANCH   1  15
TORSDOF 5
ENDMDL
MODEL 4
REMARK VINA RESULT: -7.375644298      3.390      6.444
REMARK  5 active torsions:
REMARK  status: ('A' for Active; 'I' for Inactive)
REMARK    1  A    between atoms: C3_5  and  C4_6 
REMARK    2  A    between atoms: C4_6  and  S1_7 
REMARK    3  A    between atoms: S1_7  and  C5_10 
REMARK    4  A    between atoms: C8_13  and  O5_14 
REMARK    5  A    between atoms: C9_16  and  N1_17 
ROOT
HETATM    1  C4  UNL     1      14.210  11.606  21.374  1.00  0.00     0.166 C 
ENDROOT
BRANCH   1   2
HETATM    2  C3  UNL     1      13.831  10.892  20.127  1.00  0.00     0.153 C 
HETATM    3  C2  UNL     1      14.554   9.632  19.866  1.00  0.00     0.212 C 
HETATM    4  C1  UNL     1      15.807   9.728  19.108  1.00  0.00     0.229 C 
HETATM    5  O2  UNL     1      14.167   8.505  20.248  1.00  0.00    -0.288 OA
HETATM    6  O1  UNL     1      16.635   8.779  19.162  1.00  0.00    -0.283 OA
HETATM    7  C17 UNL     1      16.137  10.885  18.287  1.00  0.00     0.032 A 
HETATM    8  C12 UNL     1      15.248  11.926  18.218  1.00  0.00     0.025 A 
HETATM    9  C16 UNL     1      17.334  10.955  17.574  1.00  0.00     0.016 A 
HETATM   10  C11 UNL     1      14.008  11.835  18.966  1.00  0.00     0.173 C 
HETATM   11  C13 UNL     1      15.552  13.038  17.436  1.00  0.00     0.016 A 
HETATM   12  O8  UNL     1      13.044  12.558  18.650  1.00  0.00    -0.291 OA
HETATM   13  C14 UNL     1      16.739  13.092  16.737  1.00  0.00     0.001 A 
HETATM   14  C15 UNL     1      17.645  12.050  16.798  1.00  0.00     0.001 A 
ENDBRANCH   1   2
BRANCH   1  15
HETATM   15  S1  UNL     1      13.169  11.271  22.741  1.00  0.00     0.176 S 
HETATM   16  O3  UNL     1      12.146  10.211  22.450  1.00  0.00    -0.223 OA
HETATM   17  O4  UNL     1      12.512  12.566  23.156  1.00  0.00    -0.223 OA
BRANCH  15  18
HETATM   18  C5  UNL     1      14.083  10.695  24.109  1.00  0.00     0.061 A 
HETATM   19  C6  UNL     1      15.092  11.414  24.704  1.00  0.00     0.026 A 
HETATM   20  C7  UNL     1      15.787  10.897  25.800  1.00  0.00     0.040 A 
HETATM   21  C8  UNL     1      15.465   9.653  26.298  1.00  0.00     0.098 A 
HETATM   22  C9  UNL     1      14.465   8.929  25.716  1.00  0.00     0.137 A 
HETATM   23  C10 UNL     1      13.783   9.459  24.625  1.00  0.00     0.062 A 
BRANCH  21  24
HETATM   24  O5  UNL     1      16.126   9.087  27.391  1.00  0.00    -0.358 OA
ATOM     25  H5  UNL     1      16.668   8.310  27.315  1.00  0.00     0.217 HD
ENDBRANCH  21  24
BRANCH  22  26
HETATM   26  N1  UNL     1      14.105   7.639  26.205  1.00  0.00    -0.113 N 
HETATM   27  O6  UNL     1      13.677   7.437  27.351  1.00  0.00    -0.532 OA
HETATM   28  O7  UNL     1      14.242   6.567  25.362  1.00  0.00    -0.532 OA
ENDBRANCH  22  26
ENDBRANCH  15  18
ENDBRANCH   1  15
TORSDOF 5
ENDMDL
MODEL 5
REMARK VINA RESULT: -7.216160777      3.667      4.894
REMARK  5 active torsions:
REMARK  status: ('A' for Active; 'I' for Inactive)
REMARK    1  A    between atoms: C3_5  and  C4_6 
REMARK    2  A    between atoms: C4_6  and  S1_7 
REMARK    3  A    between atoms: S1_7  and  C5_10 
REMARK    4  A    between atoms: C8_13  and  O5_14 
REMARK    5  A    between atoms: C9_16  and  N1_17 
ROOT
HETATM    1  C4  UNL     1      12.668  12.608  21.895  1.00  0.00     0.166 C 
ENDROOT
BRANCH   1   2
HETATM    2  C3  UNL     1      12.688  11.176  22.293  1.00  0.00     0.153 C 
HETATM    3  C2  UNL     1      11.606  10.748  23.200  1.00  0.00     0.212 C 
HETATM    4  C1  UNL     1      11.855  10.872  24.641  1.00  0.00     0.229 C 
HETATM    5  O2  UNL     1      10.505  10.293  22.817  1.00  0.00    -0.288 OA
HETATM    6  O1  UNL     1      10.879  10.872  25.438  1.00  0.00    -0.283 OA
HETATM    7  C17 UNL     1      13.197  10.995  25.194  1.00  0.00     0.032 A 
HETATM    8  C12 UNL     1      14.269  10.997  24.340  1.00  0.00     0.025 A 
HETATM    9  C16 UNL     1      13.412  11.111  26.567  1.00  0.00     0.016 A 
HETATM   10  C11 UNL     1      14.027  10.876  22.915  1.00  0.00     0.173 C 
HETATM   11  C13 UNL     1      15.558  11.115  24.857  1.00  0.00     0.016 A 
HETATM   12  O8  UNL     1      14.951  10.510  22.162  1.00  0.00    -0.291 OA
HETATM   13  C14 UNL     1      15.753  11.229  26.217  1.00  0.00     0.001 A 
HETATM   14  C15 UNL     1      14.681  11.228  27.090  1.00  0.00     0.001 A 
ENDBRANCH   1   2
BRANCH   1  15
HETATM   15  S1  UNL     1      12.124  12.892  20.255  1.00  0.00     0.176 S 
HETATM   16  O3  UNL     1      11.502  14.246  20.072  1.00  0.00    -0.223 OA
HETATM   17  O4  UNL     1      11.158  11.791  19.887  1.00  0.00    -0.223 OA
BRANCH  15  18
HETATM   18  C5  UNL     1      13.449  12.814  19.124  1.00  0.00     0.061 A 
HETATM   19  C6  UNL     1      13.691  13.775  18.173  1.00  0.00     0.026 A 
HETATM   20  C7  UNL     1      14.772  13.656  17.296  1.00  0.00     0.040 A 
HETATM   21  C8  UNL     1      15.611  12.566  17.378  1.00  0.00     0.098 A 
HETATM   22  C9  UNL     1      15.381  11.604  18.318  1.00  0.00     0.137 A 
HETATM   23  C10 UNL     1      14.299  11.738  19.184  1.00  0.00     0.062 A 
BRANCH  21  24
HETATM   24  O5  UNL     1      16.706  12.394  16.527  1.00  0.00    -0.358 OA
ATOM     25  H5  UNL     1      17.564  12.138  16.843  1.00  0.00     0.217 HD
ENDBRANCH  21  24
BRANCH  22  26
HETATM   26  N1  UNL     1      16.228  10.462  18.431  1.00  0.00    -0.113 N 
HETATM   27  O6  UNL     1      17.400  10.438  18.027  1.00  0.00    -0.532 OA
HETATM   28  O7  UNL     1      15.716   9.334  19.016  1.00  0.00    -0.532 OA
ENDBRANCH  22  26
ENDBRANCH  15  18
ENDBRANCH   1  15
TORSDOF 5
ENDMDL
