MODEL 1
REMARK VINA RESULT: -6.611366248      0.000      0.000
REMARK  4 active torsions:
REMARK  status: ('A' for Active; 'I' for Inactive)
REMARK    1  A    between atoms: C5_5  and  C6_6 
REMARK    2  A    between atoms: C6_6  and  O1_7 
REMARK    3  A    between atoms: C7_10  and  C8_11 
REMARK    4  A    between atoms: C11_15  and  C12_16 
ROOT
HETATM    1  C8  UNL     1      13.443  10.496  20.658  1.00  0.00     0.316 C 
HETATM    2  O3  UNL     1      12.838  11.394  21.547  1.00  0.00    -0.348 OA
HETATM    3  C9  UNL     1      12.609  10.689  22.721  1.00  0.00     0.157 C 
HETATM    4  C10 UNL     1      12.673  11.492  23.968  1.00  0.00     0.049 C 
HETATM    5  C11 UNL     1      13.064  10.594  25.152  1.00  0.00     0.089 C 
HETATM    6  C14 UNL     1      12.762   9.210  24.753  1.00  0.00     0.168 C 
HETATM    7  O5  UNL     1      12.974   8.216  25.651  1.00  0.00    -0.347 OA
HETATM    8  C15 UNL     1      13.132   7.084  24.851  1.00  0.00     0.158 C 
HETATM    9  C16 UNL     1      14.194   6.167  25.451  1.00  0.00     0.078 C 
HETATM   10  C17 UNL     1      11.826   6.326  24.825  1.00  0.00     0.078 C 
HETATM   11  O6  UNL     1      13.511   7.513  23.577  1.00  0.00    -0.345 OA
HETATM   12  C18 UNL     1      13.849   8.807  23.734  1.00  0.00     0.186 C 
HETATM   13  C19 UNL     1      13.823   9.747  22.650  1.00  0.00     0.185 C 
HETATM   14  O7  UNL     1      13.733   9.329  21.362  1.00  0.00    -0.346 OA
ENDROOT
BRANCH   1  15
HETATM   15  C7  UNL     1      14.692  11.175  20.144  1.00  0.00     0.321 C 
HETATM   16  O2  UNL     1      14.383  12.523  19.958  1.00  0.00    -0.348 OA
HETATM   17  C5  UNL     1      13.964  12.750  18.664  1.00  0.00     0.154 C 
HETATM   18  C4  UNL     1      15.186  12.716  17.764  1.00  0.00     0.098 C 
HETATM   19  C3  UNL     1      15.781  11.346  17.960  1.00  0.00     0.048 C 
HETATM   20  C2  UNL     1      16.781  10.938  17.232  1.00  0.00     0.001 C 
HETATM   21  O8  UNL     1      15.183  10.581  18.962  1.00  0.00    -0.320 OA
HETATM   22  C1  UNL     1      17.348  11.820  16.196  1.00  0.00     0.038 C 
BRANCH  17  23
HETATM   23  C6  UNL     1      13.204  14.046  18.519  1.00  0.00     0.196 C 
BRANCH  23  24
HETATM   24  O1  UNL     1      13.915  14.866  17.661  1.00  0.00    -0.398 OA
ATOM     25  H1  UNL     1      13.319  15.522  17.319  1.00  0.00     0.209 HD
ENDBRANCH  23  24
ENDBRANCH  17  23
ENDBRANCH   1  15
BRANCH   5  26
HETATM   26  C12 UNL     1      12.395  11.045  26.397  1.00  0.00     0.129 C 
HETATM   27  C13 UNL     1      10.907  11.019  26.439  1.00  0.00     0.091 C 
HETATM   28  O4  UNL     1      13.046  11.427  27.357  1.00  0.00    -0.298 OA
ENDBRANCH   5  26
TORSDOF 4
ENDMDL
MODEL 2
REMARK VINA RESULT: -6.596415840      3.621      6.209
REMARK  4 active torsions:
REMARK  status: ('A' for Active; 'I' for Inactive)
REMARK    1  A    between atoms: C5_5  and  C6_6 
REMARK    2  A    between atoms: C6_6  and  O1_7 
REMARK    3  A    between atoms: C7_10  and  C8_11 
REMARK    4  A    between atoms: C11_15  and  C12_16 
ROOT
HETATM    1  C8  UNL     1      15.295   7.776  19.590  1.00  0.00     0.316 C 
HETATM    2  O3  UNL     1      15.591   9.042  19.069  1.00  0.00    -0.348 OA
HETATM    3  C9  UNL     1      14.540   9.873  19.435  1.00  0.00     0.157 C 
HETATM    4  C10 UNL     1      14.901  11.295  19.660  1.00  0.00     0.049 C 
HETATM    5  C11 UNL     1      13.914  11.938  20.644  1.00  0.00     0.089 C 
HETATM    6  C14 UNL     1      12.702  11.102  20.639  1.00  0.00     0.168 C 
HETATM    7  O5  UNL     1      11.647  11.486  21.399  1.00  0.00    -0.347 OA
HETATM    8  C15 UNL     1      10.950  10.296  21.610  1.00  0.00     0.158 C 
HETATM    9  C16 UNL     1      10.371  10.276  23.023  1.00  0.00     0.078 C 
HETATM   10  C17 UNL     1       9.796  10.233  20.637  1.00  0.00     0.078 C 
HETATM   11  O6  UNL     1      11.845   9.240  21.427  1.00  0.00    -0.345 OA
HETATM   12  C18 UNL     1      13.062   9.816  21.413  1.00  0.00     0.186 C 
HETATM   13  C19 UNL     1      14.195   9.208  20.779  1.00  0.00     0.185 C 
HETATM   14  O7  UNL     1      14.174   7.903  20.408  1.00  0.00    -0.346 OA
ENDROOT
BRANCH   1  15
HETATM   15  C7  UNL     1      16.517   7.333  20.363  1.00  0.00     0.321 C 
HETATM   16  O2  UNL     1      17.633   7.651  19.590  1.00  0.00    -0.348 OA
HETATM   17  C5  UNL     1      17.991   6.583  18.794  1.00  0.00     0.154 C 
HETATM   18  C4  UNL     1      18.668   5.549  19.677  1.00  0.00     0.098 C 
HETATM   19  C3  UNL     1      17.641   5.190  20.720  1.00  0.00     0.048 C 
HETATM   20  C2  UNL     1      17.856   4.226  21.569  1.00  0.00     0.001 C 
HETATM   21  O8  UNL     1      16.479   5.961  20.693  1.00  0.00    -0.320 OA
HETATM   22  C1  UNL     1      19.117   3.466  21.520  1.00  0.00     0.038 C 
BRANCH  17  23
HETATM   23  C6  UNL     1      18.875   6.990  17.640  1.00  0.00     0.196 C 
BRANCH  23  24
HETATM   24  O1  UNL     1      19.475   5.849  17.138  1.00  0.00    -0.398 OA
ATOM     25  H1  UNL     1      18.905   5.111  17.322  1.00  0.00     0.209 HD
ENDBRANCH  23  24
ENDBRANCH  17  23
ENDBRANCH   1  15
BRANCH   5  26
HETATM   26  C12 UNL     1      13.688  13.366  20.306  1.00  0.00     0.129 C 
HETATM   27  C13 UNL     1      13.558  13.729  18.868  1.00  0.00     0.091 C 
HETATM   28  O4  UNL     1      13.614  14.214  21.180  1.00  0.00    -0.298 OA
ENDBRANCH   5  26
TORSDOF 4
ENDMDL
MODEL 3
REMARK VINA RESULT: -6.530453216      2.094      3.524
REMARK  4 active torsions:
REMARK  status: ('A' for Active; 'I' for Inactive)
REMARK    1  A    between atoms: C5_5  and  C6_6 
REMARK    2  A    between atoms: C6_6  and  O1_7 
REMARK    3  A    between atoms: C7_10  and  C8_11 
REMARK    4  A    between atoms: C11_15  and  C12_16 
ROOT
HETATM    1  C8  UNL     1      13.239  13.450  20.024  1.00  0.00     0.316 C 
HETATM    2  O3  UNL     1      14.285  13.220  20.926  1.00  0.00    -0.348 OA
HETATM    3  C9  UNL     1      13.728  12.553  22.010  1.00  0.00     0.157 C 
HETATM    4  C10 UNL     1      14.631  11.601  22.704  1.00  0.00     0.049 C 
HETATM    5  C11 UNL     1      13.808  10.498  23.386  1.00  0.00     0.089 C 
HETATM    6  C14 UNL     1      12.440  11.021  23.538  1.00  0.00     0.168 C 
HETATM    7  O5  UNL     1      11.517  10.249  24.163  1.00  0.00    -0.347 OA
HETATM    8  C15 UNL     1      10.304  10.733  23.673  1.00  0.00     0.158 C 
HETATM    9  C16 UNL     1       9.323   9.580  23.482  1.00  0.00     0.078 C 
HETATM   10  C17 UNL     1       9.714  11.678  24.693  1.00  0.00     0.078 C 
HETATM   11  O6  UNL     1      10.560  11.371  22.458  1.00  0.00    -0.345 OA
HETATM   12  C18 UNL     1      11.811  10.999  22.128  1.00  0.00     0.186 C 
HETATM   13  C19 UNL     1      12.640  11.774  21.251  1.00  0.00     0.185 C 
HETATM   14  O7  UNL     1      12.117  12.767  20.488  1.00  0.00    -0.346 OA
ENDROOT
BRANCH   1  15
HETATM   15  C7  UNL     1      13.707  12.932  18.682  1.00  0.00     0.321 C 
HETATM   16  O2  UNL     1      13.679  11.539  18.744  1.00  0.00    -0.348 OA
HETATM   17  C5  UNL     1      14.904  11.047  19.142  1.00  0.00     0.154 C 
HETATM   18  C4  UNL     1      15.857  11.159  17.965  1.00  0.00     0.098 C 
HETATM   19  C3  UNL     1      15.892  12.627  17.625  1.00  0.00     0.048 C 
HETATM   20  C2  UNL     1      16.718  13.090  16.732  1.00  0.00     0.001 C 
HETATM   21  O8  UNL     1      14.985  13.417  18.332  1.00  0.00    -0.320 OA
HETATM   22  C1  UNL     1      17.640  12.175  16.036  1.00  0.00     0.038 C 
BRANCH  17  23
HETATM   23  C6  UNL     1      14.822   9.630  19.656  1.00  0.00     0.196 C 
BRANCH  23  24
HETATM   24  O1  UNL     1      16.066   9.045  19.498  1.00  0.00    -0.398 OA
ATOM     25  H1  UNL     1      16.716   9.632  19.864  1.00  0.00     0.209 HD
ENDBRANCH  23  24
ENDBRANCH  17  23
ENDBRANCH   1  15
BRANCH   5  26
HETATM   26  C12 UNL     1      14.454  10.066  24.651  1.00  0.00     0.129 C 
HETATM   27  C13 UNL     1      15.317  11.047  25.364  1.00  0.00     0.091 C 
HETATM   28  O4  UNL     1      14.283   8.940  25.090  1.00  0.00    -0.298 OA
ENDBRANCH   5  26
TORSDOF 4
ENDMDL
MODEL 4
REMARK VINA RESULT: -6.504901648      1.848      2.493
REMARK  4 active torsions:
REMARK  status: ('A' for Active; 'I' for Inactive)
REMARK    1  A    between atoms: C5_5  and  C6_6 
REMARK    2  A    between atoms: C6_6  and  O1_7 
REMARK    3  A    between atoms: C7_10  and  C8_11 
REMARK    4  A    between atoms: C11_15  and  C12_16 
ROOT
HETATM    1  C8  UNL     1      14.027   9.861  19.583  1.00  0.00     0.316 C 
HETATM    2  O3  UNL     1      13.442  10.295  20.779  1.00  0.00    -0.348 OA
HETATM    3  C9  UNL     1      13.340   9.175  21.594  1.00  0.00     0.157 C 
HETATM    4  C10 UNL     1      13.453   9.434  23.051  1.00  0.00     0.049 C 
HETATM    5  C11 UNL     1      13.978   8.183  23.769  1.00  0.00     0.089 C 
HETATM    6  C14 UNL     1      13.723   7.041  22.876  1.00  0.00     0.168 C 
HETATM    7  O5  UNL     1      14.054   5.798  23.302  1.00  0.00    -0.347 OA
HETATM    8  C15 UNL     1      14.213   5.080  22.117  1.00  0.00     0.158 C 
HETATM    9  C16 UNL     1      15.364   4.088  22.259  1.00  0.00     0.078 C 
HETATM   10  C17 UNL     1      12.951   4.290  21.858  1.00  0.00     0.078 C 
HETATM   11  O6  UNL     1      14.473   5.997  21.096  1.00  0.00    -0.345 OA
HETATM   12  C18 UNL     1      14.751   7.151  21.730  1.00  0.00     0.186 C 
HETATM   13  C19 UNL     1      14.594   8.432  21.103  1.00  0.00     0.185 C 
HETATM   14  O7  UNL     1      14.431   8.539  19.760  1.00  0.00    -0.346 OA
ENDROOT
BRANCH   1  15
HETATM   15  C7  UNL     1      15.197  10.782  19.317  1.00  0.00     0.321 C 
HETATM   16  O2  UNL     1      14.747  12.088  19.514  1.00  0.00    -0.348 OA
HETATM   17  C5  UNL     1      14.302  12.631  18.327  1.00  0.00     0.154 C 
HETATM   18  C4  UNL     1      15.518  12.981  17.488  1.00  0.00     0.098 C 
HETATM   19  C3  UNL     1      16.254  11.680  17.302  1.00  0.00     0.048 C 
HETATM   20  C2  UNL     1      17.289  11.600  16.515  1.00  0.00     0.001 C 
HETATM   21  O8  UNL     1      15.743  10.604  18.028  1.00  0.00    -0.320 OA
HETATM   22  C1  UNL     1      17.757  12.794  15.788  1.00  0.00     0.038 C 
BRANCH  17  23
HETATM   23  C6  UNL     1      13.409  13.831  18.537  1.00  0.00     0.196 C 
BRANCH  23  24
HETATM   24  O1  UNL     1      13.871  14.854  17.728  1.00  0.00    -0.398 OA
ATOM     25  H1  UNL     1      13.216  15.542  17.720  1.00  0.00     0.209 HD
ENDBRANCH  23  24
ENDBRANCH  17  23
ENDBRANCH   1  15
BRANCH   5  26
HETATM   26  C12 UNL     1      13.380   8.063  25.122  1.00  0.00     0.129 C 
HETATM   27  C13 UNL     1      14.302   7.991  26.289  1.00  0.00     0.091 C 
HETATM   28  O4  UNL     1      12.169   8.023  25.272  1.00  0.00    -0.298 OA
ENDBRANCH   5  26
TORSDOF 4
ENDMDL
MODEL 5
REMARK VINA RESULT: -6.459105936      1.448      1.942
REMARK  4 active torsions:
REMARK  status: ('A' for Active; 'I' for Inactive)
REMARK    1  A    between atoms: C5_5  and  C6_6 
REMARK    2  A    between atoms: C6_6  and  O1_7 
REMARK    3  A    between atoms: C7_10  and  C8_11 
REMARK    4  A    between atoms: C11_15  and  C12_16 
ROOT
HETATM    1  C8  UNL     1      13.420  10.484  20.699  1.00  0.00     0.316 C 
HETATM    2  O3  UNL     1      13.264  10.894  22.029  1.00  0.00    -0.348 OA
HETATM    3  C9  UNL     1      13.095   9.737  22.779  1.00  0.00     0.157 C 
HETATM    4  C10 UNL     1      13.616   9.796  24.168  1.00  0.00     0.049 C 
HETATM    5  C11 UNL     1      13.983   8.386  24.653  1.00  0.00     0.089 C 
HETATM    6  C14 UNL     1      13.252   7.439  23.796  1.00  0.00     0.168 C 
HETATM    7  O5  UNL     1      13.368   6.112  24.051  1.00  0.00    -0.347 OA
HETATM    8  C15 UNL     1      13.057   5.518  22.827  1.00  0.00     0.158 C 
HETATM    9  C16 UNL     1      13.935   4.289  22.607  1.00  0.00     0.078 C 
HETATM   10  C17 UNL     1      11.619   5.058  22.864  1.00  0.00     0.078 C 
HETATM   11  O6  UNL     1      13.275   6.468  21.826  1.00  0.00    -0.345 OA
HETATM   12  C18 UNL     1      13.968   7.453  22.428  1.00  0.00     0.186 C 
HETATM   13  C19 UNL     1      13.977   8.800  21.936  1.00  0.00     0.185 C 
HETATM   14  O7  UNL     1      13.525   9.095  20.691  1.00  0.00    -0.346 OA
ENDROOT
BRANCH   1  15
HETATM   15  C7  UNL     1      14.677  11.152  20.188  1.00  0.00     0.321 C 
HETATM   16  O2  UNL     1      14.383  12.503  20.007  1.00  0.00    -0.348 OA
HETATM   17  C5  UNL     1      13.966  12.739  18.714  1.00  0.00     0.154 C 
HETATM   18  C4  UNL     1      15.188  12.696  17.814  1.00  0.00     0.098 C 
HETATM   19  C3  UNL     1      15.768  11.319  18.005  1.00  0.00     0.048 C 
HETATM   20  C2  UNL     1      16.764  10.903  17.276  1.00  0.00     0.001 C 
HETATM   21  O8  UNL     1      15.162  10.557  19.004  1.00  0.00    -0.320 OA
HETATM   22  C1  UNL     1      17.340  11.782  16.243  1.00  0.00     0.038 C 
BRANCH  17  23
HETATM   23  C6  UNL     1      13.220  14.044  18.573  1.00  0.00     0.196 C 
BRANCH  23  24
HETATM   24  O1  UNL     1      13.904  14.833  17.666  1.00  0.00    -0.398 OA
ATOM     25  H1  UNL     1      14.070  15.675  18.074  1.00  0.00     0.209 HD
ENDBRANCH  23  24
ENDBRANCH  17  23
ENDBRANCH   1  15
BRANCH   5  26
HETATM   26  C12 UNL     1      13.719   8.245  26.106  1.00  0.00     0.129 C 
HETATM   27  C13 UNL     1      14.852   7.848  26.986  1.00  0.00     0.091 C 
HETATM   28  O4  UNL     1      12.605   8.447  26.564  1.00  0.00    -0.298 OA
ENDBRANCH   5  26
TORSDOF 4
ENDMDL
