MODEL 1
REMARK VINA RESULT: -6.195601922      0.000      0.000
REMARK  4 active torsions:
REMARK  status: ('A' for Active; 'I' for Inactive)
REMARK    1  A    between atoms: S1_2  and  N1_5 
REMARK    2  A    between atoms: N1_5  and  N2_7 
REMARK    3  A    between atoms: C4_11  and  C5_12 
REMARK    4  A    between atoms: C10_17  and  N3_18 
ROOT
HETATM    1  N2  UNL     1      13.292  10.042  22.840  1.00  0.00    -0.192 N 
HETATM    2  C2  UNL     1      14.311  10.541  21.979  1.00  0.00     0.283 C 
HETATM    3  O3  UNL     1      14.702  11.730  22.276  1.00  0.00    -0.265 OA
HETATM    4  C3  UNL     1      14.920   9.856  20.846  1.00  0.00     0.092 C 
HETATM    5  C4  UNL     1      15.836  10.453  20.134  1.00  0.00     0.035 C 
HETATM    6  C11 UNL     1      14.481   8.503  20.490  1.00  0.00     0.231 C 
HETATM    7  O6  UNL     1      14.541   7.997  19.364  1.00  0.00    -0.279 OA
HETATM    8  S2  UNL     1      13.791   7.527  21.866  1.00  0.00    -0.015 SA
HETATM    9  C12 UNL     1      12.725   8.751  22.687  1.00  0.00     0.172 C 
HETATM   10  S3  UNL     1      11.262   8.288  23.148  1.00  0.00    -0.050 SA
ENDROOT
BRANCH   5  11
HETATM   11  C5  UNL     1      16.574   9.981  18.995  1.00  0.00    -0.002 A 
HETATM   12  C6  UNL     1      17.366   8.853  19.057  1.00  0.00     0.014 A 
HETATM   13  C7  UNL     1      18.061   8.429  17.969  1.00  0.00     0.001 A 
HETATM   14  C8  UNL     1      18.010   9.101  16.761  1.00  0.00     0.002 A 
HETATM   15  C9  UNL     1      17.235  10.226  16.654  1.00  0.00     0.037 A 
HETATM   16  C10 UNL     1      16.520  10.651  17.786  1.00  0.00     0.113 A 
BRANCH  16  17
HETATM   17  N3  UNL     1      15.721  11.803  17.581  1.00  0.00    -0.115 N 
HETATM   18  O4  UNL     1      16.242  12.948  17.632  1.00  0.00    -0.532 OA
HETATM   19  O5  UNL     1      14.384  11.781  17.319  1.00  0.00    -0.532 OA
ENDBRANCH  16  17
ENDBRANCH   5  11
BRANCH   1  20
HETATM   20  N1  UNL     1      12.842  10.832  23.887  1.00  0.00    -0.216 N 
ATOM     21  H1  UNL     1      12.148  11.565  23.737  1.00  0.00     0.200 HD
BRANCH  20  22
HETATM   22  S1  UNL     1      13.484  10.537  25.417  1.00  0.00     0.240 S 
HETATM   23  C1  UNL     1      15.208  11.013  25.512  1.00  0.00     0.187 C 
HETATM   24  O1  UNL     1      13.391   9.092  25.850  1.00  0.00    -0.205 OA
HETATM   25  O2  UNL     1      12.682  11.312  26.457  1.00  0.00    -0.205 OA
ENDBRANCH  20  22
ENDBRANCH   1  20
TORSDOF 4
ENDMDL
MODEL 2
REMARK VINA RESULT: -6.194422756      2.801      3.617
REMARK  4 active torsions:
REMARK  status: ('A' for Active; 'I' for Inactive)
REMARK    1  A    between atoms: S1_2  and  N1_5 
REMARK    2  A    between atoms: N1_5  and  N2_7 
REMARK    3  A    between atoms: C4_11  and  C5_12 
REMARK    4  A    between atoms: C10_17  and  N3_18 
ROOT
HETATM    1  N2  UNL     1      13.022  10.551  24.919  1.00  0.00    -0.192 N 
HETATM    2  C2  UNL     1      13.859  11.127  23.920  1.00  0.00     0.283 C 
HETATM    3  O3  UNL     1      15.045  11.400  24.334  1.00  0.00    -0.265 OA
HETATM    4  C3  UNL     1      13.505  11.417  22.536  1.00  0.00     0.092 C 
HETATM    5  C4  UNL     1      14.379  11.966  21.737  1.00  0.00     0.035 C 
HETATM    6  C11 UNL     1      12.155  11.117  22.050  1.00  0.00     0.231 C 
HETATM    7  O6  UNL     1      11.579  11.690  21.118  1.00  0.00    -0.279 OA
HETATM    8  S2  UNL     1      11.295   9.777  22.934  1.00  0.00    -0.015 SA
HETATM    9  C12 UNL     1      11.678  10.174  24.668  1.00  0.00     0.172 C 
HETATM   10  S3  UNL     1      10.494  10.080  25.743  1.00  0.00    -0.050 SA
ENDROOT
BRANCH   5  11
HETATM   11  C5  UNL     1      14.264  12.331  20.352  1.00  0.00    -0.002 A 
HETATM   12  C6  UNL     1      13.825  13.579  19.963  1.00  0.00     0.014 A 
HETATM   13  C7  UNL     1      13.717  13.901  18.647  1.00  0.00     0.001 A 
HETATM   14  C8  UNL     1      14.036  13.001  17.645  1.00  0.00     0.002 A 
HETATM   15  C9  UNL     1      14.478  11.750  17.988  1.00  0.00     0.037 A 
HETATM   16  C10 UNL     1      14.587  11.432  19.351  1.00  0.00     0.113 A 
BRANCH  16  17
HETATM   17  N3  UNL     1      15.080  10.131  19.617  1.00  0.00    -0.115 N 
HETATM   18  O4  UNL     1      16.311   9.889  19.502  1.00  0.00    -0.532 OA
HETATM   19  O5  UNL     1      14.310   9.075  20.006  1.00  0.00    -0.532 OA
ENDBRANCH  16  17
ENDBRANCH   5  11
BRANCH   1  20
HETATM   20  N1  UNL     1      13.536  10.328  26.187  1.00  0.00    -0.216 N 
ATOM     21  H1  UNL     1      13.558  11.069  26.888  1.00  0.00     0.200 HD
BRANCH  20  22
HETATM   22  S1  UNL     1      14.124   8.786  26.528  1.00  0.00     0.240 S 
HETATM   23  C1  UNL     1      15.700   8.853  27.375  1.00  0.00     0.187 C 
HETATM   24  O1  UNL     1      14.307   7.917  25.304  1.00  0.00    -0.205 OA
HETATM   25  O2  UNL     1      13.112   8.041  27.391  1.00  0.00    -0.205 OA
ENDBRANCH  20  22
ENDBRANCH   1  20
TORSDOF 4
ENDMDL
MODEL 3
REMARK VINA RESULT: -6.174023346      2.019      2.450
REMARK  4 active torsions:
REMARK  status: ('A' for Active; 'I' for Inactive)
REMARK    1  A    between atoms: S1_2  and  N1_5 
REMARK    2  A    between atoms: N1_5  and  N2_7 
REMARK    3  A    between atoms: C4_11  and  C5_12 
REMARK    4  A    between atoms: C10_17  and  N3_18 
ROOT
HETATM    1  N2  UNL     1      13.062  10.012  20.997  1.00  0.00    -0.192 N 
HETATM    2  C2  UNL     1      14.308  10.132  20.317  1.00  0.00     0.283 C 
HETATM    3  O3  UNL     1      14.635  11.346  20.048  1.00  0.00    -0.265 OA
HETATM    4  C3  UNL     1      15.202   9.052  19.920  1.00  0.00     0.092 C 
HETATM    5  C4  UNL     1      16.309   9.318  19.282  1.00  0.00     0.035 C 
HETATM    6  C11 UNL     1      14.841   7.661  20.212  1.00  0.00     0.231 C 
HETATM    7  O6  UNL     1      15.215   6.668  19.578  1.00  0.00    -0.279 OA
HETATM    8  S2  UNL     1      13.739   7.434  21.645  1.00  0.00    -0.015 SA
HETATM    9  C12 UNL     1      12.521   8.760  21.386  1.00  0.00     0.172 C 
HETATM   10  S3  UNL     1      10.972   8.414  21.603  1.00  0.00    -0.050 SA
ENDROOT
BRANCH   5  11
HETATM   11  C5  UNL     1      17.336   8.433  18.804  1.00  0.00    -0.002 A 
HETATM   12  C6  UNL     1      17.682   7.285  19.485  1.00  0.00     0.014 A 
HETATM   13  C7  UNL     1      18.662   6.466  19.018  1.00  0.00     0.001 A 
HETATM   14  C8  UNL     1      19.351   6.742  17.851  1.00  0.00     0.002 A 
HETATM   15  C9  UNL     1      19.038   7.872  17.141  1.00  0.00     0.037 A 
HETATM   16  C10 UNL     1      18.022   8.707  17.634  1.00  0.00     0.113 A 
BRANCH  16  17
HETATM   17  N3  UNL     1      17.741   9.835  16.825  1.00  0.00    -0.115 N 
HETATM   18  O4  UNL     1      17.480   9.684  15.603  1.00  0.00    -0.532 OA
HETATM   19  O5  UNL     1      17.722  11.124  17.271  1.00  0.00    -0.532 OA
ENDBRANCH  16  17
ENDBRANCH   5  11
BRANCH   1  20
HETATM   20  N1  UNL     1      12.349  11.158  21.314  1.00  0.00    -0.216 N 
ATOM     21  H1  UNL     1      11.776  11.634  20.617  1.00  0.00     0.200 HD
BRANCH  20  22
HETATM   22  S1  UNL     1      12.467  11.737  22.892  1.00  0.00     0.240 S 
HETATM   23  C1  UNL     1      14.042  11.317  23.633  1.00  0.00     0.187 C 
HETATM   24  O1  UNL     1      11.384  11.222  23.813  1.00  0.00    -0.205 OA
HETATM   25  O2  UNL     1      12.292  13.251  22.887  1.00  0.00    -0.205 OA
ENDBRANCH  20  22
ENDBRANCH   1  20
TORSDOF 4
ENDMDL
MODEL 4
REMARK VINA RESULT: -6.160664980      0.810      1.005
REMARK  4 active torsions:
REMARK  status: ('A' for Active; 'I' for Inactive)
REMARK    1  A    between atoms: S1_2  and  N1_5 
REMARK    2  A    between atoms: N1_5  and  N2_7 
REMARK    3  A    between atoms: C4_11  and  C5_12 
REMARK    4  A    between atoms: C10_17  and  N3_18 
ROOT
HETATM    1  N2  UNL     1      13.369   9.903  22.780  1.00  0.00    -0.192 N 
HETATM    2  C2  UNL     1      14.399  10.391  21.925  1.00  0.00     0.283 C 
HETATM    3  O3  UNL     1      14.795  11.579  22.219  1.00  0.00    -0.265 OA
HETATM    4  C3  UNL     1      15.012   9.696  20.801  1.00  0.00     0.092 C 
HETATM    5  C4  UNL     1      15.938  10.283  20.093  1.00  0.00     0.035 C 
HETATM    6  C11 UNL     1      14.567   8.344  20.449  1.00  0.00     0.231 C 
HETATM    7  O6  UNL     1      14.633   7.831  19.325  1.00  0.00    -0.279 OA
HETATM    8  S2  UNL     1      13.860   7.380  21.823  1.00  0.00    -0.015 SA
HETATM    9  C12 UNL     1      12.795   8.615  22.629  1.00  0.00     0.172 C 
HETATM   10  S3  UNL     1      11.326   8.164  23.081  1.00  0.00    -0.050 SA
ENDROOT
BRANCH   5  11
HETATM   11  C5  UNL     1      16.683   9.800  18.962  1.00  0.00    -0.002 A 
HETATM   12  C6  UNL     1      17.447   8.655  19.030  1.00  0.00     0.014 A 
HETATM   13  C7  UNL     1      18.149   8.221  17.950  1.00  0.00     0.001 A 
HETATM   14  C8  UNL     1      18.132   8.900  16.745  1.00  0.00     0.002 A 
HETATM   15  C9  UNL     1      17.384  10.042  16.633  1.00  0.00     0.037 A 
HETATM   16  C10 UNL     1      16.662  10.478  17.756  1.00  0.00     0.113 A 
BRANCH  16  17
HETATM   17  N3  UNL     1      15.892  11.648  17.546  1.00  0.00    -0.115 N 
HETATM   18  O4  UNL     1      16.448  12.778  17.554  1.00  0.00    -0.532 OA
HETATM   19  O5  UNL     1      14.547  11.661  17.322  1.00  0.00    -0.532 OA
ENDBRANCH  16  17
ENDBRANCH   5  11
BRANCH   1  20
HETATM   20  N1  UNL     1      12.916  10.702  23.819  1.00  0.00    -0.216 N 
ATOM     21  H1  UNL     1      12.172  11.385  23.676  1.00  0.00     0.200 HD
BRANCH  20  22
HETATM   22  S1  UNL     1      13.640  10.503  25.328  1.00  0.00     0.240 S 
HETATM   23  C1  UNL     1      12.558  11.029  26.654  1.00  0.00     0.187 C 
HETATM   24  O1  UNL     1      14.943  11.254  25.484  1.00  0.00    -0.205 OA
HETATM   25  O2  UNL     1      14.007   9.035  25.520  1.00  0.00    -0.205 OA
ENDBRANCH  20  22
ENDBRANCH   1  20
TORSDOF 4
ENDMDL
MODEL 5
REMARK VINA RESULT: -6.152971800      1.653      1.842
REMARK  4 active torsions:
REMARK  status: ('A' for Active; 'I' for Inactive)
REMARK    1  A    between atoms: S1_2  and  N1_5 
REMARK    2  A    between atoms: N1_5  and  N2_7 
REMARK    3  A    between atoms: C4_11  and  C5_12 
REMARK    4  A    between atoms: C10_17  and  N3_18 
ROOT
HETATM    1  N2  UNL     1      13.349   9.723  22.689  1.00  0.00    -0.192 N 
HETATM    2  C2  UNL     1      14.390  10.199  21.841  1.00  0.00     0.283 C 
HETATM    3  O3  UNL     1      14.738  11.413  22.082  1.00  0.00    -0.265 OA
HETATM    4  C3  UNL     1      15.062   9.465  20.777  1.00  0.00     0.092 C 
HETATM    5  C4  UNL     1      15.992  10.044  20.067  1.00  0.00     0.035 C 
HETATM    6  C11 UNL     1      14.672   8.083  20.485  1.00  0.00     0.231 C 
HETATM    7  O6  UNL     1      14.792   7.513  19.393  1.00  0.00    -0.279 OA
HETATM    8  S2  UNL     1      13.951   7.170  21.887  1.00  0.00    -0.015 SA
HETATM    9  C12 UNL     1      12.821   8.410  22.590  1.00  0.00     0.172 C 
HETATM   10  S3  UNL     1      11.352   7.935  23.020  1.00  0.00    -0.050 SA
ENDROOT
BRANCH   5  11
HETATM   11  C5  UNL     1      16.788   9.527  18.989  1.00  0.00    -0.002 A 
HETATM   12  C6  UNL     1      17.528   8.370  19.119  1.00  0.00     0.014 A 
HETATM   13  C7  UNL     1      18.280   7.904  18.088  1.00  0.00     0.001 A 
HETATM   14  C8  UNL     1      18.340   8.560  16.872  1.00  0.00     0.002 A 
HETATM   15  C9  UNL     1      17.620   9.712  16.698  1.00  0.00     0.037 A 
HETATM   16  C10 UNL     1      16.846  10.182  17.771  1.00  0.00     0.113 A 
BRANCH  16  17
HETATM   17  N3  UNL     1      16.109  11.360  17.497  1.00  0.00    -0.115 N 
HETATM   18  O4  UNL     1      16.694  12.475  17.464  1.00  0.00    -0.532 OA
HETATM   19  O5  UNL     1      14.769  11.397  17.250  1.00  0.00    -0.532 OA
ENDBRANCH  16  17
ENDBRANCH   5  11
BRANCH   1  20
HETATM   20  N1  UNL     1      12.836  10.560  23.669  1.00  0.00    -0.216 N 
ATOM     21  H1  UNL     1      13.192  10.537  24.624  1.00  0.00     0.200 HD
BRANCH  20  22
HETATM   22  S1  UNL     1      11.601  11.616  23.221  1.00  0.00     0.240 S 
HETATM   23  C1  UNL     1      10.296  11.661  24.446  1.00  0.00     0.187 C 
HETATM   24  O1  UNL     1      10.962  11.282  21.893  1.00  0.00    -0.205 OA
HETATM   25  O2  UNL     1      12.178  13.016  23.039  1.00  0.00    -0.205 OA
ENDBRANCH  20  22
ENDBRANCH   1  20
TORSDOF 4
ENDMDL
