MODEL 1
REMARK VINA RESULT: -6.195635326      0.000      0.000
REMARK  5 active torsions:
REMARK  status: ('A' for Active; 'I' for Inactive)
REMARK    1  A    between atoms: O1_2  and  C2_3 
REMARK    2  A    between atoms: C2_3  and  C3_5 
REMARK    3  A    between atoms: C3_5  and  N1_6 
REMARK    4  A    between atoms: C3_5  and  C6_11 
REMARK       I    between atoms: N1_6  and  C4_8 
REMARK    5  A    between atoms: C7_13  and  C8_14 
ROOT
HETATM    1  C6  UNL     1      14.405  11.601  20.578  1.00  0.00     0.298 C 
HETATM    2  O4  UNL     1      14.295  10.935  19.365  1.00  0.00    -0.328 OA
HETATM    3  C7  UNL     1      15.460  10.235  19.148  1.00  0.00     0.267 C 
HETATM    4  O5  UNL     1      15.252   8.855  19.284  1.00  0.00    -0.348 OA
HETATM    5  C11 UNL     1      15.268   8.553  20.642  1.00  0.00     0.213 C 
HETATM    6  C12 UNL     1      14.276   9.431  21.350  1.00  0.00     0.298 C 
HETATM    7  O6  UNL     1      14.867  10.684  21.512  1.00  0.00    -0.326 OA
HETATM    8  O7  UNL     1      13.962   8.971  22.620  1.00  0.00    -0.323 OA
HETATM    9  C13 UNL     1      13.626   7.631  22.655  1.00  0.00     0.161 C 
HETATM   10  C14 UNL     1      12.225   7.390  22.098  1.00  0.00     0.078 C 
HETATM   11  C15 UNL     1      13.534   7.278  24.147  1.00  0.00     0.078 C 
HETATM   12  O8  UNL     1      14.566   6.792  22.127  1.00  0.00    -0.343 OA
HETATM   13  C16 UNL     1      14.987   7.082  20.863  1.00  0.00     0.088 C 
HETATM   14  C17 UNL     1      14.045   6.572  19.780  1.00  0.00     0.048 C 
HETATM   15  C18 UNL     1      16.307   6.346  20.643  1.00  0.00     0.048 C 
ENDROOT
BRANCH   1  16
HETATM   16  C3  UNL     1      13.118  12.214  21.031  1.00  0.00     0.240 C 
BRANCH  16  17
HETATM   17  C2  UNL     1      13.072  13.616  20.555  1.00  0.00     0.286 C 
HETATM   18  O2  UNL     1      13.464  14.586  21.262  1.00  0.00    -0.263 OA
BRANCH  17  19
HETATM   19  O1  UNL     1      12.586  13.886  19.301  1.00  0.00    -0.325 OA
HETATM   20  C1  UNL     1      13.385  14.231  18.188  1.00  0.00     0.213 C 
ENDBRANCH  17  19
ENDBRANCH  16  17
BRANCH  16  21
HETATM   21  N1  UNL     1      12.000  11.509  20.418  1.00  0.00    -0.343 N 
HETATM   22  C4  UNL     1      10.963  11.005  21.228  1.00  0.00     0.214 C 
HETATM   23  C5  UNL     1       9.818  10.287  20.636  1.00  0.00     0.117 C 
HETATM   24  O3  UNL     1      10.996  11.157  22.466  1.00  0.00    -0.274 OA
ATOM     25  H1  UNL     1      11.968  11.381  19.407  1.00  0.00     0.163 HD
ENDBRANCH  16  21
ENDBRANCH   1  16
BRANCH   3  26
HETATM   26  C8  UNL     1      16.087  10.505  17.802  1.00  0.00     0.033 C 
HETATM   27  C9  UNL     1      17.428   9.794  17.725  1.00  0.00     0.014 C 
HETATM   28  C10 UNL     1      16.177  11.956  17.465  1.00  0.00     0.014 C 
ENDBRANCH   3  26
TORSDOF 5
ENDMDL
MODEL 2
REMARK VINA RESULT: -6.168674049      0.989      1.154
REMARK  5 active torsions:
REMARK  status: ('A' for Active; 'I' for Inactive)
REMARK    1  A    between atoms: O1_2  and  C2_3 
REMARK    2  A    between atoms: C2_3  and  C3_5 
REMARK    3  A    between atoms: C3_5  and  N1_6 
REMARK    4  A    between atoms: C3_5  and  C6_11 
REMARK       I    between atoms: N1_6  and  C4_8 
REMARK    5  A    between atoms: C7_13  and  C8_14 
ROOT
HETATM    1  C6  UNL     1      14.283  11.716  20.781  1.00  0.00     0.298 C 
HETATM    2  O4  UNL     1      14.127  11.122  19.535  1.00  0.00    -0.328 OA
HETATM    3  C7  UNL     1      15.302  10.483  19.211  1.00  0.00     0.267 C 
HETATM    4  O5  UNL     1      15.152   9.090  19.270  1.00  0.00    -0.348 OA
HETATM    5  C11 UNL     1      15.258   8.706  20.602  1.00  0.00     0.213 C 
HETATM    6  C12 UNL     1      14.276   9.498  21.419  1.00  0.00     0.298 C 
HETATM    7  O6  UNL     1      14.830  10.761  21.628  1.00  0.00    -0.326 OA
HETATM    8  O7  UNL     1      14.052   8.949  22.672  1.00  0.00    -0.323 OA
HETATM    9  C13 UNL     1      13.768   7.597  22.640  1.00  0.00     0.161 C 
HETATM   10  C14 UNL     1      12.347   7.335  22.146  1.00  0.00     0.078 C 
HETATM   11  C15 UNL     1      13.774   7.149  24.109  1.00  0.00     0.078 C 
HETATM   12  O8  UNL     1      14.705   6.830  22.008  1.00  0.00    -0.343 OA
HETATM   13  C16 UNL     1      15.043   7.214  20.744  1.00  0.00     0.088 C 
HETATM   14  C17 UNL     1      14.060   6.735  19.684  1.00  0.00     0.048 C 
HETATM   15  C18 UNL     1      16.374   6.546  20.406  1.00  0.00     0.048 C 
ENDROOT
BRANCH   1  16
HETATM   16  C3  UNL     1      13.002  12.247  21.342  1.00  0.00     0.240 C 
BRANCH  16  17
HETATM   17  C2  UNL     1      12.218  12.847  20.238  1.00  0.00     0.286 C 
HETATM   18  O2  UNL     1      11.246  12.252  19.694  1.00  0.00    -0.263 OA
BRANCH  17  19
HETATM   19  O1  UNL     1      12.550  14.097  19.777  1.00  0.00    -0.325 OA
HETATM   20  C1  UNL     1      13.145  14.357  18.523  1.00  0.00     0.213 C 
ENDBRANCH  17  19
ENDBRANCH  16  17
BRANCH  16  21
HETATM   21  N1  UNL     1      12.215  11.150  21.887  1.00  0.00    -0.343 N 
HETATM   22  C4  UNL     1      11.521  11.322  23.101  1.00  0.00     0.214 C 
HETATM   23  C5  UNL     1      10.715  10.229  23.678  1.00  0.00     0.117 C 
HETATM   24  O3  UNL     1      11.576  12.408  23.713  1.00  0.00    -0.274 OA
ATOM     25  H1  UNL     1      12.167  10.259  21.392  1.00  0.00     0.163 HD
ENDBRANCH  16  21
ENDBRANCH   1  16
BRANCH   3  26
HETATM   26  C8  UNL     1      15.841  10.860  17.853  1.00  0.00     0.033 C 
HETATM   27  C9  UNL     1      17.194  10.197  17.651  1.00  0.00     0.014 C 
HETATM   28  C10 UNL     1      15.874  12.333  17.610  1.00  0.00     0.014 C 
ENDBRANCH   3  26
TORSDOF 5
ENDMDL
MODEL 3
REMARK VINA RESULT: -6.104697886      1.690      3.138
REMARK  5 active torsions:
REMARK  status: ('A' for Active; 'I' for Inactive)
REMARK    1  A    between atoms: O1_2  and  C2_3 
REMARK    2  A    between atoms: C2_3  and  C3_5 
REMARK    3  A    between atoms: C3_5  and  N1_6 
REMARK    4  A    between atoms: C3_5  and  C6_11 
REMARK       I    between atoms: N1_6  and  C4_8 
REMARK    5  A    between atoms: C7_13  and  C8_14 
ROOT
HETATM    1  C6  UNL     1      15.091  11.014  20.258  1.00  0.00     0.298 C 
HETATM    2  O4  UNL     1      14.693   9.795  19.723  1.00  0.00    -0.328 OA
HETATM    3  C7  UNL     1      15.244   8.789  20.482  1.00  0.00     0.267 C 
HETATM    4  O5  UNL     1      14.264   8.136  21.244  1.00  0.00    -0.348 OA
HETATM    5  C11 UNL     1      14.014   8.912  22.371  1.00  0.00     0.213 C 
HETATM    6  C12 UNL     1      13.673  10.310  21.937  1.00  0.00     0.298 C 
HETATM    7  O6  UNL     1      14.872  10.955  21.627  1.00  0.00    -0.326 OA
HETATM    8  O7  UNL     1      13.069  11.052  22.940  1.00  0.00    -0.323 OA
HETATM    9  C13 UNL     1      12.016  10.400  23.551  1.00  0.00     0.161 C 
HETATM   10  C14 UNL     1      10.776  10.383  22.661  1.00  0.00     0.078 C 
HETATM   11  C15 UNL     1      11.638  11.281  24.752  1.00  0.00     0.078 C 
HETATM   12  O8  UNL     1      12.324   9.173  24.066  1.00  0.00    -0.343 OA
HETATM   13  C16 UNL     1      12.916   8.294  23.209  1.00  0.00     0.088 C 
HETATM   14  C17 UNL     1      11.927   7.572  22.305  1.00  0.00     0.048 C 
HETATM   15  C18 UNL     1      13.573   7.205  24.056  1.00  0.00     0.048 C 
ENDROOT
BRANCH   1  16
HETATM   16  C3  UNL     1      14.374  12.181  19.658  1.00  0.00     0.240 C 
BRANCH  16  17
HETATM   17  C2  UNL     1      14.865  12.373  18.273  1.00  0.00     0.286 C 
HETATM   18  O2  UNL     1      14.297  11.852  17.273  1.00  0.00    -0.263 OA
BRANCH  17  19
HETATM   19  O1  UNL     1      15.979  13.143  18.053  1.00  0.00    -0.325 OA
HETATM   20  C1  UNL     1      16.820  13.033  16.923  1.00  0.00     0.213 C 
ENDBRANCH  17  19
ENDBRANCH  16  17
BRANCH  16  21
HETATM   21  N1  UNL     1      12.949  11.890  19.577  1.00  0.00    -0.343 N 
HETATM   22  C4  UNL     1      12.013  12.862  19.980  1.00  0.00     0.214 C 
HETATM   23  C5  UNL     1      10.563  12.596  19.909  1.00  0.00     0.117 C 
HETATM   24  O3  UNL     1      12.396  13.971  20.405  1.00  0.00    -0.274 OA
ATOM     25  H1  UNL     1      12.631  10.985  19.230  1.00  0.00     0.163 HD
ENDBRANCH  16  21
ENDBRANCH   1  16
BRANCH   3  26
HETATM   26  C8  UNL     1      15.997   7.763  19.672  1.00  0.00     0.033 C 
HETATM   27  C9  UNL     1      16.203   6.514  20.515  1.00  0.00     0.014 C 
HETATM   28  C10 UNL     1      17.266   8.281  19.081  1.00  0.00     0.014 C 
ENDBRANCH   3  26
TORSDOF 5
ENDMDL
MODEL 4
REMARK VINA RESULT: -6.051442933      1.889      3.187
REMARK  5 active torsions:
REMARK  status: ('A' for Active; 'I' for Inactive)
REMARK    1  A    between atoms: O1_2  and  C2_3 
REMARK    2  A    between atoms: C2_3  and  C3_5 
REMARK    3  A    between atoms: C3_5  and  N1_6 
REMARK    4  A    between atoms: C3_5  and  C6_11 
REMARK       I    between atoms: N1_6  and  C4_8 
REMARK    5  A    between atoms: C7_13  and  C8_14 
ROOT
HETATM    1  C6  UNL     1      14.541   9.850  21.270  1.00  0.00     0.298 C 
HETATM    2  O4  UNL     1      14.681   9.344  19.984  1.00  0.00    -0.328 OA
HETATM    3  C7  UNL     1      15.380   8.161  20.058  1.00  0.00     0.267 C 
HETATM    4  O5  UNL     1      14.546   7.065  19.793  1.00  0.00    -0.348 OA
HETATM    5  C11 UNL     1      13.841   6.775  20.957  1.00  0.00     0.213 C 
HETATM    6  C12 UNL     1      13.144   8.019  21.430  1.00  0.00     0.298 C 
HETATM    7  O6  UNL     1      14.096   8.810  22.076  1.00  0.00    -0.326 OA
HETATM    8  O7  UNL     1      12.148   7.758  22.357  1.00  0.00    -0.323 OA
HETATM    9  C13 UNL     1      11.275   6.762  21.964  1.00  0.00     0.161 C 
HETATM   10  C14 UNL     1      10.306   7.257  20.892  1.00  0.00     0.078 C 
HETATM   11  C15 UNL     1      10.403   6.479  23.196  1.00  0.00     0.078 C 
HETATM   12  O8  UNL     1      11.869   5.575  21.642  1.00  0.00    -0.343 OA
HETATM   13  C16 UNL     1      12.873   5.636  20.721  1.00  0.00     0.088 C 
HETATM   14  C17 UNL     1      12.373   5.677  19.284  1.00  0.00     0.048 C 
HETATM   15  C18 UNL     1      13.680   4.344  20.841  1.00  0.00     0.048 C 
ENDROOT
BRANCH   1  16
HETATM   16  C3  UNL     1      13.605  11.014  21.345  1.00  0.00     0.240 C 
BRANCH  16  17
HETATM   17  C2  UNL     1      13.691  11.600  22.703  1.00  0.00     0.286 C 
HETATM   18  O2  UNL     1      12.711  12.170  23.259  1.00  0.00    -0.263 OA
BRANCH  17  19
HETATM   19  O1  UNL     1      14.874  11.530  23.394  1.00  0.00    -0.325 OA
HETATM   20  C1  UNL     1      14.987  11.181  24.758  1.00  0.00     0.213 C 
ENDBRANCH  17  19
ENDBRANCH  16  17
BRANCH  16  21
HETATM   21  N1  UNL     1      14.027  12.040  20.401  1.00  0.00    -0.343 N 
HETATM   22  C4  UNL     1      13.088  12.604  19.515  1.00  0.00     0.214 C 
HETATM   23  C5  UNL     1      13.485  13.645  18.548  1.00  0.00     0.117 C 
HETATM   24  O3  UNL     1      11.897  12.230  19.534  1.00  0.00    -0.274 OA
ATOM     25  H1  UNL     1      14.999  12.349  20.381  1.00  0.00     0.163 HD
ENDBRANCH  16  21
ENDBRANCH   1  16
BRANCH   3  26
HETATM   26  C8  UNL     1      16.572   8.103  19.135  1.00  0.00     0.033 C 
HETATM   27  C9  UNL     1      17.490   6.975  19.575  1.00  0.00     0.014 C 
HETATM   28  C10 UNL     1      17.281   9.409  18.991  1.00  0.00     0.014 C 
ENDBRANCH   3  26
TORSDOF 5
ENDMDL
MODEL 5
REMARK VINA RESULT: -5.998978679      1.905      3.362
REMARK  5 active torsions:
REMARK  status: ('A' for Active; 'I' for Inactive)
REMARK    1  A    between atoms: O1_2  and  C2_3 
REMARK    2  A    between atoms: C2_3  and  C3_5 
REMARK    3  A    between atoms: C3_5  and  N1_6 
REMARK    4  A    between atoms: C3_5  and  C6_11 
REMARK       I    between atoms: N1_6  and  C4_8 
REMARK    5  A    between atoms: C7_13  and  C8_14 
ROOT
HETATM    1  C6  UNL     1      14.622   9.667  21.166  1.00  0.00     0.298 C 
HETATM    2  O4  UNL     1      14.747   8.926  19.997  1.00  0.00    -0.328 OA
HETATM    3  C7  UNL     1      15.246   7.686  20.322  1.00  0.00     0.267 C 
HETATM    4  O5  UNL     1      14.264   6.694  20.180  1.00  0.00    -0.348 OA
HETATM    5  C11 UNL     1      13.464   6.721  21.318  1.00  0.00     0.213 C 
HETATM    6  C12 UNL     1      12.949   8.118  21.520  1.00  0.00     0.298 C 
HETATM    7  O6  UNL     1      13.979   8.863  22.097  1.00  0.00    -0.326 OA
HETATM    8  O7  UNL     1      11.877   8.174  22.398  1.00  0.00    -0.323 OA
HETATM    9  C13 UNL     1      10.880   7.262  22.110  1.00  0.00     0.161 C 
HETATM   10  C14 UNL     1      10.057   7.696  20.900  1.00  0.00     0.078 C 
HETATM   11  C15 UNL     1       9.913   7.333  23.302  1.00  0.00     0.078 C 
HETATM   12  O8  UNL     1      11.295   5.963  22.039  1.00  0.00    -0.343 OA
HETATM   13  C16 UNL     1      12.342   5.712  21.202  1.00  0.00     0.088 C 
HETATM   14  C17 UNL     1      11.928   5.571  19.743  1.00  0.00     0.048 C 
HETATM   15  C18 UNL     1      12.928   4.358  21.599  1.00  0.00     0.048 C 
ENDROOT
BRANCH   1  16
HETATM   16  C3  UNL     1      13.880  10.950  20.971  1.00  0.00     0.240 C 
BRANCH  16  17
HETATM   17  C2  UNL     1      13.978  11.744  22.218  1.00  0.00     0.286 C 
HETATM   18  O2  UNL     1      15.044  11.821  22.891  1.00  0.00    -0.263 OA
BRANCH  17  19
HETATM   19  O1  UNL     1      12.877  12.426  22.672  1.00  0.00    -0.325 OA
HETATM   20  C1  UNL     1      11.748  11.821  23.267  1.00  0.00     0.213 C 
ENDBRANCH  17  19
ENDBRANCH  16  17
BRANCH  16  21
HETATM   21  N1  UNL     1      14.512  11.724  19.912  1.00  0.00    -0.343 N 
HETATM   22  C4  UNL     1      13.716  12.477  19.025  1.00  0.00     0.214 C 
HETATM   23  C5  UNL     1      14.328  13.271  17.943  1.00  0.00     0.117 C 
HETATM   24  O3  UNL     1      12.474  12.485  19.142  1.00  0.00    -0.274 OA
ATOM     25  H1  UNL     1      15.527  11.722  19.812  1.00  0.00     0.163 HD
ENDBRANCH  16  21
ENDBRANCH   1  16
BRANCH   3  26
HETATM   26  C8  UNL     1      16.459   7.291  19.517  1.00  0.00     0.033 C 
HETATM   27  C9  UNL     1      17.213   6.196  20.253  1.00  0.00     0.014 C 
HETATM   28  C10 UNL     1      17.329   8.445  19.141  1.00  0.00     0.014 C 
ENDBRANCH   3  26
TORSDOF 5
ENDMDL
