MODEL 1
REMARK VINA RESULT: -6.369476087      0.000      0.000
REMARK  6 active torsions:
REMARK  status: ('A' for Active; 'I' for Inactive)
REMARK    1  A    between atoms: S1_2  and  N1_5 
REMARK    2  A    between atoms: N1_5  and  C2_7 
REMARK    3  A    between atoms: C4_9  and  C5_10 
REMARK    4  A    between atoms: C6_13  and  C7_14 
REMARK    5  A    between atoms: C7_14  and  C8_15 
REMARK    6  A    between atoms: C7_14  and  N4_20 
ROOT
HETATM    1  C8  UNL     1     -18.479  -3.671 -25.345  1.00  0.00     0.158 C 
HETATM    2  C9  UNL     1     -19.780  -3.209 -25.681  1.00  0.00     0.113 C 
HETATM    3  N2  UNL     1     -20.844  -2.845 -25.934  1.00  0.00    -0.191 NA
HETATM    4  C10 UNL     1     -17.823  -3.145 -24.171  1.00  0.00     0.113 C 
HETATM    5  N3  UNL     1     -17.309  -2.706 -23.244  1.00  0.00    -0.191 NA
ENDROOT
BRANCH   1   6
HETATM    6  C7  UNL     1     -17.566  -4.211 -26.342  1.00  0.00     0.146 C 
BRANCH   6   7
HETATM    7  C6  UNL     1     -17.046  -5.347 -26.748  1.00  0.00     0.028 A 
HETATM    8  C4  UNL     1     -17.787  -6.477 -27.260  1.00  0.00     0.056 A 
HETATM    9  C3  UNL     1     -17.435  -7.775 -27.192  1.00  0.00     0.051 A 
HETATM   10  C2  UNL     1     -16.185  -8.103 -26.547  1.00  0.00     0.061 A 
HETATM   11  C14 UNL     1     -15.375  -7.011 -26.015  1.00  0.00     0.043 A 
HETATM   12  C11 UNL     1     -15.683  -5.685 -26.058  1.00  0.00    -0.002 A 
HETATM   13  S2  UNL     1     -13.864  -7.079 -25.190  1.00  0.00    -0.099 SA
HETATM   14  C12 UNL     1     -14.789  -4.867 -25.484  1.00  0.00     0.021 A 
HETATM   15  C13 UNL     1     -13.646  -5.445 -24.910  1.00  0.00     0.051 A 
BRANCH   8  16
HETATM   16  C5  UNL     1     -19.059  -6.338 -27.976  1.00  0.00     0.210 C 
HETATM   17  O3  UNL     1     -20.117  -5.867 -27.603  1.00  0.00    -0.644 OA
HETATM   18  O4  UNL     1     -19.130  -6.812 -29.311  1.00  0.00    -0.644 OA
ENDBRANCH   8  16
BRANCH  10  19
HETATM   19  N1  UNL     1     -15.755  -9.313 -26.421  1.00  0.00    -0.283 N 
ATOM     20  H1  UNL     1     -15.648  -9.709 -25.487  1.00  0.00     0.178 HD
BRANCH  19  21
HETATM   21  S1  UNL     1     -15.360 -10.270 -27.786  1.00  0.00     0.227 S 
HETATM   22  C1  UNL     1     -14.500 -11.729 -27.278  1.00  0.00     0.186 C 
HETATM   23  O1  UNL     1     -16.600 -10.667 -28.569  1.00  0.00    -0.206 OA
HETATM   24  O2  UNL     1     -14.482  -9.424 -28.705  1.00  0.00    -0.206 OA
ENDBRANCH  19  21
ENDBRANCH  10  19
ENDBRANCH   6   7
BRANCH   6  25
HETATM   25  N4  UNL     1     -17.567  -3.133 -27.434  1.00  0.00    -0.112 N 
HETATM   26  O5  UNL     1     -16.856  -2.186 -27.221  1.00  0.00    -0.532 OA
HETATM   27  O6  UNL     1     -18.274  -3.415 -28.517  1.00  0.00    -0.532 OA
ENDBRANCH   6  25
ENDBRANCH   1   6
TORSDOF 6
ENDMDL
MODEL 2
REMARK VINA RESULT: -6.153073079      1.590      1.907
REMARK  6 active torsions:
REMARK  status: ('A' for Active; 'I' for Inactive)
REMARK    1  A    between atoms: S1_2  and  N1_5 
REMARK    2  A    between atoms: N1_5  and  C2_7 
REMARK    3  A    between atoms: C4_9  and  C5_10 
REMARK    4  A    between atoms: C6_13  and  C7_14 
REMARK    5  A    between atoms: C7_14  and  C8_15 
REMARK    6  A    between atoms: C7_14  and  N4_20 
ROOT
HETATM    1  C8  UNL     1     -17.101  -3.294 -24.178  1.00  0.00     0.158 C 
HETATM    2  C9  UNL     1     -18.377  -2.671 -24.188  1.00  0.00     0.113 C 
HETATM    3  N2  UNL     1     -19.418  -2.176 -24.176  1.00  0.00    -0.191 NA
HETATM    4  C10 UNL     1     -16.140  -2.924 -23.165  1.00  0.00     0.113 C 
HETATM    5  N3  UNL     1     -15.384  -2.607 -22.363  1.00  0.00    -0.191 NA
ENDROOT
BRANCH   1   6
HETATM    6  C7  UNL     1     -16.505  -3.861 -25.380  1.00  0.00     0.146 C 
BRANCH   6   7
HETATM    7  C6  UNL     1     -16.559  -4.928 -26.145  1.00  0.00     0.028 A 
HETATM    8  C4  UNL     1     -17.729  -5.402 -26.847  1.00  0.00     0.056 A 
HETATM    9  C3  UNL     1     -18.011  -6.674 -27.184  1.00  0.00     0.051 A 
HETATM   10  C2  UNL     1     -17.057  -7.696 -26.821  1.00  0.00     0.061 A 
HETATM   11  C14 UNL     1     -15.843  -7.290 -26.120  1.00  0.00     0.043 A 
HETATM   12  C11 UNL     1     -15.510  -6.021 -25.758  1.00  0.00    -0.002 A 
HETATM   13  S2  UNL     1     -14.540  -8.262 -25.549  1.00  0.00    -0.099 SA
HETATM   14  C12 UNL     1     -14.347  -5.896 -25.102  1.00  0.00     0.021 A 
HETATM   15  C13 UNL     1     -13.601  -7.061 -24.863  1.00  0.00     0.051 A 
BRANCH   8  16
HETATM   16  C5  UNL     1     -18.789  -4.508 -27.327  1.00  0.00     0.210 C 
HETATM   17  O3  UNL     1     -19.867  -4.241 -26.831  1.00  0.00    -0.644 OA
HETATM   18  O4  UNL     1     -18.585  -3.827 -28.554  1.00  0.00    -0.644 OA
ENDBRANCH   8  16
BRANCH  10  19
HETATM   19  N1  UNL     1     -17.231  -8.947 -27.090  1.00  0.00    -0.283 N 
ATOM     20  H1  UNL     1     -17.589  -9.567 -26.363  1.00  0.00     0.178 HD
BRANCH  19  21
HETATM   21  S1  UNL     1     -16.875  -9.589 -28.638  1.00  0.00     0.227 S 
HETATM   22  C1  UNL     1     -17.482 -11.244 -28.764  1.00  0.00     0.186 C 
HETATM   23  O1  UNL     1     -17.483  -8.747 -29.747  1.00  0.00    -0.206 OA
HETATM   24  O2  UNL     1     -15.358  -9.561 -28.812  1.00  0.00    -0.206 OA
ENDBRANCH  19  21
ENDBRANCH  10  19
ENDBRANCH   6   7
BRANCH   6  25
HETATM   25  N4  UNL     1     -15.960  -2.628 -26.113  1.00  0.00    -0.112 N 
HETATM   26  O5  UNL     1     -14.761  -2.576 -26.207  1.00  0.00    -0.532 OA
HETATM   27  O6  UNL     1     -16.871  -1.821 -26.632  1.00  0.00    -0.532 OA
ENDBRANCH   6  25
ENDBRANCH   1   6
TORSDOF 6
ENDMDL
MODEL 3
REMARK VINA RESULT: -6.025096376      3.112      7.182
REMARK  6 active torsions:
REMARK  status: ('A' for Active; 'I' for Inactive)
REMARK    1  A    between atoms: S1_2  and  N1_5 
REMARK    2  A    between atoms: N1_5  and  C2_7 
REMARK    3  A    between atoms: C4_9  and  C5_10 
REMARK    4  A    between atoms: C6_13  and  C7_14 
REMARK    5  A    between atoms: C7_14  and  C8_15 
REMARK    6  A    between atoms: C7_14  and  N4_20 
ROOT
HETATM    1  C8  UNL     1     -14.155 -10.941 -24.396  1.00  0.00     0.158 C 
HETATM    2  C9  UNL     1     -14.262 -10.237 -23.167  1.00  0.00     0.113 C 
HETATM    3  N2  UNL     1     -14.365  -9.681 -22.163  1.00  0.00    -0.191 NA
HETATM    4  C10 UNL     1     -13.652 -12.295 -24.395  1.00  0.00     0.113 C 
HETATM    5  N3  UNL     1     -13.235 -13.364 -24.379  1.00  0.00    -0.191 NA
ENDROOT
BRANCH   1   6
HETATM    6  C7  UNL     1     -14.007 -10.256 -25.673  1.00  0.00     0.146 C 
BRANCH   6   7
HETATM    7  C6  UNL     1     -14.634  -9.413 -26.462  1.00  0.00     0.028 A 
HETATM    8  C4  UNL     1     -14.909  -8.026 -26.164  1.00  0.00     0.056 A 
HETATM    9  C3  UNL     1     -15.935  -7.286 -26.625  1.00  0.00     0.051 A 
HETATM   10  C2  UNL     1     -16.877  -7.921 -27.518  1.00  0.00     0.061 A 
HETATM   11  C14 UNL     1     -16.657  -9.319 -27.874  1.00  0.00     0.043 A 
HETATM   12  C11 UNL     1     -15.638 -10.110 -27.438  1.00  0.00    -0.002 A 
HETATM   13  S2  UNL     1     -17.598 -10.343 -28.890  1.00  0.00    -0.099 SA
HETATM   14  C12 UNL     1     -15.656 -11.372 -27.888  1.00  0.00     0.021 A 
HETATM   15  C13 UNL     1     -16.700 -11.747 -28.749  1.00  0.00     0.051 A 
BRANCH   8  16
HETATM   16  C5  UNL     1     -14.045  -7.208 -25.307  1.00  0.00     0.210 C 
HETATM   17  O3  UNL     1     -14.151  -6.936 -24.126  1.00  0.00    -0.644 OA
HETATM   18  O4  UNL     1     -12.897  -6.611 -25.889  1.00  0.00    -0.644 OA
ENDBRANCH   8  16
BRANCH  10  19
HETATM   19  N1  UNL     1     -17.899  -7.307 -28.012  1.00  0.00    -0.283 N 
ATOM     20  H1  UNL     1     -18.425  -7.744 -28.770  1.00  0.00     0.178 HD
BRANCH  19  21
HETATM   21  S1  UNL     1     -18.395  -5.775 -27.426  1.00  0.00     0.227 S 
HETATM   22  C1  UNL     1     -17.165  -5.110 -26.344  1.00  0.00     0.186 C 
HETATM   23  O1  UNL     1     -18.644  -4.796 -28.561  1.00  0.00    -0.206 OA
HETATM   24  O2  UNL     1     -19.714  -5.969 -26.683  1.00  0.00    -0.206 OA
ENDBRANCH  19  21
ENDBRANCH  10  19
ENDBRANCH   6   7
BRANCH   6  25
HETATM   25  N4  UNL     1     -12.490 -10.271 -25.903  1.00  0.00    -0.112 N 
HETATM   26  O5  UNL     1     -12.125 -10.878 -26.876  1.00  0.00    -0.532 OA
HETATM   27  O6  UNL     1     -11.776  -9.542 -25.060  1.00  0.00    -0.532 OA
ENDBRANCH   6  25
ENDBRANCH   1   6
TORSDOF 6
ENDMDL
MODEL 4
REMARK VINA RESULT: -5.969707750      3.159      7.013
REMARK  6 active torsions:
REMARK  status: ('A' for Active; 'I' for Inactive)
REMARK    1  A    between atoms: S1_2  and  N1_5 
REMARK    2  A    between atoms: N1_5  and  C2_7 
REMARK    3  A    between atoms: C4_9  and  C5_10 
REMARK    4  A    between atoms: C6_13  and  C7_14 
REMARK    5  A    between atoms: C7_14  and  C8_15 
REMARK    6  A    between atoms: C7_14  and  N4_20 
ROOT
HETATM    1  C8  UNL     1     -14.424 -10.475 -24.281  1.00  0.00     0.158 C 
HETATM    2  C9  UNL     1     -14.443  -9.888 -22.988  1.00  0.00     0.113 C 
HETATM    3  N2  UNL     1     -14.477  -9.425 -21.933  1.00  0.00    -0.191 NA
HETATM    4  C10 UNL     1     -14.031 -11.857 -24.425  1.00  0.00     0.113 C 
HETATM    5  N3  UNL     1     -13.703 -12.952 -24.523  1.00  0.00    -0.191 NA
ENDROOT
BRANCH   1   6
HETATM    6  C7  UNL     1     -14.252  -9.682 -25.491  1.00  0.00     0.146 C 
BRANCH   6   7
HETATM    7  C6  UNL     1     -14.832  -8.725 -26.180  1.00  0.00     0.028 A 
HETATM    8  C4  UNL     1     -15.041  -7.369 -25.727  1.00  0.00     0.056 A 
HETATM    9  C3  UNL     1     -16.027  -6.533 -26.102  1.00  0.00     0.051 A 
HETATM   10  C2  UNL     1     -16.992  -7.015 -27.064  1.00  0.00     0.061 A 
HETATM   11  C14 UNL     1     -16.837  -8.373 -27.577  1.00  0.00     0.043 A 
HETATM   12  C11 UNL     1     -15.860  -9.257 -27.232  1.00  0.00    -0.002 A 
HETATM   13  S2  UNL     1     -17.818  -9.227 -28.705  1.00  0.00    -0.099 SA
HETATM   14  C12 UNL     1     -15.936 -10.457 -27.823  1.00  0.00     0.021 A 
HETATM   15  C13 UNL     1     -16.989 -10.680 -28.723  1.00  0.00     0.051 A 
BRANCH   8  16
HETATM   16  C5  UNL     1     -14.145  -6.697 -24.780  1.00  0.00     0.210 C 
HETATM   17  O3  UNL     1     -14.256  -6.540 -23.578  1.00  0.00    -0.644 OA
HETATM   18  O4  UNL     1     -12.953  -6.118 -25.283  1.00  0.00    -0.644 OA
ENDBRANCH   8  16
BRANCH  10  19
HETATM   19  N1  UNL     1     -17.979  -6.300 -27.487  1.00  0.00    -0.283 N 
ATOM     20  H1  UNL     1     -18.720  -6.745 -28.029  1.00  0.00     0.178 HD
BRANCH  19  21
HETATM   21  S1  UNL     1     -18.075  -4.621 -27.159  1.00  0.00     0.227 S 
HETATM   22  C1  UNL     1     -19.259  -4.316 -25.883  1.00  0.00     0.186 C 
HETATM   23  O1  UNL     1     -16.729  -4.055 -26.738  1.00  0.00    -0.206 OA
HETATM   24  O2  UNL     1     -18.488  -3.921 -28.451  1.00  0.00    -0.206 OA
ENDBRANCH  19  21
ENDBRANCH  10  19
ENDBRANCH   6   7
BRANCH   6  25
HETATM   25  N4  UNL     1     -12.745  -9.783 -25.762  1.00  0.00    -0.112 N 
HETATM   26  O5  UNL     1     -12.043  -9.189 -24.985  1.00  0.00    -0.532 OA
HETATM   27  O6  UNL     1     -12.394 -10.580 -26.759  1.00  0.00    -0.532 OA
ENDBRANCH   6  25
ENDBRANCH   1   6
TORSDOF 6
ENDMDL
MODEL 5
REMARK VINA RESULT: -5.765557066      3.099      7.211
REMARK  6 active torsions:
REMARK  status: ('A' for Active; 'I' for Inactive)
REMARK    1  A    between atoms: S1_2  and  N1_5 
REMARK    2  A    between atoms: N1_5  and  C2_7 
REMARK    3  A    between atoms: C4_9  and  C5_10 
REMARK    4  A    between atoms: C6_13  and  C7_14 
REMARK    5  A    between atoms: C7_14  and  C8_15 
REMARK    6  A    between atoms: C7_14  and  N4_20 
ROOT
HETATM    1  C8  UNL     1     -13.696 -11.030 -24.412  1.00  0.00     0.158 C 
HETATM    2  C9  UNL     1     -13.529 -12.440 -24.357  1.00  0.00     0.113 C 
HETATM    3  N2  UNL     1     -13.380 -13.581 -24.293  1.00  0.00    -0.191 NA
HETATM    4  C10 UNL     1     -14.444 -10.365 -23.370  1.00  0.00     0.113 C 
HETATM    5  N3  UNL     1     -15.054  -9.854 -22.544  1.00  0.00    -0.191 NA
ENDROOT
BRANCH   1   6
HETATM    6  C7  UNL     1     -13.639 -10.291 -25.665  1.00  0.00     0.146 C 
BRANCH   6   7
HETATM    7  C6  UNL     1     -14.343  -9.456 -26.395  1.00  0.00     0.028 A 
HETATM    8  C4  UNL     1     -14.656  -8.089 -26.045  1.00  0.00     0.056 A 
HETATM    9  C3  UNL     1     -15.735  -7.382 -26.429  1.00  0.00     0.051 A 
HETATM   10  C2  UNL     1     -16.700  -8.032 -27.284  1.00  0.00     0.061 A 
HETATM   11  C14 UNL     1     -16.444  -9.412 -27.690  1.00  0.00     0.043 A 
HETATM   12  C11 UNL     1     -15.371 -10.169 -27.333  1.00  0.00    -0.002 A 
HETATM   13  S2  UNL     1     -17.399 -10.449 -28.679  1.00  0.00    -0.099 SA
HETATM   14  C12 UNL     1     -15.364 -11.420 -27.815  1.00  0.00     0.021 A 
HETATM   15  C13 UNL     1     -16.438 -11.816 -28.627  1.00  0.00     0.051 A 
BRANCH   8  16
HETATM   16  C5  UNL     1     -13.778  -7.257 -25.216  1.00  0.00     0.210 C 
HETATM   17  O3  UNL     1     -13.801  -7.055 -24.016  1.00  0.00    -0.644 OA
HETATM   18  O4  UNL     1     -12.727  -6.550 -25.853  1.00  0.00    -0.644 OA
ENDBRANCH   8  16
BRANCH  10  19
HETATM   19  N1  UNL     1     -17.772  -7.450 -27.705  1.00  0.00    -0.283 N 
ATOM     20  H1  UNL     1     -18.402  -7.955 -28.329  1.00  0.00     0.178 HD
BRANCH  19  21
HETATM   21  S1  UNL     1     -18.164  -5.848 -27.239  1.00  0.00     0.227 S 
HETATM   22  C1  UNL     1     -16.829  -5.137 -26.324  1.00  0.00     0.186 C 
HETATM   23  O1  UNL     1     -18.466  -4.973 -28.444  1.00  0.00    -0.206 OA
HETATM   24  O2  UNL     1     -19.426  -5.911 -26.383  1.00  0.00    -0.206 OA
ENDBRANCH  19  21
ENDBRANCH  10  19
ENDBRANCH   6   7
BRANCH   6  25
HETATM   25  N4  UNL     1     -12.134 -10.212 -25.955  1.00  0.00    -0.112 N 
HETATM   26  O5  UNL     1     -11.500  -9.530 -25.192  1.00  0.00    -0.532 OA
HETATM   27  O6  UNL     1     -11.702 -10.973 -26.948  1.00  0.00    -0.532 OA
ENDBRANCH   6  25
ENDBRANCH   1   6
TORSDOF 6
ENDMDL
