MODEL 1
REMARK VINA RESULT: -5.317534950      0.000      0.000
REMARK  7 active torsions:
REMARK  status: ('A' for Active; 'I' for Inactive)
REMARK    1  A    between atoms: C4_4  and  C5_5 
REMARK    2  A    between atoms: C5_5  and  C6_6 
REMARK    3  A    between atoms: C6_6  and  N1_7 
REMARK    4  A    between atoms: N1_7  and  C7_9 
REMARK    5  A    between atoms: C7_9  and  N2_10 
REMARK    6  A    between atoms: C7_9  and  C8_14 
REMARK    7  A    between atoms: C8_14  and  N3_15 
ROOT
HETATM    1  N1  UNL     1      14.289   2.761   4.285  1.00  0.00    -0.394 N 
ATOM      2  H1  UNL     1      13.885   2.382   5.142  1.00  0.00     0.155 HD
ENDROOT
BRANCH   1   3
HETATM    3  C6  UNL     1      15.269   2.051   3.543  1.00  0.00     0.122 C 
BRANCH   3   4
HETATM    4  C5  UNL     1      16.117   1.126   4.397  1.00  0.00     0.078 C 
BRANCH   4   5
HETATM    5  C4  UNL     1      17.523   1.538   4.194  1.00  0.00     0.029 A 
HETATM    6  C3  UNL     1      18.021   2.802   4.357  1.00  0.00     0.052 A 
HETATM    7  C2  UNL     1      19.371   2.729   4.066  1.00  0.00     0.024 A 
HETATM    8  C1  UNL     1      20.332   3.840   4.105  1.00  0.00     0.070 C 
HETATM    9  N5  UNL     1      19.618   1.455   3.747  1.00  0.00    -0.305 N 
HETATM   10  N4  UNL     1      18.515   0.732   3.820  1.00  0.00    -0.305 N 
ATOM     11  H5  UNL     1      20.533   1.090   3.484  1.00  0.00     0.186 HD
ATOM     12  H4  UNL     1      18.438  -0.266   3.625  1.00  0.00     0.186 HD
ENDBRANCH   4   5
ENDBRANCH   3   4
ENDBRANCH   1   3
BRANCH   1  13
HETATM   13  C7  UNL     1      13.897   4.033   3.769  1.00  0.00     0.303 C 
BRANCH  13  14
HETATM   14  N2  UNL     1      12.599   4.454   4.280  1.00  0.00    -0.057 N 
ATOM     15  H23 UNL     1      12.691   4.932   5.176  1.00  0.00     0.276 HD
ATOM     16  H22 UNL     1      12.214   5.220   3.727  1.00  0.00     0.276 HD
ATOM     17  H21 UNL     1      11.942   3.676   4.341  1.00  0.00     0.276 HD
ENDBRANCH  13  14
BRANCH  13  18
HETATM   18  C8  UNL     1      14.948   5.063   3.991  1.00  0.00     0.283 C 
BRANCH  18  19
HETATM   19  N3  UNL     1      15.180   5.955   2.903  1.00  0.00    -0.076 N 
ATOM     20  H33 UNL     1      15.873   5.557   2.269  1.00  0.00     0.274 HD
ATOM     21  H32 UNL     1      14.365   5.977   2.291  1.00  0.00     0.274 HD
ATOM     22  H31 UNL     1      15.448   6.906   3.160  1.00  0.00     0.274 HD
ENDBRANCH  18  19
ENDBRANCH  13  18
ENDBRANCH   1  13
TORSDOF 7
ENDMDL
MODEL 2
REMARK VINA RESULT: -5.276751189      0.607      1.497
REMARK  7 active torsions:
REMARK  status: ('A' for Active; 'I' for Inactive)
REMARK    1  A    between atoms: C4_4  and  C5_5 
REMARK    2  A    between atoms: C5_5  and  C6_6 
REMARK    3  A    between atoms: C6_6  and  N1_7 
REMARK    4  A    between atoms: N1_7  and  C7_9 
REMARK    5  A    between atoms: C7_9  and  N2_10 
REMARK    6  A    between atoms: C7_9  and  C8_14 
REMARK    7  A    between atoms: C8_14  and  N3_15 
ROOT
HETATM    1  N1  UNL     1      14.346   2.786   4.225  1.00  0.00    -0.394 N 
ATOM      2  H1  UNL     1      13.713   2.484   4.966  1.00  0.00     0.155 HD
ENDROOT
BRANCH   1   3
HETATM    3  C6  UNL     1      15.223   1.878   3.574  1.00  0.00     0.122 C 
BRANCH   3   4
HETATM    4  C5  UNL     1      16.084   1.080   4.537  1.00  0.00     0.078 C 
BRANCH   4   5
HETATM    5  C4  UNL     1      17.485   1.478   4.275  1.00  0.00     0.029 A 
HETATM    6  C3  UNL     1      18.001   2.738   4.409  1.00  0.00     0.052 A 
HETATM    7  C2  UNL     1      19.337   2.651   4.065  1.00  0.00     0.024 A 
HETATM    8  C1  UNL     1      20.309   3.754   4.059  1.00  0.00     0.070 C 
HETATM    9  N5  UNL     1      19.560   1.373   3.747  1.00  0.00    -0.305 N 
HETATM   10  N4  UNL     1      18.455   0.660   3.869  1.00  0.00    -0.305 N 
ATOM     11  H5  UNL     1      20.461   0.998   3.450  1.00  0.00     0.186 HD
ATOM     12  H4  UNL     1      18.361  -0.338   3.684  1.00  0.00     0.186 HD
ENDBRANCH   4   5
ENDBRANCH   3   4
ENDBRANCH   1   3
BRANCH   1  13
HETATM   13  C7  UNL     1      14.397   4.144   3.788  1.00  0.00     0.303 C 
BRANCH  13  14
HETATM   14  N2  UNL     1      15.243   4.307   2.612  1.00  0.00    -0.057 N 
ATOM     15  H23 UNL     1      16.166   3.898   2.760  1.00  0.00     0.276 HD
ATOM     16  H22 UNL     1      14.926   3.717   1.843  1.00  0.00     0.276 HD
ATOM     17  H21 UNL     1      15.313   5.283   2.325  1.00  0.00     0.276 HD
ENDBRANCH  13  14
BRANCH  13  18
HETATM   18  C8  UNL     1      13.035   4.706   3.581  1.00  0.00     0.283 C 
BRANCH  18  19
HETATM   19  N3  UNL     1      12.070   4.370   4.576  1.00  0.00    -0.076 N 
ATOM     20  H33 UNL     1      11.984   3.356   4.648  1.00  0.00     0.274 HD
ATOM     21  H32 UNL     1      12.434   4.589   5.503  1.00  0.00     0.274 HD
ATOM     22  H31 UNL     1      11.147   4.790   4.457  1.00  0.00     0.274 HD
ENDBRANCH  18  19
ENDBRANCH  13  18
ENDBRANCH   1  13
TORSDOF 7
ENDMDL
MODEL 3
REMARK VINA RESULT: -5.235681351      1.682      5.665
REMARK  7 active torsions:
REMARK  status: ('A' for Active; 'I' for Inactive)
REMARK    1  A    between atoms: C4_4  and  C5_5 
REMARK    2  A    between atoms: C5_5  and  C6_6 
REMARK    3  A    between atoms: C6_6  and  N1_7 
REMARK    4  A    between atoms: N1_7  and  C7_9 
REMARK    5  A    between atoms: C7_9  and  N2_10 
REMARK    6  A    between atoms: C7_9  and  C8_14 
REMARK    7  A    between atoms: C8_14  and  N3_15 
ROOT
HETATM    1  N1  UNL     1      19.183   4.340   2.687  1.00  0.00    -0.394 N 
ATOM      2  H1  UNL     1      19.616   5.115   2.184  1.00  0.00     0.155 HD
ENDROOT
BRANCH   1   3
HETATM    3  C6  UNL     1      17.784   4.099   2.626  1.00  0.00     0.122 C 
BRANCH   3   4
HETATM    4  C5  UNL     1      16.954   5.227   3.211  1.00  0.00     0.078 C 
BRANCH   4   5
HETATM    5  C4  UNL     1      15.652   4.638   3.589  1.00  0.00     0.029 A 
HETATM    6  C3  UNL     1      14.445   5.283   3.580  1.00  0.00     0.052 A 
HETATM    7  C2  UNL     1      13.506   4.359   4.001  1.00  0.00     0.024 A 
HETATM    8  C1  UNL     1      12.062   4.590   4.150  1.00  0.00     0.070 C 
HETATM    9  N5  UNL     1      14.174   3.227   4.240  1.00  0.00    -0.305 N 
HETATM   10  N4  UNL     1      15.463   3.383   3.996  1.00  0.00    -0.305 N 
ATOM     11  H5  UNL     1      13.747   2.360   4.566  1.00  0.00     0.186 HD
ATOM     12  H4  UNL     1      16.185   2.671   4.102  1.00  0.00     0.186 HD
ENDBRANCH   4   5
ENDBRANCH   3   4
ENDBRANCH   1   3
BRANCH   1  13
HETATM   13  C7  UNL     1      19.949   3.441   3.488  1.00  0.00     0.303 C 
BRANCH  13  14
HETATM   14  N2  UNL     1      20.766   4.145   4.469  1.00  0.00    -0.057 N 
ATOM     15  H23 UNL     1      20.550   5.141   4.484  1.00  0.00     0.276 HD
ATOM     16  H22 UNL     1      20.489   3.906   5.421  1.00  0.00     0.276 HD
ATOM     17  H21 UNL     1      21.762   3.983   4.322  1.00  0.00     0.276 HD
ENDBRANCH  13  14
BRANCH  13  18
HETATM   18  C8  UNL     1      19.092   2.399   4.116  1.00  0.00     0.283 C 
BRANCH  18  19
HETATM   19  N3  UNL     1      19.283   1.069   3.635  1.00  0.00    -0.076 N 
ATOM     20  H33 UNL     1      20.209   0.733   3.901  1.00  0.00     0.274 HD
ATOM     21  H32 UNL     1      18.696   0.422   4.162  1.00  0.00     0.274 HD
ATOM     22  H31 UNL     1      19.138   0.935   2.634  1.00  0.00     0.274 HD
ENDBRANCH  18  19
ENDBRANCH  13  18
ENDBRANCH   1  13
TORSDOF 7
ENDMDL
MODEL 4
REMARK VINA RESULT: -5.154646381      1.639      5.643
REMARK  7 active torsions:
REMARK  status: ('A' for Active; 'I' for Inactive)
REMARK    1  A    between atoms: C4_4  and  C5_5 
REMARK    2  A    between atoms: C5_5  and  C6_6 
REMARK    3  A    between atoms: C6_6  and  N1_7 
REMARK    4  A    between atoms: N1_7  and  C7_9 
REMARK    5  A    between atoms: C7_9  and  N2_10 
REMARK    6  A    between atoms: C7_9  and  C8_14 
REMARK    7  A    between atoms: C8_14  and  N3_15 
ROOT
HETATM    1  N1  UNL     1      18.618   3.318   3.545  1.00  0.00    -0.394 N 
ATOM      2  H1  UNL     1      19.166   3.836   4.232  1.00  0.00     0.155 HD
ENDROOT
BRANCH   1   3
HETATM    3  C6  UNL     1      17.753   3.976   2.631  1.00  0.00     0.122 C 
BRANCH   3   4
HETATM    4  C5  UNL     1      17.053   5.184   3.228  1.00  0.00     0.078 C 
BRANCH   4   5
HETATM    5  C4  UNL     1      15.652   4.780   3.472  1.00  0.00     0.029 A 
HETATM    6  C3  UNL     1      14.538   5.404   2.980  1.00  0.00     0.052 A 
HETATM    7  C2  UNL     1      13.451   4.694   3.455  1.00  0.00     0.024 A 
HETATM    8  C1  UNL     1      12.036   4.986   3.188  1.00  0.00     0.070 C 
HETATM    9  N5  UNL     1      13.947   3.699   4.196  1.00  0.00    -0.305 N 
HETATM   10  N4  UNL     1      15.267   3.742   4.213  1.00  0.00    -0.305 N 
ATOM     11  H5  UNL     1      13.384   3.002   4.681  1.00  0.00     0.186 HD
ATOM     12  H4  UNL     1      15.882   3.095   4.707  1.00  0.00     0.186 HD
ENDBRANCH   4   5
ENDBRANCH   3   4
ENDBRANCH   1   3
BRANCH   1  13
HETATM   13  C7  UNL     1      18.678   1.895   3.452  1.00  0.00     0.303 C 
BRANCH  13  14
HETATM   14  N2  UNL     1      20.049   1.403   3.500  1.00  0.00    -0.057 N 
ATOM     15  H23 UNL     1      20.265   0.828   2.685  1.00  0.00     0.276 HD
ATOM     16  H22 UNL     1      20.719   2.157   3.347  1.00  0.00     0.276 HD
ATOM     17  H21 UNL     1      20.246   0.904   4.368  1.00  0.00     0.276 HD
ENDBRANCH  13  14
BRANCH  13  18
HETATM   18  C8  UNL     1      17.811   1.241   4.468  1.00  0.00     0.283 C 
BRANCH  18  19
HETATM   19  N3  UNL     1      17.713  -0.180   4.376  1.00  0.00    -0.076 N 
ATOM     20  H33 UNL     1      18.616  -0.605   4.587  1.00  0.00     0.274 HD
ATOM     21  H32 UNL     1      17.156  -0.541   5.151  1.00  0.00     0.274 HD
ATOM     22  H31 UNL     1      17.356  -0.543   3.492  1.00  0.00     0.274 HD
ENDBRANCH  18  19
ENDBRANCH  13  18
ENDBRANCH   1  13
TORSDOF 7
ENDMDL
MODEL 5
REMARK VINA RESULT: -5.129118896      1.906      5.688
REMARK  7 active torsions:
REMARK  status: ('A' for Active; 'I' for Inactive)
REMARK    1  A    between atoms: C4_4  and  C5_5 
REMARK    2  A    between atoms: C5_5  and  C6_6 
REMARK    3  A    between atoms: C6_6  and  N1_7 
REMARK    4  A    between atoms: N1_7  and  C7_9 
REMARK    5  A    between atoms: C7_9  and  N2_10 
REMARK    6  A    between atoms: C7_9  and  C8_14 
REMARK    7  A    between atoms: C8_14  and  N3_15 
ROOT
HETATM    1  N1  UNL     1      19.147   3.920   2.632  1.00  0.00    -0.394 N 
ATOM      2  H1  UNL     1      19.774   4.274   1.910  1.00  0.00     0.155 HD
ENDROOT
BRANCH   1   3
HETATM    3  C6  UNL     1      17.737   3.908   2.458  1.00  0.00     0.122 C 
BRANCH   3   4
HETATM    4  C5  UNL     1      17.030   5.023   3.207  1.00  0.00     0.078 C 
BRANCH   4   5
HETATM    5  C4  UNL     1      15.700   4.497   3.585  1.00  0.00     0.029 A 
HETATM    6  C3  UNL     1      14.520   5.188   3.538  1.00  0.00     0.052 A 
HETATM    7  C2  UNL     1      13.540   4.316   3.976  1.00  0.00     0.024 A 
HETATM    8  C1  UNL     1      12.105   4.608   4.095  1.00  0.00     0.070 C 
HETATM    9  N5  UNL     1      14.160   3.167   4.260  1.00  0.00    -0.305 N 
HETATM   10  N4  UNL     1      15.457   3.265   4.030  1.00  0.00    -0.305 N 
ATOM     11  H5  UNL     1      13.695   2.329   4.607  1.00  0.00     0.186 HD
ATOM     12  H4  UNL     1      16.148   2.529   4.169  1.00  0.00     0.186 HD
ENDBRANCH   4   5
ENDBRANCH   3   4
ENDBRANCH   1   3
BRANCH   1  13
HETATM   13  C7  UNL     1      19.638   3.410   3.872  1.00  0.00     0.303 C 
BRANCH  13  14
HETATM   14  N2  UNL     1      19.649   1.953   3.897  1.00  0.00    -0.057 N 
ATOM     15  H23 UNL     1      18.754   1.582   4.217  1.00  0.00     0.276 HD
ATOM     16  H22 UNL     1      19.655   1.566   2.953  1.00  0.00     0.276 HD
ATOM     17  H21 UNL     1      20.422   1.586   4.452  1.00  0.00     0.276 HD
ENDBRANCH  13  14
BRANCH  13  18
HETATM   18  C8  UNL     1      20.966   3.987   4.215  1.00  0.00     0.283 C 
BRANCH  18  19
HETATM   19  N3  UNL     1      22.056   3.560   3.399  1.00  0.00    -0.076 N 
ATOM     20  H33 UNL     1      22.286   2.589   3.607  1.00  0.00     0.274 HD
ATOM     21  H32 UNL     1      21.751   3.472   2.429  1.00  0.00     0.274 HD
ATOM     22  H31 UNL     1      22.897   4.136   3.448  1.00  0.00     0.274 HD
ENDBRANCH  18  19
ENDBRANCH  13  18
ENDBRANCH   1  13
TORSDOF 7
ENDMDL
