MODEL 1
REMARK VINA RESULT: -5.287911407      0.000      0.000
REMARK  7 active torsions:
REMARK  status: ('A' for Active; 'I' for Inactive)
REMARK    1  A    between atoms: O1_2  and  C2_3 
REMARK    2  A    between atoms: C2_3  and  N1_4 
REMARK    3  A    between atoms: N1_4  and  C3_6 
REMARK    4  A    between atoms: C3_6  and  C4_7 
REMARK    5  A    between atoms: C4_7  and  N2_8 
REMARK    6  A    between atoms: N2_8  and  C5_10 
REMARK    7  A    between atoms: C8_15  and  N4_16 
ROOT
HETATM    1  C5  UNL     1      15.525   3.275   3.628  1.00  0.00     0.122 A 
HETATM    2  C6  UNL     1      16.138   4.463   3.185  1.00  0.00     0.066 A 
HETATM    3  C7  UNL     1      15.413   5.606   3.189  1.00  0.00     0.110 A 
HETATM    4  N3  UNL     1      14.132   5.643   3.600  1.00  0.00    -0.202 N 
ATOM      5  H3  UNL     1      13.617   6.524   3.587  1.00  0.00     0.183 HD
HETATM    6  C8  UNL     1      13.528   4.512   4.029  1.00  0.00     0.677 A 
HETATM    7  N5  UNL     1      14.254   3.372   4.024  1.00  0.00    -0.177 N 
ATOM      8  H5  UNL     1      13.795   2.520   4.347  1.00  0.00     0.185 HD
ENDROOT
BRANCH   1   9
HETATM    9  N2  UNL     1      16.169   2.236   3.645  1.00  0.00    -0.351 N 
ATOM     10  H2  UNL     1      16.452   1.945   2.709  1.00  0.00     0.166 HD
BRANCH   9  11
HETATM   11  C4  UNL     1      16.616   1.345   4.636  1.00  0.00     0.106 C 
BRANCH  11  12
HETATM   12  C3  UNL     1      18.063   1.740   4.873  1.00  0.00     0.102 C 
BRANCH  12  13
HETATM   13  N1  UNL     1      18.998   1.335   3.906  1.00  0.00    -0.377 N 
ATOM     14  H1  UNL     1      19.089   0.390   3.532  1.00  0.00     0.161 HD
BRANCH  13  15
HETATM   15  C2  UNL     1      19.816   2.473   3.521  1.00  0.00     0.289 C 
BRANCH  15  16
HETATM   16  O1  UNL     1      20.076   3.184   4.667  1.00  0.00    -0.377 OA
HETATM   17  C1  UNL     1      20.853   4.273   4.441  1.00  0.00     0.203 C 
ENDBRANCH  15  16
ENDBRANCH  13  15
ENDBRANCH  12  13
ENDBRANCH  11  12
ENDBRANCH   9  11
ENDBRANCH   1   9
BRANCH   6  18
HETATM   18  N4  UNL     1      12.308   4.538   4.456  1.00  0.00    -0.234 N 
ATOM     19  H42 UNL     1      11.783   5.409   4.523  1.00  0.00     0.174 HD
ATOM     20  H41 UNL     1      11.831   3.675   4.717  1.00  0.00     0.174 HD
ENDBRANCH   6  18
TORSDOF 7
ENDMDL
MODEL 2
REMARK VINA RESULT: -5.180487243      1.708      2.695
REMARK  7 active torsions:
REMARK  status: ('A' for Active; 'I' for Inactive)
REMARK    1  A    between atoms: O1_2  and  C2_3 
REMARK    2  A    between atoms: C2_3  and  N1_4 
REMARK    3  A    between atoms: N1_4  and  C3_6 
REMARK    4  A    between atoms: C3_6  and  C4_7 
REMARK    5  A    between atoms: C4_7  and  N2_8 
REMARK    6  A    between atoms: N2_8  and  C5_10 
REMARK    7  A    between atoms: C8_15  and  N4_16 
ROOT
HETATM    1  C5  UNL     1      16.424   4.744   3.267  1.00  0.00     0.122 A 
HETATM    2  C6  UNL     1      15.467   5.755   3.064  1.00  0.00     0.066 A 
HETATM    3  C7  UNL     1      14.162   5.464   3.278  1.00  0.00     0.110 A 
HETATM    4  N3  UNL     1      13.753   4.246   3.676  1.00  0.00    -0.202 N 
ATOM      5  H3  UNL     1      12.761   4.064   3.826  1.00  0.00     0.183 HD
HETATM    6  C8  UNL     1      14.660   3.262   3.876  1.00  0.00     0.677 A 
HETATM    7  N5  UNL     1      15.962   3.555   3.661  1.00  0.00    -0.177 N 
ATOM      8  H5  UNL     1      16.643   2.811   3.813  1.00  0.00     0.185 HD
ENDROOT
BRANCH   1   9
HETATM    9  N2  UNL     1      17.608   4.993   3.092  1.00  0.00    -0.351 N 
ATOM     10  H2  UNL     1      17.851   5.937   3.393  1.00  0.00     0.166 HD
BRANCH   9  11
HETATM   11  C4  UNL     1      18.718   4.298   2.580  1.00  0.00     0.106 C 
BRANCH  11  12
HETATM   12  C3  UNL     1      19.547   3.956   3.805  1.00  0.00     0.102 C 
BRANCH  12  13
HETATM   13  N1  UNL     1      19.206   2.778   4.494  1.00  0.00    -0.377 N 
ATOM     14  H1  UNL     1      19.075   2.702   5.502  1.00  0.00     0.161 HD
BRANCH  13  15
HETATM   15  C2  UNL     1      19.069   1.688   3.543  1.00  0.00     0.289 C 
BRANCH  15  16
HETATM   16  O1  UNL     1      17.749   1.305   3.561  1.00  0.00    -0.377 OA
HETATM   17  C1  UNL     1      17.532   0.218   4.343  1.00  0.00     0.203 C 
ENDBRANCH  15  16
ENDBRANCH  13  15
ENDBRANCH  12  13
ENDBRANCH  11  12
ENDBRANCH   9  11
ENDBRANCH   1   9
BRANCH   6  18
HETATM   18  N4  UNL     1      14.286   2.096   4.289  1.00  0.00    -0.234 N 
ATOM     19  H42 UNL     1      13.360   1.940   4.686  1.00  0.00     0.174 HD
ATOM     20  H41 UNL     1      14.906   1.291   4.203  1.00  0.00     0.174 HD
ENDBRANCH   6  18
TORSDOF 7
ENDMDL
MODEL 3
REMARK VINA RESULT: -5.164295384      2.837      6.032
REMARK  7 active torsions:
REMARK  status: ('A' for Active; 'I' for Inactive)
REMARK    1  A    between atoms: O1_2  and  C2_3 
REMARK    2  A    between atoms: C2_3  and  N1_4 
REMARK    3  A    between atoms: N1_4  and  C3_6 
REMARK    4  A    between atoms: C3_6  and  C4_7 
REMARK    5  A    between atoms: C4_7  and  N2_8 
REMARK    6  A    between atoms: N2_8  and  C5_10 
REMARK    7  A    between atoms: C8_15  and  N4_16 
ROOT
HETATM    1  C5  UNL     1      16.682   2.806   4.041  1.00  0.00     0.122 A 
HETATM    2  C6  UNL     1      17.952   3.320   3.718  1.00  0.00     0.066 A 
HETATM    3  C7  UNL     1      19.003   2.468   3.677  1.00  0.00     0.110 A 
HETATM    4  N3  UNL     1      18.874   1.154   3.934  1.00  0.00    -0.202 N 
ATOM      5  H3  UNL     1      19.690   0.543   3.893  1.00  0.00     0.183 HD
HETATM    6  C8  UNL     1      17.661   0.643   4.245  1.00  0.00     0.677 A 
HETATM    7  N5  UNL     1      16.613   1.496   4.286  1.00  0.00    -0.177 N 
ATOM      8  H5  UNL     1      15.699   1.108   4.522  1.00  0.00     0.185 HD
ENDROOT
BRANCH   1   9
HETATM    9  N2  UNL     1      15.718   3.558   4.070  1.00  0.00    -0.351 N 
ATOM     10  H2  UNL     1      15.017   3.259   4.747  1.00  0.00     0.166 HD
BRANCH   9  11
HETATM   11  C4  UNL     1      15.340   4.735   3.399  1.00  0.00     0.106 C 
BRANCH  11  12
HETATM   12  C3  UNL     1      14.073   5.181   4.106  1.00  0.00     0.102 C 
BRANCH  12  13
HETATM   13  N1  UNL     1      12.852   4.804   3.519  1.00  0.00    -0.377 N 
ATOM     14  H1  UNL     1      12.647   4.822   2.520  1.00  0.00     0.161 HD
BRANCH  13  15
HETATM   15  C2  UNL     1      11.928   4.383   4.558  1.00  0.00     0.289 C 
BRANCH  15  16
HETATM   16  O1  UNL     1      11.673   5.487   5.337  1.00  0.00    -0.377 OA
HETATM   17  C1  UNL     1      10.906   5.197   6.417  1.00  0.00     0.203 C 
ENDBRANCH  15  16
ENDBRANCH  13  15
ENDBRANCH  12  13
ENDBRANCH  11  12
ENDBRANCH   9  11
ENDBRANCH   1   9
BRANCH   6  18
HETATM   18  N4  UNL     1      17.515  -0.622   4.463  1.00  0.00    -0.234 N 
ATOM     19  H42 UNL     1      16.671  -0.997   4.896  1.00  0.00     0.174 HD
ATOM     20  H41 UNL     1      18.238  -1.285   4.183  1.00  0.00     0.174 HD
ENDBRANCH   6  18
TORSDOF 7
ENDMDL
MODEL 4
REMARK VINA RESULT: -5.125667095      1.179      1.950
REMARK  7 active torsions:
REMARK  status: ('A' for Active; 'I' for Inactive)
REMARK    1  A    between atoms: O1_2  and  C2_3 
REMARK    2  A    between atoms: C2_3  and  N1_4 
REMARK    3  A    between atoms: N1_4  and  C3_6 
REMARK    4  A    between atoms: C3_6  and  C4_7 
REMARK    5  A    between atoms: C4_7  and  N2_8 
REMARK    6  A    between atoms: N2_8  and  C5_10 
REMARK    7  A    between atoms: C8_15  and  N4_16 
ROOT
HETATM    1  C5  UNL     1      15.471   3.053   3.619  1.00  0.00     0.122 A 
HETATM    2  C6  UNL     1      14.136   3.426   3.868  1.00  0.00     0.066 A 
HETATM    3  C7  UNL     1      13.803   4.735   3.780  1.00  0.00     0.110 A 
HETATM    4  N3  UNL     1      14.701   5.686   3.463  1.00  0.00    -0.202 N 
ATOM      5  H3  UNL     1      14.412   6.662   3.407  1.00  0.00     0.183 HD
HETATM    6  C8  UNL     1      15.986   5.345   3.220  1.00  0.00     0.677 A 
HETATM    7  N5  UNL     1      16.317   4.037   3.309  1.00  0.00    -0.177 N 
ATOM      8  H5  UNL     1      17.288   3.784   3.126  1.00  0.00     0.185 HD
ENDROOT
BRANCH   1   9
HETATM    9  N2  UNL     1      15.787   1.874   3.681  1.00  0.00    -0.351 N 
ATOM     10  H2  UNL     1      15.686   1.402   2.782  1.00  0.00     0.166 HD
BRANCH   9  11
HETATM   11  C4  UNL     1      16.255   1.008   4.685  1.00  0.00     0.106 C 
BRANCH  11  12
HETATM   12  C3  UNL     1      17.662   0.647   4.244  1.00  0.00     0.102 C 
BRANCH  12  13
HETATM   13  N1  UNL     1      18.713   1.401   4.795  1.00  0.00    -0.377 N 
ATOM     14  H1  UNL     1      18.965   1.429   5.783  1.00  0.00     0.161 HD
BRANCH  13  15
HETATM   15  C2  UNL     1      19.385   2.135   3.736  1.00  0.00     0.289 C 
BRANCH  15  16
HETATM   16  O1  UNL     1      19.248   3.471   4.026  1.00  0.00    -0.377 OA
HETATM   17  C1  UNL     1      20.440   4.089   4.217  1.00  0.00     0.203 C 
ENDBRANCH  15  16
ENDBRANCH  13  15
ENDBRANCH  12  13
ENDBRANCH  11  12
ENDBRANCH   9  11
ENDBRANCH   1   9
BRANCH   6  18
HETATM   18  N4  UNL     1      16.853   6.243   2.883  1.00  0.00    -0.234 N 
ATOM     19  H42 UNL     1      16.608   7.231   2.833  1.00  0.00     0.174 HD
ATOM     20  H41 UNL     1      17.819   5.983   2.682  1.00  0.00     0.174 HD
ENDBRANCH   6  18
TORSDOF 7
ENDMDL
MODEL 5
REMARK VINA RESULT: -5.102600584      1.676      1.807
REMARK  7 active torsions:
REMARK  status: ('A' for Active; 'I' for Inactive)
REMARK    1  A    between atoms: O1_2  and  C2_3 
REMARK    2  A    between atoms: C2_3  and  N1_4 
REMARK    3  A    between atoms: N1_4  and  C3_6 
REMARK    4  A    between atoms: C3_6  and  C4_7 
REMARK    5  A    between atoms: C4_7  and  N2_8 
REMARK    6  A    between atoms: N2_8  and  C5_10 
REMARK    7  A    between atoms: C8_15  and  N4_16 
ROOT
HETATM    1  C5  UNL     1      16.112   3.702   3.750  1.00  0.00     0.122 A 
HETATM    2  C6  UNL     1      16.441   4.937   3.159  1.00  0.00     0.066 A 
HETATM    3  C7  UNL     1      15.463   5.859   3.000  1.00  0.00     0.110 A 
HETATM    4  N3  UNL     1      14.194   5.636   3.387  1.00  0.00    -0.202 N 
ATOM      5  H3  UNL     1      13.484   6.355   3.251  1.00  0.00     0.183 HD
HETATM    6  C8  UNL     1      13.861   4.456   3.958  1.00  0.00     0.677 A 
HETATM    7  N5  UNL     1      14.839   3.536   4.114  1.00  0.00    -0.177 N 
ATOM      8  H5  UNL     1      14.584   2.646   4.544  1.00  0.00     0.185 HD
ENDROOT
BRANCH   1   9
HETATM    9  N2  UNL     1      16.985   2.863   3.913  1.00  0.00    -0.351 N 
ATOM     10  H2  UNL     1      16.782   2.245   4.700  1.00  0.00     0.166 HD
BRANCH   9  11
HETATM   11  C4  UNL     1      18.200   2.538   3.284  1.00  0.00     0.106 C 
BRANCH  11  12
HETATM   12  C3  UNL     1      19.260   2.864   4.321  1.00  0.00     0.102 C 
BRANCH  12  13
HETATM   13  N1  UNL     1      19.944   4.083   4.168  1.00  0.00    -0.377 N 
ATOM     14  H1  UNL     1      19.860   4.888   4.788  1.00  0.00     0.161 HD
BRANCH  13  15
HETATM   15  C2  UNL     1      20.790   4.015   2.989  1.00  0.00     0.289 C 
BRANCH  15  16
HETATM   16  O1  UNL     1      20.670   5.221   2.341  1.00  0.00    -0.377 OA
HETATM   17  C1  UNL     1      19.955   5.128   1.192  1.00  0.00     0.203 C 
ENDBRANCH  15  16
ENDBRANCH  13  15
ENDBRANCH  12  13
ENDBRANCH  11  12
ENDBRANCH   9  11
ENDBRANCH   1   9
BRANCH   6  18
HETATM   18  N4  UNL     1      12.653   4.238   4.364  1.00  0.00    -0.234 N 
ATOM     19  H42 UNL     1      12.089   4.976   4.784  1.00  0.00     0.174 HD
ATOM     20  H41 UNL     1      12.224   3.320   4.250  1.00  0.00     0.174 HD
ENDBRANCH   6  18
TORSDOF 7
ENDMDL
