MODEL 1
REMARK VINA RESULT: -5.220407354      0.000      0.000
REMARK  8 active torsions:
REMARK  status: ('A' for Active; 'I' for Inactive)
REMARK    1  A    between atoms: N1_1  and  C1_5 
REMARK    2  A    between atoms: C1_5  and  C2_6 
REMARK    3  A    between atoms: C2_6  and  C3_7 
REMARK    4  A    between atoms: C3_7  and  C4_8 
REMARK    5  A    between atoms: C4_8  and  N2_9 
REMARK    6  A    between atoms: N2_9  and  C5_11 
REMARK    7  A    between atoms: C6_14  and  C7_15 
REMARK    8  A    between atoms: C7_15  and  N4_16 
ROOT
HETATM    1  C5  UNL     1      15.129   3.223   3.720  1.00  0.00     0.694 A 
HETATM    2  N3  UNL     1      16.495   3.187   3.776  1.00  0.00    -0.176 N 
ATOM      3  H3  UNL     1      17.106   3.895   3.368  1.00  0.00     0.185 HD
HETATM    4  C6  UNL     1      16.926   2.115   4.428  1.00  0.00     0.138 A 
HETATM    5  N5  UNL     1      15.824   1.445   4.800  1.00  0.00    -0.273 N 
ATOM      6  H5  UNL     1      15.810   0.569   5.323  1.00  0.00     0.189 HD
HETATM    7  N6  UNL     1      14.740   2.117   4.371  1.00  0.00    -0.131 N 
ATOM      8  H6  UNL     1      13.773   1.831   4.518  1.00  0.00     0.205 HD
ENDROOT
BRANCH   1   9
HETATM    9  N2  UNL     1      14.415   4.133   3.158  1.00  0.00    -0.225 N 
ATOM     10  H2  UNL     1      14.466   4.232   2.144  1.00  0.00     0.177 HD
BRANCH   9  11
HETATM   11  C4  UNL     1      13.557   5.009   3.879  1.00  0.00     0.138 C 
BRANCH  11  12
HETATM   12  C3  UNL     1      12.089   4.649   3.739  1.00  0.00     0.022 C 
BRANCH  12  13
HETATM   13  C2  UNL     1      11.506   4.154   5.039  1.00  0.00     0.029 C 
BRANCH  13  14
HETATM   14  C1  UNL     1      11.521   5.282   6.041  1.00  0.00     0.229 C 
BRANCH  14  15
HETATM   15  N1  UNL     1      10.370   5.097   6.915  1.00  0.00    -0.079 N 
ATOM     16  H13 UNL     1       9.722   4.386   6.577  1.00  0.00     0.274 HD
ATOM     17  H12 UNL     1      10.608   4.646   7.799  1.00  0.00     0.274 HD
ATOM     18  H11 UNL     1       9.935   6.011   7.036  1.00  0.00     0.274 HD
ENDBRANCH  14  15
ENDBRANCH  13  14
ENDBRANCH  12  13
ENDBRANCH  11  12
ENDBRANCH   9  11
ENDBRANCH   1   9
BRANCH   4  19
HETATM   19  C7  UNL     1      18.300   1.656   4.736  1.00  0.00     0.307 C 
BRANCH  19  20
HETATM   20  N4  UNL     1      18.887   0.904   3.664  1.00  0.00    -0.073 N 
ATOM     21  H43 UNL     1      19.829   0.598   3.905  1.00  0.00     0.274 HD
ATOM     22  H42 UNL     1      18.438  -0.006   3.566  1.00  0.00     0.274 HD
ATOM     23  H41 UNL     1      18.883   1.411   2.778  1.00  0.00     0.274 HD
ENDBRANCH  19  20
ENDBRANCH   4  19
TORSDOF 8
ENDMDL
MODEL 2
REMARK VINA RESULT: -4.990045118      2.612      3.856
REMARK  8 active torsions:
REMARK  status: ('A' for Active; 'I' for Inactive)
REMARK    1  A    between atoms: N1_1  and  C1_5 
REMARK    2  A    between atoms: C1_5  and  C2_6 
REMARK    3  A    between atoms: C2_6  and  C3_7 
REMARK    4  A    between atoms: C3_7  and  C4_8 
REMARK    5  A    between atoms: C4_8  and  N2_9 
REMARK    6  A    between atoms: N2_9  and  C5_11 
REMARK    7  A    between atoms: C6_14  and  C7_15 
REMARK    8  A    between atoms: C7_15  and  N4_16 
ROOT
HETATM    1  C5  UNL     1      17.831   2.071   4.326  1.00  0.00     0.694 A 
HETATM    2  N3  UNL     1      18.665   3.142   4.157  1.00  0.00    -0.176 N 
ATOM      3  H3  UNL     1      18.404   4.109   4.347  1.00  0.00     0.185 HD
HETATM    4  C6  UNL     1      19.857   2.763   3.715  1.00  0.00     0.138 A 
HETATM    5  N5  UNL     1      19.796   1.427   3.594  1.00  0.00    -0.273 N 
ATOM      6  H5  UNL     1      20.555   0.825   3.274  1.00  0.00     0.189 HD
HETATM    7  N6  UNL     1      18.571   1.013   3.964  1.00  0.00    -0.131 N 
ATOM      8  H6  UNL     1      18.253   0.044   3.969  1.00  0.00     0.205 HD
ENDROOT
BRANCH   1   9
HETATM    9  N2  UNL     1      16.614   2.113   4.740  1.00  0.00    -0.225 N 
ATOM     10  H2  UNL     1      16.443   2.353   5.717  1.00  0.00     0.177 HD
BRANCH   9  11
HETATM   11  C4  UNL     1      15.495   1.843   3.905  1.00  0.00     0.138 C 
BRANCH  11  12
HETATM   12  C3  UNL     1      15.113   3.021   3.028  1.00  0.00     0.022 C 
BRANCH  12  13
HETATM   13  C2  UNL     1      14.208   3.989   3.751  1.00  0.00     0.029 C 
BRANCH  13  14
HETATM   14  C1  UNL     1      14.611   5.397   3.386  1.00  0.00     0.229 C 
BRANCH  14  15
HETATM   15  N1  UNL     1      16.064   5.410   3.264  1.00  0.00    -0.079 N 
ATOM     16  H13 UNL     1      16.477   4.479   3.312  1.00  0.00     0.274 HD
ATOM     17  H12 UNL     1      16.383   5.647   2.324  1.00  0.00     0.274 HD
ATOM     18  H11 UNL     1      16.420   6.044   3.979  1.00  0.00     0.274 HD
ENDBRANCH  14  15
ENDBRANCH  13  14
ENDBRANCH  12  13
ENDBRANCH  11  12
ENDBRANCH   9  11
ENDBRANCH   1   9
BRANCH   4  19
HETATM   19  C7  UNL     1      21.066   3.555   3.391  1.00  0.00     0.307 C 
BRANCH  19  20
HETATM   20  N4  UNL     1      22.143   2.745   2.896  1.00  0.00    -0.073 N 
ATOM     21  H43 UNL     1      22.725   2.403   3.660  1.00  0.00     0.274 HD
ATOM     22  H42 UNL     1      21.797   1.854   2.540  1.00  0.00     0.274 HD
ATOM     23  H41 UNL     1      22.707   3.225   2.194  1.00  0.00     0.274 HD
ENDBRANCH  19  20
ENDBRANCH   4  19
TORSDOF 8
ENDMDL
MODEL 3
REMARK VINA RESULT: -4.983555348      1.917      3.474
REMARK  8 active torsions:
REMARK  status: ('A' for Active; 'I' for Inactive)
REMARK    1  A    between atoms: N1_1  and  C1_5 
REMARK    2  A    between atoms: C1_5  and  C2_6 
REMARK    3  A    between atoms: C2_6  and  C3_7 
REMARK    4  A    between atoms: C3_7  and  C4_8 
REMARK    5  A    between atoms: C4_8  and  N2_9 
REMARK    6  A    between atoms: N2_9  and  C5_11 
REMARK    7  A    between atoms: C6_14  and  C7_15 
REMARK    8  A    between atoms: C7_15  and  N4_16 
ROOT
HETATM    1  C5  UNL     1      17.801   2.043   4.324  1.00  0.00     0.694 A 
HETATM    2  N3  UNL     1      18.630   3.114   4.133  1.00  0.00    -0.176 N 
ATOM      3  H3  UNL     1      18.366   4.084   4.310  1.00  0.00     0.185 HD
HETATM    4  C6  UNL     1      19.820   2.733   3.688  1.00  0.00     0.138 A 
HETATM    5  N5  UNL     1      19.764   1.395   3.589  1.00  0.00    -0.273 N 
ATOM      6  H5  UNL     1      20.522   0.791   3.273  1.00  0.00     0.189 HD
HETATM    7  N6  UNL     1      18.542   0.982   3.974  1.00  0.00    -0.131 N 
ATOM      8  H6  UNL     1      18.229   0.012   3.996  1.00  0.00     0.205 HD
ENDROOT
BRANCH   1   9
HETATM    9  N2  UNL     1      16.587   2.087   4.747  1.00  0.00    -0.225 N 
ATOM     10  H2  UNL     1      16.426   2.269   5.738  1.00  0.00     0.177 HD
BRANCH   9  11
HETATM   11  C4  UNL     1      15.459   1.895   3.903  1.00  0.00     0.138 C 
BRANCH  11  12
HETATM   12  C3  UNL     1      15.160   3.101   3.031  1.00  0.00     0.022 C 
BRANCH  12  13
HETATM   13  C2  UNL     1      14.949   4.349   3.854  1.00  0.00     0.029 C 
BRANCH  13  14
HETATM   14  C1  UNL     1      13.645   4.988   3.442  1.00  0.00     0.229 C 
BRANCH  14  15
HETATM   15  N1  UNL     1      12.606   4.435   4.301  1.00  0.00    -0.079 N 
ATOM     16  H13 UNL     1      12.718   4.693   5.282  1.00  0.00     0.274 HD
ATOM     17  H12 UNL     1      11.694   4.870   4.156  1.00  0.00     0.274 HD
ATOM     18  H11 UNL     1      12.597   3.427   4.151  1.00  0.00     0.274 HD
ENDBRANCH  14  15
ENDBRANCH  13  14
ENDBRANCH  12  13
ENDBRANCH  11  12
ENDBRANCH   9  11
ENDBRANCH   1   9
BRANCH   4  19
HETATM   19  C7  UNL     1      21.024   3.524   3.342  1.00  0.00     0.307 C 
BRANCH  19  20
HETATM   20  N4  UNL     1      22.123   2.704   2.919  1.00  0.00    -0.073 N 
ATOM     21  H43 UNL     1      22.585   2.270   3.719  1.00  0.00     0.274 HD
ATOM     22  H42 UNL     1      21.792   1.865   2.444  1.00  0.00     0.274 HD
ATOM     23  H41 UNL     1      22.793   3.212   2.341  1.00  0.00     0.274 HD
ENDBRANCH  19  20
ENDBRANCH   4  19
TORSDOF 8
ENDMDL
MODEL 4
REMARK VINA RESULT: -4.933429792      0.866      1.370
REMARK  8 active torsions:
REMARK  status: ('A' for Active; 'I' for Inactive)
REMARK    1  A    between atoms: N1_1  and  C1_5 
REMARK    2  A    between atoms: C1_5  and  C2_6 
REMARK    3  A    between atoms: C2_6  and  C3_7 
REMARK    4  A    between atoms: C3_7  and  C4_8 
REMARK    5  A    between atoms: C4_8  and  N2_9 
REMARK    6  A    between atoms: N2_9  and  C5_11 
REMARK    7  A    between atoms: C6_14  and  C7_15 
REMARK    8  A    between atoms: C7_15  and  N4_16 
ROOT
HETATM    1  C5  UNL     1      15.503   3.667   3.842  1.00  0.00     0.694 A 
HETATM    2  N3  UNL     1      16.252   2.677   4.416  1.00  0.00    -0.176 N 
ATOM      3  H3  UNL     1      15.959   2.129   5.225  1.00  0.00     0.185 HD
HETATM    4  C6  UNL     1      17.410   2.518   3.787  1.00  0.00     0.138 A 
HETATM    5  N5  UNL     1      17.412   3.419   2.791  1.00  0.00    -0.273 N 
ATOM      6  H5  UNL     1      18.165   3.556   2.116  1.00  0.00     0.189 HD
HETATM    7  N6  UNL     1      16.258   4.111   2.828  1.00  0.00    -0.131 N 
ATOM      8  H6  UNL     1      15.998   4.857   2.183  1.00  0.00     0.205 HD
ENDROOT
BRANCH   1   9
HETATM    9  N2  UNL     1      14.337   4.055   4.223  1.00  0.00    -0.225 N 
ATOM     10  H2  UNL     1      13.975   3.702   5.110  1.00  0.00     0.177 HD
BRANCH   9  11
HETATM   11  C4  UNL     1      13.528   4.952   3.472  1.00  0.00     0.138 C 
BRANCH  11  12
HETATM   12  C3  UNL     1      12.045   4.649   3.587  1.00  0.00     0.022 C 
BRANCH  12  13
HETATM   13  C2  UNL     1      11.672   4.191   4.976  1.00  0.00     0.029 C 
BRANCH  13  14
HETATM   14  C1  UNL     1      11.464   5.404   5.849  1.00  0.00     0.229 C 
BRANCH  14  15
HETATM   15  N1  UNL     1      10.492   5.036   6.871  1.00  0.00    -0.079 N 
ATOM     16  H13 UNL     1       9.935   4.220   6.617  1.00  0.00     0.274 HD
ATOM     17  H12 UNL     1      10.922   4.644   7.709  1.00  0.00     0.274 HD
ATOM     18  H11 UNL     1       9.928   5.864   7.060  1.00  0.00     0.274 HD
ENDBRANCH  14  15
ENDBRANCH  13  14
ENDBRANCH  12  13
ENDBRANCH  11  12
ENDBRANCH   9  11
ENDBRANCH   1   9
BRANCH   4  19
HETATM   19  C7  UNL     1      18.530   1.584   4.041  1.00  0.00     0.307 C 
BRANCH  19  20
HETATM   20  N4  UNL     1      18.091   0.232   4.242  1.00  0.00    -0.073 N 
ATOM     21  H43 UNL     1      18.522  -0.173   5.073  1.00  0.00     0.274 HD
ATOM     22  H42 UNL     1      17.114   0.205   4.534  1.00  0.00     0.274 HD
ATOM     23  H41 UNL     1      18.245  -0.358   3.424  1.00  0.00     0.274 HD
ENDBRANCH  19  20
ENDBRANCH   4  19
TORSDOF 8
ENDMDL
MODEL 5
REMARK VINA RESULT: -4.868669357      1.427      2.163
REMARK  8 active torsions:
REMARK  status: ('A' for Active; 'I' for Inactive)
REMARK    1  A    between atoms: N1_1  and  C1_5 
REMARK    2  A    between atoms: C1_5  and  C2_6 
REMARK    3  A    between atoms: C2_6  and  C3_7 
REMARK    4  A    between atoms: C3_7  and  C4_8 
REMARK    5  A    between atoms: C4_8  and  N2_9 
REMARK    6  A    between atoms: N2_9  and  C5_11 
REMARK    7  A    between atoms: C6_14  and  C7_15 
REMARK    8  A    between atoms: C7_15  and  N4_16 
ROOT
HETATM    1  C5  UNL     1      16.489   2.074   4.181  1.00  0.00     0.694 A 
HETATM    2  N3  UNL     1      17.534   2.903   3.878  1.00  0.00    -0.176 N 
ATOM      3  H3  UNL     1      17.440   3.900   3.684  1.00  0.00     0.185 HD
HETATM    4  C6  UNL     1      18.687   2.246   3.868  1.00  0.00     0.138 A 
HETATM    5  N5  UNL     1      18.386   0.973   4.168  1.00  0.00    -0.273 N 
ATOM      6  H5  UNL     1      19.055   0.206   4.242  1.00  0.00     0.189 HD
HETATM    7  N6  UNL     1      17.057   0.873   4.357  1.00  0.00    -0.131 N 
ATOM      8  H6  UNL     1      16.559   0.016   4.596  1.00  0.00     0.205 HD
ENDROOT
BRANCH   1   9
HETATM    9  N2  UNL     1      15.251   2.413   4.266  1.00  0.00    -0.225 N 
ATOM     10  H2  UNL     1      14.688   2.006   5.014  1.00  0.00     0.177 HD
BRANCH   9  11
HETATM   11  C4  UNL     1      14.627   3.325   3.371  1.00  0.00     0.138 C 
BRANCH  11  12
HETATM   12  C3  UNL     1      14.071   4.553   4.069  1.00  0.00     0.022 C 
BRANCH  12  13
HETATM   13  C2  UNL     1      12.606   4.754   3.768  1.00  0.00     0.029 C 
BRANCH  13  14
HETATM   14  C1  UNL     1      11.791   4.125   4.871  1.00  0.00     0.229 C 
BRANCH  14  15
HETATM   15  N1  UNL     1      11.306   5.208   5.718  1.00  0.00    -0.079 N 
ATOM     16  H13 UNL     1      10.559   5.750   5.285  1.00  0.00     0.274 HD
ATOM     17  H12 UNL     1      10.777   4.877   6.525  1.00  0.00     0.274 HD
ATOM     18  H11 UNL     1      12.115   5.774   5.974  1.00  0.00     0.274 HD
ENDBRANCH  14  15
ENDBRANCH  13  14
ENDBRANCH  12  13
ENDBRANCH  11  12
ENDBRANCH   9  11
ENDBRANCH   1   9
BRANCH   4  19
HETATM   19  C7  UNL     1      20.066   2.714   3.598  1.00  0.00     0.307 C 
BRANCH  19  20
HETATM   20  N4  UNL     1      20.401   3.904   4.327  1.00  0.00    -0.073 N 
ATOM     21  H43 UNL     1      19.858   4.701   3.995  1.00  0.00     0.274 HD
ATOM     22  H42 UNL     1      20.055   3.856   5.285  1.00  0.00     0.274 HD
ATOM     23  H41 UNL     1      21.400   4.109   4.309  1.00  0.00     0.274 HD
ENDBRANCH  19  20
ENDBRANCH   4  19
TORSDOF 8
ENDMDL
