MODEL 1
REMARK VINA RESULT: -5.362757629      0.000      0.000
REMARK  6 active torsions:
REMARK  status: ('A' for Active; 'I' for Inactive)
REMARK    1  A    between atoms: N1_2  and  C2_4 
REMARK    2  A    between atoms: C4_11  and  C5_12 
REMARK    3  A    between atoms: C5_12  and  N5_13 
REMARK    4  A    between atoms: N5_13  and  C6_16 
REMARK    5  A    between atoms: C6_16  and  C7_17 
REMARK    6  A    between atoms: C7_17  and  O1_18 
ROOT
HETATM    1  C2  UNL     1      18.728   2.805   3.384  1.00  0.00     0.126 A 
HETATM    2  N2  UNL     1      19.337   1.787   4.006  1.00  0.00    -0.284 N 
ATOM      3  H2  UNL     1      20.342   1.616   3.991  1.00  0.00     0.188 HD
HETATM    4  N3  UNL     1      18.458   1.040   4.641  1.00  0.00    -0.286 N 
ATOM      5  H3  UNL     1      18.671   0.207   5.190  1.00  0.00     0.188 HD
HETATM    6  C3  UNL     1      17.216   1.563   4.443  1.00  0.00     0.142 A 
HETATM    7  N4  UNL     1      15.987   1.056   4.947  1.00  0.00    -0.081 NA
HETATM    8  C4  UNL     1      17.355   2.679   3.654  1.00  0.00     0.055 A 
ENDROOT
BRANCH   8   9
HETATM    9  C5  UNL     1      16.348   3.628   3.117  1.00  0.00     0.278 C 
BRANCH   9  10
HETATM   10  N5  UNL     1      15.444   3.995   4.162  1.00  0.00    -0.069 N 
ATOM     11  H52 UNL     1      15.684   3.537   5.042  1.00  0.00     0.277 HD
ATOM     12  H51 UNL     1      15.577   4.965   4.447  1.00  0.00     0.277 HD
BRANCH  10  13
HETATM   13  C6  UNL     1      14.052   3.733   3.784  1.00  0.00     0.258 C 
BRANCH  13  14
HETATM   14  C7  UNL     1      13.544   5.038   3.168  1.00  0.00     0.194 C 
BRANCH  14  15
HETATM   15  O1  UNL     1      12.179   5.096   3.436  1.00  0.00    -0.394 OA
HETATM   16  C8  UNL     1      11.844   4.479   4.621  1.00  0.00     0.201 C 
ENDBRANCH  14  15
ENDBRANCH  13  14
ENDBRANCH  10  13
ENDBRANCH   9  10
ENDBRANCH   8   9
BRANCH   1  17
HETATM   17  N1  UNL     1      19.247   3.745   2.673  1.00  0.00    -0.379 N 
HETATM   18  C1  UNL     1      20.600   4.204   2.824  1.00  0.00     0.147 C 
ATOM     19  H1  UNL     1      18.665   4.188   1.962  1.00  0.00     0.160 HD
ENDBRANCH   1  17
TORSDOF 6
ENDMDL
MODEL 2
REMARK VINA RESULT: -5.318642519      2.728      5.182
REMARK  6 active torsions:
REMARK  status: ('A' for Active; 'I' for Inactive)
REMARK    1  A    between atoms: N1_2  and  C2_4 
REMARK    2  A    between atoms: C4_11  and  C5_12 
REMARK    3  A    between atoms: C5_12  and  N5_13 
REMARK    4  A    between atoms: N5_13  and  C6_16 
REMARK    5  A    between atoms: C6_16  and  C7_17 
REMARK    6  A    between atoms: C7_17  and  O1_18 
ROOT
HETATM    1  C2  UNL     1      15.780   3.704   3.768  1.00  0.00     0.126 A 
HETATM    2  N2  UNL     1      14.772   2.986   4.281  1.00  0.00    -0.284 N 
ATOM      3  H2  UNL     1      13.843   3.353   4.484  1.00  0.00     0.188 HD
HETATM    4  N3  UNL     1      15.148   1.740   4.486  1.00  0.00    -0.286 N 
ATOM      5  H3  UNL     1      14.562   0.997   4.867  1.00  0.00     0.188 HD
HETATM    6  C3  UNL     1      16.448   1.609   4.103  1.00  0.00     0.142 A 
HETATM    7  N4  UNL     1      17.240   0.429   4.167  1.00  0.00    -0.081 NA
HETATM    8  C4  UNL     1      16.874   2.831   3.645  1.00  0.00     0.055 A 
ENDROOT
BRANCH   8   9
HETATM    9  C5  UNL     1      18.190   3.274   3.119  1.00  0.00     0.278 C 
BRANCH   9  10
HETATM   10  N5  UNL     1      19.205   2.972   4.079  1.00  0.00    -0.069 N 
ATOM     11  H52 UNL     1      18.806   2.796   5.002  1.00  0.00     0.277 HD
ATOM     12  H51 UNL     1      19.619   2.056   3.909  1.00  0.00     0.277 HD
BRANCH  10  13
HETATM   13  C6  UNL     1      20.227   4.022   4.128  1.00  0.00     0.258 C 
BRANCH  13  14
HETATM   14  C7  UNL     1      20.905   3.995   2.757  1.00  0.00     0.194 C 
BRANCH  14  15
HETATM   15  O1  UNL     1      20.869   5.301   2.273  1.00  0.00    -0.394 OA
HETATM   16  C8  UNL     1      20.402   5.373   0.979  1.00  0.00     0.201 C 
ENDBRANCH  14  15
ENDBRANCH  13  14
ENDBRANCH  10  13
ENDBRANCH   9  10
ENDBRANCH   8   9
BRANCH   1  17
HETATM   17  N1  UNL     1      15.797   4.946   3.430  1.00  0.00    -0.379 N 
HETATM   18  C1  UNL     1      14.613   5.725   3.195  1.00  0.00     0.147 C 
ATOM     19  H1  UNL     1      16.703   5.404   3.324  1.00  0.00     0.160 HD
ENDBRANCH   1  17
TORSDOF 6
ENDMDL
MODEL 3
REMARK VINA RESULT: -5.273647762      2.432      4.242
REMARK  6 active torsions:
REMARK  status: ('A' for Active; 'I' for Inactive)
REMARK    1  A    between atoms: N1_2  and  C2_4 
REMARK    2  A    between atoms: C4_11  and  C5_12 
REMARK    3  A    between atoms: C5_12  and  N5_13 
REMARK    4  A    between atoms: N5_13  and  C6_16 
REMARK    5  A    between atoms: C6_16  and  C7_17 
REMARK    6  A    between atoms: C7_17  and  O1_18 
ROOT
HETATM    1  C2  UNL     1      18.905   4.208   2.533  1.00  0.00     0.126 A 
HETATM    2  N2  UNL     1      19.785   4.815   1.726  1.00  0.00    -0.284 N 
ATOM      3  H2  UNL     1      19.534   5.424   0.947  1.00  0.00     0.188 HD
HETATM    4  N3  UNL     1      21.019   4.516   2.077  1.00  0.00    -0.286 N 
ATOM      5  H3  UNL     1      21.866   4.854   1.620  1.00  0.00     0.188 HD
HETATM    6  C3  UNL     1      20.976   3.681   3.152  1.00  0.00     0.142 A 
HETATM    7  N4  UNL     1      22.087   3.115   3.836  1.00  0.00    -0.081 NA
HETATM    8  C4  UNL     1      19.655   3.470   3.464  1.00  0.00     0.055 A 
ENDROOT
BRANCH   8   9
HETATM    9  C5  UNL     1      19.021   2.646   4.523  1.00  0.00     0.278 C 
BRANCH   9  10
HETATM   10  N5  UNL     1      19.187   1.262   4.205  1.00  0.00    -0.069 N 
ATOM     11  H52 UNL     1      19.678   1.139   3.319  1.00  0.00     0.277 HD
ATOM     12  H51 UNL     1      19.863   0.815   4.824  1.00  0.00     0.277 HD
BRANCH  10  13
HETATM   13  C6  UNL     1      17.904   0.552   4.210  1.00  0.00     0.258 C 
BRANCH  13  14
HETATM   14  C7  UNL     1      16.853   1.612   4.542  1.00  0.00     0.194 C 
BRANCH  14  15
HETATM   15  O1  UNL     1      16.034   1.722   3.420  1.00  0.00    -0.394 OA
HETATM   16  C8  UNL     1      14.772   2.180   3.729  1.00  0.00     0.201 C 
ENDBRANCH  14  15
ENDBRANCH  13  14
ENDBRANCH  10  13
ENDBRANCH   9  10
ENDBRANCH   8   9
BRANCH   1  17
HETATM   17  N1  UNL     1      17.619   4.261   2.512  1.00  0.00    -0.379 N 
HETATM   18  C1  UNL     1      16.853   5.296   3.148  1.00  0.00     0.147 C 
ATOM     19  H1  UNL     1      17.115   3.527   2.014  1.00  0.00     0.160 HD
ENDBRANCH   1  17
TORSDOF 6
ENDMDL
MODEL 4
REMARK VINA RESULT: -5.217683288      3.014      5.590
REMARK  6 active torsions:
REMARK  status: ('A' for Active; 'I' for Inactive)
REMARK    1  A    between atoms: N1_2  and  C2_4 
REMARK    2  A    between atoms: C4_11  and  C5_12 
REMARK    3  A    between atoms: C5_12  and  N5_13 
REMARK    4  A    between atoms: N5_13  and  C6_16 
REMARK    5  A    between atoms: C6_16  and  C7_17 
REMARK    6  A    between atoms: C7_17  and  O1_18 
ROOT
HETATM    1  C2  UNL     1      15.329   3.607   3.592  1.00  0.00     0.126 A 
HETATM    2  N2  UNL     1      14.442   2.828   4.225  1.00  0.00    -0.284 N 
ATOM      3  H2  UNL     1      13.488   3.105   4.454  1.00  0.00     0.188 HD
HETATM    4  N3  UNL     1      14.973   1.657   4.509  1.00  0.00    -0.286 N 
ATOM      5  H3  UNL     1      14.500   0.890   4.987  1.00  0.00     0.188 HD
HETATM    6  C3  UNL     1      16.258   1.639   4.058  1.00  0.00     0.142 A 
HETATM    7  N4  UNL     1      17.186   0.567   4.170  1.00  0.00    -0.081 NA
HETATM    8  C4  UNL     1      16.511   2.856   3.473  1.00  0.00     0.055 A 
ENDROOT
BRANCH   8   9
HETATM    9  C5  UNL     1      17.735   3.396   2.830  1.00  0.00     0.278 C 
BRANCH   9  10
HETATM   10  N5  UNL     1      18.805   3.392   3.779  1.00  0.00    -0.069 N 
ATOM     11  H52 UNL     1      18.506   3.766   4.680  1.00  0.00     0.277 HD
ATOM     12  H51 UNL     1      19.041   2.444   4.072  1.00  0.00     0.277 HD
BRANCH  10  13
HETATM   13  C6  UNL     1      19.980   4.103   3.266  1.00  0.00     0.258 C 
BRANCH  13  14
HETATM   14  C7  UNL     1      20.919   4.256   4.464  1.00  0.00     0.194 C 
BRANCH  14  15
HETATM   15  O1  UNL     1      22.173   3.825   4.041  1.00  0.00    -0.394 OA
HETATM   16  C8  UNL     1      22.184   3.447   2.716  1.00  0.00     0.201 C 
ENDBRANCH  14  15
ENDBRANCH  13  14
ENDBRANCH  10  13
ENDBRANCH   9  10
ENDBRANCH   8   9
BRANCH   1  17
HETATM   17  N1  UNL     1      15.181   4.807   3.151  1.00  0.00    -0.379 N 
HETATM   18  C1  UNL     1      13.914   5.366   2.769  1.00  0.00     0.147 C 
ATOM     19  H1  UNL     1      16.011   5.395   3.068  1.00  0.00     0.160 HD
ENDBRANCH   1  17
TORSDOF 6
ENDMDL
MODEL 5
REMARK VINA RESULT: -5.197802055      1.088      2.689
REMARK  6 active torsions:
REMARK  status: ('A' for Active; 'I' for Inactive)
REMARK    1  A    between atoms: N1_2  and  C2_4 
REMARK    2  A    between atoms: C4_11  and  C5_12 
REMARK    3  A    between atoms: C5_12  and  N5_13 
REMARK    4  A    between atoms: N5_13  and  C6_16 
REMARK    5  A    between atoms: C6_16  and  C7_17 
REMARK    6  A    between atoms: C7_17  and  O1_18 
ROOT
HETATM    1  C2  UNL     1      17.681   1.709   4.323  1.00  0.00     0.126 A 
HETATM    2  N2  UNL     1      18.998   1.798   4.547  1.00  0.00    -0.284 N 
ATOM      3  H2  UNL     1      19.570   1.053   4.946  1.00  0.00     0.188 HD
HETATM    4  N3  UNL     1      19.453   2.978   4.179  1.00  0.00    -0.286 N 
ATOM      5  H3  UNL     1      20.422   3.289   4.246  1.00  0.00     0.188 HD
HETATM    6  C3  UNL     1      18.415   3.713   3.693  1.00  0.00     0.142 A 
HETATM    7  N4  UNL     1      18.472   5.046   3.199  1.00  0.00    -0.081 NA
HETATM    8  C4  UNL     1      17.283   2.938   3.770  1.00  0.00     0.055 A 
ENDROOT
BRANCH   8   9
HETATM    9  C5  UNL     1      15.875   3.225   3.397  1.00  0.00     0.278 C 
BRANCH   9  10
HETATM   10  N5  UNL     1      15.385   4.298   4.204  1.00  0.00    -0.069 N 
ATOM     11  H52 UNL     1      14.702   3.970   4.888  1.00  0.00     0.277 HD
ATOM     12  H51 UNL     1      16.100   4.640   4.846  1.00  0.00     0.277 HD
BRANCH  10  13
HETATM   13  C6  UNL     1      14.841   5.383   3.381  1.00  0.00     0.258 C 
BRANCH  13  14
HETATM   14  C7  UNL     1      13.360   5.050   3.195  1.00  0.00     0.194 C 
BRANCH  14  15
HETATM   15  O1  UNL     1      12.739   5.315   4.413  1.00  0.00    -0.394 OA
HETATM   16  C8  UNL     1      11.776   4.383   4.731  1.00  0.00     0.201 C 
ENDBRANCH  14  15
ENDBRANCH  13  14
ENDBRANCH  10  13
ENDBRANCH   9  10
ENDBRANCH   8   9
BRANCH   1  17
HETATM   17  N1  UNL     1      16.888   0.719   4.543  1.00  0.00    -0.379 N 
HETATM   18  C1  UNL     1      17.270  -0.657   4.393  1.00  0.00     0.147 C 
ATOM     19  H1  UNL     1      15.934   0.923   4.842  1.00  0.00     0.160 HD
ENDBRANCH   1  17
TORSDOF 6
ENDMDL
