MODEL 1
REMARK VINA RESULT: -4.864023564      0.000      0.000
REMARK  7 active torsions:
REMARK  status: ('A' for Active; 'I' for Inactive)
REMARK    1  A    between atoms: N1_2  and  C2_4 
REMARK    2  A    between atoms: C3_9  and  C4_10 
REMARK    3  A    between atoms: C4_10  and  N4_11 
REMARK    4  A    between atoms: N4_11  and  C5_14 
REMARK    5  A    between atoms: C5_14  and  C6_15 
REMARK    6  A    between atoms: C6_15  and  C7_16 
REMARK    7  A    between atoms: C7_16  and  N5_17 
ROOT
HETATM    1  C2  UNL     1      19.447   2.739   4.200  1.00  0.00     0.693 A 
HETATM    2  N2  UNL     1      19.789   1.565   3.654  1.00  0.00    -0.131 N 
ATOM      3  H2  UNL     1      20.710   1.326   3.287  1.00  0.00     0.205 HD
HETATM    4  N3  UNL     1      18.717   0.754   3.669  1.00  0.00    -0.273 N 
ATOM      5  H3  UNL     1      18.693  -0.199   3.310  1.00  0.00     0.189 HD
HETATM    6  C3  UNL     1      17.718   1.375   4.214  1.00  0.00     0.138 A 
HETATM    7  N6  UNL     1      18.174   2.617   4.547  1.00  0.00    -0.176 N 
ATOM      8  H6  UNL     1      17.618   3.345   4.997  1.00  0.00     0.185 HD
ENDROOT
BRANCH   6   9
HETATM    9  C4  UNL     1      16.297   0.967   4.521  1.00  0.00     0.310 C 
BRANCH   9  10
HETATM   10  N4  UNL     1      15.529   2.213   4.495  1.00  0.00    -0.068 N 
ATOM     11  H42 UNL     1      14.784   2.200   5.191  1.00  0.00     0.277 HD
ATOM     12  H41 UNL     1      16.079   2.991   4.858  1.00  0.00     0.277 HD
BRANCH  10  13
HETATM   13  C5  UNL     1      15.021   2.504   3.206  1.00  0.00     0.234 C 
BRANCH  13  14
HETATM   14  C6  UNL     1      15.341   3.748   2.501  1.00  0.00     0.055 C 
BRANCH  14  15
HETATM   15  C7  UNL     1      15.377   4.822   3.617  1.00  0.00     0.231 C 
BRANCH  15  16
HETATM   16  N5  UNL     1      14.142   5.529   3.740  1.00  0.00    -0.079 N 
ATOM     17  H53 UNL     1      13.820   5.540   4.708  1.00  0.00     0.274 HD
ATOM     18  H52 UNL     1      14.277   6.531   3.600  1.00  0.00     0.274 HD
ATOM     19  H51 UNL     1      13.418   5.168   3.119  1.00  0.00     0.274 HD
ENDBRANCH  15  16
ENDBRANCH  14  15
ENDBRANCH  13  14
ENDBRANCH  10  13
ENDBRANCH   9  10
ENDBRANCH   6   9
BRANCH   1  20
HETATM   20  N1  UNL     1      20.280   3.701   4.315  1.00  0.00    -0.229 N 
HETATM   21  C1  UNL     1      21.543   3.874   3.703  1.00  0.00     0.165 C 
ATOM     22  H1  UNL     1      19.992   4.455   4.938  1.00  0.00     0.177 HD
ENDBRANCH   1  20
TORSDOF 7
ENDMDL
MODEL 2
REMARK VINA RESULT: -4.846026627      2.579      3.799
REMARK  7 active torsions:
REMARK  status: ('A' for Active; 'I' for Inactive)
REMARK    1  A    between atoms: N1_2  and  C2_4 
REMARK    2  A    between atoms: C3_9  and  C4_10 
REMARK    3  A    between atoms: C4_10  and  N4_11 
REMARK    4  A    between atoms: N4_11  and  C5_14 
REMARK    5  A    between atoms: C5_14  and  C6_15 
REMARK    6  A    between atoms: C6_15  and  C7_16 
REMARK    7  A    between atoms: C7_16  and  N5_17 
ROOT
HETATM    1  C2  UNL     1      16.913   2.184   4.287  1.00  0.00     0.693 A 
HETATM    2  N2  UNL     1      15.809   1.534   4.677  1.00  0.00    -0.131 N 
ATOM      3  H2  UNL     1      15.789   0.655   5.194  1.00  0.00     0.205 HD
HETATM    4  N3  UNL     1      14.734   2.231   4.273  1.00  0.00    -0.273 N 
ATOM      5  H3  UNL     1      13.763   1.962   4.431  1.00  0.00     0.189 HD
HETATM    6  C3  UNL     1      15.124   3.300   3.652  1.00  0.00     0.138 A 
HETATM    7  N6  UNL     1      16.488   3.271   3.661  1.00  0.00    -0.176 N 
ATOM      8  H6  UNL     1      17.092   3.982   3.247  1.00  0.00     0.185 HD
ENDROOT
BRANCH   6   9
HETATM    9  C4  UNL     1      14.380   4.449   3.016  1.00  0.00     0.310 C 
BRANCH   9  10
HETATM   10  N4  UNL     1      13.560   5.013   4.090  1.00  0.00    -0.068 N 
ATOM     11  H42 UNL     1      13.926   4.755   5.007  1.00  0.00     0.277 HD
ATOM     12  H41 UNL     1      13.674   6.024   4.147  1.00  0.00     0.277 HD
BRANCH  10  13
HETATM   13  C5  UNL     1      12.196   4.659   3.966  1.00  0.00     0.234 C 
BRANCH  13  14
HETATM   14  C6  UNL     1      11.422   4.123   5.090  1.00  0.00     0.055 C 
BRANCH  14  15
HETATM   15  C7  UNL     1      11.397   5.277   6.122  1.00  0.00     0.231 C 
BRANCH  15  16
HETATM   16  N5  UNL     1      10.295   5.182   7.028  1.00  0.00    -0.079 N 
ATOM     17  H53 UNL     1       9.603   5.907   6.840  1.00  0.00     0.274 HD
ATOM     18  H52 UNL     1       9.728   4.357   6.830  1.00  0.00     0.274 HD
ATOM     19  H51 UNL     1      10.587   5.199   8.005  1.00  0.00     0.274 HD
ENDBRANCH  15  16
ENDBRANCH  14  15
ENDBRANCH  13  14
ENDBRANCH  10  13
ENDBRANCH   9  10
ENDBRANCH   6   9
BRANCH   1  20
HETATM   20  N1  UNL     1      18.085   1.742   4.541  1.00  0.00    -0.229 N 
HETATM   21  C1  UNL     1      19.300   1.974   3.856  1.00  0.00     0.165 C 
ATOM     22  H1  UNL     1      18.155   1.134   5.357  1.00  0.00     0.177 HD
ENDBRANCH   1  20
TORSDOF 7
ENDMDL
MODEL 3
REMARK VINA RESULT: -4.821081668      1.819      1.981
REMARK  7 active torsions:
REMARK  status: ('A' for Active; 'I' for Inactive)
REMARK    1  A    between atoms: N1_2  and  C2_4 
REMARK    2  A    between atoms: C3_9  and  C4_10 
REMARK    3  A    between atoms: C4_10  and  N4_11 
REMARK    4  A    between atoms: N4_11  and  C5_14 
REMARK    5  A    between atoms: C5_14  and  C6_15 
REMARK    6  A    between atoms: C6_15  and  C7_16 
REMARK    7  A    between atoms: C7_16  and  N5_17 
ROOT
HETATM    1  C2  UNL     1      18.822   2.223   3.801  1.00  0.00     0.693 A 
HETATM    2  N2  UNL     1      18.713   0.945   4.184  1.00  0.00    -0.131 N 
ATOM      3  H2  UNL     1      19.490   0.312   4.374  1.00  0.00     0.205 HD
HETATM    4  N3  UNL     1      17.408   0.633   4.275  1.00  0.00    -0.273 N 
ATOM      5  H3  UNL     1      17.037  -0.278   4.542  1.00  0.00     0.189 HD
HETATM    6  C3  UNL     1      16.697   1.673   3.972  1.00  0.00     0.138 A 
HETATM    7  N6  UNL     1      17.581   2.669   3.676  1.00  0.00    -0.176 N 
ATOM      8  H6  UNL     1      17.325   3.617   3.399  1.00  0.00     0.185 HD
ENDROOT
BRANCH   6   9
HETATM    9  C4  UNL     1      15.209   1.924   3.928  1.00  0.00     0.310 C 
BRANCH   9  10
HETATM   10  N4  UNL     1      15.047   3.325   4.318  1.00  0.00    -0.068 N 
ATOM     11  H42 UNL     1      14.882   3.412   5.322  1.00  0.00     0.277 HD
ATOM     12  H41 UNL     1      15.931   3.830   4.254  1.00  0.00     0.277 HD
BRANCH  10  13
HETATM   13  C5  UNL     1      14.033   3.976   3.576  1.00  0.00     0.234 C 
BRANCH  13  14
HETATM   14  C6  UNL     1      13.231   5.067   4.138  1.00  0.00     0.055 C 
BRANCH  14  15
HETATM   15  C7  UNL     1      11.961   4.368   4.683  1.00  0.00     0.231 C 
BRANCH  15  16
HETATM   16  N5  UNL     1      11.295   5.140   5.684  1.00  0.00    -0.079 N 
ATOM     17  H53 UNL     1      11.064   6.070   5.336  1.00  0.00     0.274 HD
ATOM     18  H52 UNL     1      10.352   4.788   5.851  1.00  0.00     0.274 HD
ATOM     19  H51 UNL     1      11.823   5.196   6.554  1.00  0.00     0.274 HD
ENDBRANCH  15  16
ENDBRANCH  14  15
ENDBRANCH  13  14
ENDBRANCH  10  13
ENDBRANCH   9  10
ENDBRANCH   6   9
BRANCH   1  20
HETATM   20  N1  UNL     1      19.958   2.786   3.635  1.00  0.00    -0.229 N 
HETATM   21  C1  UNL     1      20.467   3.970   4.216  1.00  0.00     0.165 C 
ATOM     22  H1  UNL     1      20.589   2.312   2.988  1.00  0.00     0.177 HD
ENDBRANCH   1  20
TORSDOF 7
ENDMDL
MODEL 4
REMARK VINA RESULT: -4.779658878      2.069      2.532
REMARK  7 active torsions:
REMARK  status: ('A' for Active; 'I' for Inactive)
REMARK    1  A    between atoms: N1_2  and  C2_4 
REMARK    2  A    between atoms: C3_9  and  C4_10 
REMARK    3  A    between atoms: C4_10  and  N4_11 
REMARK    4  A    between atoms: N4_11  and  C5_14 
REMARK    5  A    between atoms: C5_14  and  C6_15 
REMARK    6  A    between atoms: C6_15  and  C7_16 
REMARK    7  A    between atoms: C7_16  and  N5_17 
ROOT
HETATM    1  C2  UNL     1      18.567   2.825   3.925  1.00  0.00     0.693 A 
HETATM    2  N2  UNL     1      18.097   2.099   4.947  1.00  0.00    -0.131 N 
ATOM      3  H2  UNL     1      18.664   1.639   5.659  1.00  0.00     0.205 HD
HETATM    4  N3  UNL     1      16.755   2.076   4.877  1.00  0.00    -0.273 N 
ATOM      5  H3  UNL     1      16.139   1.590   5.528  1.00  0.00     0.189 HD
HETATM    6  C3  UNL     1      16.366   2.769   3.854  1.00  0.00     0.138 A 
HETATM    7  N6  UNL     1      17.500   3.239   3.257  1.00  0.00    -0.176 N 
ATOM      8  H6  UNL     1      17.523   3.824   2.421  1.00  0.00     0.185 HD
ENDROOT
BRANCH   6   9
HETATM    9  C4  UNL     1      15.004   3.114   3.303  1.00  0.00     0.310 C 
BRANCH   9  10
HETATM   10  N4  UNL     1      14.412   4.019   4.289  1.00  0.00    -0.068 N 
ATOM     11  H42 UNL     1      13.930   3.500   5.023  1.00  0.00     0.277 HD
ATOM     12  H41 UNL     1      15.131   4.470   4.854  1.00  0.00     0.277 HD
BRANCH  10  13
HETATM   13  C5  UNL     1      13.555   4.976   3.695  1.00  0.00     0.234 C 
BRANCH  13  14
HETATM   14  C6  UNL     1      12.113   4.754   3.555  1.00  0.00     0.055 C 
BRANCH  14  15
HETATM   15  C7  UNL     1      11.674   4.209   4.936  1.00  0.00     0.231 C 
BRANCH  15  16
HETATM   16  N5  UNL     1      11.235   5.242   5.822  1.00  0.00    -0.079 N 
ATOM     17  H53 UNL     1      10.314   5.587   5.553  1.00  0.00     0.274 HD
ATOM     18  H52 UNL     1      11.006   4.863   6.741  1.00  0.00     0.274 HD
ATOM     19  H51 UNL     1      11.905   6.007   5.897  1.00  0.00     0.274 HD
ENDBRANCH  15  16
ENDBRANCH  14  15
ENDBRANCH  13  14
ENDBRANCH  10  13
ENDBRANCH   9  10
ENDBRANCH   6   9
BRANCH   1  20
HETATM   20  N1  UNL     1      19.818   3.014   3.746  1.00  0.00    -0.229 N 
HETATM   21  C1  UNL     1      20.642   4.067   4.207  1.00  0.00     0.165 C 
ATOM     22  H1  UNL     1      20.292   2.302   3.190  1.00  0.00     0.177 HD
ENDBRANCH   1  20
TORSDOF 7
ENDMDL
MODEL 5
REMARK VINA RESULT: -4.772670593      1.805      5.681
REMARK  7 active torsions:
REMARK  status: ('A' for Active; 'I' for Inactive)
REMARK    1  A    between atoms: N1_2  and  C2_4 
REMARK    2  A    between atoms: C3_9  and  C4_10 
REMARK    3  A    between atoms: C4_10  and  N4_11 
REMARK    4  A    between atoms: N4_11  and  C5_14 
REMARK    5  A    between atoms: C5_14  and  C6_15 
REMARK    6  A    between atoms: C6_15  and  C7_16 
REMARK    7  A    between atoms: C7_16  and  N5_17 
ROOT
HETATM    1  C2  UNL     1      13.737   4.426   3.799  1.00  0.00     0.693 A 
HETATM    2  N2  UNL     1      14.305   3.277   4.185  1.00  0.00    -0.131 N 
ATOM      3  H2  UNL     1      13.811   2.461   4.544  1.00  0.00     0.205 HD
HETATM    4  N3  UNL     1      15.635   3.379   4.021  1.00  0.00    -0.273 N 
ATOM      5  H3  UNL     1      16.314   2.650   4.242  1.00  0.00     0.189 HD
HETATM    6  C3  UNL     1      15.920   4.547   3.538  1.00  0.00     0.138 A 
HETATM    7  N6  UNL     1      14.732   5.203   3.398  1.00  0.00    -0.176 N 
ATOM      8  H6  UNL     1      14.625   6.152   3.037  1.00  0.00     0.185 HD
ENDROOT
BRANCH   6   9
HETATM    9  C4  UNL     1      17.217   5.203   3.131  1.00  0.00     0.310 C 
BRANCH   9  10
HETATM   10  N4  UNL     1      18.049   4.115   2.615  1.00  0.00    -0.068 N 
ATOM     11  H42 UNL     1      17.502   3.265   2.480  1.00  0.00     0.277 HD
ATOM     12  H41 UNL     1      18.322   4.288   1.648  1.00  0.00     0.277 HD
BRANCH  10  13
HETATM   13  C5  UNL     1      19.180   3.870   3.429  1.00  0.00     0.234 C 
BRANCH  13  14
HETATM   14  C6  UNL     1      19.225   2.769   4.396  1.00  0.00     0.055 C 
BRANCH  14  15
HETATM   15  C7  UNL     1      18.857   1.515   3.564  1.00  0.00     0.231 C 
BRANCH  15  16
HETATM   16  N5  UNL     1      18.161   0.531   4.331  1.00  0.00    -0.079 N 
ATOM     17  H53 UNL     1      18.449  -0.411   4.066  1.00  0.00     0.274 HD
ATOM     18  H52 UNL     1      18.475   0.533   5.301  1.00  0.00     0.274 HD
ATOM     19  H51 UNL     1      17.147   0.633   4.274  1.00  0.00     0.274 HD
ENDBRANCH  15  16
ENDBRANCH  14  15
ENDBRANCH  13  14
ENDBRANCH  10  13
ENDBRANCH   9  10
ENDBRANCH   6   9
BRANCH   1  20
HETATM   20  N1  UNL     1      12.472   4.607   3.848  1.00  0.00    -0.229 N 
HETATM   21  C1  UNL     1      11.586   4.467   4.940  1.00  0.00     0.165 C 
ATOM     22  H1  UNL     1      12.039   4.896   2.970  1.00  0.00     0.177 HD
ENDBRANCH   1  20
TORSDOF 7
ENDMDL
