MODEL 1
REMARK VINA RESULT: -4.884306983      0.000      0.000
REMARK  7 active torsions:
REMARK  status: ('A' for Active; 'I' for Inactive)
REMARK    1  A    between atoms: N1_2  and  C2_5 
REMARK    2  A    between atoms: C2_5  and  C3_6 
REMARK    3  A    between atoms: C3_6  and  C4_7 
REMARK    4  A    between atoms: C4_7  and  N2_8 
REMARK    5  A    between atoms: N2_8  and  C5_11 
REMARK    6  A    between atoms: C7_13  and  N3_14 
REMARK    7  A    between atoms: C8_18  and  N4_19 
ROOT
HETATM    1  C5  UNL     1      16.763   2.474   3.746  1.00  0.00     0.190 C 
HETATM    2  C6  UNL     1      17.791   3.246   2.974  1.00  0.00     0.067 C 
HETATM    3  C7  UNL     1      18.959   3.330   3.968  1.00  0.00     0.215 C 
HETATM    4  C8  UNL     1      18.850   1.952   4.617  1.00  0.00     0.215 C 
HETATM    5  C9  UNL     1      17.374   2.047   5.060  1.00  0.00     0.067 C 
ENDROOT
BRANCH   1   6
HETATM    6  N2  UNL     1      15.555   3.213   3.851  1.00  0.00    -0.071 N 
ATOM      7  H22 UNL     1      15.547   3.819   4.671  1.00  0.00     0.277 HD
ATOM      8  H21 UNL     1      14.763   2.620   4.097  1.00  0.00     0.277 HD
BRANCH   6   9
HETATM    9  C4  UNL     1      15.324   3.949   2.627  1.00  0.00     0.234 C 
BRANCH   9  10
HETATM   10  C3  UNL     1      14.629   5.272   2.937  1.00  0.00     0.055 C 
BRANCH  10  11
HETATM   11  C2  UNL     1      13.752   4.999   4.156  1.00  0.00     0.233 C 
BRANCH  11  12
HETATM   12  N1  UNL     1      12.397   4.656   3.809  1.00  0.00    -0.079 N 
HETATM   13  C1  UNL     1      11.629   4.150   4.935  1.00  0.00     0.266 C 
ATOM     14  H12 UNL     1      12.377   3.997   3.030  1.00  0.00     0.276 HD
ATOM     15  H11 UNL     1      11.922   5.445   3.372  1.00  0.00     0.276 HD
ENDBRANCH  11  12
ENDBRANCH  10  11
ENDBRANCH   9  10
ENDBRANCH   6   9
ENDBRANCH   1   6
BRANCH   3  16
HETATM   16  N3  UNL     1      20.218   3.549   3.348  1.00  0.00    -0.073 N 
ATOM     17  H33 UNL     1      20.311   4.521   3.054  1.00  0.00     0.274 HD
ATOM     18  H32 UNL     1      20.970   3.507   4.036  1.00  0.00     0.274 HD
ATOM     19  H31 UNL     1      20.406   2.916   2.570  1.00  0.00     0.274 HD
ENDBRANCH   3  16
BRANCH   4  20
HETATM   20  N4  UNL     1      18.886   0.989   3.553  1.00  0.00    -0.073 N 
ATOM     21  H43 UNL     1      19.693   1.097   2.940  1.00  0.00     0.274 HD
ATOM     22  H42 UNL     1      19.092   0.043   3.873  1.00  0.00     0.274 HD
ATOM     23  H41 UNL     1      17.995   1.063   3.061  1.00  0.00     0.274 HD
ENDBRANCH   4  20
TORSDOF 7
ENDMDL
MODEL 2
REMARK VINA RESULT: -4.707658253      1.665      5.118
REMARK  7 active torsions:
REMARK  status: ('A' for Active; 'I' for Inactive)
REMARK    1  A    between atoms: N1_2  and  C2_5 
REMARK    2  A    between atoms: C2_5  and  C3_6 
REMARK    3  A    between atoms: C3_6  and  C4_7 
REMARK    4  A    between atoms: C4_7  and  N2_8 
REMARK    5  A    between atoms: N2_8  and  C5_11 
REMARK    6  A    between atoms: C7_13  and  N3_14 
REMARK    7  A    between atoms: C8_18  and  N4_19 
ROOT
HETATM    1  C5  UNL     1      16.623   4.136   2.389  1.00  0.00     0.190 C 
HETATM    2  C6  UNL     1      15.562   3.156   2.791  1.00  0.00     0.067 C 
HETATM    3  C7  UNL     1      14.945   3.823   4.029  1.00  0.00     0.215 C 
HETATM    4  C8  UNL     1      15.009   5.287   3.598  1.00  0.00     0.215 C 
HETATM    5  C9  UNL     1      16.521   5.345   3.288  1.00  0.00     0.067 C 
ENDROOT
BRANCH   1   6
HETATM    6  N2  UNL     1      17.897   3.511   2.356  1.00  0.00    -0.071 N 
ATOM      7  H22 UNL     1      18.348   3.609   1.447  1.00  0.00     0.277 HD
ATOM      8  H21 UNL     1      17.827   2.494   2.377  1.00  0.00     0.277 HD
BRANCH   6   9
HETATM    9  C4  UNL     1      18.721   4.021   3.430  1.00  0.00     0.234 C 
BRANCH   9  10
HETATM   10  C3  UNL     1      19.529   2.886   4.053  1.00  0.00     0.055 C 
BRANCH  10  11
HETATM   11  C2  UNL     1      18.502   1.951   4.686  1.00  0.00     0.233 C 
BRANCH  11  12
HETATM   12  N1  UNL     1      18.497   0.637   4.095  1.00  0.00    -0.079 N 
HETATM   13  C1  UNL     1      17.286  -0.114   4.383  1.00  0.00     0.266 C 
ATOM     14  H12 UNL     1      19.326   0.111   4.373  1.00  0.00     0.276 HD
ATOM     15  H11 UNL     1      18.661   0.690   3.090  1.00  0.00     0.276 HD
ENDBRANCH  11  12
ENDBRANCH  10  11
ENDBRANCH   9  10
ENDBRANCH   6   9
ENDBRANCH   1   6
BRANCH   3  16
HETATM   16  N3  UNL     1      13.622   3.389   4.309  1.00  0.00    -0.073 N 
ATOM     17  H33 UNL     1      12.994   4.187   4.407  1.00  0.00     0.274 HD
ATOM     18  H32 UNL     1      13.207   2.946   3.490  1.00  0.00     0.274 HD
ATOM     19  H31 UNL     1      13.557   2.777   5.122  1.00  0.00     0.274 HD
ENDBRANCH   3  16
BRANCH   4  20
HETATM   20  N4  UNL     1      14.340   5.373   2.331  1.00  0.00    -0.073 N 
ATOM     21  H43 UNL     1      13.378   5.702   2.405  1.00  0.00     0.274 HD
ATOM     22  H42 UNL     1      14.689   6.130   1.742  1.00  0.00     0.274 HD
ATOM     23  H41 UNL     1      14.418   4.455   1.894  1.00  0.00     0.274 HD
ENDBRANCH   4  20
TORSDOF 7
ENDMDL
MODEL 3
REMARK VINA RESULT: -4.693139128      1.328      5.680
REMARK  7 active torsions:
REMARK  status: ('A' for Active; 'I' for Inactive)
REMARK    1  A    between atoms: N1_2  and  C2_5 
REMARK    2  A    between atoms: C2_5  and  C3_6 
REMARK    3  A    between atoms: C3_6  and  C4_7 
REMARK    4  A    between atoms: C4_7  and  N2_8 
REMARK    5  A    between atoms: N2_8  and  C5_11 
REMARK    6  A    between atoms: C7_13  and  N3_14 
REMARK    7  A    between atoms: C8_18  and  N4_19 
ROOT
HETATM    1  C5  UNL     1      15.498   3.669   3.710  1.00  0.00     0.190 C 
HETATM    2  C6  UNL     1      14.056   3.263   3.775  1.00  0.00     0.067 C 
HETATM    3  C7  UNL     1      13.372   4.543   4.276  1.00  0.00     0.215 C 
HETATM    4  C8  UNL     1      14.206   5.591   3.543  1.00  0.00     0.215 C 
HETATM    5  C9  UNL     1      15.595   5.139   4.044  1.00  0.00     0.067 C 
ENDROOT
BRANCH   1   6
HETATM    6  N2  UNL     1      16.298   2.812   4.509  1.00  0.00    -0.071 N 
ATOM      7  H22 UNL     1      16.196   3.009   5.504  1.00  0.00     0.277 HD
ATOM      8  H21 UNL     1      17.292   3.020   4.419  1.00  0.00     0.277 HD
BRANCH   6   9
HETATM    9  C4  UNL     1      16.001   1.431   4.195  1.00  0.00     0.234 C 
BRANCH   9  10
HETATM   10  C3  UNL     1      17.257   0.578   4.353  1.00  0.00     0.055 C 
BRANCH  10  11
HETATM   11  C2  UNL     1      18.364   1.548   4.754  1.00  0.00     0.233 C 
BRANCH  11  12
HETATM   12  N1  UNL     1      19.472   1.549   3.835  1.00  0.00    -0.079 N 
HETATM   13  C1  UNL     1      19.958   2.885   3.526  1.00  0.00     0.266 C 
ATOM     14  H12 UNL     1      19.237   1.042   2.981  1.00  0.00     0.276 HD
ATOM     15  H11 UNL     1      20.229   0.958   4.177  1.00  0.00     0.276 HD
ENDBRANCH  11  12
ENDBRANCH  10  11
ENDBRANCH   9  10
ENDBRANCH   6   9
ENDBRANCH   1   6
BRANCH   3  16
HETATM   16  N3  UNL     1      11.991   4.614   3.954  1.00  0.00    -0.073 N 
ATOM     17  H33 UNL     1      11.618   3.684   3.759  1.00  0.00     0.274 HD
ATOM     18  H32 UNL     1      11.439   4.847   4.779  1.00  0.00     0.274 HD
ATOM     19  H31 UNL     1      11.783   5.254   3.188  1.00  0.00     0.274 HD
ENDBRANCH   3  16
BRANCH   4  20
HETATM   20  N4  UNL     1      14.158   5.254   2.148  1.00  0.00    -0.073 N 
ATOM     21  H43 UNL     1      14.744   4.456   1.906  1.00  0.00     0.274 HD
ATOM     22  H42 UNL     1      13.265   4.850   1.862  1.00  0.00     0.274 HD
ATOM     23  H41 UNL     1      14.400   6.101   1.633  1.00  0.00     0.274 HD
ENDBRANCH   4  20
TORSDOF 7
ENDMDL
MODEL 4
REMARK VINA RESULT: -4.672524201      7.055      9.265
REMARK  7 active torsions:
REMARK  status: ('A' for Active; 'I' for Inactive)
REMARK    1  A    between atoms: N1_2  and  C2_5 
REMARK    2  A    between atoms: C2_5  and  C3_6 
REMARK    3  A    between atoms: C3_6  and  C4_7 
REMARK    4  A    between atoms: C4_7  and  N2_8 
REMARK    5  A    between atoms: N2_8  and  C5_11 
REMARK    6  A    between atoms: C7_13  and  N3_14 
REMARK    7  A    between atoms: C8_18  and  N4_19 
ROOT
HETATM    1  C5  UNL     1      25.290   2.216  -0.449  1.00  0.00     0.190 C 
HETATM    2  C6  UNL     1      25.628   0.917   0.219  1.00  0.00     0.067 C 
HETATM    3  C7  UNL     1      24.656  -0.064  -0.454  1.00  0.00     0.215 C 
HETATM    4  C8  UNL     1      24.658   0.496  -1.874  1.00  0.00     0.215 C 
HETATM    5  C9  UNL     1      24.264   1.948  -1.524  1.00  0.00     0.067 C 
ENDROOT
BRANCH   1   6
HETATM    6  N2  UNL     1      24.919   3.193   0.512  1.00  0.00    -0.071 N 
ATOM      7  H22 UNL     1      25.666   3.867   0.681  1.00  0.00     0.277 HD
ATOM      8  H21 UNL     1      24.857   2.803   1.452  1.00  0.00     0.277 HD
BRANCH   6   9
HETATM    9  C4  UNL     1      23.688   3.835   0.108  1.00  0.00     0.234 C 
BRANCH   9  10
HETATM   10  C3  UNL     1      23.942   5.309  -0.196  1.00  0.00     0.055 C 
BRANCH  10  11
HETATM   11  C2  UNL     1      22.566   5.918  -0.452  1.00  0.00     0.233 C 
BRANCH  11  12
HETATM   12  N1  UNL     1      21.503   4.947  -0.403  1.00  0.00    -0.079 N 
HETATM   13  C1  UNL     1      20.327   5.422   0.309  1.00  0.00     0.266 C 
ATOM     14  H12 UNL     1      21.834   4.065  -0.011  1.00  0.00     0.276 HD
ATOM     15  H11 UNL     1      21.256   4.631  -1.340  1.00  0.00     0.276 HD
ENDBRANCH  11  12
ENDBRANCH  10  11
ENDBRANCH   9  10
ENDBRANCH   6   9
ENDBRANCH   1   6
BRANCH   3  16
HETATM   16  N3  UNL     1      25.083  -1.417  -0.395  1.00  0.00    -0.073 N 
ATOM     17  H33 UNL     1      24.458  -2.017  -0.934  1.00  0.00     0.274 HD
ATOM     18  H32 UNL     1      25.943  -1.548  -0.927  1.00  0.00     0.274 HD
ATOM     19  H31 UNL     1      25.191  -1.770   0.556  1.00  0.00     0.274 HD
ENDBRANCH   3  16
BRANCH   4  20
HETATM   20  N4  UNL     1      26.029   0.546  -2.296  1.00  0.00    -0.073 N 
ATOM     21  H43 UNL     1      26.411   1.492  -2.312  1.00  0.00     0.274 HD
ATOM     22  H42 UNL     1      26.676   0.157  -1.610  1.00  0.00     0.274 HD
ATOM     23  H41 UNL     1      26.074   0.080  -3.202  1.00  0.00     0.274 HD
ENDBRANCH   4  20
TORSDOF 7
ENDMDL
MODEL 5
REMARK VINA RESULT: -4.668244867      1.637      5.087
REMARK  7 active torsions:
REMARK  status: ('A' for Active; 'I' for Inactive)
REMARK    1  A    between atoms: N1_2  and  C2_5 
REMARK    2  A    between atoms: C2_5  and  C3_6 
REMARK    3  A    between atoms: C3_6  and  C4_7 
REMARK    4  A    between atoms: C4_7  and  N2_8 
REMARK    5  A    between atoms: N2_8  and  C5_11 
REMARK    6  A    between atoms: C7_13  and  N3_14 
REMARK    7  A    between atoms: C8_18  and  N4_19 
ROOT
HETATM    1  C5  UNL     1      16.555   4.300   3.492  1.00  0.00     0.190 C 
HETATM    2  C6  UNL     1      15.386   5.129   3.933  1.00  0.00     0.067 C 
HETATM    3  C7  UNL     1      14.251   4.604   3.042  1.00  0.00     0.215 C 
HETATM    4  C8  UNL     1      14.617   3.122   2.997  1.00  0.00     0.215 C 
HETATM    5  C9  UNL     1      16.067   3.281   2.489  1.00  0.00     0.067 C 
ENDROOT
BRANCH   1   6
HETATM    6  N2  UNL     1      17.618   5.127   3.046  1.00  0.00    -0.071 N 
ATOM      7  H22 UNL     1      17.885   5.819   3.747  1.00  0.00     0.277 HD
ATOM      8  H21 UNL     1      17.323   5.769   2.311  1.00  0.00     0.277 HD
BRANCH   6   9
HETATM    9  C4  UNL     1      18.738   4.309   2.635  1.00  0.00     0.234 C 
BRANCH   9  10
HETATM   10  C3  UNL     1      19.503   3.816   3.861  1.00  0.00     0.055 C 
BRANCH  10  11
HETATM   11  C2  UNL     1      19.547   2.296   3.732  1.00  0.00     0.233 C 
BRANCH  11  12
HETATM   12  N1  UNL     1      18.802   1.622   4.765  1.00  0.00    -0.079 N 
HETATM   13  C1  UNL     1      17.867   0.637   4.245  1.00  0.00     0.266 C 
ATOM     14  H12 UNL     1      18.325   2.294   5.366  1.00  0.00     0.276 HD
ATOM     15  H11 UNL     1      19.429   1.200   5.449  1.00  0.00     0.276 HD
ENDBRANCH  11  12
ENDBRANCH  10  11
ENDBRANCH   9  10
ENDBRANCH   6   9
ENDBRANCH   1   6
BRANCH   3  16
HETATM   16  N3  UNL     1      12.956   4.836   3.575  1.00  0.00    -0.073 N 
ATOM     17  H33 UNL     1      12.930   5.716   4.091  1.00  0.00     0.274 HD
ATOM     18  H32 UNL     1      12.293   5.056   2.832  1.00  0.00     0.274 HD
ATOM     19  H31 UNL     1      12.608   4.069   4.152  1.00  0.00     0.274 HD
ENDBRANCH   3  16
BRANCH   4  20
HETATM   20  N4  UNL     1      14.718   2.680   4.359  1.00  0.00    -0.073 N 
ATOM     21  H43 UNL     1      15.443   3.166   4.887  1.00  0.00     0.274 HD
ATOM     22  H42 UNL     1      13.926   2.967   4.935  1.00  0.00     0.274 HD
ATOM     23  H41 UNL     1      14.851   1.669   4.331  1.00  0.00     0.274 HD
ENDBRANCH   4  20
TORSDOF 7
ENDMDL
