MODEL 1
REMARK VINA RESULT: -6.218312660      0.000      0.000
REMARK  8 active torsions:
REMARK  status: ('A' for Active; 'I' for Inactive)
REMARK    1  A    between atoms: C2_2  and  C4_4 
REMARK    2  A    between atoms: C4_4  and  C5_5 
REMARK    3  A    between atoms: C5_5  and  O1_6 
REMARK    4  A    between atoms: C5_5  and  C6_8 
REMARK    5  A    between atoms: C6_8  and  C7_9 
REMARK    6  A    between atoms: C6_8  and  C8_13 
REMARK    7  A    between atoms: C9_15  and  N2_16 
REMARK    8  A    between atoms: N2_16  and  N3_17 
ROOT
HETATM    1  C6  UNL     1      18.386   3.152   4.201  1.00  0.00     0.085 C 
ENDROOT
BRANCH   1   2
HETATM    2  C5  UNL     1      17.376   3.253   3.048  1.00  0.00     0.130 C 
BRANCH   2   3
HETATM    3  C4  UNL     1      16.646   4.539   3.196  1.00  0.00     0.036 C 
BRANCH   3   4
HETATM    4  C2  UNL     1      15.291   4.504   3.771  1.00  0.00    -0.020 C 
HETATM    5  C1  UNL     1      14.335   5.535   3.221  1.00  0.00     0.009 C 
HETATM    6  C3  UNL     1      14.592   3.170   3.655  1.00  0.00     0.009 C 
ENDBRANCH   3   4
ENDBRANCH   2   3
BRANCH   2   7
HETATM    7  O1  UNL     1      18.021   3.199   1.829  1.00  0.00    -0.395 OA
ATOM      8  H1  UNL     1      18.901   3.549   1.902  1.00  0.00     0.210 HD
ENDBRANCH   2   7
ENDBRANCH   1   2
BRANCH   1   9
HETATM    9  C7  UNL     1      18.319   1.751   4.712  1.00  0.00     0.062 C 
HETATM   10  N1  UNL     1      18.494   0.730   3.972  1.00  0.00    -0.411 N 
ATOM     11  H12 UNL     1      18.690   0.894   2.985  1.00  0.00     0.155 HD
ATOM     12  H11 UNL     1      18.448  -0.228   4.321  1.00  0.00     0.155 HD
ENDBRANCH   1   9
BRANCH   1  13
HETATM   13  C8  UNL     1      19.794   3.399   3.775  1.00  0.00     0.181 A 
HETATM   14  O2  UNL     1      20.078   4.798   3.501  1.00  0.00    -0.355 OA
HETATM   15  C9  UNL     1      20.817   4.092   4.502  1.00  0.00     0.264 A 
BRANCH  15  16
HETATM   16  N2  UNL     1      22.202   3.907   4.057  1.00  0.00    -0.113 NA
BRANCH  16  17
HETATM   17  N3  UNL     1      22.209   3.146   2.911  1.00  0.00    -0.346 N 
ATOM     18  H32 UNL     1      21.705   2.267   2.795  1.00  0.00     0.172 HD
ATOM     19  H31 UNL     1      22.795   3.602   2.211  1.00  0.00     0.172 HD
ENDBRANCH  16  17
ENDBRANCH  15  16
ENDBRANCH   1  13
TORSDOF 8
ENDMDL
MODEL 2
REMARK VINA RESULT: -5.763287034      3.564      5.819
REMARK  8 active torsions:
REMARK  status: ('A' for Active; 'I' for Inactive)
REMARK    1  A    between atoms: C2_2  and  C4_4 
REMARK    2  A    between atoms: C4_4  and  C5_5 
REMARK    3  A    between atoms: C5_5  and  O1_6 
REMARK    4  A    between atoms: C5_5  and  C6_8 
REMARK    5  A    between atoms: C6_8  and  C7_9 
REMARK    6  A    between atoms: C6_8  and  C8_13 
REMARK    7  A    between atoms: C9_15  and  N2_16 
REMARK    8  A    between atoms: N2_16  and  N3_17 
ROOT
HETATM    1  C6  UNL     1      15.492   4.066   2.962  1.00  0.00     0.085 C 
ENDROOT
BRANCH   1   2
HETATM    2  C5  UNL     1      16.908   4.451   3.418  1.00  0.00     0.130 C 
BRANCH   2   3
HETATM    3  C4  UNL     1      17.872   3.607   2.666  1.00  0.00     0.036 C 
BRANCH   3   4
HETATM    4  C2  UNL     1      19.019   3.043   3.398  1.00  0.00    -0.020 C 
HETATM    5  C1  UNL     1      20.028   4.054   3.884  1.00  0.00     0.009 C 
HETATM    6  C3  UNL     1      18.647   2.201   4.597  1.00  0.00     0.009 C 
ENDBRANCH   3   4
ENDBRANCH   2   3
BRANCH   2   7
HETATM    7  O1  UNL     1      17.149   5.789   3.184  1.00  0.00    -0.395 OA
ATOM      8  H1  UNL     1      17.870   5.897   2.575  1.00  0.00     0.210 HD
ENDBRANCH   2   7
ENDBRANCH   1   2
BRANCH   1   9
HETATM    9  C7  UNL     1      15.369   2.589   3.139  1.00  0.00     0.062 C 
HETATM   10  N1  UNL     1      14.999   2.045   4.228  1.00  0.00    -0.411 N 
ATOM     11  H12 UNL     1      14.779   2.663   5.010  1.00  0.00     0.155 HD
ATOM     12  H11 UNL     1      14.914   1.036   4.349  1.00  0.00     0.155 HD
ENDBRANCH   1   9
BRANCH   1  13
HETATM   13  C8  UNL     1      14.417   4.700   3.780  1.00  0.00     0.181 A 
HETATM   14  O2  UNL     1      13.947   5.964   3.238  1.00  0.00    -0.355 OA
HETATM   15  C9  UNL     1      13.039   4.875   3.425  1.00  0.00     0.264 A 
BRANCH  15  16
HETATM   16  N2  UNL     1      12.100   5.192   4.506  1.00  0.00    -0.113 NA
BRANCH  16  17
HETATM   17  N3  UNL     1      11.572   4.022   5.002  1.00  0.00    -0.346 N 
ATOM     18  H32 UNL     1      12.078   3.139   5.065  1.00  0.00     0.172 HD
ATOM     19  H31 UNL     1      10.607   4.186   5.289  1.00  0.00     0.172 HD
ENDBRANCH  16  17
ENDBRANCH  15  16
ENDBRANCH   1  13
TORSDOF 8
ENDMDL
MODEL 3
REMARK VINA RESULT: -5.744759173      0.676      1.056
REMARK  8 active torsions:
REMARK  status: ('A' for Active; 'I' for Inactive)
REMARK    1  A    between atoms: C2_2  and  C4_4 
REMARK    2  A    between atoms: C4_4  and  C5_5 
REMARK    3  A    between atoms: C5_5  and  O1_6 
REMARK    4  A    between atoms: C5_5  and  C6_8 
REMARK    5  A    between atoms: C6_8  and  C7_9 
REMARK    6  A    between atoms: C6_8  and  C8_13 
REMARK    7  A    between atoms: C9_15  and  N2_16 
REMARK    8  A    between atoms: N2_16  and  N3_17 
ROOT
HETATM    1  C6  UNL     1      18.348   2.848   4.231  1.00  0.00     0.085 C 
ENDROOT
BRANCH   1   2
HETATM    2  C5  UNL     1      17.271   2.699   3.145  1.00  0.00     0.130 C 
BRANCH   2   3
HETATM    3  C4  UNL     1      16.073   3.458   3.588  1.00  0.00     0.036 C 
BRANCH   3   4
HETATM    4  C2  UNL     1      15.695   4.661   2.827  1.00  0.00    -0.020 C 
HETATM    5  C1  UNL     1      14.226   5.005   2.861  1.00  0.00     0.009 C 
HETATM    6  C3  UNL     1      16.437   5.917   3.226  1.00  0.00     0.009 C 
ENDBRANCH   3   4
ENDBRANCH   2   3
BRANCH   2   7
HETATM    7  O1  UNL     1      17.730   3.179   1.935  1.00  0.00    -0.395 OA
ATOM      8  H1  UNL     1      17.061   3.091   1.266  1.00  0.00     0.210 HD
ENDBRANCH   2   7
ENDBRANCH   1   2
BRANCH   1   9
HETATM    9  C7  UNL     1      18.527   1.501   4.848  1.00  0.00     0.062 C 
HETATM   10  N1  UNL     1      18.142   0.422   4.293  1.00  0.00    -0.411 N 
ATOM     11  H12 UNL     1      17.690   0.499   3.382  1.00  0.00     0.155 HD
ATOM     12  H11 UNL     1      18.264  -0.498   4.715  1.00  0.00     0.155 HD
ENDBRANCH   1   9
BRANCH   1  13
HETATM   13  C8  UNL     1      19.674   3.266   3.692  1.00  0.00     0.181 A 
HETATM   14  O2  UNL     1      19.838   4.708   3.610  1.00  0.00    -0.355 OA
HETATM   15  C9  UNL     1      20.736   3.923   4.398  1.00  0.00     0.264 A 
BRANCH  15  16
HETATM   16  N2  UNL     1      22.064   3.915   3.775  1.00  0.00    -0.113 NA
BRANCH  16  17
HETATM   17  N3  UNL     1      22.158   2.836   2.927  1.00  0.00    -0.346 N 
ATOM     18  H32 UNL     1      22.648   2.842   2.033  1.00  0.00     0.172 HD
ATOM     19  H31 UNL     1      21.663   2.044   3.337  1.00  0.00     0.172 HD
ENDBRANCH  16  17
ENDBRANCH  15  16
ENDBRANCH   1  13
TORSDOF 8
ENDMDL
MODEL 4
REMARK VINA RESULT: -5.740462099      2.090      2.411
REMARK  8 active torsions:
REMARK  status: ('A' for Active; 'I' for Inactive)
REMARK    1  A    between atoms: C2_2  and  C4_4 
REMARK    2  A    between atoms: C4_4  and  C5_5 
REMARK    3  A    between atoms: C5_5  and  O1_6 
REMARK    4  A    between atoms: C5_5  and  C6_8 
REMARK    5  A    between atoms: C6_8  and  C7_9 
REMARK    6  A    between atoms: C6_8  and  C8_13 
REMARK    7  A    between atoms: C9_15  and  N2_16 
REMARK    8  A    between atoms: N2_16  and  N3_17 
ROOT
HETATM    1  C6  UNL     1      17.684   3.214   3.650  1.00  0.00     0.085 C 
ENDROOT
BRANCH   1   2
HETATM    2  C5  UNL     1      16.189   2.865   3.596  1.00  0.00     0.130 C 
BRANCH   2   3
HETATM    3  C4  UNL     1      15.591   3.607   2.456  1.00  0.00     0.036 C 
BRANCH   3   4
HETATM    4  C2  UNL     1      14.537   4.593   2.748  1.00  0.00    -0.020 C 
HETATM    5  C1  UNL     1      13.697   4.292   3.965  1.00  0.00     0.009 C 
HETATM    6  C3  UNL     1      15.029   6.013   2.909  1.00  0.00     0.009 C 
ENDBRANCH   3   4
ENDBRANCH   2   3
BRANCH   2   7
HETATM    7  O1  UNL     1      16.011   1.506   3.437  1.00  0.00    -0.395 OA
ATOM      8  H1  UNL     1      16.496   1.026   4.098  1.00  0.00     0.210 HD
ENDBRANCH   2   7
ENDBRANCH   1   2
BRANCH   1   9
HETATM    9  C7  UNL     1      18.428   1.922   3.682  1.00  0.00     0.062 C 
HETATM   10  N1  UNL     1      18.811   1.362   4.759  1.00  0.00    -0.411 N 
ATOM     11  H12 UNL     1      18.590   1.834   5.636  1.00  0.00     0.155 HD
ATOM     12  H11 UNL     1      19.320   0.479   4.781  1.00  0.00     0.155 HD
ENDBRANCH   1   9
BRANCH   1  13
HETATM   13  C8  UNL     1      18.157   3.967   2.452  1.00  0.00     0.181 A 
HETATM   14  O2  UNL     1      18.546   5.336   2.744  1.00  0.00    -0.355 OA
HETATM   15  C9  UNL     1      19.489   4.422   2.176  1.00  0.00     0.264 A 
BRANCH  15  16
HETATM   16  N2  UNL     1      19.792   4.817   0.796  1.00  0.00    -0.113 NA
BRANCH  16  17
HETATM   17  N3  UNL     1      19.954   6.182   0.744  1.00  0.00    -0.346 N 
ATOM     18  H32 UNL     1      20.855   6.657   0.683  1.00  0.00     0.172 HD
ATOM     19  H31 UNL     1      19.038   6.629   0.777  1.00  0.00     0.172 HD
ENDBRANCH  16  17
ENDBRANCH  15  16
ENDBRANCH   1  13
TORSDOF 8
ENDMDL
MODEL 5
REMARK VINA RESULT: -5.601920117      1.869      2.103
REMARK  8 active torsions:
REMARK  status: ('A' for Active; 'I' for Inactive)
REMARK    1  A    between atoms: C2_2  and  C4_4 
REMARK    2  A    between atoms: C4_4  and  C5_5 
REMARK    3  A    between atoms: C5_5  and  O1_6 
REMARK    4  A    between atoms: C5_5  and  C6_8 
REMARK    5  A    between atoms: C6_8  and  C7_9 
REMARK    6  A    between atoms: C6_8  and  C8_13 
REMARK    7  A    between atoms: C9_15  and  N2_16 
REMARK    8  A    between atoms: N2_16  and  N3_17 
ROOT
HETATM    1  C6  UNL     1      17.639   2.928   3.883  1.00  0.00     0.085 C 
ENDROOT
BRANCH   1   2
HETATM    2  C5  UNL     1      16.135   2.616   3.892  1.00  0.00     0.130 C 
BRANCH   2   3
HETATM    3  C4  UNL     1      15.466   3.585   2.985  1.00  0.00     0.036 C 
BRANCH   3   4
HETATM    4  C2  UNL     1      14.779   4.739   3.589  1.00  0.00    -0.020 C 
HETATM    5  C1  UNL     1      15.011   6.058   2.894  1.00  0.00     0.009 C 
HETATM    6  C3  UNL     1      13.282   4.583   3.721  1.00  0.00     0.009 C 
ENDBRANCH   3   4
ENDBRANCH   2   3
BRANCH   2   7
HETATM    7  O1  UNL     1      15.903   1.321   3.475  1.00  0.00    -0.395 OA
ATOM      8  H1  UNL     1      16.599   1.026   2.900  1.00  0.00     0.210 HD
ENDBRANCH   2   7
ENDBRANCH   1   2
BRANCH   1   9
HETATM    9  C7  UNL     1      18.348   1.626   3.715  1.00  0.00     0.062 C 
HETATM   10  N1  UNL     1      18.534   0.803   4.668  1.00  0.00    -0.411 N 
ATOM     11  H12 UNL     1      18.173   1.061   5.587  1.00  0.00     0.155 HD
ATOM     12  H11 UNL     1      19.019  -0.087   4.553  1.00  0.00     0.155 HD
ENDBRANCH   1   9
BRANCH   1  13
HETATM   13  C8  UNL     1      18.052   3.805   2.750  1.00  0.00     0.181 A 
HETATM   14  O2  UNL     1      18.504   5.121   3.170  1.00  0.00    -0.355 OA
HETATM   15  C9  UNL     1      19.376   4.259   2.433  1.00  0.00     0.264 A 
BRANCH  15  16
HETATM   16  N2  UNL     1      19.596   4.807   1.091  1.00  0.00    -0.113 NA
BRANCH  16  17
HETATM   17  N3  UNL     1      20.932   5.097   0.936  1.00  0.00    -0.346 N 
ATOM     18  H32 UNL     1      21.327   6.038   0.958  1.00  0.00     0.172 HD
ATOM     19  H31 UNL     1      21.449   4.229   0.799  1.00  0.00     0.172 HD
ENDBRANCH  16  17
ENDBRANCH  15  16
ENDBRANCH   1  13
TORSDOF 8
ENDMDL
