MODEL 1
REMARK VINA RESULT: -7.850445398      0.000      0.000
REMARK  16 active torsions:
REMARK  status: ('A' for Active; 'I' for Inactive)
REMARK    1  A    between atoms: C3_5  and  C4_6 
REMARK    2  A    between atoms: C4_6  and  C5_7 
REMARK    3  A    between atoms: C5_7  and  O1_8 
REMARK    4  A    between atoms: C5_7  and  N2_10 
REMARK    5  A    between atoms: N2_10  and  C6_12 
REMARK    6  A    between atoms: N4_17  and  C9_18 
REMARK    7  A    between atoms: N4_17  and  C11_20 
REMARK    8  A    between atoms: C11_20  and  C12_21 
REMARK    9  A    between atoms: C12_21  and  N5_22 
REMARK       I    between atoms: N5_22  and  C13_24 
REMARK   10  A    between atoms: C13_24  and  C14_26 
REMARK   11  A    between atoms: C14_26  and  C15_27 
REMARK   12  A    between atoms: C15_27  and  C16_28 
REMARK   13  A    between atoms: C16_28  and  C17_29 
REMARK   14  A    between atoms: C18_32  and  C19_33 
REMARK   15  A    between atoms: C19_33  and  O3_34 
REMARK   16  A    between atoms: C19_33  and  N7_36 
ROOT
HETATM    1  N5  UNL     1      15.722   5.278  23.645  1.00  0.00    -0.360 N 
ATOM      2  H5  UNL     1      15.591   6.183  23.193  1.00  0.00     0.162 HD
HETATM    3  C13 UNL     1      15.130   5.105  24.914  1.00  0.00     0.217 C 
HETATM    4  O2  UNL     1      15.246   4.037  25.527  1.00  0.00    -0.274 OA
ENDROOT
BRANCH   1   5
HETATM    5  C12 UNL     1      16.501   4.283  22.920  1.00  0.00     0.142 C 
BRANCH   5   6
HETATM    6  C11 UNL     1      17.311   4.911  21.850  1.00  0.00     0.144 C 
BRANCH   6   7
HETATM    7  N4  UNL     1      18.401   4.102  21.390  1.00  0.00    -0.364 N 
HETATM    8  C8  UNL     1      18.662   3.833  20.139  1.00  0.00     0.131 A 
HETATM    9  C2  UNL     1      18.016   4.264  19.016  1.00  0.00     0.068 A 
HETATM   10  N3  UNL     1      19.596   2.963  19.708  1.00  0.00    -0.327 N 
HETATM   11  C1  UNL     1      17.070   5.131  18.803  1.00  0.00     0.047 C 
HETATM   12  N1  UNL     1      18.596   3.617  17.946  1.00  0.00    -0.340 N 
HETATM   13  C3  UNL     1      19.563   2.820  18.350  1.00  0.00     0.111 A 
ATOM     14  H1  UNL     1      18.314   3.739  16.973  1.00  0.00     0.167 HD
ATOM     15  H3  UNL     1      20.247   2.472  20.320  1.00  0.00     0.169 HD
BRANCH  13  16
HETATM   16  C4  UNL     1      20.362   2.012  17.732  1.00  0.00     0.104 C 
BRANCH  16  17
HETATM   17  C5  UNL     1      21.728   1.673  17.911  1.00  0.00     0.139 C 
BRANCH  17  18
HETATM   18  O1  UNL     1      22.626   2.459  17.321  1.00  0.00    -0.346 OA
ATOM     19  H1  UNL     1      22.771   3.313  17.710  1.00  0.00     0.219 HD
ENDBRANCH  17  18
BRANCH  17  20
HETATM   20  N2  UNL     1      22.265   0.606  18.643  1.00  0.00    -0.371 N 
ATOM     21  H2  UNL     1      22.654  -0.199  18.151  1.00  0.00     0.161 HD
BRANCH  20  22
HETATM   22  C6  UNL     1      22.273   0.637  20.124  1.00  0.00     0.117 C 
HETATM   23  C7  UNL     1      23.049   1.820  20.637  1.00  0.00     0.026 C 
ENDBRANCH  20  22
ENDBRANCH  17  20
ENDBRANCH  16  17
ENDBRANCH  13  16
BRANCH   7  24
HETATM   24  C9  UNL     1      19.259   3.519  22.399  1.00  0.00     0.120 C 
HETATM   25  C10 UNL     1      20.281   4.469  22.965  1.00  0.00     0.026 C 
ENDBRANCH   7  24
ENDBRANCH   6   7
ENDBRANCH   5   6
ENDBRANCH   1   5
BRANCH   3  26
HETATM   26  C14 UNL     1      14.339   6.222  25.546  1.00  0.00     0.103 C 
BRANCH  26  27
HETATM   27  C15 UNL     1      14.882   7.512  25.029  1.00  0.00     0.017 C 
BRANCH  27  28
HETATM   28  C16 UNL     1      15.812   8.251  25.879  1.00  0.00     0.077 C 
BRANCH  28  29
HETATM   29  C17 UNL     1      17.169   7.739  26.069  1.00  0.00     0.083 A 
HETATM   30  N6  UNL     1      17.581   7.442  27.341  1.00  0.00    -0.341 N 
HETATM   31  C18 UNL     1      18.863   6.987  27.282  1.00  0.00     0.100 A 
ATOM     32  H6  UNL     1      17.023   7.545  28.188  1.00  0.00     0.167 HD
HETATM   33  C27 UNL     1      19.194   7.027  25.963  1.00  0.00     0.125 A 
HETATM   34  N8  UNL     1      18.142   7.495  25.212  1.00  0.00    -0.349 N 
HETATM   35  C28 UNL     1      18.211   7.696  23.755  1.00  0.00     0.156 C 
BRANCH  31  36
HETATM   36  C19 UNL     1      19.625   6.596  28.473  1.00  0.00     0.167 C 
BRANCH  36  37
HETATM   37  O3  UNL     1      19.223   5.488  29.054  1.00  0.00    -0.344 OA
ATOM     38  H3  UNL     1      19.918   4.901  29.328  1.00  0.00     0.219 HD
ENDBRANCH  36  37
BRANCH  36  39
HETATM   39  N7  UNL     1      20.699   7.201  29.088  1.00  0.00    -0.360 N 
HETATM   40  C20 UNL     1      20.492   8.429  29.791  1.00  0.00     0.125 C 
HETATM   41  C21 UNL     1      21.792   8.949  30.405  1.00  0.00     0.020 C 
HETATM   42  C22 UNL     1      22.717   9.593  29.456  1.00  0.00     0.002 C 
HETATM   43  C23 UNL     1      22.602   9.225  28.022  1.00  0.00     0.000 C 
HETATM   44  C24 UNL     1      23.407   7.951  27.723  1.00  0.00     0.002 C 
HETATM   45  C25 UNL     1      22.440   6.792  27.506  1.00  0.00     0.020 C 
HETATM   46  C26 UNL     1      21.954   6.396  28.884  1.00  0.00     0.125 C 
ENDBRANCH  36  39
ENDBRANCH  31  36
ENDBRANCH  28  29
ENDBRANCH  27  28
ENDBRANCH  26  27
ENDBRANCH   3  26
TORSDOF 16
ENDMDL
MODEL 2
REMARK VINA RESULT: -7.747142755      0.736      1.655
REMARK  16 active torsions:
REMARK  status: ('A' for Active; 'I' for Inactive)
REMARK    1  A    between atoms: C3_5  and  C4_6 
REMARK    2  A    between atoms: C4_6  and  C5_7 
REMARK    3  A    between atoms: C5_7  and  O1_8 
REMARK    4  A    between atoms: C5_7  and  N2_10 
REMARK    5  A    between atoms: N2_10  and  C6_12 
REMARK    6  A    between atoms: N4_17  and  C9_18 
REMARK    7  A    between atoms: N4_17  and  C11_20 
REMARK    8  A    between atoms: C11_20  and  C12_21 
REMARK    9  A    between atoms: C12_21  and  N5_22 
REMARK       I    between atoms: N5_22  and  C13_24 
REMARK   10  A    between atoms: C13_24  and  C14_26 
REMARK   11  A    between atoms: C14_26  and  C15_27 
REMARK   12  A    between atoms: C15_27  and  C16_28 
REMARK   13  A    between atoms: C16_28  and  C17_29 
REMARK   14  A    between atoms: C18_32  and  C19_33 
REMARK   15  A    between atoms: C19_33  and  O3_34 
REMARK   16  A    between atoms: C19_33  and  N7_36 
ROOT
HETATM    1  N5  UNL     1      15.495   5.468  23.742  1.00  0.00    -0.360 N 
ATOM      2  H5  UNL     1      15.376   6.416  23.385  1.00  0.00     0.162 HD
HETATM    3  C13 UNL     1      14.999   5.205  25.036  1.00  0.00     0.217 C 
HETATM    4  O2  UNL     1      15.108   4.080  25.540  1.00  0.00    -0.274 OA
ENDROOT
BRANCH   1   5
HETATM    5  C12 UNL     1      16.161   4.512  22.869  1.00  0.00     0.142 C 
BRANCH   5   6
HETATM    6  C11 UNL     1      16.912   5.198  21.792  1.00  0.00     0.144 C 
BRANCH   6   7
HETATM    7  N4  UNL     1      17.235   4.360  20.676  1.00  0.00    -0.364 N 
HETATM    8  C8  UNL     1      18.400   3.812  20.459  1.00  0.00     0.131 A 
HETATM    9  C2  UNL     1      19.531   3.870  21.222  1.00  0.00     0.068 A 
HETATM   10  N3  UNL     1      18.750   3.140  19.345  1.00  0.00    -0.327 N 
HETATM   11  C1  UNL     1      19.790   4.343  22.406  1.00  0.00     0.047 C 
HETATM   12  N1  UNL     1      20.526   3.227  20.517  1.00  0.00    -0.340 N 
HETATM   13  C3  UNL     1      20.066   2.775  19.368  1.00  0.00     0.111 A 
ATOM     14  H1  UNL     1      21.486   3.118  20.840  1.00  0.00     0.167 HD
ATOM     15  H3  UNL     1      18.111   2.932  18.578  1.00  0.00     0.169 HD
BRANCH  13  16
HETATM   16  C4  UNL     1      20.613   2.140  18.383  1.00  0.00     0.104 C 
BRANCH  16  17
HETATM   17  C5  UNL     1      21.938   1.701  18.130  1.00  0.00     0.139 C 
BRANCH  17  18
HETATM   18  O1  UNL     1      22.620   2.353  17.191  1.00  0.00    -0.346 OA
ATOM     19  H1  UNL     1      22.911   1.847  16.442  1.00  0.00     0.219 HD
ENDBRANCH  17  18
BRANCH  17  20
HETATM   20  N2  UNL     1      22.635   0.656  18.750  1.00  0.00    -0.371 N 
ATOM     21  H2  UNL     1      22.614  -0.278  18.343  1.00  0.00     0.161 HD
BRANCH  20  22
HETATM   22  C6  UNL     1      23.404   0.899  19.994  1.00  0.00     0.117 C 
HETATM   23  C7  UNL     1      24.265  -0.285  20.339  1.00  0.00     0.026 C 
ENDBRANCH  20  22
ENDBRANCH  17  20
ENDBRANCH  16  17
ENDBRANCH  13  16
BRANCH   7  24
HETATM   24  C9  UNL     1      16.188   4.128  19.703  1.00  0.00     0.120 C 
HETATM   25  C10 UNL     1      15.521   5.382  19.203  1.00  0.00     0.026 C 
ENDBRANCH   7  24
ENDBRANCH   6   7
ENDBRANCH   5   6
ENDBRANCH   1   5
BRANCH   3  26
HETATM   26  C14 UNL     1      14.320   6.293  25.829  1.00  0.00     0.103 C 
BRANCH  26  27
HETATM   27  C15 UNL     1      14.737   7.603  25.252  1.00  0.00     0.017 C 
BRANCH  27  28
HETATM   28  C16 UNL     1      15.747   8.376  25.971  1.00  0.00     0.077 C 
BRANCH  28  29
HETATM   29  C17 UNL     1      17.094   7.825  26.125  1.00  0.00     0.083 A 
HETATM   30  N6  UNL     1      17.527   7.506  27.384  1.00  0.00    -0.341 N 
HETATM   31  C18 UNL     1      18.794   7.017  27.291  1.00  0.00     0.100 A 
ATOM     32  H6  UNL     1      16.992   7.616  28.245  1.00  0.00     0.167 HD
HETATM   33  C27 UNL     1      19.095   7.059  25.965  1.00  0.00     0.125 A 
HETATM   34  N8  UNL     1      18.039   7.562  25.243  1.00  0.00    -0.349 N 
HETATM   35  C28 UNL     1      18.079   7.774  23.787  1.00  0.00     0.156 C 
BRANCH  31  36
HETATM   36  C19 UNL     1      19.573   6.594  28.461  1.00  0.00     0.167 C 
BRANCH  36  37
HETATM   37  O3  UNL     1      19.187   5.464  29.009  1.00  0.00    -0.344 OA
ATOM     38  H3  UNL     1      18.411   5.525  29.554  1.00  0.00     0.219 HD
ENDBRANCH  36  37
BRANCH  36  39
HETATM   39  N7  UNL     1      20.647   7.189  29.083  1.00  0.00    -0.360 N 
HETATM   40  C20 UNL     1      20.444   8.410  29.798  1.00  0.00     0.125 C 
HETATM   41  C21 UNL     1      21.745   8.920  30.420  1.00  0.00     0.020 C 
HETATM   42  C22 UNL     1      22.674   9.570  29.479  1.00  0.00     0.002 C 
HETATM   43  C23 UNL     1      22.560   9.217  28.041  1.00  0.00     0.000 C 
HETATM   44  C24 UNL     1      23.360   7.943  27.730  1.00  0.00     0.002 C 
HETATM   45  C25 UNL     1      22.390   6.791  27.500  1.00  0.00     0.020 C 
HETATM   46  C26 UNL     1      21.900   6.382  28.873  1.00  0.00     0.125 C 
ENDBRANCH  36  39
ENDBRANCH  31  36
ENDBRANCH  28  29
ENDBRANCH  27  28
ENDBRANCH  26  27
ENDBRANCH   3  26
TORSDOF 16
ENDMDL
MODEL 3
REMARK VINA RESULT: -7.607668691      2.161      3.489
REMARK  16 active torsions:
REMARK  status: ('A' for Active; 'I' for Inactive)
REMARK    1  A    between atoms: C3_5  and  C4_6 
REMARK    2  A    between atoms: C4_6  and  C5_7 
REMARK    3  A    between atoms: C5_7  and  O1_8 
REMARK    4  A    between atoms: C5_7  and  N2_10 
REMARK    5  A    between atoms: N2_10  and  C6_12 
REMARK    6  A    between atoms: N4_17  and  C9_18 
REMARK    7  A    between atoms: N4_17  and  C11_20 
REMARK    8  A    between atoms: C11_20  and  C12_21 
REMARK    9  A    between atoms: C12_21  and  N5_22 
REMARK       I    between atoms: N5_22  and  C13_24 
REMARK   10  A    between atoms: C13_24  and  C14_26 
REMARK   11  A    between atoms: C14_26  and  C15_27 
REMARK   12  A    between atoms: C15_27  and  C16_28 
REMARK   13  A    between atoms: C16_28  and  C17_29 
REMARK   14  A    between atoms: C18_32  and  C19_33 
REMARK   15  A    between atoms: C19_33  and  O3_34 
REMARK   16  A    between atoms: C19_33  and  N7_36 
ROOT
HETATM    1  N5  UNL     1      17.528   4.796  20.707  1.00  0.00    -0.360 N 
ATOM      2  H5  UNL     1      18.264   4.609  21.388  1.00  0.00     0.162 HD
HETATM    3  C13 UNL     1      16.469   5.630  21.124  1.00  0.00     0.217 C 
HETATM    4  O2  UNL     1      15.537   5.901  20.357  1.00  0.00    -0.274 OA
ENDROOT
BRANCH   1   5
HETATM    5  C12 UNL     1      17.667   4.177  19.397  1.00  0.00     0.142 C 
BRANCH   5   6
HETATM    6  C11 UNL     1      18.223   2.807  19.504  1.00  0.00     0.144 C 
BRANCH   6   7
HETATM    7  N4  UNL     1      19.649   2.743  19.381  1.00  0.00    -0.364 N 
HETATM    8  C8  UNL     1      20.478   2.492  20.359  1.00  0.00     0.131 A 
HETATM    9  C2  UNL     1      20.202   2.208  21.666  1.00  0.00     0.068 A 
HETATM   10  N3  UNL     1      21.820   2.568  20.281  1.00  0.00    -0.327 N 
HETATM   11  C1  UNL     1      19.102   1.974  22.319  1.00  0.00     0.047 C 
HETATM   12  N1  UNL     1      21.411   2.133  22.324  1.00  0.00    -0.340 N 
HETATM   13  C3  UNL     1      22.410   2.349  21.493  1.00  0.00     0.111 A 
ATOM     14  H1  UNL     1      21.516   1.937  23.319  1.00  0.00     0.167 HD
ATOM     15  H3  UNL     1      22.333   2.765  19.422  1.00  0.00     0.169 HD
BRANCH  13  16
HETATM   16  C4  UNL     1      23.693   2.401  21.646  1.00  0.00     0.104 C 
BRANCH  16  17
HETATM   17  C5  UNL     1      24.624   3.471  21.668  1.00  0.00     0.139 C 
BRANCH  17  18
HETATM   18  O1  UNL     1      24.243   4.612  21.098  1.00  0.00    -0.346 OA
ATOM     19  H1  UNL     1      24.279   5.394  21.636  1.00  0.00     0.219 HD
ENDBRANCH  17  18
BRANCH  17  20
HETATM   20  N2  UNL     1      25.910   3.486  22.223  1.00  0.00    -0.371 N 
ATOM     21  H2  UNL     1      26.579   4.197  21.929  1.00  0.00     0.161 HD
BRANCH  20  22
HETATM   22  C6  UNL     1      26.305   2.479  23.235  1.00  0.00     0.117 C 
HETATM   23  C7  UNL     1      27.231   1.450  22.644  1.00  0.00     0.026 C 
ENDBRANCH  20  22
ENDBRANCH  17  20
ENDBRANCH  16  17
ENDBRANCH  13  16
BRANCH   7  24
HETATM   24  C9  UNL     1      20.208   3.003  18.072  1.00  0.00     0.120 C 
HETATM   25  C10 UNL     1      19.815   1.999  17.021  1.00  0.00     0.026 C 
ENDBRANCH   7  24
ENDBRANCH   6   7
ENDBRANCH   5   6
ENDBRANCH   1   5
BRANCH   3  26
HETATM   26  C14 UNL     1      16.457   6.213  22.514  1.00  0.00     0.103 C 
BRANCH  26  27
HETATM   27  C15 UNL     1      17.872   6.304  22.979  1.00  0.00     0.017 C 
BRANCH  27  28
HETATM   28  C16 UNL     1      18.259   7.474  23.764  1.00  0.00     0.077 C 
BRANCH  28  29
HETATM   29  C17 UNL     1      18.146   7.428  25.222  1.00  0.00     0.083 A 
HETATM   30  N6  UNL     1      19.197   6.925  25.940  1.00  0.00    -0.341 N 
HETATM   31  C18 UNL     1      18.877   6.977  27.263  1.00  0.00     0.100 A 
ATOM     32  H6  UNL     1      20.071   6.572  25.552  1.00  0.00     0.167 HD
HETATM   33  C27 UNL     1      17.627   7.511  27.305  1.00  0.00     0.125 A 
HETATM   34  N8  UNL     1      17.174   7.790  26.037  1.00  0.00    -0.349 N 
HETATM   35  C28 UNL     1      15.835   8.332  25.754  1.00  0.00     0.156 C 
BRANCH  31  36
HETATM   36  C19 UNL     1      19.774   6.496  28.320  1.00  0.00     0.167 C 
BRANCH  36  37
HETATM   37  O3  UNL     1      19.582   5.250  28.689  1.00  0.00    -0.344 OA
ATOM     38  H3  UNL     1      19.981   5.009  29.518  1.00  0.00     0.219 HD
ENDBRANCH  36  37
BRANCH  36  39
HETATM   39  N7  UNL     1      20.790   7.137  28.992  1.00  0.00    -0.360 N 
HETATM   40  C20 UNL     1      20.495   8.339  29.709  1.00  0.00     0.125 C 
HETATM   41  C21 UNL     1      21.741   8.906  30.389  1.00  0.00     0.020 C 
HETATM   42  C22 UNL     1      22.674   9.613  29.494  1.00  0.00     0.002 C 
HETATM   43  C23 UNL     1      22.639   9.270  28.050  1.00  0.00     0.000 C 
HETATM   44  C24 UNL     1      23.515   8.042  27.761  1.00  0.00     0.002 C 
HETATM   45  C25 UNL     1      22.615   6.844  27.480  1.00  0.00     0.020 C 
HETATM   46  C26 UNL     1      22.090   6.396  28.828  1.00  0.00     0.125 C 
ENDBRANCH  36  39
ENDBRANCH  31  36
ENDBRANCH  28  29
ENDBRANCH  27  28
ENDBRANCH  26  27
ENDBRANCH   3  26
TORSDOF 16
ENDMDL
MODEL 4
REMARK VINA RESULT: -7.589650972      3.413      9.727
REMARK  16 active torsions:
REMARK  status: ('A' for Active; 'I' for Inactive)
REMARK    1  A    between atoms: C3_5  and  C4_6 
REMARK    2  A    between atoms: C4_6  and  C5_7 
REMARK    3  A    between atoms: C5_7  and  O1_8 
REMARK    4  A    between atoms: C5_7  and  N2_10 
REMARK    5  A    between atoms: N2_10  and  C6_12 
REMARK    6  A    between atoms: N4_17  and  C9_18 
REMARK    7  A    between atoms: N4_17  and  C11_20 
REMARK    8  A    between atoms: C11_20  and  C12_21 
REMARK    9  A    between atoms: C12_21  and  N5_22 
REMARK       I    between atoms: N5_22  and  C13_24 
REMARK   10  A    between atoms: C13_24  and  C14_26 
REMARK   11  A    between atoms: C14_26  and  C15_27 
REMARK   12  A    between atoms: C15_27  and  C16_28 
REMARK   13  A    between atoms: C16_28  and  C17_29 
REMARK   14  A    between atoms: C18_32  and  C19_33 
REMARK   15  A    between atoms: C19_33  and  O3_34 
REMARK   16  A    between atoms: C19_33  and  N7_36 
ROOT
HETATM    1  N5  UNL     1      16.188   5.763  29.520  1.00  0.00    -0.360 N 
ATOM      2  H5  UNL     1      16.653   5.790  28.613  1.00  0.00     0.162 HD
HETATM    3  C13 UNL     1      14.778   5.717  29.514  1.00  0.00     0.217 C 
HETATM    4  O2  UNL     1      14.140   5.686  30.574  1.00  0.00    -0.274 OA
ENDROOT
BRANCH   1   5
HETATM    5  C12 UNL     1      17.040   5.777  30.701  1.00  0.00     0.142 C 
BRANCH   5   6
HETATM    6  C11 UNL     1      17.521   7.146  31.002  1.00  0.00     0.144 C 
BRANCH   6   7
HETATM    7  N4  UNL     1      18.867   7.399  30.580  1.00  0.00    -0.364 N 
HETATM    8  C8  UNL     1      19.749   8.089  31.253  1.00  0.00     0.131 A 
HETATM    9  C2  UNL     1      19.623   8.679  32.477  1.00  0.00     0.068 A 
HETATM   10  N3  UNL     1      20.965   8.448  30.801  1.00  0.00    -0.327 N 
HETATM   11  C1  UNL     1      18.701   8.653  33.395  1.00  0.00     0.047 C 
HETATM   12  N1  UNL     1      20.786   9.383  32.705  1.00  0.00    -0.340 N 
HETATM   13  C3  UNL     1      21.617   9.252  31.692  1.00  0.00     0.111 A 
ATOM     14  H1  UNL     1      20.976   9.931  33.544  1.00  0.00     0.167 HD
ATOM     15  H3  UNL     1      21.352   8.157  29.903  1.00  0.00     0.169 HD
BRANCH  13  16
HETATM   16  C4  UNL     1      22.793   9.731  31.443  1.00  0.00     0.104 C 
BRANCH  16  17
HETATM   17  C5  UNL     1      23.468  10.067  30.241  1.00  0.00     0.139 C 
BRANCH  17  18
HETATM   18  O1  UNL     1      23.872  11.329  30.110  1.00  0.00    -0.346 OA
ATOM     19  H1  UNL     1      23.340  11.895  29.565  1.00  0.00     0.219 HD
ENDBRANCH  17  18
BRANCH  17  20
HETATM   20  N2  UNL     1      23.774   9.232  29.159  1.00  0.00    -0.371 N 
ATOM     21  H2  UNL     1      24.599   8.634  29.198  1.00  0.00     0.161 HD
BRANCH  20  22
HETATM   22  C6  UNL     1      22.908   9.210  27.957  1.00  0.00     0.117 C 
HETATM   23  C7  UNL     1      22.580   7.800  27.549  1.00  0.00     0.026 C 
ENDBRANCH  20  22
ENDBRANCH  17  20
ENDBRANCH  16  17
ENDBRANCH  13  16
BRANCH   7  24
HETATM   24  C9  UNL     1      19.264   6.866  29.295  1.00  0.00     0.120 C 
HETATM   25  C10 UNL     1      18.893   7.737  28.123  1.00  0.00     0.026 C 
ENDBRANCH   7  24
ENDBRANCH   6   7
ENDBRANCH   5   6
ENDBRANCH   1   5
BRANCH   3  26
HETATM   26  C14 UNL     1      14.020   5.699  28.211  1.00  0.00     0.103 C 
BRANCH  26  27
HETATM   27  C15 UNL     1      13.757   7.114  27.819  1.00  0.00     0.017 C 
BRANCH  27  28
HETATM   28  C16 UNL     1      13.314   7.374  26.451  1.00  0.00     0.077 C 
BRANCH  28  29
HETATM   29  C17 UNL     1      14.254   7.952  25.492  1.00  0.00     0.083 A 
HETATM   30  N6  UNL     1      15.132   7.117  24.856  1.00  0.00    -0.341 N 
HETATM   31  C18 UNL     1      15.904   7.863  24.018  1.00  0.00     0.100 A 
ATOM     32  H6  UNL     1      15.198   6.108  24.987  1.00  0.00     0.167 HD
HETATM   33  C27 UNL     1      15.468   9.141  24.177  1.00  0.00     0.125 A 
HETATM   34  N8  UNL     1      14.444   9.195  25.093  1.00  0.00    -0.349 N 
HETATM   35  C28 UNL     1      13.796  10.449  25.513  1.00  0.00     0.156 C 
BRANCH  31  36
HETATM   36  C19 UNL     1      16.971   7.285  23.192  1.00  0.00     0.167 C 
BRANCH  36  37
HETATM   37  O3  UNL     1      17.772   8.159  22.624  1.00  0.00    -0.344 OA
ATOM     38  H3  UNL     1      17.358   8.731  21.988  1.00  0.00     0.219 HD
ENDBRANCH  36  37
BRANCH  36  39
HETATM   39  N7  UNL     1      17.273   5.972  22.911  1.00  0.00    -0.360 N 
HETATM   40  C20 UNL     1      18.637   5.547  22.974  1.00  0.00     0.125 C 
HETATM   41  C21 UNL     1      18.779   4.063  22.633  1.00  0.00     0.020 C 
HETATM   42  C22 UNL     1      18.695   3.742  21.197  1.00  0.00     0.002 C 
HETATM   43  C23 UNL     1      17.980   4.700  20.316  1.00  0.00     0.000 C 
HETATM   44  C24 UNL     1      16.470   4.420  20.322  1.00  0.00     0.002 C 
HETATM   45  C25 UNL     1      15.765   5.513  21.117  1.00  0.00     0.020 C 
HETATM   46  C26 UNL     1      16.027   5.197  22.575  1.00  0.00     0.125 C 
ENDBRANCH  36  39
ENDBRANCH  31  36
ENDBRANCH  28  29
ENDBRANCH  27  28
ENDBRANCH  26  27
ENDBRANCH   3  26
TORSDOF 16
ENDMDL
MODEL 5
REMARK VINA RESULT: -7.547745787      1.803      2.824
REMARK  16 active torsions:
REMARK  status: ('A' for Active; 'I' for Inactive)
REMARK    1  A    between atoms: C3_5  and  C4_6 
REMARK    2  A    between atoms: C4_6  and  C5_7 
REMARK    3  A    between atoms: C5_7  and  O1_8 
REMARK    4  A    between atoms: C5_7  and  N2_10 
REMARK    5  A    between atoms: N2_10  and  C6_12 
REMARK    6  A    between atoms: N4_17  and  C9_18 
REMARK    7  A    between atoms: N4_17  and  C11_20 
REMARK    8  A    between atoms: C11_20  and  C12_21 
REMARK    9  A    between atoms: C12_21  and  N5_22 
REMARK       I    between atoms: N5_22  and  C13_24 
REMARK   10  A    between atoms: C13_24  and  C14_26 
REMARK   11  A    between atoms: C14_26  and  C15_27 
REMARK   12  A    between atoms: C15_27  and  C16_28 
REMARK   13  A    between atoms: C16_28  and  C17_29 
REMARK   14  A    between atoms: C18_32  and  C19_33 
REMARK   15  A    between atoms: C19_33  and  O3_34 
REMARK   16  A    between atoms: C19_33  and  N7_36 
ROOT
HETATM    1  N5  UNL     1      15.474   4.246  20.295  1.00  0.00    -0.360 N 
ATOM      2  H5  UNL     1      14.926   5.048  19.981  1.00  0.00     0.162 HD
HETATM    3  C13 UNL     1      16.371   4.463  21.362  1.00  0.00     0.217 C 
HETATM    4  O2  UNL     1      17.072   3.542  21.798  1.00  0.00    -0.274 OA
ENDROOT
BRANCH   1   5
HETATM    5  C12 UNL     1      15.257   2.985  19.601  1.00  0.00     0.142 C 
BRANCH   5   6
HETATM    6  C11 UNL     1      16.160   2.851  18.433  1.00  0.00     0.144 C 
BRANCH   6   7
HETATM    7  N4  UNL     1      17.267   1.967  18.647  1.00  0.00    -0.364 N 
HETATM    8  C8  UNL     1      18.522   2.328  18.678  1.00  0.00     0.131 A 
HETATM    9  C2  UNL     1      19.059   3.577  18.556  1.00  0.00     0.068 A 
HETATM   10  N3  UNL     1      19.573   1.487  18.738  1.00  0.00    -0.327 N 
HETATM   11  C1  UNL     1      18.546   4.772  18.503  1.00  0.00     0.047 C 
HETATM   12  N1  UNL     1      20.429   3.427  18.541  1.00  0.00    -0.340 N 
HETATM   13  C3  UNL     1      20.760   2.157  18.652  1.00  0.00     0.111 A 
ATOM     14  H1  UNL     1      21.095   4.194  18.454  1.00  0.00     0.167 HD
ATOM     15  H3  UNL     1      19.492   0.476  18.835  1.00  0.00     0.169 HD
BRANCH  13  16
HETATM   16  C4  UNL     1      21.894   1.535  18.665  1.00  0.00     0.104 C 
BRANCH  16  17
HETATM   17  C5  UNL     1      23.019   1.589  19.528  1.00  0.00     0.139 C 
BRANCH  17  18
HETATM   18  O1  UNL     1      23.808   0.517  19.556  1.00  0.00    -0.346 OA
ATOM     19  H1  UNL     1      23.513  -0.220  20.077  1.00  0.00     0.219 HD
ENDBRANCH  17  18
BRANCH  17  20
HETATM   20  N2  UNL     1      23.416   2.639  20.366  1.00  0.00    -0.371 N 
ATOM     21  H2  UNL     1      24.113   3.309  20.041  1.00  0.00     0.161 HD
BRANCH  20  22
HETATM   22  C6  UNL     1      22.833   2.784  21.720  1.00  0.00     0.117 C 
HETATM   23  C7  UNL     1      21.959   4.005  21.806  1.00  0.00     0.026 C 
ENDBRANCH  20  22
ENDBRANCH  17  20
ENDBRANCH  16  17
ENDBRANCH  13  16
BRANCH   7  24
HETATM   24  C9  UNL     1      16.964   0.562  18.816  1.00  0.00     0.120 C 
HETATM   25  C10 UNL     1      16.553  -0.138  17.548  1.00  0.00     0.026 C 
ENDBRANCH   7  24
ENDBRANCH   6   7
ENDBRANCH   5   6
ENDBRANCH   1   5
BRANCH   3  26
HETATM   26  C14 UNL     1      16.488   5.826  21.997  1.00  0.00     0.103 C 
BRANCH  26  27
HETATM   27  C15 UNL     1      17.825   5.907  22.653  1.00  0.00     0.017 C 
BRANCH  27  28
HETATM   28  C16 UNL     1      18.180   7.154  23.328  1.00  0.00     0.077 C 
BRANCH  28  29
HETATM   29  C17 UNL     1      18.044   7.244  24.782  1.00  0.00     0.083 A 
HETATM   30  N6  UNL     1      19.002   6.658  25.564  1.00  0.00    -0.341 N 
HETATM   31  C18 UNL     1      18.677   6.864  26.870  1.00  0.00     0.100 A 
ATOM     32  H6  UNL     1      19.821   6.152  25.226  1.00  0.00     0.167 HD
HETATM   33  C27 UNL     1      17.516   7.572  26.839  1.00  0.00     0.125 A 
HETATM   34  N8  UNL     1      17.124   7.807  25.542  1.00  0.00    -0.349 N 
HETATM   35  C28 UNL     1      15.881   8.509  25.185  1.00  0.00     0.156 C 
BRANCH  31  36
HETATM   36  C19 UNL     1      19.482   6.348  27.983  1.00  0.00     0.167 C 
BRANCH  36  37
HETATM   37  O3  UNL     1      19.216   5.111  28.338  1.00  0.00    -0.344 OA
ATOM     38  H3  UNL     1      19.117   4.972  29.272  1.00  0.00     0.219 HD
ENDBRANCH  36  37
BRANCH  36  39
HETATM   39  N7  UNL     1      20.477   6.949  28.721  1.00  0.00    -0.360 N 
HETATM   40  C20 UNL     1      20.181   8.155  29.429  1.00  0.00     0.125 C 
HETATM   41  C21 UNL     1      21.402   8.674  30.189  1.00  0.00     0.020 C 
HETATM   42  C22 UNL     1      22.412   9.353  29.358  1.00  0.00     0.002 C 
HETATM   43  C23 UNL     1      22.453   9.022  27.911  1.00  0.00     0.000 C 
HETATM   44  C24 UNL     1      23.302   7.765  27.666  1.00  0.00     0.002 C 
HETATM   45  C25 UNL     1      22.380   6.602  27.320  1.00  0.00     0.020 C 
HETATM   46  C26 UNL     1      21.758   6.164  28.629  1.00  0.00     0.125 C 
ENDBRANCH  36  39
ENDBRANCH  31  36
ENDBRANCH  28  29
ENDBRANCH  27  28
ENDBRANCH  26  27
ENDBRANCH   3  26
TORSDOF 16
ENDMDL
