MODEL 1
REMARK VINA RESULT: -9.478481448      0.000      0.000
REMARK  10 active torsions:
REMARK  status: ('A' for Active; 'I' for Inactive)
REMARK    1  A    between atoms: C6_12  and  C7_13 
REMARK    2  A    between atoms: C7_13  and  C8_14 
REMARK    3  A    between atoms: C8_14  and  C9_15 
REMARK    4  A    between atoms: C8_14  and  N8_39 
REMARK    5  A    between atoms: C9_15  and  C10_16 
REMARK    6  A    between atoms: C19_29  and  N5_30 
REMARK    7  A    between atoms: N8_39  and  C24_42 
REMARK    8  A    between atoms: C24_42  and  C25_43 
REMARK    9  A    between atoms: C25_43  and  C26_44 
REMARK   10  A    between atoms: C26_44  and  N9_45 
ROOT
HETATM    1  C8  UNL     1      16.488   5.902  24.935  1.00  0.00     0.195 C 
ENDROOT
BRANCH   1   2
HETATM    2  C7  UNL     1      15.139   6.477  24.532  1.00  0.00     0.062 C 
BRANCH   2   3
HETATM    3  C6  UNL     1      15.132   7.896  24.246  1.00  0.00     0.007 C 
HETATM    4  C5  UNL     1      14.710   8.988  24.779  1.00  0.00     0.057 A 
HETATM    5  C2  UNL     1      14.040   9.142  25.968  1.00  0.00     0.052 A 
HETATM    6  N2  UNL     1      14.874  10.152  24.078  1.00  0.00    -0.317 N 
HETATM    7  C1  UNL     1      13.787   8.179  26.817  1.00  0.00     0.045 C 
HETATM    8  N1  UNL     1      13.587  10.377  26.379  1.00  0.00    -0.318 N 
HETATM    9  C3  UNL     1      13.787  11.466  25.634  1.00  0.00     0.314 A 
ATOM     10  H1  UNL     1      13.091  10.460  27.266  1.00  0.00     0.169 HD
HETATM   11  O1  UNL     1      13.384  12.597  25.992  1.00  0.00    -0.262 OA
HETATM   12  C4  UNL     1      14.447  11.350  24.456  1.00  0.00     0.314 A 
HETATM   13  O2  UNL     1      14.663  12.362  23.709  1.00  0.00    -0.262 OA
ATOM     14  H2  UNL     1      15.368  10.094  23.187  1.00  0.00     0.169 HD
ENDBRANCH   2   3
ENDBRANCH   1   2
BRANCH   1  15
HETATM   15  C9  UNL     1      16.757   4.540  24.436  1.00  0.00     0.090 C 
BRANCH  15  16
HETATM   16  C10 UNL     1      16.953   4.437  22.972  1.00  0.00     0.012 A 
HETATM   17  C11 UNL     1      18.192   3.949  22.472  1.00  0.00     0.041 A 
HETATM   18  C12 UNL     1      18.074   3.919  21.121  1.00  0.00     0.020 A 
HETATM   19  C13 UNL     1      16.791   4.376  20.783  1.00  0.00     0.045 A 
HETATM   20  C23 UNL     1      18.950   3.517  20.108  1.00  0.00     0.057 A 
HETATM   21  C14 UNL     1      16.391   4.429  19.472  1.00  0.00     0.031 A 
HETATM   22  N7  UNL     1      16.161   4.674  21.937  1.00  0.00    -0.359 N 
HETATM   23  C15 UNL     1      17.238   4.036  18.480  1.00  0.00     0.016 A 
HETATM   24  C16 UNL     1      18.505   3.583  18.785  1.00  0.00    -0.006 A 
HETATM   25  C17 UNL     1      19.335   3.168  17.777  1.00  0.00     0.047 A 
HETATM   26  C18 UNL     1      20.582   2.695  18.071  1.00  0.00     0.079 A 
HETATM   27  N3  UNL     1      21.582   2.210  17.307  1.00  0.00    -0.297 N 
HETATM   28  C21 UNL     1      20.998   2.641  19.367  1.00  0.00     0.108 A 
HETATM   29  N4  UNL     1      22.584   1.860  18.059  1.00  0.00    -0.283 N 
ATOM     30  H3  UNL     1      21.557   2.130  16.291  1.00  0.00     0.187 HD
HETATM   31  C19 UNL     1      22.262   2.113  19.372  1.00  0.00     0.145 A 
ATOM     32  H4  UNL     1      23.464   1.462  17.729  1.00  0.00     0.188 HD
HETATM   33  N6  UNL     1      20.189   3.054  20.403  1.00  0.00    -0.345 N 
HETATM   34  C22 UNL     1      20.720   3.058  21.723  1.00  0.00     0.156 C 
ATOM     35  H7  UNL     1      15.207   5.031  22.003  1.00  0.00     0.166 HD
BRANCH  31  36
HETATM   36  N5  UNL     1      23.052   1.845  20.352  1.00  0.00    -0.378 N 
HETATM   37  C20 UNL     1      23.798   0.632  20.388  1.00  0.00     0.148 C 
ATOM     38  H5  UNL     1      23.145   2.513  21.117  1.00  0.00     0.160 HD
ENDBRANCH  31  36
ENDBRANCH  15  16
ENDBRANCH   1  15
BRANCH   1  39
HETATM   39  N8  UNL     1      17.575   6.755  24.633  1.00  0.00    -0.070 N 
ATOM     40  H82 UNL     1      18.198   6.321  23.950  1.00  0.00     0.277 HD
ATOM     41  H81 UNL     1      17.264   7.560  24.089  1.00  0.00     0.277 HD
BRANCH  39  42
HETATM   42  C24 UNL     1      18.299   7.171  25.784  1.00  0.00     0.234 C 
BRANCH  42  43
HETATM   43  C25 UNL     1      19.630   6.433  25.981  1.00  0.00     0.055 C 
BRANCH  43  44
HETATM   44  C26 UNL     1      20.350   7.224  27.066  1.00  0.00     0.237 C 
BRANCH  44  45
HETATM   45  N9  UNL     1      21.530   6.564  27.557  1.00  0.00    -0.079 N 
HETATM   46  C27 UNL     1      22.724   7.350  27.487  1.00  0.00     0.271 C 
HETATM   47  C28 UNL     1      21.713   5.316  26.815  1.00  0.00     0.271 C 
HETATM   48  C29 UNL     1      21.271   6.198  28.942  1.00  0.00     0.271 C 
ENDBRANCH  44  45
ENDBRANCH  43  44
ENDBRANCH  42  43
ENDBRANCH  39  42
ENDBRANCH   1  39
TORSDOF 10
ENDMDL
MODEL 2
REMARK VINA RESULT: -9.458517295      0.808      1.020
REMARK  10 active torsions:
REMARK  status: ('A' for Active; 'I' for Inactive)
REMARK    1  A    between atoms: C6_12  and  C7_13 
REMARK    2  A    between atoms: C7_13  and  C8_14 
REMARK    3  A    between atoms: C8_14  and  C9_15 
REMARK    4  A    between atoms: C8_14  and  N8_39 
REMARK    5  A    between atoms: C9_15  and  C10_16 
REMARK    6  A    between atoms: C19_29  and  N5_30 
REMARK    7  A    between atoms: N8_39  and  C24_42 
REMARK    8  A    between atoms: C24_42  and  C25_43 
REMARK    9  A    between atoms: C25_43  and  C26_44 
REMARK   10  A    between atoms: C26_44  and  N9_45 
ROOT
HETATM    1  C8  UNL     1      16.408   5.628  24.934  1.00  0.00     0.195 C 
ENDROOT
BRANCH   1   2
HETATM    2  C7  UNL     1      14.999   6.164  24.732  1.00  0.00     0.062 C 
BRANCH   2   3
HETATM    3  C6  UNL     1      14.914   7.572  24.408  1.00  0.00     0.007 C 
HETATM    4  C5  UNL     1      14.551   8.673  24.966  1.00  0.00     0.057 A 
HETATM    5  C2  UNL     1      14.067   8.854  26.238  1.00  0.00     0.052 A 
HETATM    6  N2  UNL     1      14.578   9.816  24.212  1.00  0.00    -0.317 N 
HETATM    7  C1  UNL     1      13.970   7.915  27.145  1.00  0.00     0.045 C 
HETATM    8  N1  UNL     1      13.651  10.093  26.676  1.00  0.00    -0.318 N 
HETATM    9  C3  UNL     1      13.708  11.160  25.876  1.00  0.00     0.314 A 
ATOM     10  H1  UNL     1      13.295  10.197  27.626  1.00  0.00     0.169 HD
HETATM   11  O1  UNL     1      13.337  12.294  26.258  1.00  0.00    -0.262 OA
HETATM   12  C4  UNL     1      14.184  11.017  24.615  1.00  0.00     0.314 A 
HETATM   13  O2  UNL     1      14.258  12.007  23.814  1.00  0.00    -0.262 OA
ATOM     14  H2  UNL     1      14.931   9.737  23.259  1.00  0.00     0.169 HD
ENDBRANCH   2   3
ENDBRANCH   1   2
BRANCH   1  15
HETATM   15  C9  UNL     1      17.438   6.253  24.081  1.00  0.00     0.090 C 
BRANCH  15  16
HETATM   16  C10 UNL     1      17.443   5.798  22.672  1.00  0.00     0.012 A 
HETATM   17  C11 UNL     1      18.554   5.050  22.191  1.00  0.00     0.041 A 
HETATM   18  C12 UNL     1      18.270   4.732  20.903  1.00  0.00     0.020 A 
HETATM   19  C13 UNL     1      17.012   5.266  20.586  1.00  0.00     0.045 A 
HETATM   20  C23 UNL     1      18.969   3.999  19.939  1.00  0.00     0.057 A 
HETATM   21  C14 UNL     1      16.465   5.074  19.343  1.00  0.00     0.031 A 
HETATM   22  N7  UNL     1      16.561   5.897  21.688  1.00  0.00    -0.359 N 
HETATM   23  C15 UNL     1      17.138   4.359  18.399  1.00  0.00     0.016 A 
HETATM   24  C16 UNL     1      18.377   3.822  18.685  1.00  0.00    -0.006 A 
HETATM   25  C17 UNL     1      19.030   3.085  17.734  1.00  0.00     0.047 A 
HETATM   26  C18 UNL     1      20.246   2.530  18.015  1.00  0.00     0.079 A 
HETATM   27  N3  UNL     1      21.089   1.757  17.300  1.00  0.00    -0.297 N 
HETATM   28  C21 UNL     1      20.808   2.715  19.242  1.00  0.00     0.108 A 
HETATM   29  N4  UNL     1      22.131   1.457  18.018  1.00  0.00    -0.283 N 
ATOM     30  H3  UNL     1      20.933   1.453  16.339  1.00  0.00     0.187 HD
HETATM   31  C19 UNL     1      22.000   2.040  19.256  1.00  0.00     0.145 A 
ATOM     32  H4  UNL     1      22.918   0.882  17.713  1.00  0.00     0.188 HD
HETATM   33  N6  UNL     1      20.179   3.455  20.220  1.00  0.00    -0.345 N 
HETATM   34  C22 UNL     1      20.863   3.687  21.445  1.00  0.00     0.156 C 
ATOM     35  H7  UNL     1      15.667   6.383  21.756  1.00  0.00     0.166 HD
BRANCH  31  36
HETATM   36  N5  UNL     1      22.869   1.898  20.195  1.00  0.00    -0.378 N 
HETATM   37  C20 UNL     1      23.635   0.704  20.316  1.00  0.00     0.148 C 
ATOM     38  H5  UNL     1      23.011   2.655  20.863  1.00  0.00     0.160 HD
ENDBRANCH  31  36
ENDBRANCH  15  16
ENDBRANCH   1  15
BRANCH   1  39
HETATM   39  N8  UNL     1      16.824   5.636  26.285  1.00  0.00    -0.070 N 
ATOM     40  H82 UNL     1      16.023   5.543  26.912  1.00  0.00     0.277 HD
ATOM     41  H81 UNL     1      17.319   4.774  26.517  1.00  0.00     0.277 HD
BRANCH  39  42
HETATM   42  C24 UNL     1      17.604   6.775  26.626  1.00  0.00     0.234 C 
BRANCH  42  43
HETATM   43  C25 UNL     1      18.781   6.465  27.562  1.00  0.00     0.055 C 
BRANCH  43  44
HETATM   44  C26 UNL     1      19.994   7.069  26.866  1.00  0.00     0.237 C 
BRANCH  44  45
HETATM   45  N9  UNL     1      21.201   6.960  27.640  1.00  0.00    -0.079 N 
HETATM   46  C27 UNL     1      22.107   5.948  27.189  1.00  0.00     0.271 C 
HETATM   47  C28 UNL     1      20.842   6.717  29.038  1.00  0.00     0.271 C 
HETATM   48  C29 UNL     1      21.860   8.257  27.592  1.00  0.00     0.271 C 
ENDBRANCH  44  45
ENDBRANCH  43  44
ENDBRANCH  42  43
ENDBRANCH  39  42
ENDBRANCH   1  39
TORSDOF 10
ENDMDL
MODEL 3
REMARK VINA RESULT: -9.390597744      1.280      1.610
REMARK  10 active torsions:
REMARK  status: ('A' for Active; 'I' for Inactive)
REMARK    1  A    between atoms: C6_12  and  C7_13 
REMARK    2  A    between atoms: C7_13  and  C8_14 
REMARK    3  A    between atoms: C8_14  and  C9_15 
REMARK    4  A    between atoms: C8_14  and  N8_39 
REMARK    5  A    between atoms: C9_15  and  C10_16 
REMARK    6  A    between atoms: C19_29  and  N5_30 
REMARK    7  A    between atoms: N8_39  and  C24_42 
REMARK    8  A    between atoms: C24_42  and  C25_43 
REMARK    9  A    between atoms: C25_43  and  C26_44 
REMARK   10  A    between atoms: C26_44  and  N9_45 
ROOT
HETATM    1  C8  UNL     1      16.506   5.994  24.886  1.00  0.00     0.195 C 
ENDROOT
BRANCH   1   2
HETATM    2  C7  UNL     1      15.153   6.566  24.491  1.00  0.00     0.062 C 
BRANCH   2   3
HETATM    3  C6  UNL     1      15.140   7.988  24.219  1.00  0.00     0.007 C 
HETATM    4  C5  UNL     1      14.717   9.074  24.763  1.00  0.00     0.057 A 
HETATM    5  C2  UNL     1      14.052   9.215  25.956  1.00  0.00     0.052 A 
HETATM    6  N2  UNL     1      14.873  10.245  24.072  1.00  0.00    -0.317 N 
HETATM    7  C1  UNL     1      13.805   8.243  26.798  1.00  0.00     0.045 C 
HETATM    8  N1  UNL     1      13.596  10.445  26.381  1.00  0.00    -0.318 N 
HETATM    9  C3  UNL     1      13.788  11.541  25.645  1.00  0.00     0.314 A 
ATOM     10  H1  UNL     1      13.104  10.518  27.271  1.00  0.00     0.169 HD
HETATM   11  O1  UNL     1      13.383  12.667  26.015  1.00  0.00    -0.262 OA
HETATM   12  C4  UNL     1      14.444  11.437  24.462  1.00  0.00     0.314 A 
HETATM   13  O2  UNL     1      14.652  12.457  23.724  1.00  0.00    -0.262 OA
ATOM     14  H2  UNL     1      15.363  10.197  23.178  1.00  0.00     0.169 HD
ENDBRANCH   2   3
ENDBRANCH   1   2
BRANCH   1  15
HETATM   15  C9  UNL     1      16.764   4.623  24.405  1.00  0.00     0.090 C 
BRANCH  15  16
HETATM   16  C10 UNL     1      16.972   4.503  22.944  1.00  0.00     0.012 A 
HETATM   17  C11 UNL     1      18.214   4.005  22.460  1.00  0.00     0.041 A 
HETATM   18  C12 UNL     1      18.107   3.959  21.109  1.00  0.00     0.020 A 
HETATM   19  C13 UNL     1      16.828   4.415  20.755  1.00  0.00     0.045 A 
HETATM   20  C23 UNL     1      18.990   3.542  20.108  1.00  0.00     0.057 A 
HETATM   21  C14 UNL     1      16.440   4.454  19.440  1.00  0.00     0.031 A 
HETATM   22  N7  UNL     1      16.189   4.729  21.899  1.00  0.00    -0.359 N 
HETATM   23  C15 UNL     1      17.293   4.047  18.459  1.00  0.00     0.016 A 
HETATM   24  C16 UNL     1      18.557   3.593  18.780  1.00  0.00    -0.006 A 
HETATM   25  C17 UNL     1      19.394   3.164  17.785  1.00  0.00     0.047 A 
HETATM   26  C18 UNL     1      20.637   2.690  18.095  1.00  0.00     0.079 A 
HETATM   27  N3  UNL     1      21.642   2.194  17.346  1.00  0.00    -0.297 N 
HETATM   28  C21 UNL     1      21.042   2.651  19.395  1.00  0.00     0.108 A 
HETATM   29  N4  UNL     1      22.637   1.850  18.110  1.00  0.00    -0.283 N 
ATOM     30  H3  UNL     1      21.625   2.101  16.330  1.00  0.00     0.187 HD
HETATM   31  C19 UNL     1      22.305   2.119  19.417  1.00  0.00     0.145 A 
ATOM     32  H4  UNL     1      23.518   1.446  17.793  1.00  0.00     0.188 HD
HETATM   33  N6  UNL     1      20.226   3.079  20.419  1.00  0.00    -0.345 N 
HETATM   34  C22 UNL     1      20.746   3.098  21.743  1.00  0.00     0.156 C 
ATOM     35  H7  UNL     1      15.236   5.089  21.953  1.00  0.00     0.166 HD
BRANCH  31  36
HETATM   36  N5  UNL     1      23.085   1.861  20.407  1.00  0.00    -0.378 N 
HETATM   37  C20 UNL     1      23.831   0.649  20.461  1.00  0.00     0.148 C 
ATOM     38  H5  UNL     1      23.171   2.536  21.166  1.00  0.00     0.160 HD
ENDBRANCH  31  36
ENDBRANCH  15  16
ENDBRANCH   1  15
BRANCH   1  39
HETATM   39  N8  UNL     1      17.591   6.838  24.558  1.00  0.00    -0.070 N 
ATOM     40  H82 UNL     1      18.120   6.460  23.771  1.00  0.00     0.277 HD
ATOM     41  H81 UNL     1      17.261   7.707  24.136  1.00  0.00     0.277 HD
BRANCH  39  42
HETATM   42  C24 UNL     1      18.448   7.106  25.661  1.00  0.00     0.234 C 
BRANCH  42  43
HETATM   43  C25 UNL     1      17.706   7.544  26.931  1.00  0.00     0.055 C 
BRANCH  43  44
HETATM   44  C26 UNL     1      18.475   6.887  28.071  1.00  0.00     0.237 C 
BRANCH  44  45
HETATM   45  N9  UNL     1      17.713   5.882  28.761  1.00  0.00    -0.079 N 
HETATM   46  C27 UNL     1      18.008   4.538  28.367  1.00  0.00     0.271 C 
HETATM   47  C28 UNL     1      16.289   6.155  28.566  1.00  0.00     0.271 C 
HETATM   48  C29 UNL     1      17.983   6.040  30.183  1.00  0.00     0.271 C 
ENDBRANCH  44  45
ENDBRANCH  43  44
ENDBRANCH  42  43
ENDBRANCH  39  42
ENDBRANCH   1  39
TORSDOF 10
ENDMDL
MODEL 4
REMARK VINA RESULT: -9.276403437      1.712      2.254
REMARK  10 active torsions:
REMARK  status: ('A' for Active; 'I' for Inactive)
REMARK    1  A    between atoms: C6_12  and  C7_13 
REMARK    2  A    between atoms: C7_13  and  C8_14 
REMARK    3  A    between atoms: C8_14  and  C9_15 
REMARK    4  A    between atoms: C8_14  and  N8_39 
REMARK    5  A    between atoms: C9_15  and  C10_16 
REMARK    6  A    between atoms: C19_29  and  N5_30 
REMARK    7  A    between atoms: N8_39  and  C24_42 
REMARK    8  A    between atoms: C24_42  and  C25_43 
REMARK    9  A    between atoms: C25_43  and  C26_44 
REMARK   10  A    between atoms: C26_44  and  N9_45 
ROOT
HETATM    1  C8  UNL     1      16.451   5.845  22.497  1.00  0.00     0.195 C 
ENDROOT
BRANCH   1   2
HETATM    2  C7  UNL     1      15.453   6.363  23.521  1.00  0.00     0.062 C 
BRANCH   2   3
HETATM    3  C6  UNL     1      15.335   7.804  23.594  1.00  0.00     0.007 C 
HETATM    4  C5  UNL     1      14.829   8.695  24.371  1.00  0.00     0.057 A 
HETATM    5  C2  UNL     1      14.149   8.500  25.549  1.00  0.00     0.052 A 
HETATM    6  N2  UNL     1      14.901  10.006  23.981  1.00  0.00    -0.317 N 
HETATM    7  C1  UNL     1      13.973   7.340  26.130  1.00  0.00     0.045 C 
HETATM    8  N1  UNL     1      13.601   9.557  26.243  1.00  0.00    -0.318 N 
HETATM    9  C3  UNL     1      13.714  10.808  25.793  1.00  0.00     0.314 A 
ATOM     10  H1  UNL     1      13.101   9.380  27.114  1.00  0.00     0.169 HD
HETATM   11  O1  UNL     1      13.224  11.781  26.411  1.00  0.00    -0.262 OA
HETATM   12  C4  UNL     1      14.381  11.037  24.635  1.00  0.00     0.314 A 
HETATM   13  O2  UNL     1      14.516  12.215  24.165  1.00  0.00    -0.262 OA
ATOM     14  H2  UNL     1      15.396  10.208  23.113  1.00  0.00     0.169 HD
ENDBRANCH   2   3
ENDBRANCH   1   2
BRANCH   1  15
HETATM   15  C9  UNL     1      15.935   5.753  21.118  1.00  0.00     0.090 C 
BRANCH  15  16
HETATM   16  C10 UNL     1      16.408   4.578  20.351  1.00  0.00     0.012 A 
HETATM   17  C11 UNL     1      17.792   4.250  20.372  1.00  0.00     0.041 A 
HETATM   18  C12 UNL     1      17.928   3.119  19.634  1.00  0.00     0.020 A 
HETATM   19  C13 UNL     1      16.659   2.747  19.165  1.00  0.00     0.045 A 
HETATM   20  C23 UNL     1      19.037   2.327  19.320  1.00  0.00     0.057 A 
HETATM   21  C14 UNL     1      16.499   1.617  18.404  1.00  0.00     0.031 A 
HETATM   22  N7  UNL     1      15.783   3.661  19.627  1.00  0.00    -0.359 N 
HETATM   23  C15 UNL     1      17.574   0.840  18.096  1.00  0.00     0.016 A 
HETATM   24  C16 UNL     1      18.833   1.182  18.545  1.00  0.00    -0.006 A 
HETATM   25  C17 UNL     1      19.900   0.377  18.247  1.00  0.00     0.047 A 
HETATM   26  C18 UNL     1      21.146   0.694  18.707  1.00  0.00     0.079 A 
HETATM   27  N3  UNL     1      22.347   0.093  18.592  1.00  0.00    -0.297 N 
HETATM   28  C21 UNL     1      21.324   1.816  19.459  1.00  0.00     0.108 A 
HETATM   29  N4  UNL     1      23.249   0.778  19.232  1.00  0.00    -0.283 N 
ATOM     30  H3  UNL     1      22.523  -0.772  18.080  1.00  0.00     0.187 HD
HETATM   31  C19 UNL     1      22.650   1.878  19.798  1.00  0.00     0.145 A 
ATOM     32  H4  UNL     1      24.239   0.538  19.302  1.00  0.00     0.188 HD
HETATM   33  N6  UNL     1      20.273   2.651  19.773  1.00  0.00    -0.345 N 
HETATM   34  C22 UNL     1      20.545   3.853  20.482  1.00  0.00     0.156 C 
ATOM     35  H7  UNL     1      14.779   3.649  19.446  1.00  0.00     0.166 HD
BRANCH  31  36
HETATM   36  N5  UNL     1      23.290   2.734  20.516  1.00  0.00    -0.378 N 
HETATM   37  C20 UNL     1      24.237   2.314  21.493  1.00  0.00     0.148 C 
ATOM     38  H5  UNL     1      23.115   3.729  20.383  1.00  0.00     0.160 HD
ENDBRANCH  31  36
ENDBRANCH  15  16
ENDBRANCH   1  15
BRANCH   1  39
HETATM   39  N8  UNL     1      17.683   6.541  22.511  1.00  0.00    -0.070 N 
ATOM     40  H82 UNL     1      18.084   6.588  21.574  1.00  0.00     0.277 HD
ATOM     41  H81 UNL     1      17.536   7.536  22.682  1.00  0.00     0.277 HD
BRANCH  39  42
HETATM   42  C24 UNL     1      18.621   6.003  23.436  1.00  0.00     0.234 C 
BRANCH  42  43
HETATM   43  C25 UNL     1      18.855   6.887  24.668  1.00  0.00     0.055 C 
BRANCH  43  44
HETATM   44  C26 UNL     1      19.000   5.905  25.823  1.00  0.00     0.237 C 
BRANCH  44  45
HETATM   45  N9  UNL     1      18.115   6.190  26.920  1.00  0.00    -0.079 N 
HETATM   46  C27 UNL     1      18.727   6.119  28.212  1.00  0.00     0.271 C 
HETATM   47  C28 UNL     1      16.979   5.269  26.859  1.00  0.00     0.271 C 
HETATM   48  C29 UNL     1      17.586   7.529  26.708  1.00  0.00     0.271 C 
ENDBRANCH  44  45
ENDBRANCH  43  44
ENDBRANCH  42  43
ENDBRANCH  39  42
ENDBRANCH   1  39
TORSDOF 10
ENDMDL
MODEL 5
REMARK VINA RESULT: -9.225916374      1.954      2.513
REMARK  10 active torsions:
REMARK  status: ('A' for Active; 'I' for Inactive)
REMARK    1  A    between atoms: C6_12  and  C7_13 
REMARK    2  A    between atoms: C7_13  and  C8_14 
REMARK    3  A    between atoms: C8_14  and  C9_15 
REMARK    4  A    between atoms: C8_14  and  N8_39 
REMARK    5  A    between atoms: C9_15  and  C10_16 
REMARK    6  A    between atoms: C19_29  and  N5_30 
REMARK    7  A    between atoms: N8_39  and  C24_42 
REMARK    8  A    between atoms: C24_42  and  C25_43 
REMARK    9  A    between atoms: C25_43  and  C26_44 
REMARK   10  A    between atoms: C26_44  and  N9_45 
ROOT
HETATM    1  C8  UNL     1      16.341   5.350  24.908  1.00  0.00     0.195 C 
ENDROOT
BRANCH   1   2
HETATM    2  C7  UNL     1      14.956   5.966  25.019  1.00  0.00     0.062 C 
BRANCH   2   3
HETATM    3  C6  UNL     1      14.864   7.355  24.620  1.00  0.00     0.007 C 
HETATM    4  C5  UNL     1      14.523   8.486  25.128  1.00  0.00     0.057 A 
HETATM    5  C2  UNL     1      14.081   8.740  26.403  1.00  0.00     0.052 A 
HETATM    6  N2  UNL     1      14.528   9.586  24.312  1.00  0.00    -0.317 N 
HETATM    7  C1  UNL     1      14.011   7.853  27.364  1.00  0.00     0.045 C 
HETATM    8  N1  UNL     1      13.684  10.003  26.785  1.00  0.00    -0.318 N 
HETATM    9  C3  UNL     1      13.718  11.024  25.926  1.00  0.00     0.314 A 
ATOM     10  H1  UNL     1      13.359  10.161  27.739  1.00  0.00     0.169 HD
HETATM   11  O1  UNL     1      13.362  12.179  26.256  1.00  0.00    -0.262 OA
HETATM   12  C4  UNL     1      14.151  10.809  24.660  1.00  0.00     0.314 A 
HETATM   13  O2  UNL     1      14.202  11.753  23.803  1.00  0.00    -0.262 OA
ATOM     14  H2  UNL     1      14.849   9.454  23.353  1.00  0.00     0.169 HD
ENDBRANCH   2   3
ENDBRANCH   1   2
BRANCH   1  15
HETATM   15  C9  UNL     1      17.297   6.114  24.083  1.00  0.00     0.090 C 
BRANCH  15  16
HETATM   16  C10 UNL     1      17.357   5.711  22.660  1.00  0.00     0.012 A 
HETATM   17  C11 UNL     1      18.480   4.970  22.197  1.00  0.00     0.041 A 
HETATM   18  C12 UNL     1      18.248   4.701  20.888  1.00  0.00     0.020 A 
HETATM   19  C13 UNL     1      17.009   5.259  20.540  1.00  0.00     0.045 A 
HETATM   20  C23 UNL     1      18.980   3.997  19.927  1.00  0.00     0.057 A 
HETATM   21  C14 UNL     1      16.511   5.118  19.269  1.00  0.00     0.031 A 
HETATM   22  N7  UNL     1      16.518   5.854  21.645  1.00  0.00    -0.359 N 
HETATM   23  C15 UNL     1      17.217   4.431  18.328  1.00  0.00     0.016 A 
HETATM   24  C16 UNL     1      18.439   3.872  18.645  1.00  0.00    -0.006 A 
HETATM   25  C17 UNL     1      19.124   3.163  17.695  1.00  0.00     0.047 A 
HETATM   26  C18 UNL     1      20.322   2.585  18.005  1.00  0.00     0.079 A 
HETATM   27  N3  UNL     1      21.188   1.831  17.297  1.00  0.00    -0.297 N 
HETATM   28  C21 UNL     1      20.834   2.720  19.260  1.00  0.00     0.108 A 
HETATM   29  N4  UNL     1      22.197   1.494  18.046  1.00  0.00    -0.283 N 
ATOM     30  H3  UNL     1      21.069   1.564  16.320  1.00  0.00     0.187 HD
HETATM   31  C19 UNL     1      22.019   2.033  19.298  1.00  0.00     0.145 A 
ATOM     32  H4  UNL     1      22.990   0.923  17.752  1.00  0.00     0.188 HD
HETATM   33  N6  UNL     1      20.172   3.431  20.238  1.00  0.00    -0.345 N 
HETATM   34  C22 UNL     1      20.807   3.611  21.498  1.00  0.00     0.156 C 
ATOM     35  H7  UNL     1      15.625   6.346  21.693  1.00  0.00     0.166 HD
BRANCH  31  36
HETATM   36  N5  UNL     1      22.847   1.849  20.266  1.00  0.00    -0.378 N 
HETATM   37  C20 UNL     1      23.706   0.713  20.295  1.00  0.00     0.148 C 
ATOM     38  H5  UNL     1      22.889   2.528  21.025  1.00  0.00     0.160 HD
ENDBRANCH  31  36
ENDBRANCH  15  16
ENDBRANCH   1  15
BRANCH   1  39
HETATM   39  N8  UNL     1      16.920   5.037  26.160  1.00  0.00    -0.070 N 
ATOM     40  H82 UNL     1      16.224   4.638  26.791  1.00  0.00     0.277 HD
ATOM     41  H81 UNL     1      17.550   4.239  26.079  1.00  0.00     0.277 HD
BRANCH  39  42
HETATM   42  C24 UNL     1      17.578   6.142  26.766  1.00  0.00     0.234 C 
BRANCH  42  43
HETATM   43  C25 UNL     1      17.273   6.303  28.262  1.00  0.00     0.055 C 
BRANCH  43  44
HETATM   44  C26 UNL     1      16.867   4.909  28.722  1.00  0.00     0.237 C 
BRANCH  44  45
HETATM   45  N9  UNL     1      15.800   4.922  29.687  1.00  0.00    -0.079 N 
HETATM   46  C27 UNL     1      15.604   6.180  30.340  1.00  0.00     0.271 C 
HETATM   47  C28 UNL     1      16.055   3.880  30.683  1.00  0.00     0.271 C 
HETATM   48  C29 UNL     1      14.582   4.545  28.985  1.00  0.00     0.271 C 
ENDBRANCH  44  45
ENDBRANCH  43  44
ENDBRANCH  42  43
ENDBRANCH  39  42
ENDBRANCH   1  39
TORSDOF 10
ENDMDL
