MODEL 1
REMARK VINA RESULT: -7.310887996      0.000      0.000
REMARK  3 active torsions:
REMARK  status: ('A' for Active; 'I' for Inactive)
REMARK    1  A    between atoms: O1_2  and  C2_3 
REMARK    2  A    between atoms: N1_7  and  S2_9 
REMARK    3  A    between atoms: S2_9  and  C5_12 
ROOT
HETATM    1  S2  UNL     1     -19.620  15.917 -14.264  1.00  0.00     0.265 S 
HETATM    2  O2  UNL     1     -19.672  14.601 -13.515  1.00  0.00    -0.200 OA
HETATM    3  O3  UNL     1     -20.028  15.610 -15.689  1.00  0.00    -0.200 OA
ENDROOT
BRANCH   1   4
HETATM    4  N1  UNL     1     -18.050  16.596 -14.214  1.00  0.00    -0.269 N 
HETATM    5  C4  UNL     1     -17.110  15.954 -14.782  1.00  0.00     0.119 C 
HETATM    6  S1  UNL     1     -17.121  14.399 -15.669  1.00  0.00    -0.101 SA
HETATM    7  S3  UNL     1     -15.408  16.505 -14.833  1.00  0.00    -0.072 SA
HETATM    8  C3  UNL     1     -15.494  14.482 -16.515  1.00  0.00     0.124 C 
HETATM    9  C2  UNL     1     -14.584  14.983 -15.443  1.00  0.00     0.198 C 
ATOM     10  H1  UNL     1     -17.873  17.485 -13.744  1.00  0.00     0.180 HD
BRANCH   9  11
HETATM   11  O1  UNL     1     -13.304  15.241 -15.866  1.00  0.00    -0.379 OA
HETATM   12  C1  UNL     1     -12.735  16.168 -14.992  1.00  0.00     0.203 C 
ENDBRANCH   9  11
ENDBRANCH   1   4
BRANCH   1  13
HETATM   13  C5  UNL     1     -20.725  17.064 -13.548  1.00  0.00     0.099 A 
HETATM   14  C6  UNL     1     -21.384  16.790 -12.390  1.00  0.00     0.052 A 
HETATM   15  C7  UNL     1     -22.244  17.708 -11.854  1.00  0.00     0.057 A 
HETATM   16 CL1  UNL     1     -23.111  17.393 -10.365  1.00  0.00    -0.083 Cl
HETATM   17  C8  UNL     1     -22.447  18.916 -12.485  1.00  0.00     0.057 A 
HETATM   18 CL2  UNL     1     -23.540  20.110 -11.822  1.00  0.00    -0.083 Cl
HETATM   19  C9  UNL     1     -21.765  19.183 -13.670  1.00  0.00     0.046 A 
HETATM   20  C10 UNL     1     -20.911  18.266 -14.199  1.00  0.00     0.036 A 
HETATM   21 BR1  UNL     1     -19.991  18.654 -15.823  1.00  0.00    -0.049 Br
ENDBRANCH   1  13
TORSDOF 3
ENDMDL
MODEL 2
REMARK VINA RESULT: -7.042701658      1.242      1.242
REMARK  3 active torsions:
REMARK  status: ('A' for Active; 'I' for Inactive)
REMARK    1  A    between atoms: O1_2  and  C2_3 
REMARK    2  A    between atoms: N1_7  and  S2_9 
REMARK    3  A    between atoms: S2_9  and  C5_12 
ROOT
HETATM    1  S2  UNL     1     -19.055  15.636 -14.294  1.00  0.00     0.265 S 
HETATM    2  O2  UNL     1     -19.600  14.235 -14.099  1.00  0.00    -0.200 OA
HETATM    3  O3  UNL     1     -19.216  15.952 -15.765  1.00  0.00    -0.200 OA
ENDROOT
BRANCH   1   4
HETATM    4  N1  UNL     1     -17.411  15.730 -13.829  1.00  0.00    -0.269 N 
HETATM    5  C4  UNL     1     -16.557  15.121 -14.550  1.00  0.00     0.119 C 
HETATM    6  S1  UNL     1     -16.761  14.139 -16.032  1.00  0.00    -0.101 SA
HETATM    7  S3  UNL     1     -14.798  15.105 -14.221  1.00  0.00    -0.072 SA
HETATM    8  C3  UNL     1     -15.027  14.062 -16.627  1.00  0.00     0.124 C 
HETATM    9  C2  UNL     1     -14.256  13.789 -15.378  1.00  0.00     0.198 C 
ATOM     10  H1  UNL     1     -17.125  16.256 -13.002  1.00  0.00     0.180 HD
BRANCH   9  11
HETATM   11  O1  UNL     1     -12.893  13.796 -15.544  1.00  0.00    -0.379 OA
HETATM   12  C1  UNL     1     -12.387  14.949 -14.941  1.00  0.00     0.203 C 
ENDBRANCH   9  11
ENDBRANCH   1   4
BRANCH   1  13
HETATM   13  C5  UNL     1     -19.955  16.775 -13.323  1.00  0.00     0.099 A 
HETATM   14  C6  UNL     1     -20.995  16.380 -12.542  1.00  0.00     0.052 A 
HETATM   15  C7  UNL     1     -21.681  17.295 -11.794  1.00  0.00     0.057 A 
HETATM   16 CL1  UNL     1     -23.026  16.826 -10.776  1.00  0.00    -0.083 Cl
HETATM   17  C8  UNL     1     -21.320  18.625 -11.827  1.00  0.00     0.057 A 
HETATM   18 CL2  UNL     1     -22.179  19.819 -10.880  1.00  0.00    -0.083 Cl
HETATM   19  C9  UNL     1     -20.253  19.016 -12.632  1.00  0.00     0.046 A 
HETATM   20  C10 UNL     1     -19.573  18.100 -13.375  1.00  0.00     0.036 A 
HETATM   21 BR1  UNL     1     -18.116  18.661 -14.469  1.00  0.00    -0.049 Br
ENDBRANCH   1  13
TORSDOF 3
ENDMDL
MODEL 3
REMARK VINA RESULT: -6.748650815      3.192      4.047
REMARK  3 active torsions:
REMARK  status: ('A' for Active; 'I' for Inactive)
REMARK    1  A    between atoms: O1_2  and  C2_3 
REMARK    2  A    between atoms: N1_7  and  S2_9 
REMARK    3  A    between atoms: S2_9  and  C5_12 
ROOT
HETATM    1  S2  UNL     1     -20.559  18.436 -12.161  1.00  0.00     0.265 S 
HETATM    2  O2  UNL     1     -20.345  19.338 -10.962  1.00  0.00    -0.200 OA
HETATM    3  O3  UNL     1     -21.258  17.198 -11.641  1.00  0.00    -0.200 OA
ENDROOT
BRANCH   1   4
HETATM    4  N1  UNL     1     -19.072  18.028 -12.902  1.00  0.00    -0.269 N 
HETATM    5  C4  UNL     1     -19.011  16.928 -13.540  1.00  0.00     0.119 C 
HETATM    6  S1  UNL     1     -20.249  15.667 -13.823  1.00  0.00    -0.101 SA
HETATM    7  S3  UNL     1     -17.544  16.336 -14.377  1.00  0.00    -0.072 SA
HETATM    8  C3  UNL     1     -19.460  14.720 -15.182  1.00  0.00     0.124 C 
HETATM    9  C2  UNL     1     -18.041  14.606 -14.731  1.00  0.00     0.198 C 
ATOM     10  H1  UNL     1     -18.262  18.645 -12.835  1.00  0.00     0.180 HD
BRANCH   9  11
HETATM   11  O1  UNL     1     -17.204  14.022 -15.649  1.00  0.00    -0.379 OA
HETATM   12  C1  UNL     1     -16.396  15.018 -16.199  1.00  0.00     0.203 C 
ENDBRANCH   9  11
ENDBRANCH   1   4
BRANCH   1  13
HETATM   13  C5  UNL     1     -21.551  19.240 -13.352  1.00  0.00     0.099 A 
HETATM   14  C6  UNL     1     -21.137  19.392 -14.638  1.00  0.00     0.052 A 
HETATM   15  C7  UNL     1     -21.936  20.028 -15.548  1.00  0.00     0.057 A 
HETATM   16 CL1  UNL     1     -21.439  20.243 -17.213  1.00  0.00    -0.083 Cl
HETATM   17  C8  UNL     1     -23.166  20.517 -15.165  1.00  0.00     0.057 A 
HETATM   18 CL2  UNL     1     -24.209  21.333 -16.307  1.00  0.00    -0.083 Cl
HETATM   19  C9  UNL     1     -23.577  20.354 -13.844  1.00  0.00     0.046 A 
HETATM   20  C10 UNL     1     -22.778  19.721 -12.943  1.00  0.00     0.036 A 
HETATM   21 BR1  UNL     1     -23.363  19.512 -11.141  1.00  0.00    -0.049 Br
ENDBRANCH   1  13
TORSDOF 3
ENDMDL
MODEL 4
REMARK VINA RESULT: -6.633964597      2.264      2.930
REMARK  3 active torsions:
REMARK  status: ('A' for Active; 'I' for Inactive)
REMARK    1  A    between atoms: O1_2  and  C2_3 
REMARK    2  A    between atoms: N1_7  and  S2_9 
REMARK    3  A    between atoms: S2_9  and  C5_12 
ROOT
HETATM    1  S2  UNL     1     -19.455  16.218 -14.285  1.00  0.00     0.265 S 
HETATM    2  O2  UNL     1     -18.612  16.357 -13.032  1.00  0.00    -0.200 OA
HETATM    3  O3  UNL     1     -20.367  15.033 -14.053  1.00  0.00    -0.200 OA
ENDROOT
BRANCH   1   4
HETATM    4  N1  UNL     1     -18.474  15.969 -15.665  1.00  0.00    -0.269 N 
HETATM    5  C4  UNL     1     -17.259  15.643 -15.475  1.00  0.00     0.119 C 
HETATM    6  S1  UNL     1     -16.337  15.380 -13.963  1.00  0.00    -0.101 SA
HETATM    7  S3  UNL     1     -16.085  15.342 -16.792  1.00  0.00    -0.072 SA
HETATM    8  C3  UNL     1     -14.859  14.511 -14.616  1.00  0.00     0.124 C 
HETATM    9  C2  UNL     1     -14.519  15.299 -15.838  1.00  0.00     0.198 C 
ATOM     10  H1  UNL     1     -18.850  16.078 -16.607  1.00  0.00     0.180 HD
BRANCH   9  11
HETATM   11  O1  UNL     1     -13.492  14.771 -16.581  1.00  0.00    -0.379 OA
HETATM   12  C1  UNL     1     -12.733  13.946 -15.750  1.00  0.00     0.203 C 
ENDBRANCH   9  11
ENDBRANCH   1   4
BRANCH   1  13
HETATM   13  C5  UNL     1     -20.393  17.668 -14.545  1.00  0.00     0.099 A 
HETATM   14  C6  UNL     1     -20.256  18.411 -15.676  1.00  0.00     0.052 A 
HETATM   15  C7  UNL     1     -21.004  19.542 -15.851  1.00  0.00     0.057 A 
HETATM   16 CL1  UNL     1     -20.857  20.525 -17.293  1.00  0.00    -0.083 Cl
HETATM   17  C8  UNL     1     -21.902  19.934 -14.882  1.00  0.00     0.057 A 
HETATM   18 CL2  UNL     1     -22.873  21.375 -15.079  1.00  0.00    -0.083 Cl
HETATM   19  C9  UNL     1     -22.031  19.163 -13.728  1.00  0.00     0.046 A 
HETATM   20  C10 UNL     1     -21.284  18.039 -13.560  1.00  0.00     0.036 A 
HETATM   21 BR1  UNL     1     -21.479  17.001 -11.972  1.00  0.00    -0.049 Br
ENDBRANCH   1  13
TORSDOF 3
ENDMDL
MODEL 5
REMARK VINA RESULT: -6.316693785      3.276      4.200
REMARK  3 active torsions:
REMARK  status: ('A' for Active; 'I' for Inactive)
REMARK    1  A    between atoms: O1_2  and  C2_3 
REMARK    2  A    between atoms: N1_7  and  S2_9 
REMARK    3  A    between atoms: S2_9  and  C5_12 
ROOT
HETATM    1  S2  UNL     1     -20.774  18.318 -12.120  1.00  0.00     0.265 S 
HETATM    2  O2  UNL     1     -19.397  18.939 -11.983  1.00  0.00    -0.200 OA
HETATM    3  O3  UNL     1     -21.426  18.429 -10.759  1.00  0.00    -0.200 OA
ENDROOT
BRANCH   1   4
HETATM    4  N1  UNL     1     -20.667  16.683 -12.612  1.00  0.00    -0.269 N 
HETATM    5  C4  UNL     1     -19.738  16.369 -13.423  1.00  0.00     0.119 C 
HETATM    6  S1  UNL     1     -18.457  17.364 -14.181  1.00  0.00    -0.101 SA
HETATM    7  S3  UNL     1     -19.470  14.713 -14.048  1.00  0.00    -0.072 SA
HETATM    8  C3  UNL     1     -17.331  16.052 -14.795  1.00  0.00     0.124 C 
HETATM    9  C2  UNL     1     -18.269  15.056 -15.391  1.00  0.00     0.198 C 
ATOM     10  H1  UNL     1     -21.326  15.984 -12.268  1.00  0.00     0.180 HD
BRANCH   9  11
HETATM   11  O1  UNL     1     -17.664  13.904 -15.829  1.00  0.00    -0.379 OA
HETATM   12  C1  UNL     1     -16.326  14.192 -16.102  1.00  0.00     0.203 C 
ENDBRANCH   9  11
ENDBRANCH   1   4
BRANCH   1  13
HETATM   13  C5  UNL     1     -21.708  19.181 -13.316  1.00  0.00     0.099 A 
HETATM   14  C6  UNL     1     -21.269  19.326 -14.595  1.00  0.00     0.052 A 
HETATM   15  C7  UNL     1     -22.023  20.008 -15.509  1.00  0.00     0.057 A 
HETATM   16 CL1  UNL     1     -21.492  20.217 -17.164  1.00  0.00    -0.083 Cl
HETATM   17  C8  UNL     1     -23.235  20.551 -15.139  1.00  0.00     0.057 A 
HETATM   18 CL2  UNL     1     -24.221  21.426 -16.286  1.00  0.00    -0.083 Cl
HETATM   19  C9  UNL     1     -23.672  20.394 -13.825  1.00  0.00     0.046 A 
HETATM   20  C10 UNL     1     -22.918  19.715 -12.920  1.00  0.00     0.036 A 
HETATM   21 BR1  UNL     1     -23.538  19.515 -11.129  1.00  0.00    -0.049 Br
ENDBRANCH   1  13
TORSDOF 3
ENDMDL
