MODEL 1
REMARK VINA RESULT: -7.991901939      0.000      0.000
REMARK  2 active torsions:
REMARK  status: ('A' for Active; 'I' for Inactive)
REMARK    1  A    between atoms: C4_6  and  C5_7 
REMARK    2  A    between atoms: C8_10  and  S1_11 
ROOT
HETATM    1  C1  UNL     1      -8.300  13.929 -20.344  1.00  0.00     0.159 C 
HETATM    2  N1  UNL     1      -9.500  14.097 -19.551  1.00  0.00    -0.325 N 
HETATM    3  C2  UNL     1      -9.743  15.201 -18.824  1.00  0.00     0.137 A 
HETATM    4  C3  UNL     1     -10.851  15.412 -18.064  1.00  0.00     0.144 A 
HETATM    5  F1  UNL     1     -11.084  16.531 -17.335  1.00  0.00    -0.204 F 
HETATM    6  C4  UNL     1     -11.818  14.381 -18.046  1.00  0.00     0.031 A 
HETATM    7  C12 UNL     1     -11.600  13.246 -18.777  1.00  0.00     0.057 A 
HETATM    8  C13 UNL     1     -12.559  12.167 -18.786  1.00  0.00    -0.016 A 
HETATM    9  C14 UNL     1     -13.139  11.821 -20.001  1.00  0.00     0.038 A 
HETATM   10  C15 UNL     1     -14.059  10.807 -20.136  1.00  0.00     0.058 A 
HETATM   11 CL1  UNL     1     -14.775  10.394 -21.689  1.00  0.00    -0.082 Cl
HETATM   12  C16 UNL     1     -14.432  10.088 -19.005  1.00  0.00     0.076 A 
HETATM   13 CL2  UNL     1     -15.605   8.789 -19.168  1.00  0.00    -0.081 Cl
HETATM   14  C17 UNL     1     -13.868  10.409 -17.774  1.00  0.00     0.068 A 
HETATM   15  C18 UNL     1     -14.279   9.642 -16.629  1.00  0.00     0.101 C 
HETATM   16  N2  UNL     1     -14.615   9.008 -15.719  1.00  0.00    -0.191 NA
HETATM   17  C19 UNL     1     -12.948  11.435 -17.683  1.00  0.00     0.037 A 
HETATM   18  C20 UNL     1     -10.427  13.131 -19.522  1.00  0.00     0.259 A 
HETATM   19  O3  UNL     1     -10.264  12.071 -20.182  1.00  0.00    -0.267 OA
ENDROOT
BRANCH   6  20
HETATM   20  C5  UNL     1     -13.024  14.525 -17.267  1.00  0.00    -0.022 A 
HETATM   21  C6  UNL     1     -14.210  14.855 -17.878  1.00  0.00     0.014 A 
HETATM   22  C7  UNL     1     -15.397  14.994 -17.195  1.00  0.00     0.024 A 
HETATM   23  C8  UNL     1     -15.418  14.800 -15.845  1.00  0.00     0.058 A 
HETATM   24  C10 UNL     1     -14.244  14.466 -15.181  1.00  0.00     0.024 A 
HETATM   25  C11 UNL     1     -13.055  14.332 -15.912  1.00  0.00     0.014 A 
BRANCH  23  26
HETATM   26  S1  UNL     1     -16.920  14.968 -14.959  1.00  0.00     0.171 S 
HETATM   27  C9  UNL     1     -17.900  16.245 -15.740  1.00  0.00     0.167 C 
HETATM   28  O1  UNL     1     -16.653  15.457 -13.547  1.00  0.00    -0.223 OA
HETATM   29  O2  UNL     1     -17.693  13.700 -14.884  1.00  0.00    -0.223 OA
ENDBRANCH  23  26
ENDBRANCH   6  20
TORSDOF 2
ENDMDL
MODEL 2
REMARK VINA RESULT: -7.515339102      3.188      6.319
REMARK  2 active torsions:
REMARK  status: ('A' for Active; 'I' for Inactive)
REMARK    1  A    between atoms: C4_6  and  C5_7 
REMARK    2  A    between atoms: C8_10  and  S1_11 
ROOT
HETATM    1  C1  UNL     1     -16.561  14.979 -14.373  1.00  0.00     0.159 C 
HETATM    2  N1  UNL     1     -15.552  14.331 -15.183  1.00  0.00    -0.325 N 
HETATM    3  C2  UNL     1     -14.234  14.515 -14.989  1.00  0.00     0.137 A 
HETATM    4  C3  UNL     1     -13.245  13.931 -15.716  1.00  0.00     0.144 A 
HETATM    5  F1  UNL     1     -11.919  14.126 -15.510  1.00  0.00    -0.204 F 
HETATM    6  C4  UNL     1     -13.645  13.063 -16.757  1.00  0.00     0.031 A 
HETATM    7  C12 UNL     1     -14.979  12.854 -16.978  1.00  0.00     0.057 A 
HETATM    8  C13 UNL     1     -15.433  11.977 -18.031  1.00  0.00    -0.016 A 
HETATM    9  C14 UNL     1     -16.184  10.864 -17.674  1.00  0.00     0.038 A 
HETATM   10  C15 UNL     1     -16.678   9.961 -18.587  1.00  0.00     0.058 A 
HETATM   11 CL1  UNL     1     -17.625   8.561 -18.101  1.00  0.00    -0.082 Cl
HETATM   12  C16 UNL     1     -16.417  10.168 -19.938  1.00  0.00     0.076 A 
HETATM   13 CL2  UNL     1     -17.046   9.021 -21.113  1.00  0.00    -0.081 Cl
HETATM   14  C17 UNL     1     -15.670  11.274 -20.329  1.00  0.00     0.068 A 
HETATM   15  C18 UNL     1     -15.423  11.452 -21.735  1.00  0.00     0.101 C 
HETATM   16  N2  UNL     1     -15.240  11.585 -22.871  1.00  0.00    -0.191 NA
HETATM   17  C19 UNL     1     -15.193  12.155 -19.378  1.00  0.00     0.037 A 
HETATM   18  C20 UNL     1     -15.913  13.504 -16.173  1.00  0.00     0.259 A 
HETATM   19  O3  UNL     1     -17.130  13.286 -16.408  1.00  0.00    -0.267 OA
ENDROOT
BRANCH   6  20
HETATM   20  C5  UNL     1     -12.660  12.400 -17.576  1.00  0.00    -0.022 A 
HETATM   21  C6  UNL     1     -11.940  13.109 -18.507  1.00  0.00     0.014 A 
HETATM   22  C7  UNL     1     -10.978  12.541 -19.310  1.00  0.00     0.024 A 
HETATM   23  C8  UNL     1     -10.710  11.208 -19.192  1.00  0.00     0.058 A 
HETATM   24  C10 UNL     1     -11.412  10.448 -18.265  1.00  0.00     0.024 A 
HETATM   25  C11 UNL     1     -12.384  11.064 -17.465  1.00  0.00     0.014 A 
BRANCH  23  26
HETATM   26  S1  UNL     1      -9.485  10.467 -20.202  1.00  0.00     0.171 S 
HETATM   27  C9  UNL     1      -7.887  10.737 -19.444  1.00  0.00     0.167 C 
HETATM   28  O1  UNL     1      -9.424  11.154 -21.554  1.00  0.00    -0.223 OA
HETATM   29  O2  UNL     1      -9.715   9.014 -20.418  1.00  0.00    -0.223 OA
ENDBRANCH  23  26
ENDBRANCH   6  20
TORSDOF 2
ENDMDL
MODEL 3
REMARK VINA RESULT: -7.463921136      3.192      6.336
REMARK  2 active torsions:
REMARK  status: ('A' for Active; 'I' for Inactive)
REMARK    1  A    between atoms: C4_6  and  C5_7 
REMARK    2  A    between atoms: C8_10  and  S1_11 
ROOT
HETATM    1  C1  UNL     1     -16.577  14.971 -14.369  1.00  0.00     0.159 C 
HETATM    2  N1  UNL     1     -15.563  14.336 -15.184  1.00  0.00    -0.325 N 
HETATM    3  C2  UNL     1     -14.247  14.535 -14.994  1.00  0.00     0.137 A 
HETATM    4  C3  UNL     1     -13.253  13.965 -15.727  1.00  0.00     0.144 A 
HETATM    5  F1  UNL     1     -11.929  14.175 -15.525  1.00  0.00    -0.204 F 
HETATM    6  C4  UNL     1     -13.648  13.095 -16.768  1.00  0.00     0.031 A 
HETATM    7  C12 UNL     1     -14.979  12.871 -16.985  1.00  0.00     0.057 A 
HETATM    8  C13 UNL     1     -15.428  11.991 -18.039  1.00  0.00    -0.016 A 
HETATM    9  C14 UNL     1     -16.164  10.868 -17.681  1.00  0.00     0.038 A 
HETATM   10  C15 UNL     1     -16.651   9.962 -18.595  1.00  0.00     0.058 A 
HETATM   11 CL1  UNL     1     -17.579   8.549 -18.108  1.00  0.00    -0.082 Cl
HETATM   12  C16 UNL     1     -16.398  10.175 -19.946  1.00  0.00     0.076 A 
HETATM   13 CL2  UNL     1     -17.017   9.024 -21.121  1.00  0.00    -0.081 Cl
HETATM   14  C17 UNL     1     -15.665  11.292 -20.337  1.00  0.00     0.068 A 
HETATM   15  C18 UNL     1     -15.425  11.476 -21.743  1.00  0.00     0.101 C 
HETATM   16  N2  UNL     1     -15.249  11.614 -22.880  1.00  0.00    -0.191 NA
HETATM   17  C19 UNL     1     -15.195  12.176 -19.386  1.00  0.00     0.037 A 
HETATM   18  C20 UNL     1     -15.918  13.508 -16.174  1.00  0.00     0.259 A 
HETATM   19  O3  UNL     1     -17.134  13.276 -16.405  1.00  0.00    -0.267 OA
ENDROOT
BRANCH   6  20
HETATM   20  C5  UNL     1     -12.657  12.446 -17.593  1.00  0.00    -0.022 A 
HETATM   21  C6  UNL     1     -12.398  11.105 -17.443  1.00  0.00     0.014 A 
HETATM   22  C7  UNL     1     -11.477  10.425 -18.205  1.00  0.00     0.024 A 
HETATM   23  C8  UNL     1     -10.774  11.097 -19.162  1.00  0.00     0.058 A 
HETATM   24  C10 UNL     1     -10.999  12.455 -19.352  1.00  0.00     0.024 A 
HETATM   25  C11 UNL     1     -11.947  13.112 -18.555  1.00  0.00     0.014 A 
BRANCH  23  26
HETATM   26  S1  UNL     1      -9.600  10.247 -20.146  1.00  0.00     0.171 S 
HETATM   27  C9  UNL     1     -10.454   9.495 -21.526  1.00  0.00     0.167 C 
HETATM   28  O1  UNL     1      -8.983   9.100 -19.366  1.00  0.00    -0.223 OA
HETATM   29  O2  UNL     1      -8.508  11.130 -20.636  1.00  0.00    -0.223 OA
ENDBRANCH  23  26
ENDBRANCH   6  20
TORSDOF 2
ENDMDL
MODEL 4
REMARK VINA RESULT: -7.294442472      0.844      1.217
REMARK  2 active torsions:
REMARK  status: ('A' for Active; 'I' for Inactive)
REMARK    1  A    between atoms: C4_6  and  C5_7 
REMARK    2  A    between atoms: C8_10  and  S1_11 
ROOT
HETATM    1  C1  UNL     1      -7.685  14.447 -20.580  1.00  0.00     0.159 C 
HETATM    2  N1  UNL     1      -8.900  14.488 -19.794  1.00  0.00    -0.325 N 
HETATM    3  C2  UNL     1      -9.255  15.555 -19.058  1.00  0.00     0.137 A 
HETATM    4  C3  UNL     1     -10.383  15.648 -18.305  1.00  0.00     0.144 A 
HETATM    5  F1  UNL     1     -10.730  16.730 -17.566  1.00  0.00    -0.204 F 
HETATM    6  C4  UNL     1     -11.244  14.527 -18.303  1.00  0.00     0.031 A 
HETATM    7  C12 UNL     1     -10.910  13.426 -19.043  1.00  0.00     0.057 A 
HETATM    8  C13 UNL     1     -11.758  12.258 -19.070  1.00  0.00    -0.016 A 
HETATM    9  C14 UNL     1     -12.294  11.869 -20.292  1.00  0.00     0.038 A 
HETATM   10  C15 UNL     1     -13.108  10.770 -20.443  1.00  0.00     0.058 A 
HETATM   11 CL1  UNL     1     -13.771  10.305 -22.005  1.00  0.00    -0.082 Cl
HETATM   12  C16 UNL     1     -13.415  10.007 -19.322  1.00  0.00     0.076 A 
HETATM   13 CL2  UNL     1     -14.454   8.600 -19.506  1.00  0.00    -0.081 Cl
HETATM   14  C17 UNL     1     -12.893  10.369 -18.084  1.00  0.00     0.068 A 
HETATM   15  C18 UNL     1     -13.234   9.553 -16.949  1.00  0.00     0.101 C 
HETATM   16  N2  UNL     1     -13.511   8.880 -16.048  1.00  0.00    -0.191 NA
HETATM   17  C19 UNL     1     -12.080  11.479 -17.977  1.00  0.00     0.037 A 
HETATM   18  C20 UNL     1      -9.727  13.435 -19.781  1.00  0.00     0.259 A 
HETATM   19  O3  UNL     1      -9.456  12.403 -20.450  1.00  0.00    -0.267 OA
ENDROOT
BRANCH   6  20
HETATM   20  C5  UNL     1     -12.463  14.542 -17.532  1.00  0.00    -0.022 A 
HETATM   21  C6  UNL     1     -12.437  14.268 -16.186  1.00  0.00     0.014 A 
HETATM   22  C7  UNL     1     -13.561  14.279 -15.392  1.00  0.00     0.024 A 
HETATM   23  C8  UNL     1     -14.771  14.573 -15.949  1.00  0.00     0.058 A 
HETATM   24  C10 UNL     1     -14.849  14.857 -17.307  1.00  0.00     0.024 A 
HETATM   25  C11 UNL     1     -13.681  14.837 -18.082  1.00  0.00     0.014 A 
BRANCH  23  26
HETATM   26  S1  UNL     1     -16.212  14.597 -14.954  1.00  0.00     0.171 S 
HETATM   27  C9  UNL     1     -17.376  15.753 -15.668  1.00  0.00     0.167 C 
HETATM   28  O1  UNL     1     -15.894  15.132 -13.570  1.00  0.00    -0.223 OA
HETATM   29  O2  UNL     1     -16.839  13.256 -14.811  1.00  0.00    -0.223 OA
ENDBRANCH  23  26
ENDBRANCH   6  20
TORSDOF 2
ENDMDL
MODEL 5
REMARK VINA RESULT: -7.265183285      1.075      1.428
REMARK  2 active torsions:
REMARK  status: ('A' for Active; 'I' for Inactive)
REMARK    1  A    between atoms: C4_6  and  C5_7 
REMARK    2  A    between atoms: C8_10  and  S1_11 
ROOT
HETATM    1  C1  UNL     1      -8.367  12.738 -21.207  1.00  0.00     0.159 C 
HETATM    2  N1  UNL     1      -9.416  13.120 -20.286  1.00  0.00    -0.325 N 
HETATM    3  C2  UNL     1      -9.388  14.267 -19.585  1.00  0.00     0.137 A 
HETATM    4  C3  UNL     1     -10.344  14.676 -18.710  1.00  0.00     0.144 A 
HETATM    5  F1  UNL     1     -10.303  15.835 -18.009  1.00  0.00    -0.204 F 
HETATM    6  C4  UNL     1     -11.453  13.818 -18.530  1.00  0.00     0.031 A 
HETATM    7  C12 UNL     1     -11.512  12.644 -19.230  1.00  0.00     0.057 A 
HETATM    8  C13 UNL     1     -12.625  11.737 -19.076  1.00  0.00    -0.016 A 
HETATM    9  C14 UNL     1     -13.399  11.460 -20.197  1.00  0.00     0.038 A 
HETATM   10  C15 UNL     1     -14.479  10.607 -20.176  1.00  0.00     0.058 A 
HETATM   11 CL1  UNL     1     -15.439  10.278 -21.613  1.00  0.00    -0.082 Cl
HETATM   12  C16 UNL     1     -14.817   9.988 -18.978  1.00  0.00     0.076 A 
HETATM   13 CL2  UNL     1     -16.194   8.895 -18.941  1.00  0.00    -0.081 Cl
HETATM   14  C17 UNL     1     -14.061  10.243 -17.838  1.00  0.00     0.068 A 
HETATM   15  C18 UNL     1     -14.443   9.583 -16.619  1.00  0.00     0.101 C 
HETATM   16  N2  UNL     1     -14.760   9.036 -15.648  1.00  0.00    -0.191 NA
HETATM   17  C19 UNL     1     -12.985  11.107 -17.904  1.00  0.00     0.037 A 
HETATM   18  C20 UNL     1     -10.474  12.320 -20.103  1.00  0.00     0.259 A 
HETATM   19  O3  UNL     1     -10.565  11.231 -20.729  1.00  0.00    -0.267 OA
ENDROOT
BRANCH   6  20
HETATM   20  C5  UNL     1     -12.515  14.177 -17.621  1.00  0.00    -0.022 A 
HETATM   21  C6  UNL     1     -12.322  14.100 -16.263  1.00  0.00     0.014 A 
HETATM   22  C7  UNL     1     -13.288  14.439 -15.344  1.00  0.00     0.024 A 
HETATM   23  C8  UNL     1     -14.505  14.875 -15.781  1.00  0.00     0.058 A 
HETATM   24  C10 UNL     1     -14.749  14.969 -17.146  1.00  0.00     0.024 A 
HETATM   25  C11 UNL     1     -13.739  14.615 -18.051  1.00  0.00     0.014 A 
BRANCH  23  26
HETATM   26  S1  UNL     1     -15.745  15.316 -14.626  1.00  0.00     0.171 S 
HETATM   27  C9  UNL     1     -17.224  14.378 -14.995  1.00  0.00     0.167 C 
HETATM   28  O1  UNL     1     -16.129  16.775 -14.790  1.00  0.00    -0.223 OA
HETATM   29  O2  UNL     1     -15.330  15.090 -13.216  1.00  0.00    -0.223 OA
ENDBRANCH  23  26
ENDBRANCH   6  20
TORSDOF 2
ENDMDL
