MODEL 1
REMARK VINA RESULT: -9.162908142      0.000      0.000
REMARK  11 active torsions:
REMARK  status: ('A' for Active; 'I' for Inactive)
REMARK    1  A    between atoms: C2_2  and  C3_3 
REMARK    2  A    between atoms: C3_3  and  N1_4 
REMARK    3  A    between atoms: C6_7  and  C7_8 
REMARK    4  A    between atoms: C8_9  and  C9_10 
REMARK       I    between atoms: N3_15  and  C12_17 
REMARK       I    between atoms: C12_17  and  N4_19 
REMARK    5  A    between atoms: N4_19  and  C13_21 
REMARK    6  A    between atoms: C13_21  and  C14_22 
REMARK    7  A    between atoms: C13_21  and  C18_33 
REMARK    8  A    between atoms: C14_22  and  C15_23 
REMARK    9  A    between atoms: C17_27  and  N6_28 
REMARK   10  A    between atoms: C18_33  and  O2_34 
REMARK   11  A    between atoms: C18_33  and  N8_36 
ROOT
HETATM    1  C9  UNL     1      15.539   3.905  19.315  1.00  0.00     0.065 A 
HETATM    2  C10 UNL     1      15.460   5.250  19.177  1.00  0.00     0.136 A 
HETATM    3  N2  UNL     1      15.576   5.793  20.428  1.00  0.00    -0.199 N 
ATOM      4  H2  UNL     1      15.553   6.790  20.638  1.00  0.00     0.183 HD
HETATM    5  C11 UNL     1      15.723   4.832  21.323  1.00  0.00     0.686 A 
HETATM    6  N3  UNL     1      15.871   4.990  22.600  1.00  0.00    -0.141 N 
ATOM      7  H3  UNL     1      15.973   4.153  23.174  1.00  0.00     0.189 HD
HETATM    8  C12 UNL     1      15.900   6.241  23.252  1.00  0.00     0.335 C 
HETATM    9  O1  UNL     1      16.653   7.159  22.781  1.00  0.00    -0.246 OA
HETATM   10  N4  UNL     1      15.135   6.490  24.384  1.00  0.00    -0.330 N 
ATOM     11  H4  UNL     1      14.531   5.761  24.764  1.00  0.00     0.165 HD
HETATM   12  N10 UNL     1      15.701   3.676  20.655  1.00  0.00    -0.190 N 
ATOM     13  H10 UNL     1      15.791   2.754  21.082  1.00  0.00     0.184 HD
ENDROOT
BRANCH  10  14
HETATM   14  C13 UNL     1      15.200   7.829  25.043  1.00  0.00     0.166 C 
BRANCH  14  15
HETATM   15  C14 UNL     1      15.045   8.902  24.068  1.00  0.00     0.092 C 
BRANCH  15  16
HETATM   16  C15 UNL     1      14.398  10.143  24.522  1.00  0.00     0.045 A 
HETATM   17  C16 UNL     1      14.194  11.313  23.838  1.00  0.00     0.131 A 
HETATM   18  N5  UNL     1      13.563  12.188  24.633  1.00  0.00    -0.200 N 
HETATM   19  C17 UNL     1      13.364  11.596  25.807  1.00  0.00     0.675 A 
ATOM     20  H5  UNL     1      13.286  13.138  24.383  1.00  0.00     0.183 HD
HETATM   21  N7  UNL     1      13.871  10.353  25.739  1.00  0.00    -0.194 N 
ATOM     22  H7  UNL     1      13.858   9.673  26.498  1.00  0.00     0.184 HD
BRANCH  19  23
HETATM   23  N6  UNL     1      12.785  12.117  26.832  1.00  0.00    -0.234 N 
ATOM     24  H62 UNL     1      11.857  11.875  27.180  1.00  0.00     0.174 HD
ATOM     25  H61 UNL     1      13.170  12.843  27.436  1.00  0.00     0.174 HD
ENDBRANCH  19  23
ENDBRANCH  15  16
ENDBRANCH  14  15
BRANCH  14  26
HETATM   26  C18 UNL     1      16.382   7.742  25.912  1.00  0.00     0.138 C 
BRANCH  26  27
HETATM   27  O2  UNL     1      16.358   8.796  26.764  1.00  0.00    -0.348 OA
ATOM     28  H2  UNL     1      17.180   8.811  27.240  1.00  0.00     0.219 HD
ENDBRANCH  26  27
BRANCH  26  29
HETATM   29  N8  UNL     1      17.457   6.899  26.087  1.00  0.00    -0.338 N 
HETATM   30  C19 UNL     1      18.802   7.291  25.519  1.00  0.00     0.154 C 
HETATM   31  C20 UNL     1      19.112   5.934  24.865  1.00  0.00     0.258 C 
HETATM   32  N9  UNL     1      18.708   4.989  25.909  1.00  0.00    -0.057 N 
HETATM   33  C21 UNL     1      19.875   4.604  26.704  1.00  0.00     0.274 C 
HETATM   34  C22 UNL     1      18.163   3.770  25.391  1.00  0.00     0.274 C 
HETATM   35  C23 UNL     1      17.786   5.698  26.776  1.00  0.00     0.362 C 
ENDBRANCH  26  29
ENDBRANCH  14  26
ENDBRANCH  10  14
BRANCH   1  36
HETATM   36  C8  UNL     1      15.503   2.862  18.329  1.00  0.00     0.028 C 
HETATM   37  C7  UNL     1      16.030   1.698  18.314  1.00  0.00    -0.010 C 
BRANCH  37  38
HETATM   38  C6  UNL     1      16.866   0.940  19.253  1.00  0.00     0.102 C 
HETATM   39  C5  UNL     1      17.462  -0.226  18.424  1.00  0.00     0.038 C 
HETATM   40  C4  UNL     1      18.534   0.428  17.587  1.00  0.00     0.127 C 
HETATM   41  N1  UNL     1      18.901   1.612  18.352  1.00  0.00    -0.348 N 
HETATM   42  C24 UNL     1      18.136   1.693  19.548  1.00  0.00     0.227 C 
HETATM   43  O3  UNL     1      18.473   2.272  20.605  1.00  0.00    -0.273 OA
BRANCH  41  44
HETATM   44  C3  UNL     1      19.930   2.553  17.900  1.00  0.00     0.152 C 
BRANCH  44  45
HETATM   45  C2  UNL     1      21.220   1.821  17.695  1.00  0.00    -0.017 C 
HETATM   46  C1  UNL     1      21.926   1.480  18.749  1.00  0.00     0.008 C 
ENDBRANCH  44  45
ENDBRANCH  41  44
ENDBRANCH  37  38
ENDBRANCH   1  36
TORSDOF 11
ENDMDL
MODEL 2
REMARK VINA RESULT: -9.067141876      4.171      8.438
REMARK  11 active torsions:
REMARK  status: ('A' for Active; 'I' for Inactive)
REMARK    1  A    between atoms: C2_2  and  C3_3 
REMARK    2  A    between atoms: C3_3  and  N1_4 
REMARK    3  A    between atoms: C6_7  and  C7_8 
REMARK    4  A    between atoms: C8_9  and  C9_10 
REMARK       I    between atoms: N3_15  and  C12_17 
REMARK       I    between atoms: C12_17  and  N4_19 
REMARK    5  A    between atoms: N4_19  and  C13_21 
REMARK    6  A    between atoms: C13_21  and  C14_22 
REMARK    7  A    between atoms: C13_21  and  C18_33 
REMARK    8  A    between atoms: C14_22  and  C15_23 
REMARK    9  A    between atoms: C17_27  and  N6_28 
REMARK   10  A    between atoms: C18_33  and  O2_34 
REMARK   11  A    between atoms: C18_33  and  N8_36 
ROOT
HETATM    1  C9  UNL     1      21.140   6.258  27.217  1.00  0.00     0.065 A 
HETATM    2  C10 UNL     1      20.545   5.615  26.184  1.00  0.00     0.136 A 
HETATM    3  N2  UNL     1      19.312   6.182  26.010  1.00  0.00    -0.199 N 
ATOM      4  H2  UNL     1      18.633   5.903  25.302  1.00  0.00     0.183 HD
HETATM    5  C11 UNL     1      19.132   7.145  26.897  1.00  0.00     0.686 A 
HETATM    6  N3  UNL     1      18.081   7.895  27.010  1.00  0.00    -0.141 N 
ATOM      7  H3  UNL     1      18.079   8.603  27.745  1.00  0.00     0.189 HD
HETATM    8  C12 UNL     1      16.940   7.802  26.187  1.00  0.00     0.335 C 
HETATM    9  O1  UNL     1      17.100   7.759  24.919  1.00  0.00    -0.246 OA
HETATM   10  N4  UNL     1      15.658   7.757  26.720  1.00  0.00    -0.330 N 
ATOM     11  H4  UNL     1      15.523   7.790  27.730  1.00  0.00     0.165 HD
HETATM   12  N10 UNL     1      20.240   7.200  27.639  1.00  0.00    -0.190 N 
ATOM     13  H10 UNL     1      20.394   7.850  28.410  1.00  0.00     0.184 HD
ENDROOT
BRANCH  10  14
HETATM   14  C13 UNL     1      14.479   7.660  25.809  1.00  0.00     0.166 C 
BRANCH  14  15
HETATM   15  C14 UNL     1      13.485   8.679  26.126  1.00  0.00     0.092 C 
BRANCH  15  16
HETATM   16  C15 UNL     1      13.711  10.034  25.600  1.00  0.00     0.045 A 
HETATM   17  C16 UNL     1      14.458  10.430  24.521  1.00  0.00     0.131 A 
HETATM   18  N5  UNL     1      14.389  11.763  24.398  1.00  0.00    -0.200 N 
HETATM   19  C17 UNL     1      13.613  12.219  25.378  1.00  0.00     0.675 A 
ATOM     20  H5  UNL     1      14.848  12.326  23.682  1.00  0.00     0.183 HD
HETATM   21  N7  UNL     1      13.202  11.169  26.108  1.00  0.00    -0.194 N 
ATOM     22  H7  UNL     1      12.595  11.224  26.925  1.00  0.00     0.184 HD
BRANCH  19  23
HETATM   23  N6  UNL     1      13.306  13.451  25.592  1.00  0.00    -0.234 N 
ATOM     24  H62 UNL     1      13.966  14.204  25.786  1.00  0.00     0.174 HD
ATOM     25  H61 UNL     1      12.366  13.843  25.599  1.00  0.00     0.174 HD
ENDBRANCH  19  23
ENDBRANCH  15  16
ENDBRANCH  14  15
BRANCH  14  26
HETATM   26  C18 UNL     1      14.143   6.229  25.811  1.00  0.00     0.138 C 
BRANCH  26  27
HETATM   27  O2  UNL     1      12.841   6.100  26.162  1.00  0.00    -0.348 OA
ATOM     28  H2  UNL     1      12.398   5.602  25.486  1.00  0.00     0.219 HD
ENDBRANCH  26  27
BRANCH  26  29
HETATM   29  N8  UNL     1      14.777   5.034  25.549  1.00  0.00    -0.338 N 
HETATM   30  C19 UNL     1      15.235   4.173  26.704  1.00  0.00     0.154 C 
HETATM   31  C20 UNL     1      16.649   3.901  26.164  1.00  0.00     0.258 C 
HETATM   32  N9  UNL     1      16.389   3.617  24.750  1.00  0.00    -0.057 N 
HETATM   33  C21 UNL     1      16.292   2.172  24.548  1.00  0.00     0.274 C 
HETATM   34  C22 UNL     1      17.434   4.069  23.880  1.00  0.00     0.274 C 
HETATM   35  C23 UNL     1      15.100   4.204  24.439  1.00  0.00     0.362 C 
ENDBRANCH  26  29
ENDBRANCH  14  26
ENDBRANCH  10  14
BRANCH   1  36
HETATM   36  C8  UNL     1      22.441   6.085  27.799  1.00  0.00     0.028 C 
HETATM   37  C7  UNL     1      22.806   5.921  29.014  1.00  0.00    -0.010 C 
BRANCH  37  38
HETATM   38  C6  UNL     1      22.094   5.836  30.294  1.00  0.00     0.102 C 
HETATM   39  C5  UNL     1      23.186   5.986  31.383  1.00  0.00     0.038 C 
HETATM   40  C4  UNL     1      23.523   7.458  31.366  1.00  0.00     0.127 C 
HETATM   41  N1  UNL     1      22.320   8.085  30.838  1.00  0.00    -0.348 N 
HETATM   42  C24 UNL     1      21.328   7.107  30.552  1.00  0.00     0.227 C 
HETATM   43  O3  UNL     1      20.090   7.292  30.529  1.00  0.00    -0.273 OA
BRANCH  41  44
HETATM   44  C3  UNL     1      22.205   9.535  30.653  1.00  0.00     0.152 C 
BRANCH  44  45
HETATM   45  C2  UNL     1      23.127   9.972  29.557  1.00  0.00    -0.017 C 
HETATM   46  C1  UNL     1      22.803   9.700  28.314  1.00  0.00     0.008 C 
ENDBRANCH  44  45
ENDBRANCH  41  44
ENDBRANCH  37  38
ENDBRANCH   1  36
TORSDOF 11
ENDMDL
MODEL 3
REMARK VINA RESULT: -9.018010527      2.218      2.695
REMARK  11 active torsions:
REMARK  status: ('A' for Active; 'I' for Inactive)
REMARK    1  A    between atoms: C2_2  and  C3_3 
REMARK    2  A    between atoms: C3_3  and  N1_4 
REMARK    3  A    between atoms: C6_7  and  C7_8 
REMARK    4  A    between atoms: C8_9  and  C9_10 
REMARK       I    between atoms: N3_15  and  C12_17 
REMARK       I    between atoms: C12_17  and  N4_19 
REMARK    5  A    between atoms: N4_19  and  C13_21 
REMARK    6  A    between atoms: C13_21  and  C14_22 
REMARK    7  A    between atoms: C13_21  and  C18_33 
REMARK    8  A    between atoms: C14_22  and  C15_23 
REMARK    9  A    between atoms: C17_27  and  N6_28 
REMARK   10  A    between atoms: C18_33  and  O2_34 
REMARK   11  A    between atoms: C18_33  and  N8_36 
ROOT
HETATM    1  C9  UNL     1      17.265   4.403  19.199  1.00  0.00     0.065 A 
HETATM    2  C10 UNL     1      16.068   5.033  19.124  1.00  0.00     0.136 A 
HETATM    3  N2  UNL     1      15.852   5.639  20.332  1.00  0.00    -0.199 N 
ATOM      4  H2  UNL     1      15.029   6.190  20.573  1.00  0.00     0.183 HD
HETATM    5  C11 UNL     1      16.871   5.403  21.141  1.00  0.00     0.686 A 
HETATM    6  N3  UNL     1      17.000   5.833  22.356  1.00  0.00    -0.141 N 
ATOM      7  H3  UNL     1      17.843   5.571  22.866  1.00  0.00     0.189 HD
HETATM    8  C12 UNL     1      16.054   6.640  23.022  1.00  0.00     0.335 C 
HETATM    9  O1  UNL     1      15.598   7.672  22.422  1.00  0.00    -0.246 OA
HETATM   10  N4  UNL     1      15.615   6.340  24.305  1.00  0.00    -0.330 N 
ATOM     11  H4  UNL     1      15.975   5.517  24.789  1.00  0.00     0.165 HD
HETATM   12  N10 UNL     1      17.738   4.649  20.460  1.00  0.00    -0.190 N 
ATOM     13  H10 UNL     1      18.625   4.306  20.827  1.00  0.00     0.184 HD
ENDROOT
BRANCH  10  14
HETATM   14  C13 UNL     1      14.614   7.224  24.973  1.00  0.00     0.166 C 
BRANCH  14  15
HETATM   15  C14 UNL     1      15.255   8.401  25.548  1.00  0.00     0.092 C 
BRANCH  15  16
HETATM   16  C15 UNL     1      14.497   9.662  25.531  1.00  0.00     0.045 A 
HETATM   17  C16 UNL     1      14.365  10.579  24.520  1.00  0.00     0.131 A 
HETATM   18  N5  UNL     1      13.580  11.585  24.933  1.00  0.00    -0.200 N 
HETATM   19  C17 UNL     1      13.213  11.323  26.184  1.00  0.00     0.675 A 
ATOM     20  H5  UNL     1      13.313  12.403  24.385  1.00  0.00     0.183 HD
HETATM   21  N7  UNL     1      13.770  10.156  26.547  1.00  0.00    -0.194 N 
ATOM     22  H7  UNL     1      13.658   9.711  27.458  1.00  0.00     0.184 HD
BRANCH  19  23
HETATM   23  N6  UNL     1      12.455  12.057  26.922  1.00  0.00    -0.234 N 
ATOM     24  H62 UNL     1      12.689  12.982  27.283  1.00  0.00     0.174 HD
ATOM     25  H61 UNL     1      11.519  11.818  27.248  1.00  0.00     0.174 HD
ENDBRANCH  19  23
ENDBRANCH  15  16
ENDBRANCH  14  15
BRANCH  14  26
HETATM   26  C18 UNL     1      13.815   6.304  25.793  1.00  0.00     0.138 C 
BRANCH  26  27
HETATM   27  O2  UNL     1      12.533   6.744  25.797  1.00  0.00    -0.348 OA
ATOM     28  H2  UNL     1      12.344   7.101  26.656  1.00  0.00     0.219 HD
ENDBRANCH  26  27
BRANCH  26  29
HETATM   29  N8  UNL     1      14.018   5.152  26.521  1.00  0.00    -0.338 N 
HETATM   30  C19 UNL     1      14.769   5.228  27.830  1.00  0.00     0.154 C 
HETATM   31  C20 UNL     1      15.705   4.038  27.559  1.00  0.00     0.258 C 
HETATM   32  N9  UNL     1      14.787   3.046  26.993  1.00  0.00    -0.057 N 
HETATM   33  C21 UNL     1      14.330   2.141  28.047  1.00  0.00     0.274 C 
HETATM   34  C22 UNL     1      15.392   2.218  25.994  1.00  0.00     0.274 C 
HETATM   35  C23 UNL     1      13.637   3.780  26.500  1.00  0.00     0.362 C 
ENDBRANCH  26  29
ENDBRANCH  14  26
ENDBRANCH  10  14
BRANCH   1  36
HETATM   36  C8  UNL     1      17.982   3.643  18.215  1.00  0.00     0.028 C 
HETATM   37  C7  UNL     1      18.472   2.463  18.255  1.00  0.00    -0.010 C 
BRANCH  37  38
HETATM   38  C6  UNL     1      18.517   1.406  19.273  1.00  0.00     0.102 C 
HETATM   39  C5  UNL     1      19.055   0.151  18.540  1.00  0.00     0.038 C 
HETATM   40  C4  UNL     1      20.531   0.424  18.378  1.00  0.00     0.127 C 
HETATM   41  N1  UNL     1      20.834   1.355  19.456  1.00  0.00    -0.348 N 
HETATM   42  C24 UNL     1      19.667   1.638  20.217  1.00  0.00     0.227 C 
HETATM   43  O3  UNL     1      19.634   2.000  21.415  1.00  0.00    -0.273 OA
BRANCH  41  44
HETATM   44  C3  UNL     1      22.181   1.889  19.678  1.00  0.00     0.152 C 
BRANCH  44  45
HETATM   45  C2  UNL     1      22.955   0.947  20.547  1.00  0.00    -0.017 C 
HETATM   46  C1  UNL     1      23.513   1.412  21.641  1.00  0.00     0.008 C 
ENDBRANCH  44  45
ENDBRANCH  41  44
ENDBRANCH  37  38
ENDBRANCH   1  36
TORSDOF 11
ENDMDL
MODEL 4
REMARK VINA RESULT: -8.900387754      1.957      2.425
REMARK  11 active torsions:
REMARK  status: ('A' for Active; 'I' for Inactive)
REMARK    1  A    between atoms: C2_2  and  C3_3 
REMARK    2  A    between atoms: C3_3  and  N1_4 
REMARK    3  A    between atoms: C6_7  and  C7_8 
REMARK    4  A    between atoms: C8_9  and  C9_10 
REMARK       I    between atoms: N3_15  and  C12_17 
REMARK       I    between atoms: C12_17  and  N4_19 
REMARK    5  A    between atoms: N4_19  and  C13_21 
REMARK    6  A    between atoms: C13_21  and  C14_22 
REMARK    7  A    between atoms: C13_21  and  C18_33 
REMARK    8  A    between atoms: C14_22  and  C15_23 
REMARK    9  A    between atoms: C17_27  and  N6_28 
REMARK   10  A    between atoms: C18_33  and  O2_34 
REMARK   11  A    between atoms: C18_33  and  N8_36 
ROOT
HETATM    1  C9  UNL     1      17.016   4.204  19.387  1.00  0.00     0.065 A 
HETATM    2  C10 UNL     1      15.903   4.967  19.275  1.00  0.00     0.136 A 
HETATM    3  N2  UNL     1      15.734   5.615  20.468  1.00  0.00    -0.199 N 
ATOM      4  H2  UNL     1      14.976   6.262  20.682  1.00  0.00     0.183 HD
HETATM    5  C11 UNL     1      16.701   5.277  21.303  1.00  0.00     0.686 A 
HETATM    6  N3  UNL     1      16.854   5.712  22.514  1.00  0.00    -0.141 N 
ATOM      7  H3  UNL     1      17.651   5.363  23.047  1.00  0.00     0.189 HD
HETATM    8  C12 UNL     1      15.996   6.635  23.146  1.00  0.00     0.335 C 
HETATM    9  O1  UNL     1      15.675   7.702  22.520  1.00  0.00    -0.246 OA
HETATM   10  N4  UNL     1      15.498   6.411  24.424  1.00  0.00    -0.330 N 
ATOM     11  H4  UNL     1      15.750   5.561  24.929  1.00  0.00     0.165 HD
HETATM   12  N10 UNL     1      17.488   4.416  20.654  1.00  0.00    -0.190 N 
ATOM     13  H10 UNL     1      18.322   3.979  21.047  1.00  0.00     0.184 HD
ENDROOT
BRANCH  10  14
HETATM   14  C13 UNL     1      14.594   7.417  25.054  1.00  0.00     0.166 C 
BRANCH  14  15
HETATM   15  C14 UNL     1      15.304   8.660  25.335  1.00  0.00     0.092 C 
BRANCH  15  16
HETATM   16  C15 UNL     1      14.508   9.895  25.405  1.00  0.00     0.045 A 
HETATM   17  C16 UNL     1      14.358  10.882  24.465  1.00  0.00     0.131 A 
HETATM   18  N5  UNL     1      13.539  11.830  24.944  1.00  0.00    -0.200 N 
HETATM   19  C17 UNL     1      13.168  11.462  26.168  1.00  0.00     0.675 A 
ATOM     20  H5  UNL     1      13.253  12.679  24.458  1.00  0.00     0.183 HD
HETATM   21  N7  UNL     1      13.757  10.287  26.447  1.00  0.00    -0.194 N 
ATOM     22  H7  UNL     1      13.650   9.771  27.320  1.00  0.00     0.184 HD
BRANCH  19  23
HETATM   23  N6  UNL     1      12.381  12.115  26.950  1.00  0.00    -0.234 N 
ATOM     24  H62 UNL     1      11.990  13.039  26.768  1.00  0.00     0.174 HD
ATOM     25  H61 UNL     1      12.041  11.801  27.859  1.00  0.00     0.174 HD
ENDBRANCH  19  23
ENDBRANCH  15  16
ENDBRANCH  14  15
BRANCH  14  26
HETATM   26  C18 UNL     1      13.908   6.666  26.115  1.00  0.00     0.138 C 
BRANCH  26  27
HETATM   27  O2  UNL     1      12.573   6.754  25.901  1.00  0.00    -0.348 OA
ATOM     28  H2  UNL     1      12.133   6.201  26.535  1.00  0.00     0.219 HD
ENDBRANCH  26  27
BRANCH  26  29
HETATM   29  N8  UNL     1      14.254   5.918  27.219  1.00  0.00    -0.338 N 
HETATM   30  C19 UNL     1      14.356   6.595  28.567  1.00  0.00     0.154 C 
HETATM   31  C20 UNL     1      15.711   5.983  28.962  1.00  0.00     0.258 C 
HETATM   32  N9  UNL     1      15.546   4.583  28.559  1.00  0.00    -0.057 N 
HETATM   33  C21 UNL     1      15.119   3.787  29.709  1.00  0.00     0.274 C 
HETATM   34  C22 UNL     1      16.758   3.982  28.089  1.00  0.00     0.274 C 
HETATM   35  C23 UNL     1      14.482   4.559  27.574  1.00  0.00     0.362 C 
ENDBRANCH  26  29
ENDBRANCH  14  26
ENDBRANCH  10  14
BRANCH   1  36
HETATM   36  C8  UNL     1      17.660   3.348  18.431  1.00  0.00     0.028 C 
HETATM   37  C7  UNL     1      17.922   2.097  18.463  1.00  0.00    -0.010 C 
BRANCH  37  38
HETATM   38  C6  UNL     1      17.691   1.026  19.440  1.00  0.00     0.102 C 
HETATM   39  C5  UNL     1      17.807  -0.295  18.638  1.00  0.00     0.038 C 
HETATM   40  C4  UNL     1      19.290  -0.460  18.412  1.00  0.00     0.127 C 
HETATM   41  N1  UNL     1      19.895   0.288  19.505  1.00  0.00    -0.348 N 
HETATM   42  C24 UNL     1      18.893   0.865  20.333  1.00  0.00     0.227 C 
HETATM   43  O3  UNL     1      19.013   1.163  21.543  1.00  0.00    -0.273 OA
BRANCH  41  44
HETATM   44  C3  UNL     1      21.347   0.392  19.678  1.00  0.00     0.152 C 
BRANCH  44  45
HETATM   45  C2  UNL     1      21.807   1.745  19.233  1.00  0.00    -0.017 C 
HETATM   46  C1  UNL     1      21.832   2.012  17.947  1.00  0.00     0.008 C 
ENDBRANCH  44  45
ENDBRANCH  41  44
ENDBRANCH  37  38
ENDBRANCH   1  36
TORSDOF 11
ENDMDL
MODEL 5
REMARK VINA RESULT: -8.835919760      1.937      2.618
REMARK  11 active torsions:
REMARK  status: ('A' for Active; 'I' for Inactive)
REMARK    1  A    between atoms: C2_2  and  C3_3 
REMARK    2  A    between atoms: C3_3  and  N1_4 
REMARK    3  A    between atoms: C6_7  and  C7_8 
REMARK    4  A    between atoms: C8_9  and  C9_10 
REMARK       I    between atoms: N3_15  and  C12_17 
REMARK       I    between atoms: C12_17  and  N4_19 
REMARK    5  A    between atoms: N4_19  and  C13_21 
REMARK    6  A    between atoms: C13_21  and  C14_22 
REMARK    7  A    between atoms: C13_21  and  C18_33 
REMARK    8  A    between atoms: C14_22  and  C15_23 
REMARK    9  A    between atoms: C17_27  and  N6_28 
REMARK   10  A    between atoms: C18_33  and  O2_34 
REMARK   11  A    between atoms: C18_33  and  N8_36 
ROOT
HETATM    1  C9  UNL     1      17.353   2.001  21.494  1.00  0.00     0.065 A 
HETATM    2  C10 UNL     1      17.482   2.218  22.825  1.00  0.00     0.136 A 
HETATM    3  N2  UNL     1      16.937   3.445  23.090  1.00  0.00    -0.199 N 
ATOM      4  H2  UNL     1      16.891   3.879  24.012  1.00  0.00     0.183 HD
HETATM    5  C11 UNL     1      16.480   3.984  21.973  1.00  0.00     0.686 A 
HETATM    6  N3  UNL     1      15.894   5.134  21.862  1.00  0.00    -0.141 N 
ATOM      7  H3  UNL     1      15.592   5.425  20.932  1.00  0.00     0.189 HD
HETATM    8  C12 UNL     1      15.645   6.012  22.938  1.00  0.00     0.335 C 
HETATM    9  O1  UNL     1      15.110   5.543  23.999  1.00  0.00    -0.246 OA
HETATM   10  N4  UNL     1      15.965   7.361  22.867  1.00  0.00    -0.330 N 
ATOM     11  H4  UNL     1      16.393   7.742  22.022  1.00  0.00     0.165 HD
HETATM   12  N10 UNL     1      16.729   3.112  20.993  1.00  0.00    -0.190 N 
ATOM     13  H10 UNL     1      16.489   3.254  20.012  1.00  0.00     0.184 HD
ENDROOT
BRANCH  10  14
HETATM   14  C13 UNL     1      15.681   8.253  24.029  1.00  0.00     0.166 C 
BRANCH  14  15
HETATM   15  C14 UNL     1      15.345   9.602  23.588  1.00  0.00     0.092 C 
BRANCH  15  16
HETATM   16  C15 UNL     1      14.544  10.435  24.499  1.00  0.00     0.045 A 
HETATM   17  C16 UNL     1      13.818  10.061  25.600  1.00  0.00     0.131 A 
HETATM   18  N5  UNL     1      13.242  11.143  26.140  1.00  0.00    -0.200 N 
HETATM   19  C17 UNL     1      13.587  12.195  25.403  1.00  0.00     0.675 A 
ATOM     20  H5  UNL     1      12.645  11.158  26.967  1.00  0.00     0.183 HD
HETATM   21  N7  UNL     1      14.378  11.764  24.406  1.00  0.00    -0.194 N 
ATOM     22  H7  UNL     1      14.791  12.358  23.687  1.00  0.00     0.184 HD
BRANCH  19  23
HETATM   23  N6  UNL     1      13.230  13.415  25.606  1.00  0.00    -0.234 N 
ATOM     24  H62 UNL     1      13.385  13.947  26.462  1.00  0.00     0.174 HD
ATOM     25  H61 UNL     1      12.742  14.017  24.944  1.00  0.00     0.174 HD
ENDBRANCH  19  23
ENDBRANCH  15  16
ENDBRANCH  14  15
BRANCH  14  26
HETATM   26  C18 UNL     1      16.795   8.001  24.954  1.00  0.00     0.138 C 
BRANCH  26  27
HETATM   27  O2  UNL     1      17.940   8.412  24.359  1.00  0.00    -0.348 OA
ATOM     28  H2  UNL     1      17.761   9.223  23.898  1.00  0.00     0.219 HD
ENDBRANCH  26  27
BRANCH  26  29
HETATM   29  N8  UNL     1      16.970   7.486  26.220  1.00  0.00    -0.338 N 
HETATM   30  C19 UNL     1      18.354   7.471  26.826  1.00  0.00     0.154 C 
HETATM   31  C20 UNL     1      18.310   6.014  27.316  1.00  0.00     0.258 C 
HETATM   32  N9  UNL     1      16.967   5.924  27.896  1.00  0.00    -0.057 N 
HETATM   33  C21 UNL     1      17.037   6.157  29.338  1.00  0.00     0.274 C 
HETATM   34  C22 UNL     1      16.364   4.635  27.732  1.00  0.00     0.274 C 
HETATM   35  C23 UNL     1      16.188   6.994  27.303  1.00  0.00     0.362 C 
ENDBRANCH  26  29
ENDBRANCH  14  26
ENDBRANCH  10  14
BRANCH   1  36
HETATM   36  C8  UNL     1      17.727   0.870  20.693  1.00  0.00     0.028 C 
HETATM   37  C7  UNL     1      18.847   0.269  20.555  1.00  0.00    -0.010 C 
BRANCH  37  38
HETATM   38  C6  UNL     1      20.186   0.453  21.128  1.00  0.00     0.102 C 
HETATM   39  C5  UNL     1      21.020  -0.751  20.621  1.00  0.00     0.038 C 
HETATM   40  C4  UNL     1      21.304  -0.418  19.176  1.00  0.00     0.127 C 
HETATM   41  N1  UNL     1      21.220   1.035  19.129  1.00  0.00    -0.348 N 
HETATM   42  C24 UNL     1      20.913   1.561  20.413  1.00  0.00     0.227 C 
HETATM   43  O3  UNL     1      21.200   2.706  20.833  1.00  0.00    -0.273 OA
BRANCH  41  44
HETATM   44  C3  UNL     1      21.436   1.795  17.894  1.00  0.00     0.152 C 
BRANCH  44  45
HETATM   45  C2  UNL     1      20.170   1.818  17.094  1.00  0.00    -0.017 C 
HETATM   46  C1  UNL     1      19.204   2.626  17.466  1.00  0.00     0.008 C 
ENDBRANCH  44  45
ENDBRANCH  41  44
ENDBRANCH  37  38
ENDBRANCH   1  36
TORSDOF 11
ENDMDL
