MODEL 1
REMARK VINA RESULT: -9.692739976      0.000      0.000
REMARK  7 active torsions:
REMARK  status: ('A' for Active; 'I' for Inactive)
REMARK    1  A    between atoms: C2_2  and  C3_3 
REMARK       I    between atoms: N1_5  and  C5_6 
REMARK       I    between atoms: N3_11  and  C8_12 
REMARK       I    between atoms: C8_12  and  N5_16 
REMARK    2  A    between atoms: N5_16  and  C9_18 
REMARK    3  A    between atoms: C9_18  and  C10_19 
REMARK    4  A    between atoms: C10_19  and  N6_20 
REMARK       I    between atoms: N6_20  and  C11_22 
REMARK    5  A    between atoms: C11_22  and  C12_24 
REMARK    6  A    between atoms: C13_25  and  C14_26 
REMARK       I    between atoms: N9_33  and  C18_35 
REMARK    7  A    between atoms: C18_35  and  C19_37 
ROOT
HETATM    1  C10 UNL     1      17.742   6.471  24.713  1.00  0.00     0.105 C 
HETATM    2  N9  UNL     1      18.632   6.414  25.672  1.00  0.00    -0.315 N 
ATOM      3  H9  UNL     1      19.405   5.762  25.530  1.00  0.00     0.170 HD
HETATM    4  C18 UNL     1      18.652   7.174  26.923  1.00  0.00     0.227 C 
HETATM    5  O3  UNL     1      17.796   7.990  27.203  1.00  0.00    -0.273 OA
ENDROOT
BRANCH   1   6
HETATM    6  C9  UNL     1      18.792   5.452  23.555  1.00  0.00     0.214 C 
BRANCH   6   7
HETATM    7  N5  UNL     1      18.023   4.305  23.661  1.00  0.00    -0.220 N 
HETATM    8  C8  UNL     1      18.083   3.194  22.732  1.00  0.00     0.670 C 
HETATM    9  N3  UNL     1      18.915   3.216  21.623  1.00  0.00    -0.211 N 
HETATM   10  N4  UNL     1      17.272   2.165  22.910  1.00  0.00    -0.235 N 
HETATM   11  C3  UNL     1      20.152   2.482  21.502  1.00  0.00     0.119 C 
HETATM   12  C7  UNL     1      18.515   4.058  20.497  1.00  0.00     0.161 C 
HETATM   13  C4  UNL     1      20.812   2.776  20.170  1.00  0.00     0.153 C 
HETATM   14  N1  UNL     1      19.876   2.635  19.087  1.00  0.00    -0.333 N 
HETATM   15  C5  UNL     1      20.199   2.008  17.860  1.00  0.00     0.331 C 
HETATM   16  C6  UNL     1      18.532   3.189  19.217  1.00  0.00     0.147 C 
HETATM   17  N2  UNL     1      21.543   1.543  17.673  1.00  0.00    -0.040 NA
HETATM   18  O1  UNL     1      19.362   1.870  16.968  1.00  0.00    -0.251 OA
ATOM     19  H42 UNL     1      17.314   1.383  22.256  1.00  0.00     0.174 HD
ATOM     20  H41 UNL     1      16.661   2.149  23.726  1.00  0.00     0.174 HD
ATOM     21  H5  UNL     1      17.373   4.237  24.444  1.00  0.00     0.178 HD
BRANCH  11  22
HETATM   22  C2  UNL     1      19.887   0.969  21.546  1.00  0.00     0.023 C 
HETATM   23  C1  UNL     1      21.235   0.298  21.475  1.00  0.00     0.007 C 
ENDBRANCH  11  22
ENDBRANCH   6   7
ENDBRANCH   1   6
BRANCH   1  24
HETATM   24  N6  UNL     1      16.914   6.515  23.803  1.00  0.00    -0.312 N 
HETATM   25  C11 UNL     1      15.881   7.592  23.696  1.00  0.00     0.246 C 
HETATM   26  O2  UNL     1      14.705   7.182  23.831  1.00  0.00    -0.268 OA
ATOM     27  H6  UNL     1      16.932   5.785  23.091  1.00  0.00     0.170 HD
BRANCH  25  28
HETATM   28  C12 UNL     1      16.412   8.933  23.462  1.00  0.00     0.077 C 
HETATM   29  C13 UNL     1      15.510  10.015  23.371  1.00  0.00     0.036 C 
BRANCH  29  30
HETATM   30  C14 UNL     1      14.653  10.627  24.377  1.00  0.00     0.050 A 
HETATM   31  C15 UNL     1      14.231  12.005  24.156  1.00  0.00     0.118 A 
HETATM   32  N7  UNL     1      13.445  12.355  25.186  1.00  0.00    -0.360 N 
HETATM   33  C16 UNL     1      13.336  11.331  26.034  1.00  0.00     0.182 A 
ATOM     34  H7  UNL     1      12.999  13.265  25.304  1.00  0.00     0.166 HD
HETATM   35  N8  UNL     1      14.078  10.308  25.503  1.00  0.00    -0.346 N 
HETATM   36  C17 UNL     1      14.198   9.070  26.267  1.00  0.00     0.157 C 
ENDBRANCH  29  30
ENDBRANCH  25  28
ENDBRANCH   1  24
BRANCH   4  37
HETATM   37  C19 UNL     1      19.774   6.901  27.824  1.00  0.00     0.083 C 
HETATM   38  C20 UNL     1      19.806   7.909  28.981  1.00  0.00     0.019 C 
HETATM   39  C21 UNL     1      21.258   8.211  28.981  1.00  0.00    -0.013 C 
HETATM   40  C22 UNL     1      21.949   6.892  28.560  1.00  0.00     0.010 C 
HETATM   41  C24 UNL     1      21.473   8.566  27.500  1.00  0.00     0.010 C 
HETATM   42  C23 UNL     1      21.146   7.088  27.299  1.00  0.00    -0.001 C 
ENDBRANCH   4  37
TORSDOF 7
ENDMDL
MODEL 2
REMARK VINA RESULT: -9.633019875      1.256      1.669
REMARK  7 active torsions:
REMARK  status: ('A' for Active; 'I' for Inactive)
REMARK    1  A    between atoms: C2_2  and  C3_3 
REMARK       I    between atoms: N1_5  and  C5_6 
REMARK       I    between atoms: N3_11  and  C8_12 
REMARK       I    between atoms: C8_12  and  N5_16 
REMARK    2  A    between atoms: N5_16  and  C9_18 
REMARK    3  A    between atoms: C9_18  and  C10_19 
REMARK    4  A    between atoms: C10_19  and  N6_20 
REMARK       I    between atoms: N6_20  and  C11_22 
REMARK    5  A    between atoms: C11_22  and  C12_24 
REMARK    6  A    between atoms: C13_25  and  C14_26 
REMARK       I    between atoms: N9_33  and  C18_35 
REMARK    7  A    between atoms: C18_35  and  C19_37 
ROOT
HETATM    1  C10 UNL     1      17.826   7.198  25.088  1.00  0.00     0.105 C 
HETATM    2  N9  UNL     1      18.811   6.990  25.927  1.00  0.00    -0.315 N 
ATOM      3  H9  UNL     1      19.567   6.391  25.593  1.00  0.00     0.170 HD
HETATM    4  C18 UNL     1      18.956   7.513  27.286  1.00  0.00     0.227 C 
HETATM    5  O3  UNL     1      18.130   8.246  27.794  1.00  0.00    -0.273 OA
ENDROOT
BRANCH   1   6
HETATM    6  C9  UNL     1      18.756   6.427  23.666  1.00  0.00     0.214 C 
BRANCH   6   7
HETATM    7  N5  UNL     1      18.808   5.159  24.220  1.00  0.00    -0.220 N 
HETATM    8  C8  UNL     1      18.831   3.932  23.448  1.00  0.00     0.670 C 
HETATM    9  N3  UNL     1      18.769   3.942  22.063  1.00  0.00    -0.211 N 
HETATM   10  N4  UNL     1      18.841   2.774  24.085  1.00  0.00    -0.235 N 
HETATM   11  C3  UNL     1      19.887   3.699  21.183  1.00  0.00     0.119 C 
HETATM   12  C7  UNL     1      17.475   4.234  21.448  1.00  0.00     0.161 C 
HETATM   13  C4  UNL     1      19.458   3.827  19.736  1.00  0.00     0.153 C 
HETATM   14  N1  UNL     1      18.266   3.063  19.481  1.00  0.00    -0.333 N 
HETATM   15  C5  UNL     1      18.081   2.279  18.318  1.00  0.00     0.331 C 
HETATM   16  C6  UNL     1      17.161   3.109  20.433  1.00  0.00     0.147 C 
HETATM   17  N2  UNL     1      19.115   2.296  17.322  1.00  0.00    -0.040 NA
HETATM   18  O1  UNL     1      17.065   1.606  18.148  1.00  0.00    -0.251 OA
ATOM     19  H42 UNL     1      18.857   1.911  23.542  1.00  0.00     0.174 HD
ATOM     20  H41 UNL     1      18.886   2.767  25.104  1.00  0.00     0.174 HD
ATOM     21  H5  UNL     1      18.832   5.083  25.236  1.00  0.00     0.178 HD
BRANCH  11  22
HETATM   22  C2  UNL     1      20.418   2.269  21.367  1.00  0.00     0.023 C 
HETATM   23  C1  UNL     1      21.679   2.173  20.546  1.00  0.00     0.007 C 
ENDBRANCH  11  22
ENDBRANCH   6   7
ENDBRANCH   1   6
BRANCH   1  24
HETATM   24  N6  UNL     1      16.909   7.386  24.289  1.00  0.00    -0.312 N 
HETATM   25  C11 UNL     1      15.536   6.827  24.483  1.00  0.00     0.246 C 
HETATM   26  O2  UNL     1      15.206   5.981  23.618  1.00  0.00    -0.268 OA
ATOM     27  H6  UNL     1      17.094   7.949  23.458  1.00  0.00     0.170 HD
BRANCH  25  28
HETATM   28  C12 UNL     1      14.815   7.350  25.641  1.00  0.00     0.077 C 
HETATM   29  C13 UNL     1      14.950   8.717  25.966  1.00  0.00     0.036 C 
BRANCH  29  30
HETATM   30  C14 UNL     1      14.505   9.911  25.262  1.00  0.00     0.050 A 
HETATM   31  C15 UNL     1      13.614  10.820  25.972  1.00  0.00     0.118 A 
HETATM   32  N7  UNL     1      13.347  11.847  25.149  1.00  0.00    -0.360 N 
HETATM   33  C16 UNL     1      13.981  11.668  23.989  1.00  0.00     0.182 A 
ATOM     34  H7  UNL     1      12.750  12.643  25.375  1.00  0.00     0.166 HD
HETATM   35  N8  UNL     1      14.671  10.488  24.104  1.00  0.00    -0.346 N 
HETATM   36  C17 UNL     1      15.408  10.000  22.943  1.00  0.00     0.157 C 
ENDBRANCH  29  30
ENDBRANCH  25  28
ENDBRANCH   1  24
BRANCH   4  37
HETATM   37  C19 UNL     1      20.166   7.108  28.007  1.00  0.00     0.083 C 
HETATM   38  C20 UNL     1      20.297   7.873  29.330  1.00  0.00     0.019 C 
HETATM   39  C21 UNL     1      21.738   8.217  29.253  1.00  0.00    -0.013 C 
HETATM   40  C22 UNL     1      22.402   7.029  28.518  1.00  0.00     0.010 C 
HETATM   41  C24 UNL     1      21.800   8.860  27.858  1.00  0.00     0.010 C 
HETATM   42  C23 UNL     1      21.475   7.439  27.401  1.00  0.00    -0.001 C 
ENDBRANCH   4  37
TORSDOF 7
ENDMDL
MODEL 3
REMARK VINA RESULT: -9.496257393      3.437      6.296
REMARK  7 active torsions:
REMARK  status: ('A' for Active; 'I' for Inactive)
REMARK    1  A    between atoms: C2_2  and  C3_3 
REMARK       I    between atoms: N1_5  and  C5_6 
REMARK       I    between atoms: N3_11  and  C8_12 
REMARK       I    between atoms: C8_12  and  N5_16 
REMARK    2  A    between atoms: N5_16  and  C9_18 
REMARK    3  A    between atoms: C9_18  and  C10_19 
REMARK    4  A    between atoms: C10_19  and  N6_20 
REMARK       I    between atoms: N6_20  and  C11_22 
REMARK    5  A    between atoms: C11_22  and  C12_24 
REMARK    6  A    between atoms: C13_25  and  C14_26 
REMARK       I    between atoms: N9_33  and  C18_35 
REMARK    7  A    between atoms: C18_35  and  C19_37 
ROOT
HETATM    1  C10 UNL     1      17.158   5.301  21.763  1.00  0.00     0.105 C 
HETATM    2  N9  UNL     1      16.784   4.538  20.765  1.00  0.00    -0.315 N 
ATOM      3  H9  UNL     1      17.276   3.649  20.670  1.00  0.00     0.170 HD
HETATM    4  C18 UNL     1      15.745   4.809  19.771  1.00  0.00     0.227 C 
HETATM    5  O3  UNL     1      15.080   5.826  19.783  1.00  0.00    -0.273 OA
ENDROOT
BRANCH   1   6
HETATM    6  C9  UNL     1      18.197   3.950  22.523  1.00  0.00     0.214 C 
BRANCH   6   7
HETATM    7  N5  UNL     1      19.220   4.037  21.594  1.00  0.00    -0.220 N 
HETATM    8  C8  UNL     1      19.891   2.893  21.010  1.00  0.00     0.670 C 
HETATM    9  N3  UNL     1      19.568   1.595  21.375  1.00  0.00    -0.211 N 
HETATM   10  N4  UNL     1      20.883   3.096  20.160  1.00  0.00    -0.235 N 
HETATM   11  C3  UNL     1      18.796   0.677  20.571  1.00  0.00     0.119 C 
HETATM   12  C7  UNL     1      20.032   1.126  22.679  1.00  0.00     0.161 C 
HETATM   13  C4  UNL     1      18.608  -0.636  21.303  1.00  0.00     0.153 C 
HETATM   14  N1  UNL     1      19.861  -1.128  21.811  1.00  0.00    -0.333 N 
HETATM   15  C5  UNL     1      20.246  -2.488  21.741  1.00  0.00     0.331 C 
HETATM   16  C6  UNL     1      20.784  -0.210  22.470  1.00  0.00     0.147 C 
HETATM   17  N2  UNL     1      19.312  -3.426  21.186  1.00  0.00    -0.040 NA
HETATM   18  O1  UNL     1      21.342  -2.870  22.151  1.00  0.00    -0.251 OA
ATOM     19  H42 UNL     1      21.355   2.290  19.749  1.00  0.00     0.174 HD
ATOM     20  H41 UNL     1      21.120   4.050  19.891  1.00  0.00     0.174 HD
ATOM     21  H5  UNL     1      19.520   4.966  21.301  1.00  0.00     0.178 HD
BRANCH  11  22
HETATM   22  C2  UNL     1      19.532   0.358  19.261  1.00  0.00     0.023 C 
HETATM   23  C1  UNL     1      18.590  -0.483  18.436  1.00  0.00     0.007 C 
ENDBRANCH  11  22
ENDBRANCH   6   7
ENDBRANCH   1   6
BRANCH   1  24
HETATM   24  N6  UNL     1      17.518   6.006  22.705  1.00  0.00    -0.312 N 
HETATM   25  C11 UNL     1      16.742   7.196  23.172  1.00  0.00     0.246 C 
HETATM   26  O2  UNL     1      17.340   8.286  23.013  1.00  0.00    -0.268 OA
ATOM     27  H6  UNL     1      18.384   5.769  23.189  1.00  0.00     0.170 HD
BRANCH  25  28
HETATM   28  C12 UNL     1      15.424   6.893  23.726  1.00  0.00     0.077 C 
HETATM   29  C13 UNL     1      14.935   7.683  24.789  1.00  0.00     0.036 C 
BRANCH  29  30
HETATM   30  C14 UNL     1      14.532   9.082  24.829  1.00  0.00     0.050 A 
HETATM   31  C15 UNL     1      13.977   9.589  26.078  1.00  0.00     0.118 A 
HETATM   32  N7  UNL     1      13.693  10.888  25.894  1.00  0.00    -0.360 N 
HETATM   33  C16 UNL     1      14.013  11.245  24.649  1.00  0.00     0.182 A 
ATOM     34  H7  UNL     1      13.294  11.509  26.598  1.00  0.00     0.166 HD
HETATM   35  N8  UNL     1      14.520  10.124  24.044  1.00  0.00    -0.346 N 
HETATM   36  C17 UNL     1      14.890  10.204  22.634  1.00  0.00     0.157 C 
ENDBRANCH  29  30
ENDBRANCH  25  28
ENDBRANCH   1  24
BRANCH   4  37
HETATM   37  C19 UNL     1      15.541   3.774  18.754  1.00  0.00     0.083 C 
HETATM   38  C20 UNL     1      14.062   3.380  18.661  1.00  0.00     0.019 C 
HETATM   39  C21 UNL     1      14.221   1.906  18.607  1.00  0.00    -0.013 C 
HETATM   40  C22 UNL     1      15.545   1.667  17.842  1.00  0.00     0.010 C 
HETATM   41  C24 UNL     1      15.117   1.673  19.835  1.00  0.00     0.010 C 
HETATM   42  C23 UNL     1      16.136   2.441  18.994  1.00  0.00    -0.001 C 
ENDBRANCH   4  37
TORSDOF 7
ENDMDL
MODEL 4
REMARK VINA RESULT: -9.479611213      2.844      9.394
REMARK  7 active torsions:
REMARK  status: ('A' for Active; 'I' for Inactive)
REMARK    1  A    between atoms: C2_2  and  C3_3 
REMARK       I    between atoms: N1_5  and  C5_6 
REMARK       I    between atoms: N3_11  and  C8_12 
REMARK       I    between atoms: C8_12  and  N5_16 
REMARK    2  A    between atoms: N5_16  and  C9_18 
REMARK    3  A    between atoms: C9_18  and  C10_19 
REMARK    4  A    between atoms: C10_19  and  N6_20 
REMARK       I    between atoms: N6_20  and  C11_22 
REMARK    5  A    between atoms: C11_22  and  C12_24 
REMARK    6  A    between atoms: C13_25  and  C14_26 
REMARK       I    between atoms: N9_33  and  C18_35 
REMARK    7  A    between atoms: C18_35  and  C19_37 
ROOT
HETATM    1  C10 UNL     1      16.104   4.060  21.979  1.00  0.00     0.105 C 
HETATM    2  N9  UNL     1      15.903   3.973  23.271  1.00  0.00    -0.315 N 
ATOM      3  H9  UNL     1      15.731   4.853  23.759  1.00  0.00     0.170 HD
HETATM    4  C18 UNL     1      15.896   2.766  24.098  1.00  0.00     0.227 C 
HETATM    5  O3  UNL     1      16.077   1.657  23.633  1.00  0.00    -0.273 OA
ENDROOT
BRANCH   1   6
HETATM    6  C9  UNL     1      15.581   5.851  21.927  1.00  0.00     0.214 C 
BRANCH   6   7
HETATM    7  N5  UNL     1      16.791   6.351  22.375  1.00  0.00    -0.220 N 
HETATM    8  C8  UNL     1      16.926   7.501  23.247  1.00  0.00     0.670 C 
HETATM    9  N3  UNL     1      15.823   8.220  23.680  1.00  0.00    -0.211 N 
HETATM   10  N4  UNL     1      18.137   7.914  23.580  1.00  0.00    -0.235 N 
HETATM   11  C3  UNL     1      15.259   8.151  25.007  1.00  0.00     0.119 C 
HETATM   12  C7  UNL     1      15.173   9.104  22.714  1.00  0.00     0.161 C 
HETATM   13  C4  UNL     1      14.039   9.043  25.109  1.00  0.00     0.153 C 
HETATM   14  N1  UNL     1      14.316  10.359  24.600  1.00  0.00    -0.333 N 
HETATM   15  C5  UNL     1      13.873  11.545  25.232  1.00  0.00     0.331 C 
HETATM   16  C6  UNL     1      15.057  10.509  23.351  1.00  0.00     0.147 C 
HETATM   17  N2  UNL     1      13.061  11.419  26.408  1.00  0.00    -0.040 NA
HETATM   18  O1  UNL     1      14.162  12.657  24.791  1.00  0.00    -0.251 OA
ATOM     19  H42 UNL     1      18.232   8.724  24.193  1.00  0.00     0.174 HD
ATOM     20  H41 UNL     1      18.948   7.385  23.262  1.00  0.00     0.174 HD
ATOM     21  H5  UNL     1      17.643   5.880  22.073  1.00  0.00     0.178 HD
BRANCH  11  22
HETATM   22  C2  UNL     1      16.270   8.656  26.049  1.00  0.00     0.023 C 
HETATM   23  C1  UNL     1      16.660   7.459  26.880  1.00  0.00     0.007 C 
ENDBRANCH  11  22
ENDBRANCH   6   7
ENDBRANCH   1   6
BRANCH   1  24
HETATM   24  N6  UNL     1      16.289   4.156  20.766  1.00  0.00    -0.312 N 
HETATM   25  C11 UNL     1      17.526   3.655  20.091  1.00  0.00     0.246 C 
HETATM   26  O2  UNL     1      18.229   4.560  19.582  1.00  0.00    -0.268 OA
ATOM     27  H6  UNL     1      15.568   4.598  20.195  1.00  0.00     0.170 HD
BRANCH  25  28
HETATM   28  C12 UNL     1      17.711   2.206  20.142  1.00  0.00     0.077 C 
HETATM   29  C13 UNL     1      18.512   1.588  19.157  1.00  0.00     0.036 C 
BRANCH  29  30
HETATM   30  C14 UNL     1      19.944   1.673  18.903  1.00  0.00     0.050 A 
HETATM   31  C15 UNL     1      20.381   1.736  17.514  1.00  0.00     0.118 A 
HETATM   32  N7  UNL     1      21.720   1.825  17.517  1.00  0.00    -0.360 N 
HETATM   33  C16 UNL     1      22.167   1.819  18.774  1.00  0.00     0.182 A 
ATOM     34  H7  UNL     1      22.307   1.887  16.685  1.00  0.00     0.166 HD
HETATM   35  N8  UNL     1      21.059   1.730  19.577  1.00  0.00    -0.346 N 
HETATM   36  C17 UNL     1      21.256   1.631  21.020  1.00  0.00     0.157 C 
ENDBRANCH  29  30
ENDBRANCH  25  28
ENDBRANCH   1  24
BRANCH   4  37
HETATM   37  C19 UNL     1      15.650   2.966  25.528  1.00  0.00     0.083 C 
HETATM   38  C20 UNL     1      14.356   2.267  25.964  1.00  0.00     0.019 C 
HETATM   39  C21 UNL     1      13.780   3.352  26.796  1.00  0.00    -0.013 C 
HETATM   40  C22 UNL     1      14.996   4.067  27.433  1.00  0.00     0.010 C 
HETATM   41  C24 UNL     1      13.853   4.532  25.811  1.00  0.00     0.010 C 
HETATM   42  C23 UNL     1      15.357   4.340  25.994  1.00  0.00    -0.001 C 
ENDBRANCH   4  37
TORSDOF 7
ENDMDL
MODEL 5
REMARK VINA RESULT: -9.471116026      5.414      7.087
REMARK  7 active torsions:
REMARK  status: ('A' for Active; 'I' for Inactive)
REMARK    1  A    between atoms: C2_2  and  C3_3 
REMARK       I    between atoms: N1_5  and  C5_6 
REMARK       I    between atoms: N3_11  and  C8_12 
REMARK       I    between atoms: C8_12  and  N5_16 
REMARK    2  A    between atoms: N5_16  and  C9_18 
REMARK    3  A    between atoms: C9_18  and  C10_19 
REMARK    4  A    between atoms: C10_19  and  N6_20 
REMARK       I    between atoms: N6_20  and  C11_22 
REMARK    5  A    between atoms: C11_22  and  C12_24 
REMARK    6  A    between atoms: C13_25  and  C14_26 
REMARK       I    between atoms: N9_33  and  C18_35 
REMARK    7  A    between atoms: C18_35  and  C19_37 
ROOT
HETATM    1  C10 UNL     1      16.263   7.300  27.011  1.00  0.00     0.105 C 
HETATM    2  N9  UNL     1      16.335   6.549  28.083  1.00  0.00    -0.315 N 
ATOM      3  H9  UNL     1      17.255   6.167  28.303  1.00  0.00     0.170 HD
HETATM    4  C18 UNL     1      15.253   6.193  29.002  1.00  0.00     0.227 C 
HETATM    5  O3  UNL     1      14.114   6.593  28.855  1.00  0.00    -0.273 OA
ENDROOT
BRANCH   1   6
HETATM    6  C9  UNL     1      18.119   7.374  26.830  1.00  0.00     0.214 C 
BRANCH   6   7
HETATM    7  N5  UNL     1      18.335   8.068  28.008  1.00  0.00    -0.220 N 
HETATM    8  C8  UNL     1      19.508   7.908  28.845  1.00  0.00     0.670 C 
HETATM    9  N3  UNL     1      20.508   7.001  28.532  1.00  0.00    -0.211 N 
HETATM   10  N4  UNL     1      19.589   8.596  29.972  1.00  0.00    -0.235 N 
HETATM   11  C3  UNL     1      21.799   7.350  27.987  1.00  0.00     0.119 C 
HETATM   12  C7  UNL     1      20.228   5.585  28.757  1.00  0.00     0.161 C 
HETATM   13  C4  UNL     1      22.619   6.101  27.735  1.00  0.00     0.153 C 
HETATM   14  N1  UNL     1      22.623   5.243  28.889  1.00  0.00    -0.333 N 
HETATM   15  C5  UNL     1      23.780   4.577  29.357  1.00  0.00     0.331 C 
HETATM   16  C6  UNL     1      21.378   4.998  29.611  1.00  0.00     0.147 C 
HETATM   17  N2  UNL     1      24.994   4.726  28.607  1.00  0.00    -0.040 NA
HETATM   18  O1  UNL     1      23.757   3.881  30.371  1.00  0.00    -0.251 OA
ATOM     19  H42 UNL     1      20.414   8.483  30.561  1.00  0.00     0.174 HD
ATOM     20  H41 UNL     1      18.853   9.263  30.202  1.00  0.00     0.174 HD
ATOM     21  H5  UNL     1      17.623   8.734  28.307  1.00  0.00     0.178 HD
BRANCH  11  22
HETATM   22  C2  UNL     1      22.590   8.211  28.983  1.00  0.00     0.023 C 
HETATM   23  C1  UNL     1      22.795   9.550  28.322  1.00  0.00     0.007 C 
ENDBRANCH  11  22
ENDBRANCH   6   7
ENDBRANCH   1   6
BRANCH   1  24
HETATM   24  N6  UNL     1      16.211   8.005  26.004  1.00  0.00    -0.312 N 
HETATM   25  C11 UNL     1      15.087   7.932  25.019  1.00  0.00     0.246 C 
HETATM   26  O2  UNL     1      15.431   7.521  23.886  1.00  0.00    -0.268 OA
ATOM     27  H6  UNL     1      16.967   8.668  25.832  1.00  0.00     0.170 HD
BRANCH  25  28
HETATM   28  C12 UNL     1      13.785   8.343  25.539  1.00  0.00     0.077 C 
HETATM   29  C13 UNL     1      13.669   9.603  26.164  1.00  0.00     0.036 C 
BRANCH  29  30
HETATM   30  C14 UNL     1      13.776  10.950  25.619  1.00  0.00     0.050 A 
HETATM   31  C15 UNL     1      13.133  12.029  26.357  1.00  0.00     0.118 A 
HETATM   32  N7  UNL     1      13.371  13.170  25.690  1.00  0.00    -0.360 N 
HETATM   33  C16 UNL     1      14.098  12.909  24.603  1.00  0.00     0.182 A 
ATOM     34  H7  UNL     1      13.045  14.095  25.971  1.00  0.00     0.166 HD
HETATM   35  N8  UNL     1      14.322  11.557  24.603  1.00  0.00    -0.346 N 
HETATM   36  C17 UNL     1      15.042  10.974  23.474  1.00  0.00     0.157 C 
ENDBRANCH  29  30
ENDBRANCH  25  28
ENDBRANCH   1  24
BRANCH   4  37
HETATM   37  C19 UNL     1      15.619   5.324  30.123  1.00  0.00     0.083 C 
HETATM   38  C20 UNL     1      14.708   5.575  31.331  1.00  0.00     0.019 C 
HETATM   39  C21 UNL     1      15.742   5.602  32.395  1.00  0.00    -0.013 C 
HETATM   40  C22 UNL     1      16.826   4.598  31.936  1.00  0.00     0.010 C 
HETATM   41  C24 UNL     1      16.725   6.629  31.807  1.00  0.00     0.010 C 
HETATM   42  C23 UNL     1      16.938   5.536  30.761  1.00  0.00    -0.001 C 
ENDBRANCH   4  37
TORSDOF 7
ENDMDL
