MODEL 1
REMARK VINA RESULT: -7.692081844      0.000      0.000
REMARK  10 active torsions:
REMARK  status: ('A' for Active; 'I' for Inactive)
REMARK    1  A    between atoms: C5_8  and  O1_9 
REMARK    2  A    between atoms: C6_11  and  C7_12 
REMARK    3  A    between atoms: C7_12  and  C8_13 
REMARK    4  A    between atoms: C7_12  and  O2_18 
REMARK    5  A    between atoms: C8_13  and  N4_14 
REMARK    6  A    between atoms: O2_18  and  C9_19 
REMARK    7  A    between atoms: C9_19  and  C10_20 
REMARK    8  A    between atoms: C10_20  and  N5_21 
REMARK    9  A    between atoms: C16_37  and  N11_38 
REMARK   10  A    between atoms: N11_38  and  O4_40 
ROOT
HETATM    1  N1  UNL     1      76.898 -17.856  11.172  1.00  0.00    -0.191 NA
HETATM    2  C1  UNL     1      77.975 -17.607  10.744  1.00  0.00     0.104 C 
HETATM    3  C2  UNL     1      79.279 -17.271  10.219  1.00  0.00     0.100 A 
HETATM    4  C3  UNL     1      80.405 -17.665  10.920  1.00  0.00     0.096 A 
HETATM    5  N2  UNL     1      80.319 -18.478  12.102  1.00  0.00    -0.099 NA
HETATM    6  C4  UNL     1      81.651 -17.280  10.437  1.00  0.00     0.106 A 
HETATM    7  N3  UNL     1      82.804 -17.753  11.173  1.00  0.00    -0.097 NA
HETATM    8  C5  UNL     1      81.782 -16.528   9.299  1.00  0.00     0.106 A 
HETATM    9  C6  UNL     1      80.660 -16.123   8.576  1.00  0.00     0.060 A 
HETATM   10  C16 UNL     1      79.420 -16.521   9.078  1.00  0.00     0.092 A 
ENDROOT
BRANCH  10  11
HETATM   11  N11 UNL     1      78.272 -16.057   8.401  1.00  0.00    -0.267 N 
ATOM     12  H11 UNL     1      77.762 -15.249   8.758  1.00  0.00     0.194 HD
BRANCH  11  13
HETATM   13  O4  UNL     1      77.883 -16.632   7.369  1.00  0.00    -0.289 OA
ATOM     14  H4  UNL     1      77.539 -16.125   6.642  1.00  0.00     0.244 HD
ENDBRANCH  11  13
ENDBRANCH  10  11
BRANCH   9  15
HETATM   15  C7  UNL     1      80.803 -15.212   7.431  1.00  0.00     0.087 C 
BRANCH  15  16
HETATM   16  C8  UNL     1      80.885 -13.744   7.759  1.00  0.00     0.294 C 
BRANCH  16  17
HETATM   17  N4  UNL     1      82.147 -13.313   8.274  1.00  0.00    -0.074 N 
ATOM     18  H43 UNL     1      82.043 -12.988   9.236  1.00  0.00     0.274 HD
ATOM     19  H42 UNL     1      82.760 -14.114   8.423  1.00  0.00     0.274 HD
ATOM     20  H41 UNL     1      82.620 -12.606   7.712  1.00  0.00     0.274 HD
ENDBRANCH  16  17
ENDBRANCH  15  16
BRANCH  15  21
HETATM   21  O2  UNL     1      80.311 -15.601   6.214  1.00  0.00    -0.351 OA
BRANCH  21  22
HETATM   22  C9  UNL     1      80.984 -14.896   5.235  1.00  0.00     0.205 C 
BRANCH  22  23
HETATM   23  C10 UNL     1      80.387 -13.669   4.655  1.00  0.00     0.308 C 
BRANCH  23  24
HETATM   24  N5  UNL     1      79.264 -14.066   3.816  1.00  0.00     0.180 N 
HETATM   25  C11 UNL     1      79.248 -15.451   3.425  1.00  0.00     0.512 C 
HETATM   26  N6  UNL     1      78.268 -16.178   4.151  1.00  0.00    -0.027 N 
HETATM   27  C12 UNL     1      76.969 -15.696   3.826  1.00  0.00     0.407 C 
ATOM     28  H62 UNL     1      78.352 -17.184   4.006  1.00  0.00     0.281 HD
ATOM     29  H61 UNL     1      78.444 -16.159   5.155  1.00  0.00     0.281 HD
HETATM   30  O3  UNL     1      76.964 -14.322   3.538  1.00  0.00    -0.303 OA
HETATM   31  C13 UNL     1      77.977 -13.711   4.351  1.00  0.00     0.405 A 
HETATM   32  N7  UNL     1      77.771 -14.080   5.704  1.00  0.00    -0.300 N 
HETATM   33  C15 UNL     1      77.753 -12.271   4.302  1.00  0.00     0.184 A 
HETATM   34  C14 UNL     1      77.458 -13.049   6.383  1.00  0.00     0.193 A 
ATOM     35  H7  UNL     1      77.860 -15.026   6.076  1.00  0.00     0.167 HD
HETATM   36  N8  UNL     1      77.164 -12.968   7.782  1.00  0.00    -0.063 NA
HETATM   37  N9  UNL     1      77.443 -11.903   5.518  1.00  0.00    -0.317 N 
ATOM     38  H9  UNL     1      77.225 -10.950   5.807  1.00  0.00     0.169 HD
HETATM   39  N10 UNL     1      77.846 -11.438   3.169  1.00  0.00    -0.080 NA
ENDBRANCH  23  24
ENDBRANCH  22  23
ENDBRANCH  21  22
ENDBRANCH  15  21
ENDBRANCH   9  15
BRANCH   8  40
HETATM   40  O1  UNL     1      83.044 -16.158   8.855  1.00  0.00    -0.358 OA
ATOM     41  H1  UNL     1      83.622 -16.809   8.475  1.00  0.00     0.217 HD
ENDBRANCH   8  40
TORSDOF 10
ENDMDL
MODEL 2
REMARK VINA RESULT: -7.285221941      2.648      4.567
REMARK  10 active torsions:
REMARK  status: ('A' for Active; 'I' for Inactive)
REMARK    1  A    between atoms: C5_8  and  O1_9 
REMARK    2  A    between atoms: C6_11  and  C7_12 
REMARK    3  A    between atoms: C7_12  and  C8_13 
REMARK    4  A    between atoms: C7_12  and  O2_18 
REMARK    5  A    between atoms: C8_13  and  N4_14 
REMARK    6  A    between atoms: O2_18  and  C9_19 
REMARK    7  A    between atoms: C9_19  and  C10_20 
REMARK    8  A    between atoms: C10_20  and  N5_21 
REMARK    9  A    between atoms: C16_37  and  N11_38 
REMARK   10  A    between atoms: N11_38  and  O4_40 
ROOT
HETATM    1  N1  UNL     1      82.399 -10.989   8.869  1.00  0.00    -0.191 NA
HETATM    2  C1  UNL     1      81.984 -12.045   8.525  1.00  0.00     0.104 C 
HETATM    3  C2  UNL     1      81.474 -13.320   8.075  1.00  0.00     0.100 A 
HETATM    4  C3  UNL     1      82.184 -14.468   8.375  1.00  0.00     0.096 A 
HETATM    5  N2  UNL     1      83.361 -14.441   9.201  1.00  0.00    -0.099 NA
HETATM    6  C4  UNL     1      81.716 -15.682   7.882  1.00  0.00     0.106 A 
HETATM    7  N3  UNL     1      82.462 -16.864   8.259  1.00  0.00    -0.097 NA
HETATM    8  C5  UNL     1      80.583 -15.759   7.114  1.00  0.00     0.106 A 
HETATM    9  C6  UNL     1      79.852 -14.614   6.803  1.00  0.00     0.060 A 
HETATM   10  C16 UNL     1      80.339 -13.407   7.309  1.00  0.00     0.092 A 
ENDROOT
BRANCH  10  11
HETATM   11  N11 UNL     1      79.652 -12.231   6.941  1.00  0.00    -0.267 N 
ATOM     12  H11 UNL     1      79.983 -11.673   6.154  1.00  0.00     0.194 HD
BRANCH  11  13
HETATM   13  O4  UNL     1      78.644 -11.874   7.575  1.00  0.00    -0.289 OA
ATOM     14  H4  UNL     1      77.833 -11.688   7.116  1.00  0.00     0.244 HD
ENDBRANCH  11  13
ENDBRANCH  10  11
BRANCH   9  15
HETATM   15  C7  UNL     1      78.713 -14.689   5.875  1.00  0.00     0.087 C 
BRANCH  15  16
HETATM   16  C8  UNL     1      77.422 -15.206   6.454  1.00  0.00     0.294 C 
BRANCH  16  17
HETATM   17  N4  UNL     1      76.785 -14.327   7.384  1.00  0.00    -0.074 N 
ATOM     18  H43 UNL     1      77.436 -13.601   7.686  1.00  0.00     0.274 HD
ATOM     19  H42 UNL     1      76.089 -13.755   6.908  1.00  0.00     0.274 HD
ATOM     20  H41 UNL     1      76.371 -14.788   8.195  1.00  0.00     0.274 HD
ENDBRANCH  16  17
ENDBRANCH  15  16
BRANCH  15  21
HETATM   21  O2  UNL     1      78.961 -14.850   4.539  1.00  0.00    -0.351 OA
BRANCH  21  22
HETATM   22  C9  UNL     1      77.824 -14.482   3.845  1.00  0.00     0.205 C 
BRANCH  22  23
HETATM   23  C10 UNL     1      77.936 -13.842   2.513  1.00  0.00     0.308 C 
BRANCH  23  24
HETATM   24  N5  UNL     1      79.009 -12.858   2.575  1.00  0.00     0.180 N 
HETATM   25  C11 UNL     1      80.163 -13.155   1.769  1.00  0.00     0.512 C 
HETATM   26  N6  UNL     1      80.205 -12.336   0.610  1.00  0.00    -0.027 N 
HETATM   27  C12 UNL     1      80.369 -10.973   0.988  1.00  0.00     0.407 C 
ATOM     28  H62 UNL     1      80.921 -12.640  -0.050  1.00  0.00     0.281 HD
ATOM     29  H61 UNL     1      79.388 -12.472   0.015  1.00  0.00     0.281 HD
HETATM   30  O3  UNL     1      79.750 -10.678   2.213  1.00  0.00    -0.303 OA
HETATM   31  C13 UNL     1      78.584 -11.509   2.313  1.00  0.00     0.405 A 
HETATM   32  N7  UNL     1      77.797 -11.348   1.145  1.00  0.00    -0.300 N 
HETATM   33  C15 UNL     1      77.774 -10.979   3.404  1.00  0.00     0.184 A 
HETATM   34  C14 UNL     1      76.690 -10.797   1.451  1.00  0.00     0.193 A 
ATOM     35  H7  UNL     1      78.075 -11.629   0.205  1.00  0.00     0.167 HD
HETATM   36  N8  UNL     1      75.606 -10.451   0.582  1.00  0.00    -0.063 NA
HETATM   37  N9  UNL     1      76.658 -10.560   2.866  1.00  0.00    -0.317 N 
ATOM     38  H9  UNL     1      75.885 -10.131   3.374  1.00  0.00     0.169 HD
HETATM   39  N10 UNL     1      78.124 -10.923   4.767  1.00  0.00    -0.080 NA
ENDBRANCH  23  24
ENDBRANCH  22  23
ENDBRANCH  21  22
ENDBRANCH  15  21
ENDBRANCH   9  15
BRANCH   8  40
HETATM   40  O1  UNL     1      80.154 -16.988   6.635  1.00  0.00    -0.358 OA
ATOM     41  H1  UNL     1      79.895 -17.670   7.243  1.00  0.00     0.217 HD
ENDBRANCH   8  40
TORSDOF 10
ENDMDL
MODEL 3
REMARK VINA RESULT: -7.154847911      2.863      5.013
REMARK  10 active torsions:
REMARK  status: ('A' for Active; 'I' for Inactive)
REMARK    1  A    between atoms: C5_8  and  O1_9 
REMARK    2  A    between atoms: C6_11  and  C7_12 
REMARK    3  A    between atoms: C7_12  and  C8_13 
REMARK    4  A    between atoms: C7_12  and  O2_18 
REMARK    5  A    between atoms: C8_13  and  N4_14 
REMARK    6  A    between atoms: O2_18  and  C9_19 
REMARK    7  A    between atoms: C9_19  and  C10_20 
REMARK    8  A    between atoms: C10_20  and  N5_21 
REMARK    9  A    between atoms: C16_37  and  N11_38 
REMARK   10  A    between atoms: N11_38  and  O4_40 
ROOT
HETATM    1  N1  UNL     1      83.720 -15.351   9.241  1.00  0.00    -0.191 NA
HETATM    2  C1  UNL     1      82.591 -15.362   8.880  1.00  0.00     0.104 C 
HETATM    3  C2  UNL     1      81.225 -15.369   8.409  1.00  0.00     0.100 A 
HETATM    4  C3  UNL     1      80.406 -16.431   8.748  1.00  0.00     0.096 A 
HETATM    5  N2  UNL     1      80.844 -17.478   9.632  1.00  0.00    -0.099 NA
HETATM    6  C4  UNL     1      79.113 -16.458   8.236  1.00  0.00     0.106 A 
HETATM    7  N3  UNL     1      78.274 -17.561   8.654  1.00  0.00    -0.097 NA
HETATM    8  C5  UNL     1      78.644 -15.468   7.411  1.00  0.00     0.106 A 
HETATM    9  C6  UNL     1      79.452 -14.388   7.060  1.00  0.00     0.060 A 
HETATM   10  C16 UNL     1      80.745 -14.381   7.587  1.00  0.00     0.092 A 
ENDROOT
BRANCH  10  11
HETATM   11  N11 UNL     1      81.600 -13.334   7.181  1.00  0.00    -0.267 N 
ATOM     12  H11 UNL     1      82.153 -13.430   6.329  1.00  0.00     0.194 HD
BRANCH  11  13
HETATM   13  O4  UNL     1      81.679 -12.296   7.860  1.00  0.00    -0.289 OA
ATOM     14  H4  UNL     1      80.889 -11.838   8.124  1.00  0.00     0.244 HD
ENDBRANCH  11  13
ENDBRANCH  10  11
BRANCH   9  15
HETATM   15  C7  UNL     1      78.985 -13.400   6.076  1.00  0.00     0.087 C 
BRANCH  15  16
HETATM   16  C8  UNL     1      78.077 -12.320   6.604  1.00  0.00     0.294 C 
BRANCH  16  17
HETATM   17  N4  UNL     1      78.734 -11.295   7.353  1.00  0.00    -0.074 N 
ATOM     18  H43 UNL     1      78.783 -11.554   8.339  1.00  0.00     0.274 HD
ATOM     19  H42 UNL     1      79.728 -11.275   7.126  1.00  0.00     0.274 HD
ATOM     20  H41 UNL     1      78.330 -10.364   7.252  1.00  0.00     0.274 HD
ENDBRANCH  16  17
ENDBRANCH  15  16
BRANCH  15  21
HETATM   21  O2  UNL     1      78.893 -13.771   4.762  1.00  0.00    -0.351 OA
BRANCH  21  22
HETATM   22  C9  UNL     1      78.226 -12.771   4.081  1.00  0.00     0.205 C 
BRANCH  22  23
HETATM   23  C10 UNL     1      78.913 -12.011   3.010  1.00  0.00     0.308 C 
BRANCH  23  24
HETATM   24  N5  UNL     1      77.897 -11.478   2.111  1.00  0.00     0.180 N 
HETATM   25  C11 UNL     1      76.867 -10.697   2.741  1.00  0.00     0.512 C 
HETATM   26  N6  UNL     1      77.048  -9.311   2.491  1.00  0.00    -0.027 N 
HETATM   27  C12 UNL     1      76.900  -9.049   1.099  1.00  0.00     0.407 C 
ATOM     28  H62 UNL     1      76.427  -8.734   3.058  1.00  0.00     0.281 HD
ATOM     29  H61 UNL     1      77.938  -8.969   2.852  1.00  0.00     0.281 HD
HETATM   30  O3  UNL     1      77.337 -10.118   0.303  1.00  0.00    -0.303 OA
HETATM   31  C13 UNL     1      78.428 -10.747   0.993  1.00  0.00     0.405 A 
HETATM   32  N7  UNL     1      79.393  -9.764   1.327  1.00  0.00    -0.300 N 
HETATM   33  C15 UNL     1      79.087 -11.629   0.037  1.00  0.00     0.184 A 
HETATM   34  C14 UNL     1      80.468  -9.985   0.680  1.00  0.00     0.193 A 
ATOM     35  H7  UNL     1      79.249  -8.997   1.985  1.00  0.00     0.167 HD
HETATM   36  N8  UNL     1      81.690  -9.239   0.715  1.00  0.00    -0.063 NA
HETATM   37  N9  UNL     1      80.293 -11.154  -0.135  1.00  0.00    -0.317 N 
ATOM     38  H9  UNL     1      81.001 -11.552  -0.752  1.00  0.00     0.169 HD
HETATM   39  N10 UNL     1      78.534 -12.766  -0.585  1.00  0.00    -0.080 NA
ENDBRANCH  23  24
ENDBRANCH  22  23
ENDBRANCH  21  22
ENDBRANCH  15  21
ENDBRANCH   9  15
BRANCH   8  40
HETATM   40  O1  UNL     1      77.350 -15.536   6.915  1.00  0.00    -0.358 OA
ATOM     41  H1  UNL     1      76.836 -14.743   6.821  1.00  0.00     0.217 HD
ENDBRANCH   8  40
TORSDOF 10
ENDMDL
MODEL 4
REMARK VINA RESULT: -7.149279348      3.320      7.712
REMARK  10 active torsions:
REMARK  status: ('A' for Active; 'I' for Inactive)
REMARK    1  A    between atoms: C5_8  and  O1_9 
REMARK    2  A    between atoms: C6_11  and  C7_12 
REMARK    3  A    between atoms: C7_12  and  C8_13 
REMARK    4  A    between atoms: C7_12  and  O2_18 
REMARK    5  A    between atoms: C8_13  and  N4_14 
REMARK    6  A    between atoms: O2_18  and  C9_19 
REMARK    7  A    between atoms: C9_19  and  C10_20 
REMARK    8  A    between atoms: C10_20  and  N5_21 
REMARK    9  A    between atoms: C16_37  and  N11_38 
REMARK   10  A    between atoms: N11_38  and  O4_40 
ROOT
HETATM    1  N1  UNL     1      75.612  -9.326   3.794  1.00  0.00    -0.191 NA
HETATM    2  C1  UNL     1      76.536  -9.684   3.143  1.00  0.00     0.104 C 
HETATM    3  C2  UNL     1      77.649 -10.153   2.349  1.00  0.00     0.100 A 
HETATM    4  C3  UNL     1      77.995  -9.456   1.205  1.00  0.00     0.096 A 
HETATM    5  N2  UNL     1      77.343  -8.229   0.835  1.00  0.00    -0.099 NA
HETATM    6  C4  UNL     1      79.027  -9.954   0.416  1.00  0.00     0.106 A 
HETATM    7  N3  UNL     1      79.389  -9.170  -0.745  1.00  0.00    -0.097 NA
HETATM    8  C5  UNL     1      79.695 -11.105   0.745  1.00  0.00     0.106 A 
HETATM    9  C6  UNL     1      79.363 -11.820   1.895  1.00  0.00     0.060 A 
HETATM   10  C16 UNL     1      78.326 -11.301   2.673  1.00  0.00     0.092 A 
ENDROOT
BRANCH  10  11
HETATM   11  N11 UNL     1      77.929 -12.053   3.799  1.00  0.00    -0.267 N 
ATOM     12  H11 UNL     1      77.198 -12.759   3.708  1.00  0.00     0.194 HD
BRANCH  11  13
HETATM   13  O4  UNL     1      78.468 -11.855   4.901  1.00  0.00    -0.289 OA
ATOM     14  H4  UNL     1      78.425 -10.996   5.306  1.00  0.00     0.244 HD
ENDBRANCH  11  13
ENDBRANCH  10  11
BRANCH   9  15
HETATM   15  C7  UNL     1      79.998 -13.117   2.172  1.00  0.00     0.087 C 
BRANCH  15  16
HETATM   16  C8  UNL     1      79.429 -14.302   1.436  1.00  0.00     0.294 C 
BRANCH  16  17
HETATM   17  N4  UNL     1      78.069 -14.156   1.021  1.00  0.00    -0.074 N 
ATOM     18  H43 UNL     1      77.567 -13.545   1.666  1.00  0.00     0.274 HD
ATOM     19  H42 UNL     1      78.019 -13.594   0.171  1.00  0.00     0.274 HD
ATOM     20  H41 UNL     1      77.562 -15.032   0.896  1.00  0.00     0.274 HD
ENDBRANCH  16  17
ENDBRANCH  15  16
BRANCH  15  21
HETATM   21  O2  UNL     1      80.605 -13.308   3.384  1.00  0.00    -0.351 OA
BRANCH  21  22
HETATM   22  C9  UNL     1      80.472 -14.641   3.724  1.00  0.00     0.205 C 
BRANCH  22  23
HETATM   23  C10 UNL     1      80.140 -15.026   5.117  1.00  0.00     0.308 C 
BRANCH  23  24
HETATM   24  N5  UNL     1      79.310 -16.222   5.068  1.00  0.00     0.180 N 
HETATM   25  C11 UNL     1      79.944 -17.430   5.525  1.00  0.00     0.512 C 
HETATM   26  N6  UNL     1      79.469 -17.804   6.810  1.00  0.00    -0.027 N 
HETATM   27  C12 UNL     1      78.084 -18.128   6.738  1.00  0.00     0.407 C 
ATOM     28  H62 UNL     1      80.019 -18.560   7.218  1.00  0.00     0.281 HD
ATOM     29  H61 UNL     1      79.659 -17.089   7.512  1.00  0.00     0.281 HD
HETATM   30  O3  UNL     1      77.406 -17.368   5.772  1.00  0.00    -0.303 OA
HETATM   31  C13 UNL     1      78.037 -16.080   5.721  1.00  0.00     0.405 A 
HETATM   32  N7  UNL     1      78.096 -15.541   7.031  1.00  0.00    -0.300 N 
HETATM   33  C15 UNL     1      77.146 -15.197   4.977  1.00  0.00     0.184 A 
HETATM   34  C14 UNL     1      77.356 -14.505   7.099  1.00  0.00     0.193 A 
ATOM     35  H7  UNL     1      78.645 -15.923   7.801  1.00  0.00     0.167 HD
HETATM   36  N8  UNL     1      77.124 -13.658   8.229  1.00  0.00    -0.063 NA
HETATM   37  N9  UNL     1      76.753 -14.274   5.817  1.00  0.00    -0.317 N 
ATOM     38  H9  UNL     1      76.117 -13.509   5.595  1.00  0.00     0.169 HD
HETATM   39  N10 UNL     1      76.775 -15.316   3.623  1.00  0.00    -0.080 NA
ENDBRANCH  23  24
ENDBRANCH  22  23
ENDBRANCH  21  22
ENDBRANCH  15  21
ENDBRANCH   9  15
BRANCH   8  40
HETATM   40  O1  UNL     1      80.714 -11.572  -0.073  1.00  0.00    -0.358 OA
ATOM     41  H1  UNL     1      80.797 -11.243  -0.961  1.00  0.00     0.217 HD
ENDBRANCH   8  40
TORSDOF 10
ENDMDL
MODEL 5
REMARK VINA RESULT: -7.145740966      1.949      3.562
REMARK  10 active torsions:
REMARK  status: ('A' for Active; 'I' for Inactive)
REMARK    1  A    between atoms: C5_8  and  O1_9 
REMARK    2  A    between atoms: C6_11  and  C7_12 
REMARK    3  A    between atoms: C7_12  and  C8_13 
REMARK    4  A    between atoms: C7_12  and  O2_18 
REMARK    5  A    between atoms: C8_13  and  N4_14 
REMARK    6  A    between atoms: O2_18  and  C9_19 
REMARK    7  A    between atoms: C9_19  and  C10_20 
REMARK    8  A    between atoms: C10_20  and  N5_21 
REMARK    9  A    between atoms: C16_37  and  N11_38 
REMARK   10  A    between atoms: N11_38  and  O4_40 
ROOT
HETATM    1  N1  UNL     1      84.363 -15.350   9.350  1.00  0.00    -0.191 NA
HETATM    2  C1  UNL     1      83.211 -15.475   9.103  1.00  0.00     0.104 C 
HETATM    3  C2  UNL     1      81.813 -15.624   8.769  1.00  0.00     0.100 A 
HETATM    4  C3  UNL     1      81.101 -16.674   9.320  1.00  0.00     0.096 A 
HETATM    5  N2  UNL     1      81.685 -17.564  10.288  1.00  0.00    -0.099 NA
HETATM    6  C4  UNL     1      79.774 -16.844   8.941  1.00  0.00     0.106 A 
HETATM    7  N3  UNL     1      79.053 -17.926   9.577  1.00  0.00    -0.097 NA
HETATM    8  C5  UNL     1      79.168 -16.004   8.042  1.00  0.00     0.106 A 
HETATM    9  C6  UNL     1      79.866 -14.939   7.477  1.00  0.00     0.060 A 
HETATM   10  C16 UNL     1      81.197 -14.786   7.873  1.00  0.00     0.092 A 
ENDROOT
BRANCH  10  11
HETATM   11  N11 UNL     1      81.939 -13.758   7.254  1.00  0.00    -0.267 N 
ATOM     12  H11 UNL     1      82.452 -13.948   6.394  1.00  0.00     0.194 HD
BRANCH  11  13
HETATM   13  O4  UNL     1      81.966 -12.621   7.757  1.00  0.00    -0.289 OA
ATOM     14  H4  UNL     1      82.796 -12.171   7.871  1.00  0.00     0.244 HD
ENDBRANCH  11  13
ENDBRANCH  10  11
BRANCH   9  15
HETATM   15  C7  UNL     1      79.249 -14.122   6.422  1.00  0.00     0.087 C 
BRANCH  15  16
HETATM   16  C8  UNL     1      78.506 -12.896   6.884  1.00  0.00     0.294 C 
BRANCH  16  17
HETATM   17  N4  UNL     1      77.089 -13.051   6.980  1.00  0.00    -0.074 N 
ATOM     18  H43 UNL     1      76.715 -13.426   6.107  1.00  0.00     0.274 HD
ATOM     19  H42 UNL     1      76.861 -13.817   7.613  1.00  0.00     0.274 HD
ATOM     20  H41 UNL     1      76.582 -12.208   7.248  1.00  0.00     0.274 HD
ENDBRANCH  16  17
ENDBRANCH  15  16
BRANCH  15  21
HETATM   21  O2  UNL     1      78.881 -14.728   5.250  1.00  0.00    -0.351 OA
BRANCH  21  22
HETATM   22  C9  UNL     1      79.986 -14.762   4.421  1.00  0.00     0.205 C 
BRANCH  22  23
HETATM   23  C10 UNL     1      80.399 -13.547   3.678  1.00  0.00     0.308 C 
BRANCH  23  24
HETATM   24  N5  UNL     1      79.824 -13.619   2.341  1.00  0.00     0.180 N 
HETATM   25  C11 UNL     1      79.376 -14.924   1.933  1.00  0.00     0.512 C 
HETATM   26  N6  UNL     1      77.959 -15.013   1.964  1.00  0.00    -0.027 N 
HETATM   27  C12 UNL     1      77.399 -14.123   1.005  1.00  0.00     0.407 C 
ATOM     28  H62 UNL     1      77.632 -15.971   1.836  1.00  0.00     0.281 HD
ATOM     29  H61 UNL     1      77.586 -14.854   2.899  1.00  0.00     0.281 HD
HETATM   30  O3  UNL     1      78.171 -12.963   0.834  1.00  0.00    -0.303 OA
HETATM   31  C13 UNL     1      78.777 -12.663   2.100  1.00  0.00     0.405 A 
HETATM   32  N7  UNL     1      77.770 -12.617   3.097  1.00  0.00    -0.300 N 
HETATM   33  C15 UNL     1      79.299 -11.304   2.012  1.00  0.00     0.184 A 
HETATM   34  C14 UNL     1      77.670 -11.429   3.546  1.00  0.00     0.193 A 
ATOM     35  H7  UNL     1      77.212 -13.413   3.406  1.00  0.00     0.167 HD
HETATM   36  N8  UNL     1      76.782 -10.939   4.556  1.00  0.00    -0.063 NA
HETATM   37  N9  UNL     1      78.624 -10.591   2.876  1.00  0.00    -0.317 N 
ATOM     38  H9  UNL     1      78.755  -9.595   3.047  1.00  0.00     0.169 HD
HETATM   39  N10 UNL     1      80.324 -10.845   1.162  1.00  0.00    -0.080 NA
ENDBRANCH  23  24
ENDBRANCH  22  23
ENDBRANCH  21  22
ENDBRANCH  15  21
ENDBRANCH   9  15
BRANCH   8  40
HETATM   40  O1  UNL     1      77.844 -16.213   7.684  1.00  0.00    -0.358 OA
ATOM     41  H1  UNL     1      77.322 -16.856   8.151  1.00  0.00     0.217 HD
ENDBRANCH   8  40
TORSDOF 10
ENDMDL
