MODEL 1
REMARK VINA RESULT: -8.223138133      0.000      0.000
REMARK  10 active torsions:
REMARK  status: ('A' for Active; 'I' for Inactive)
REMARK    1  A    between atoms: C2_3  and  N2_4 
REMARK    2  A    between atoms: N3_6  and  O1_8 
REMARK    3  A    between atoms: C3_10  and  C4_11 
REMARK    4  A    between atoms: C5_16  and  C6_17 
REMARK       I    between atoms: C6_17  and  N6_19 
REMARK    5  A    between atoms: N6_19  and  C7_21 
REMARK    6  A    between atoms: C7_21  and  C8_22 
REMARK    7  A    between atoms: C8_22  and  O4_23 
REMARK    8  A    between atoms: C8_22  and  N7_25 
REMARK    9  A    between atoms: C12_32  and  N10_33 
REMARK   10  A    between atoms: N12_37  and  O5_38 
ROOT
HETATM    1  N7  UNL     1      77.767 -16.716  17.947  1.00  0.00    -0.198 N 
HETATM    2  C9  UNL     1      77.173 -15.520  17.829  1.00  0.00     0.210 A 
HETATM    3  C10 UNL     1      76.704 -14.329  17.283  1.00  0.00     0.177 A 
HETATM    4  C11 UNL     1      76.873 -13.912  15.930  1.00  0.00     0.122 C 
HETATM    5  N8  UNL     1      77.001 -13.573  14.827  1.00  0.00    -0.190 NA
HETATM    6  N9  UNL     1      76.079 -13.688  18.287  1.00  0.00    -0.176 N 
ATOM      7  H9  UNL     1      75.621 -12.779  18.217  1.00  0.00     0.185 HD
HETATM    8  C12 UNL     1      76.156 -14.437  19.392  1.00  0.00     0.703 A 
HETATM    9  N11 UNL     1      76.833 -15.580  19.126  1.00  0.00    -0.023 N 
HETATM   10  N12 UNL     1      77.421 -16.758  19.231  1.00  0.00    -0.065 N 
ENDROOT
BRANCH   1  11
HETATM   11  C8  UNL     1      78.511 -17.670  17.103  1.00  0.00     0.264 C 
BRANCH  11  12
HETATM   12  C7  UNL     1      77.678 -17.986  15.926  1.00  0.00     0.178 C 
BRANCH  12  13
HETATM   13  N6  UNL     1      78.165 -17.611  14.628  1.00  0.00    -0.351 N 
HETATM   14  C6  UNL     1      79.022 -18.290  13.779  1.00  0.00     0.274 C 
HETATM   15  O3  UNL     1      79.444 -19.431  14.188  1.00  0.00    -0.266 OA
ATOM     16  H6  UNL     1      77.830 -16.712  14.281  1.00  0.00     0.162 HD
BRANCH  14  17
HETATM   17  C5  UNL     1      79.525 -17.910  12.486  1.00  0.00     0.170 A 
HETATM   18  N5  UNL     1      80.862 -18.042  12.199  1.00  0.00    -0.340 N 
HETATM   19  C3  UNL     1      81.406 -17.712  11.027  1.00  0.00     0.144 A 
ATOM     20  H5  UNL     1      81.475 -18.414  12.925  1.00  0.00     0.166 HD
HETATM   21  C2  UNL     1      80.570 -17.209  10.052  1.00  0.00     0.158 A 
HETATM   22  N1  UNL     1      79.253 -17.052  10.258  1.00  0.00    -0.300 N 
HETATM   23  C1  UNL     1      78.366 -16.523   9.233  1.00  0.00     0.161 C 
HETATM   24  C13 UNL     1      78.745 -17.408  11.484  1.00  0.00     0.281 A 
HETATM   25  O6  UNL     1      77.510 -17.223  11.575  1.00  0.00    -0.265 OA
BRANCH  19  26
HETATM   26  C4  UNL     1      82.833 -17.869  10.765  1.00  0.00     0.285 C 
HETATM   27  N4  UNL     1      83.352 -19.163  10.567  1.00  0.00    -0.056 NA
HETATM   28  O2  UNL     1      83.613 -16.890  10.711  1.00  0.00    -0.269 OA
ENDBRANCH  19  26
BRANCH  21  29
HETATM   29  N2  UNL     1      81.085 -16.838   8.779  1.00  0.00    -0.264 N 
HETATM   30  N3  UNL     1      81.680 -15.737   8.574  1.00  0.00    -0.208 N 
ATOM     31  H3  UNL     1      81.807 -15.076   9.339  1.00  0.00     0.215 HD
ATOM     32  H2  UNL     1      80.971 -17.484   7.998  1.00  0.00     0.190 HD
BRANCH  30  33
HETATM   33  O1  UNL     1      82.150 -15.440   7.337  1.00  0.00    -0.274 OA
ATOM     34  H1  UNL     1      83.079 -15.291   7.204  1.00  0.00     0.246 HD
ENDBRANCH  30  33
ENDBRANCH  21  29
ENDBRANCH  14  17
ENDBRANCH  12  13
ENDBRANCH  11  12
BRANCH  11  35
HETATM   35  O4  UNL     1      78.892 -18.755  17.822  1.00  0.00    -0.373 OA
ATOM     36  H4  UNL     1      79.829 -18.814  17.969  1.00  0.00     0.212 HD
ENDBRANCH  11  35
ENDBRANCH   1  11
BRANCH   8  37
HETATM   37  N10 UNL     1      75.684 -14.174  20.556  1.00  0.00    -0.233 N 
ATOM     38 2H10 UNL     1      74.709 -14.350  20.803  1.00  0.00     0.174 HD
ATOM     39 1H10 UNL     1      76.176 -13.776  21.356  1.00  0.00     0.174 HD
ENDBRANCH   8  37
BRANCH  10  40
HETATM   40  O5  UNL     1      77.575 -17.635  20.299  1.00  0.00    -0.252 OA
ATOM     41  H5  UNL     1      77.080 -17.887  21.070  1.00  0.00     0.248 HD
ENDBRANCH  10  40
TORSDOF 10
ENDMDL
MODEL 2
REMARK VINA RESULT: -8.107017691      1.205      2.317
REMARK  10 active torsions:
REMARK  status: ('A' for Active; 'I' for Inactive)
REMARK    1  A    between atoms: C2_3  and  N2_4 
REMARK    2  A    between atoms: N3_6  and  O1_8 
REMARK    3  A    between atoms: C3_10  and  C4_11 
REMARK    4  A    between atoms: C5_16  and  C6_17 
REMARK       I    between atoms: C6_17  and  N6_19 
REMARK    5  A    between atoms: N6_19  and  C7_21 
REMARK    6  A    between atoms: C7_21  and  C8_22 
REMARK    7  A    between atoms: C8_22  and  O4_23 
REMARK    8  A    between atoms: C8_22  and  N7_25 
REMARK    9  A    between atoms: C12_32  and  N10_33 
REMARK   10  A    between atoms: N12_37  and  O5_38 
ROOT
HETATM    1  N7  UNL     1      77.393 -15.733  17.013  1.00  0.00    -0.198 N 
HETATM    2  C9  UNL     1      76.529 -14.994  17.725  1.00  0.00     0.210 A 
HETATM    3  C10 UNL     1      75.684 -14.575  18.748  1.00  0.00     0.177 A 
HETATM    4  C11 UNL     1      75.428 -15.285  19.958  1.00  0.00     0.122 C 
HETATM    5  N8  UNL     1      75.225 -15.855  20.949  1.00  0.00    -0.190 NA
HETATM    6  N9  UNL     1      75.183 -13.393  18.346  1.00  0.00    -0.176 N 
ATOM      7  H9  UNL     1      74.526 -12.817  18.873  1.00  0.00     0.185 HD
HETATM    8  C12 UNL     1      75.688 -13.096  17.144  1.00  0.00     0.703 A 
HETATM    9  N11 UNL     1      76.527 -14.081  16.742  1.00  0.00    -0.023 N 
HETATM   10  N12 UNL     1      77.379 -14.815  16.049  1.00  0.00    -0.065 N 
ENDROOT
BRANCH   1  11
HETATM   11  C8  UNL     1      78.116 -17.012  17.134  1.00  0.00     0.264 C 
BRANCH  11  12
HETATM   12  C7  UNL     1      77.708 -17.877  16.009  1.00  0.00     0.178 C 
BRANCH  12  13
HETATM   13  N6  UNL     1      78.175 -17.544  14.692  1.00  0.00    -0.351 N 
HETATM   14  C6  UNL     1      79.023 -18.248  13.854  1.00  0.00     0.274 C 
HETATM   15  O3  UNL     1      79.456 -19.373  14.295  1.00  0.00    -0.266 OA
ATOM     16  H6  UNL     1      77.831 -16.659  14.319  1.00  0.00     0.162 HD
BRANCH  14  17
HETATM   17  C5  UNL     1      79.506 -17.910  12.542  1.00  0.00     0.170 A 
HETATM   18  N5  UNL     1      80.849 -17.980  12.261  1.00  0.00    -0.340 N 
HETATM   19  C3  UNL     1      81.375 -17.683  11.072  1.00  0.00     0.144 A 
ATOM     20  H5  UNL     1      81.480 -18.276  13.004  1.00  0.00     0.166 HD
HETATM   21  C2  UNL     1      80.513 -17.283  10.072  1.00  0.00     0.158 A 
HETATM   22  N1  UNL     1      79.189 -17.191  10.271  1.00  0.00    -0.300 N 
HETATM   23  C1  UNL     1      78.275 -16.770   9.220  1.00  0.00     0.161 C 
HETATM   24  C13 UNL     1      78.700 -17.509  11.515  1.00  0.00     0.281 A 
HETATM   25  O6  UNL     1      77.456 -17.390  11.598  1.00  0.00    -0.265 OA
BRANCH  19  26
HETATM   26  C4  UNL     1      82.808 -17.771  10.817  1.00  0.00     0.285 C 
HETATM   27  N4  UNL     1      83.405 -19.042  10.706  1.00  0.00    -0.056 NA
HETATM   28  O2  UNL     1      83.529 -16.753  10.694  1.00  0.00    -0.269 OA
ENDBRANCH  19  26
BRANCH  21  29
HETATM   29  N2  UNL     1      81.009 -16.951   8.780  1.00  0.00    -0.264 N 
HETATM   30  N3  UNL     1      81.498 -15.815   8.503  1.00  0.00    -0.208 N 
ATOM     31  H3  UNL     1      81.550 -15.093   9.222  1.00  0.00     0.215 HD
ATOM     32  H2  UNL     1      80.967 -17.657   8.046  1.00  0.00     0.190 HD
BRANCH  30  33
HETATM   33  O1  UNL     1      81.954 -15.559   7.253  1.00  0.00    -0.274 OA
ATOM     34  H1  UNL     1      82.888 -15.481   7.094  1.00  0.00     0.246 HD
ENDBRANCH  30  33
ENDBRANCH  21  29
ENDBRANCH  14  17
ENDBRANCH  12  13
ENDBRANCH  11  12
BRANCH  11  35
HETATM   35  O4  UNL     1      77.920 -17.563  18.358  1.00  0.00    -0.373 OA
ATOM     36  H4  UNL     1      78.711 -17.893  18.767  1.00  0.00     0.212 HD
ENDBRANCH  11  35
ENDBRANCH   1  11
BRANCH   8  37
HETATM   37  N10 UNL     1      75.455 -12.057  16.428  1.00  0.00    -0.233 N 
ATOM     38 2H10 UNL     1      75.218 -11.153  16.838  1.00  0.00     0.174 HD
ATOM     39 1H10 UNL     1      75.471 -11.982  15.411  1.00  0.00     0.174 HD
ENDBRANCH   8  37
BRANCH  10  40
HETATM   40  O5  UNL     1      77.978 -14.633  14.808  1.00  0.00    -0.252 OA
ATOM     41  H5  UNL     1      77.706 -14.378  13.935  1.00  0.00     0.248 HD
ENDBRANCH  10  40
TORSDOF 10
ENDMDL
MODEL 3
REMARK VINA RESULT: -8.087391704      5.189      8.962
REMARK  10 active torsions:
REMARK  status: ('A' for Active; 'I' for Inactive)
REMARK    1  A    between atoms: C2_3  and  N2_4 
REMARK    2  A    between atoms: N3_6  and  O1_8 
REMARK    3  A    between atoms: C3_10  and  C4_11 
REMARK    4  A    between atoms: C5_16  and  C6_17 
REMARK       I    between atoms: C6_17  and  N6_19 
REMARK    5  A    between atoms: N6_19  and  C7_21 
REMARK    6  A    between atoms: C7_21  and  C8_22 
REMARK    7  A    between atoms: C8_22  and  O4_23 
REMARK    8  A    between atoms: C8_22  and  N7_25 
REMARK    9  A    between atoms: C12_32  and  N10_33 
REMARK   10  A    between atoms: N12_37  and  O5_38 
ROOT
HETATM    1  N7  UNL     1      78.924 -17.248   9.953  1.00  0.00    -0.198 N 
HETATM    2  C9  UNL     1      79.721 -17.578  10.980  1.00  0.00     0.210 A 
HETATM    3  C10 UNL     1      80.846 -17.958  11.706  1.00  0.00     0.177 A 
HETATM    4  C11 UNL     1      82.135 -18.229  11.160  1.00  0.00     0.122 C 
HETATM    5  N8  UNL     1      83.189 -18.442  10.721  1.00  0.00    -0.190 NA
HETATM    6  N9  UNL     1      80.450 -18.007  12.991  1.00  0.00    -0.176 N 
ATOM      7  H9  UNL     1      81.042 -18.256  13.784  1.00  0.00     0.185 HD
HETATM    8  C12 UNL     1      79.156 -17.678  13.058  1.00  0.00     0.703 A 
HETATM    9  N11 UNL     1      78.686 -17.408  11.816  1.00  0.00    -0.023 N 
HETATM   10  N12 UNL     1      77.909 -17.084  10.799  1.00  0.00    -0.065 N 
ENDROOT
BRANCH   1  11
HETATM   11  C8  UNL     1      79.011 -17.096   8.489  1.00  0.00     0.264 C 
BRANCH  11  12
HETATM   12  C7  UNL     1      80.020 -16.058   8.195  1.00  0.00     0.178 C 
BRANCH  12  13
HETATM   13  N6  UNL     1      80.048 -15.494   6.874  1.00  0.00    -0.351 N 
HETATM   14  C6  UNL     1      79.291 -14.466   6.340  1.00  0.00     0.274 C 
HETATM   15  O3  UNL     1      78.441 -13.913   7.128  1.00  0.00    -0.266 OA
ATOM     16  H6  UNL     1      80.726 -15.911   6.237  1.00  0.00     0.162 HD
BRANCH  14  17
HETATM   17  C5  UNL     1      79.305 -13.908   5.014  1.00  0.00     0.170 A 
HETATM   18  N5  UNL     1      78.662 -12.721   4.757  1.00  0.00    -0.340 N 
HETATM   19  C3  UNL     1      78.627 -12.140   3.557  1.00  0.00     0.144 A 
ATOM     20  H5  UNL     1      78.184 -12.257   5.529  1.00  0.00     0.166 HD
HETATM   21  C2  UNL     1      79.277 -12.776   2.518  1.00  0.00     0.158 A 
HETATM   22  N1  UNL     1      79.926 -13.938   2.693  1.00  0.00    -0.300 N 
HETATM   23  C1  UNL     1      80.613 -14.613   1.602  1.00  0.00     0.161 C 
HETATM   24  C13 UNL     1      79.930 -14.492   3.950  1.00  0.00     0.281 A 
HETATM   25  O6  UNL     1      80.560 -15.573   4.007  1.00  0.00    -0.265 OA
BRANCH  19  26
HETATM   26  C4  UNL     1      77.933 -10.878   3.329  1.00  0.00     0.285 C 
HETATM   27  N4  UNL     1      76.703 -10.650   3.976  1.00  0.00    -0.056 NA
HETATM   28  O2  UNL     1      78.393  -9.989   2.576  1.00  0.00    -0.269 OA
ENDBRANCH  19  26
BRANCH  21  29
HETATM   29  N2  UNL     1      79.279 -12.210   1.213  1.00  0.00    -0.264 N 
HETATM   30  N3  UNL     1      80.247 -11.528   0.762  1.00  0.00    -0.208 N 
ATOM     31  H3  UNL     1      81.070 -11.364   1.343  1.00  0.00     0.215 HD
ATOM     32  H2  UNL     1      78.467 -12.361   0.615  1.00  0.00     0.190 HD
BRANCH  30  33
HETATM   33  O1  UNL     1      80.191 -11.015  -0.491  1.00  0.00    -0.274 OA
ATOM     34  H1  UNL     1      80.482 -11.534  -1.231  1.00  0.00     0.246 HD
ENDBRANCH  30  33
ENDBRANCH  21  29
ENDBRANCH  14  17
ENDBRANCH  12  13
ENDBRANCH  11  12
BRANCH  11  35
HETATM   35  O4  UNL     1      77.788 -16.849   7.956  1.00  0.00    -0.373 OA
ATOM     36  H4  UNL     1      77.494 -17.506   7.336  1.00  0.00     0.212 HD
ENDBRANCH  11  35
ENDBRANCH   1  11
BRANCH   8  37
HETATM   37  N10 UNL     1      78.415 -17.610  14.103  1.00  0.00    -0.233 N 
ATOM     38 2H10 UNL     1      78.733 -17.924  15.020  1.00  0.00     0.174 HD
ATOM     39 1H10 UNL     1      77.461 -17.256  14.171  1.00  0.00     0.174 HD
ENDBRANCH   8  37
BRANCH  10  40
HETATM   40  O5  UNL     1      76.568 -16.724  10.722  1.00  0.00    -0.252 OA
ATOM     41  H5  UNL     1      75.975 -16.146  11.187  1.00  0.00     0.248 HD
ENDBRANCH  10  40
TORSDOF 10
ENDMDL
MODEL 4
REMARK VINA RESULT: -8.075306152      8.837     14.010
REMARK  10 active torsions:
REMARK  status: ('A' for Active; 'I' for Inactive)
REMARK    1  A    between atoms: C2_3  and  N2_4 
REMARK    2  A    between atoms: N3_6  and  O1_8 
REMARK    3  A    between atoms: C3_10  and  C4_11 
REMARK    4  A    between atoms: C5_16  and  C6_17 
REMARK       I    between atoms: C6_17  and  N6_19 
REMARK    5  A    between atoms: N6_19  and  C7_21 
REMARK    6  A    between atoms: C7_21  and  C8_22 
REMARK    7  A    between atoms: C8_22  and  O4_23 
REMARK    8  A    between atoms: C8_22  and  N7_25 
REMARK    9  A    between atoms: C12_32  and  N10_33 
REMARK   10  A    between atoms: N12_37  and  O5_38 
ROOT
HETATM    1  N7  UNL     1      78.703 -12.001  -0.332  1.00  0.00    -0.198 N 
HETATM    2  C9  UNL     1      79.041 -11.087   0.590  1.00  0.00     0.210 A 
HETATM    3  C10 UNL     1      79.017 -10.303   1.739  1.00  0.00     0.177 A 
HETATM    4  C11 UNL     1      78.034 -10.369   2.770  1.00  0.00     0.122 C 
HETATM    5  N8  UNL     1      77.242 -10.426   3.616  1.00  0.00    -0.190 NA
HETATM    6  N9  UNL     1      80.093  -9.500   1.655  1.00  0.00    -0.176 N 
ATOM      7  H9  UNL     1      80.366  -8.800   2.345  1.00  0.00     0.185 HD
HETATM    8  C12 UNL     1      80.746  -9.770   0.520  1.00  0.00     0.703 A 
HETATM    9  N11 UNL     1      80.106 -10.755  -0.156  1.00  0.00    -0.023 N 
HETATM   10  N12 UNL     1      79.765 -11.658  -1.057  1.00  0.00    -0.065 N 
ENDROOT
BRANCH   1  11
HETATM   11  C8  UNL     1      77.648 -13.005  -0.558  1.00  0.00     0.264 C 
BRANCH  11  12
HETATM   12  C7  UNL     1      78.033 -14.244   0.147  1.00  0.00     0.178 C 
BRANCH  12  13
HETATM   13  N6  UNL     1      78.751 -14.125   1.386  1.00  0.00    -0.351 N 
HETATM   14  C6  UNL     1      78.267 -13.991   2.676  1.00  0.00     0.274 C 
HETATM   15  O3  UNL     1      76.990 -13.984   2.807  1.00  0.00    -0.266 OA
ATOM     16  H6  UNL     1      79.768 -14.141   1.302  1.00  0.00     0.162 HD
BRANCH  14  17
HETATM   17  C5  UNL     1      78.982 -13.855   3.916  1.00  0.00     0.170 A 
HETATM   18  N5  UNL     1      78.405 -13.204   4.979  1.00  0.00    -0.340 N 
HETATM   19  C3  UNL     1      79.001 -13.035   6.160  1.00  0.00     0.144 A 
ATOM     20  H5  UNL     1      77.464 -12.829   4.859  1.00  0.00     0.166 HD
HETATM   21  C2  UNL     1      80.273 -13.547   6.314  1.00  0.00     0.158 A 
HETATM   22  N1  UNL     1      80.902 -14.195   5.320  1.00  0.00    -0.300 N 
HETATM   23  C1  UNL     1      82.244 -14.737   5.476  1.00  0.00     0.161 C 
HETATM   24  C13 UNL     1      80.241 -14.341   4.124  1.00  0.00     0.281 A 
HETATM   25  O6  UNL     1      80.912 -14.957   3.266  1.00  0.00    -0.265 OA
BRANCH  19  26
HETATM   26  C4  UNL     1      78.350 -12.337   7.262  1.00  0.00     0.285 C 
HETATM   27  N4  UNL     1      77.179 -12.886   7.820  1.00  0.00    -0.056 NA
HETATM   28  O2  UNL     1      78.797 -11.265   7.731  1.00  0.00    -0.269 OA
ENDBRANCH  19  26
BRANCH  21  29
HETATM   29  N2  UNL     1      80.967 -13.402   7.547  1.00  0.00    -0.264 N 
HETATM   30  N3  UNL     1      81.680 -12.390   7.819  1.00  0.00    -0.208 N 
ATOM     31  H3  UNL     1      81.774 -11.635   7.140  1.00  0.00     0.215 HD
ATOM     32  H2  UNL     1      80.887 -14.144   8.242  1.00  0.00     0.190 HD
BRANCH  30  33
HETATM   33  O1  UNL     1      82.317 -12.309   9.013  1.00  0.00    -0.274 OA
ATOM     34  H1  UNL     1      83.198 -11.957   9.059  1.00  0.00     0.246 HD
ENDBRANCH  30  33
ENDBRANCH  21  29
ENDBRANCH  14  17
ENDBRANCH  12  13
ENDBRANCH  11  12
BRANCH  11  35
HETATM   35  O4  UNL     1      77.415 -13.171  -1.885  1.00  0.00    -0.373 OA
ATOM     36  H4  UNL     1      76.931 -12.460  -2.287  1.00  0.00     0.212 HD
ENDBRANCH  11  35
ENDBRANCH   1  11
BRANCH   8  37
HETATM   37  N10 UNL     1      81.818  -9.220   0.078  1.00  0.00    -0.233 N 
ATOM     38 2H10 UNL     1      82.730  -9.376   0.510  1.00  0.00     0.174 HD
ATOM     39 1H10 UNL     1      81.915  -8.587  -0.716  1.00  0.00     0.174 HD
ENDBRANCH   8  37
BRANCH  10  40
HETATM   40  O5  UNL     1      80.340 -12.041  -2.263  1.00  0.00    -0.252 OA
ATOM     41  H5  UNL     1      80.552 -11.632  -3.094  1.00  0.00     0.248 HD
ENDBRANCH  10  40
TORSDOF 10
ENDMDL
MODEL 5
REMARK VINA RESULT: -8.066245994      7.056     10.916
REMARK  10 active torsions:
REMARK  status: ('A' for Active; 'I' for Inactive)
REMARK    1  A    between atoms: C2_3  and  N2_4 
REMARK    2  A    between atoms: N3_6  and  O1_8 
REMARK    3  A    between atoms: C3_10  and  C4_11 
REMARK    4  A    between atoms: C5_16  and  C6_17 
REMARK       I    between atoms: C6_17  and  N6_19 
REMARK    5  A    between atoms: N6_19  and  C7_21 
REMARK    6  A    between atoms: C7_21  and  C8_22 
REMARK    7  A    between atoms: C8_22  and  O4_23 
REMARK    8  A    between atoms: C8_22  and  N7_25 
REMARK    9  A    between atoms: C12_32  and  N10_33 
REMARK   10  A    between atoms: N12_37  and  O5_38 
ROOT
HETATM    1  N7  UNL     1      79.830 -16.172   8.291  1.00  0.00    -0.198 N 
HETATM    2  C9  UNL     1      81.097 -15.809   8.045  1.00  0.00     0.210 A 
HETATM    3  C10 UNL     1      82.207 -15.220   7.447  1.00  0.00     0.177 A 
HETATM    4  C11 UNL     1      82.186 -14.396   6.283  1.00  0.00     0.122 C 
HETATM    5  N8  UNL     1      82.171 -13.718   5.340  1.00  0.00    -0.190 NA
HETATM    6  N9  UNL     1      83.263 -15.591   8.193  1.00  0.00    -0.176 N 
ATOM      7  H9  UNL     1      84.233 -15.325   8.022  1.00  0.00     0.185 HD
HETATM    8  C12 UNL     1      82.834 -16.367   9.194  1.00  0.00     0.703 A 
HETATM    9  N11 UNL     1      81.489 -16.512   9.118  1.00  0.00    -0.023 N 
HETATM   10  N12 UNL     1      80.238 -16.864   9.352  1.00  0.00    -0.065 N 
ENDROOT
BRANCH   1  11
HETATM   11  C8  UNL     1      78.488 -15.964   7.716  1.00  0.00     0.264 C 
BRANCH  11  12
HETATM   12  C7  UNL     1      78.208 -14.514   7.720  1.00  0.00     0.178 C 
BRANCH  12  13
HETATM   13  N6  UNL     1      78.375 -13.786   6.493  1.00  0.00    -0.351 N 
HETATM   14  C6  UNL     1      77.512 -12.900   5.870  1.00  0.00     0.274 C 
HETATM   15  O3  UNL     1      76.401 -12.670   6.469  1.00  0.00    -0.266 OA
ATOM     16  H6  UNL     1      79.258 -13.946   6.009  1.00  0.00     0.162 HD
BRANCH  14  17
HETATM   17  C5  UNL     1      77.669 -12.182   4.634  1.00  0.00     0.170 A 
HETATM   18  N5  UNL     1      76.825 -11.142   4.327  1.00  0.00    -0.340 N 
HETATM   19  C3  UNL     1      76.902 -10.429   3.203  1.00  0.00     0.144 A 
ATOM     20  H5  UNL     1      76.096 -10.901   4.999  1.00  0.00     0.166 HD
HETATM   21  C2  UNL     1      77.891 -10.762   2.301  1.00  0.00     0.158 A 
HETATM   22  N1  UNL     1      78.754 -11.765   2.531  1.00  0.00    -0.300 N 
HETATM   23  C1  UNL     1      79.799 -12.120   1.583  1.00  0.00     0.161 C 
HETATM   24  C13 UNL     1      78.628 -12.467   3.706  1.00  0.00     0.281 A 
HETATM   25  O6  UNL     1      79.477 -13.380   3.823  1.00  0.00    -0.265 OA
BRANCH  19  26
HETATM   26  C4  UNL     1      75.984  -9.332   2.918  1.00  0.00     0.285 C 
HETATM   27  N4  UNL     1      75.265  -9.341   1.707  1.00  0.00    -0.056 NA
HETATM   28  O2  UNL     1      75.812  -8.381   3.715  1.00  0.00    -0.269 OA
ENDBRANCH  19  26
BRANCH  21  29
HETATM   29  N2  UNL     1      78.030 -10.041   1.082  1.00  0.00    -0.264 N 
HETATM   30  N3  UNL     1      78.894  -9.128   0.919  1.00  0.00    -0.208 N 
ATOM     31  H3  UNL     1      79.527  -8.883   1.680  1.00  0.00     0.215 HD
ATOM     32  H2  UNL     1      77.409 -10.269   0.307  1.00  0.00     0.190 HD
BRANCH  30  33
HETATM   33  O1  UNL     1      78.978  -8.477  -0.267  1.00  0.00    -0.274 OA
ATOM     34  H1  UNL     1      78.956  -8.967  -1.081  1.00  0.00     0.246 HD
ENDBRANCH  30  33
ENDBRANCH  21  29
ENDBRANCH  14  17
ENDBRANCH  12  13
ENDBRANCH  11  12
BRANCH  11  35
HETATM   35  O4  UNL     1      77.563 -16.711   8.368  1.00  0.00    -0.373 OA
ATOM     36  H4  UNL     1      77.905 -17.512   8.745  1.00  0.00     0.212 HD
ENDBRANCH  11  35
ENDBRANCH   1  11
BRANCH   8  37
HETATM   37  N10 UNL     1      83.533 -16.919  10.117  1.00  0.00    -0.233 N 
ATOM     38 2H10 UNL     1      83.382 -17.883  10.414  1.00  0.00     0.174 HD
ATOM     39 1H10 UNL     1      84.293 -16.506  10.658  1.00  0.00     0.174 HD
ENDBRANCH   8  37
BRANCH  10  40
HETATM   40  O5  UNL     1      79.655 -17.651  10.339  1.00  0.00    -0.252 OA
ATOM     41  H5  UNL     1      79.478 -18.574  10.478  1.00  0.00     0.248 HD
ENDBRANCH  10  40
TORSDOF 10
ENDMDL
