MODEL 1
REMARK VINA RESULT: -7.973904768      0.000      0.000
REMARK  11 active torsions:
REMARK  status: ('A' for Active; 'I' for Inactive)
REMARK    1  A    between atoms: C4_6  and  N3_7 
REMARK    2  A    between atoms: N3_7  and  N4_8 
REMARK       I    between atoms: N3_7  and  C6_16 
REMARK    3  A    between atoms: N4_8  and  O1_9 
REMARK    4  A    between atoms: O1_9  and  C5_10 
REMARK    5  A    between atoms: N6_12  and  O2_14 
REMARK    6  A    between atoms: C6_16  and  O4_18 
REMARK    7  A    between atoms: O4_18  and  C7_19 
REMARK    8  A    between atoms: C7_19  and  C8_20 
REMARK    9  A    between atoms: C9_24  and  N8_25 
REMARK   10  A    between atoms: N8_25  and  O6_26 
REMARK   11  A    between atoms: N8_25  and  O7_28 
ROOT
HETATM    1  N3  UNL     1      78.767 -12.592   3.612  1.00  0.00    -0.183 N 
HETATM    2  C6  UNL     1      79.866 -13.460   3.827  1.00  0.00     0.383 C 
HETATM    3  O3  UNL     1      80.548 -13.869   2.868  1.00  0.00    -0.237 OA
ENDROOT
BRANCH   2   4
HETATM    4  O4  UNL     1      80.246 -13.901   5.083  1.00  0.00    -0.296 OA
BRANCH   4   5
HETATM    5  C7  UNL     1      80.592 -15.202   5.450  1.00  0.00     0.250 C 
BRANCH   5   6
HETATM    6  C8  UNL     1      81.465 -15.335   6.615  1.00  0.00     0.129 A 
HETATM    7  O5  UNL     1      81.120 -14.863   7.767  1.00  0.00    -0.236 OA
HETATM    8  N7  UNL     1      81.850 -14.947   8.840  1.00  0.00    -0.242 N 
HETATM    9  C9  UNL     1      83.043 -15.545   8.832  1.00  0.00     0.208 A 
ATOM     10  H7  UNL     1      81.502 -14.546   9.712  1.00  0.00     0.196 HD
HETATM   11  C10 UNL     1      83.501 -16.082   7.646  1.00  0.00     0.243 A 
HETATM   12  O8  UNL     1      84.616 -16.651   7.595  1.00  0.00    -0.282 OA
HETATM   13  C11 UNL     1      82.707 -15.974   6.539  1.00  0.00     0.133 A 
HETATM   14  N9  UNL     1      83.127 -16.517   5.301  1.00  0.00    -0.095 NA
BRANCH   9  15
HETATM   15  N8  UNL     1      83.884 -15.664   9.965  1.00  0.00    -0.013 NA
BRANCH  15  16
HETATM   16  O6  UNL     1      85.047 -15.038   9.697  1.00  0.00    -0.283 OA
ATOM     17  H6  UNL     1      85.754 -15.665   9.795  1.00  0.00     0.240 HD
ENDBRANCH  15  16
BRANCH  15  18
HETATM   18  O7  UNL     1      84.074 -16.933  10.365  1.00  0.00    -0.283 OA
ATOM     19  H7  UNL     1      84.661 -17.015  11.107  1.00  0.00     0.240 HD
ENDBRANCH  15  18
ENDBRANCH   9  15
ENDBRANCH   5   6
ENDBRANCH   4   5
ENDBRANCH   2   4
BRANCH   1  20
HETATM   20  C4  UNL     1      78.308 -12.124   2.363  1.00  0.00     0.285 C 
HETATM   21  N2  UNL     1      77.017 -11.478   2.344  1.00  0.00    -0.108 NA
HETATM   22  N1  UNL     1      76.821 -10.914   1.123  1.00  0.00    -0.125 NA
HETATM   23  C2  UNL     1      77.879 -10.049   0.707  1.00  0.00     0.090 C 
HETATM   24  C1  UNL     1      78.239 -10.394  -0.741  1.00  0.00     0.047 C 
HETATM   25  C3  UNL     1      77.641  -8.591   0.884  1.00  0.00     0.047 C 
HETATM   26  S1  UNL     1      79.270 -10.673   1.740  1.00  0.00    -0.096 SA
ENDBRANCH   1  20
BRANCH   1  27
HETATM   27  N4  UNL     1      78.056 -12.128   4.745  1.00  0.00     0.039 NA
BRANCH  27  28
HETATM   28  O1  UNL     1      77.169 -13.027   5.207  1.00  0.00    -0.188 OA
BRANCH  28  29
HETATM   29  C5  UNL     1      76.768 -13.047   6.530  1.00  0.00     0.273 C 
HETATM   30  N5  UNL     1      75.375 -13.160   6.835  1.00  0.00    -0.053 NA
HETATM   31  N6  UNL     1      77.593 -12.966   7.505  1.00  0.00    -0.234 N 
ATOM     32  H6  UNL     1      77.203 -12.989   8.447  1.00  0.00     0.197 HD
BRANCH  31  33
HETATM   33  O2  UNL     1      78.948 -12.852   7.397  1.00  0.00    -0.287 OA
ATOM     34  H2  UNL     1      79.484 -12.185   7.809  1.00  0.00     0.244 HD
ENDBRANCH  31  33
ENDBRANCH  28  29
ENDBRANCH  27  28
ENDBRANCH   1  27
TORSDOF 11
ENDMDL
MODEL 2
REMARK VINA RESULT: -7.970367549      2.669      3.377
REMARK  11 active torsions:
REMARK  status: ('A' for Active; 'I' for Inactive)
REMARK    1  A    between atoms: C4_6  and  N3_7 
REMARK    2  A    between atoms: N3_7  and  N4_8 
REMARK       I    between atoms: N3_7  and  C6_16 
REMARK    3  A    between atoms: N4_8  and  O1_9 
REMARK    4  A    between atoms: O1_9  and  C5_10 
REMARK    5  A    between atoms: N6_12  and  O2_14 
REMARK    6  A    between atoms: C6_16  and  O4_18 
REMARK    7  A    between atoms: O4_18  and  C7_19 
REMARK    8  A    between atoms: C7_19  and  C8_20 
REMARK    9  A    between atoms: C9_24  and  N8_25 
REMARK   10  A    between atoms: N8_25  and  O6_26 
REMARK   11  A    between atoms: N8_25  and  O7_28 
ROOT
HETATM    1  N3  UNL     1      78.655 -12.839   4.011  1.00  0.00    -0.183 N 
HETATM    2  C6  UNL     1      79.600 -13.702   4.620  1.00  0.00     0.383 C 
HETATM    3  O3  UNL     1      80.822 -13.495   4.491  1.00  0.00    -0.237 OA
ENDROOT
BRANCH   2   4
HETATM    4  O4  UNL     1      79.240 -14.802   5.378  1.00  0.00    -0.296 OA
BRANCH   4   5
HETATM    5  C7  UNL     1      80.091 -15.657   6.079  1.00  0.00     0.250 C 
BRANCH   5   6
HETATM    6  C8  UNL     1      79.608 -16.130   7.375  1.00  0.00     0.129 A 
HETATM    7  O5  UNL     1      78.348 -16.129   7.661  1.00  0.00    -0.236 OA
HETATM    8  N7  UNL     1      77.855 -16.535   8.794  1.00  0.00    -0.242 N 
HETATM    9  C9  UNL     1      78.635 -16.997   9.773  1.00  0.00     0.208 A 
ATOM     10  H7  UNL     1      76.846 -16.499   8.938  1.00  0.00     0.196 HD
HETATM   11  C10 UNL     1      79.999 -17.038   9.564  1.00  0.00     0.243 A 
HETATM   12  O8  UNL     1      80.767 -17.463  10.457  1.00  0.00    -0.282 OA
HETATM   13  C11 UNL     1      80.481 -16.602   8.361  1.00  0.00     0.133 A 
HETATM   14  N9  UNL     1      81.870 -16.634   8.093  1.00  0.00    -0.095 NA
BRANCH   9  15
HETATM   15  N8  UNL     1      78.158 -17.448  11.028  1.00  0.00    -0.013 NA
BRANCH  15  16
HETATM   16  O6  UNL     1      76.814 -17.529  10.966  1.00  0.00    -0.283 OA
ATOM     17  H6  UNL     1      76.550 -18.373  11.312  1.00  0.00     0.240 HD
ENDBRANCH  15  16
BRANCH  15  18
HETATM   18  O7  UNL     1      78.572 -16.699  12.064  1.00  0.00    -0.283 OA
ATOM     19  H7  UNL     1      78.015 -15.950  12.240  1.00  0.00     0.240 HD
ENDBRANCH  15  18
ENDBRANCH   9  15
ENDBRANCH   5   6
ENDBRANCH   4   5
ENDBRANCH   2   4
BRANCH   1  20
HETATM   20  C4  UNL     1      78.949 -11.718   3.208  1.00  0.00     0.285 C 
HETATM   21  N2  UNL     1      79.966 -11.888   2.198  1.00  0.00    -0.108 NA
HETATM   22  N1  UNL     1      79.980 -10.794   1.391  1.00  0.00    -0.125 NA
HETATM   23  C2  UNL     1      78.705 -10.463   0.841  1.00  0.00     0.090 C 
HETATM   24  C1  UNL     1      78.482  -8.958   1.016  1.00  0.00     0.047 C 
HETATM   25  C3  UNL     1      78.463 -10.897  -0.562  1.00  0.00     0.047 C 
HETATM   26  S1  UNL     1      77.578 -11.287   2.043  1.00  0.00    -0.096 SA
ENDBRANCH   1  20
BRANCH   1  27
HETATM   27  N4  UNL     1      77.281 -13.100   4.228  1.00  0.00     0.039 NA
BRANCH  27  28
HETATM   28  O1  UNL     1      76.794 -12.461   5.307  1.00  0.00    -0.188 OA
BRANCH  28  29
HETATM   29  C5  UNL     1      76.850 -13.013   6.573  1.00  0.00     0.273 C 
HETATM   30  N5  UNL     1      77.338 -12.218   7.658  1.00  0.00    -0.053 NA
HETATM   31  N6  UNL     1      76.485 -14.214   6.822  1.00  0.00    -0.234 N 
ATOM     32  H6  UNL     1      76.564 -14.533   7.788  1.00  0.00     0.197 HD
BRANCH  31  33
HETATM   33  O2  UNL     1      76.000 -15.105   5.911  1.00  0.00    -0.287 OA
ATOM     34  H2  UNL     1      76.522 -15.630   5.315  1.00  0.00     0.244 HD
ENDBRANCH  31  33
ENDBRANCH  28  29
ENDBRANCH  27  28
ENDBRANCH   1  27
TORSDOF 11
ENDMDL
MODEL 3
REMARK VINA RESULT: -7.926706304      1.325      1.641
REMARK  11 active torsions:
REMARK  status: ('A' for Active; 'I' for Inactive)
REMARK    1  A    between atoms: C4_6  and  N3_7 
REMARK    2  A    between atoms: N3_7  and  N4_8 
REMARK       I    between atoms: N3_7  and  C6_16 
REMARK    3  A    between atoms: N4_8  and  O1_9 
REMARK    4  A    between atoms: O1_9  and  C5_10 
REMARK    5  A    between atoms: N6_12  and  O2_14 
REMARK    6  A    between atoms: C6_16  and  O4_18 
REMARK    7  A    between atoms: O4_18  and  C7_19 
REMARK    8  A    between atoms: C7_19  and  C8_20 
REMARK    9  A    between atoms: C9_24  and  N8_25 
REMARK   10  A    between atoms: N8_25  and  O6_26 
REMARK   11  A    between atoms: N8_25  and  O7_28 
ROOT
HETATM    1  N3  UNL     1      78.732 -13.017   4.063  1.00  0.00    -0.183 N 
HETATM    2  C6  UNL     1      79.746 -13.830   4.628  1.00  0.00     0.383 C 
HETATM    3  O3  UNL     1      80.948 -13.539   4.479  1.00  0.00    -0.237 OA
ENDROOT
BRANCH   2   4
HETATM    4  O4  UNL     1      79.476 -14.972   5.363  1.00  0.00    -0.296 OA
BRANCH   4   5
HETATM    5  C7  UNL     1      80.292 -16.095   5.502  1.00  0.00     0.250 C 
BRANCH   5   6
HETATM    6  C8  UNL     1      81.152 -16.127   6.685  1.00  0.00     0.129 A 
HETATM    7  O5  UNL     1      80.654 -16.077   7.876  1.00  0.00    -0.236 OA
HETATM    8  N7  UNL     1      81.363 -16.101   8.966  1.00  0.00    -0.242 N 
HETATM    9  C9  UNL     1      82.695 -16.180   8.935  1.00  0.00     0.208 A 
ATOM     10  H7  UNL     1      80.889 -16.057   9.868  1.00  0.00     0.196 HD
HETATM   11  C10 UNL     1      83.322 -16.238   7.706  1.00  0.00     0.243 A 
HETATM   12  O8  UNL     1      84.571 -16.312   7.633  1.00  0.00    -0.282 OA
HETATM   13  C11 UNL     1      82.545 -16.211   6.583  1.00  0.00     0.133 A 
HETATM   14  N9  UNL     1      83.139 -16.278   5.300  1.00  0.00    -0.095 NA
BRANCH   9  15
HETATM   15  N8  UNL     1      83.520 -16.205  10.085  1.00  0.00    -0.013 NA
BRANCH  15  16
HETATM   16  O6  UNL     1      84.325 -15.124  10.053  1.00  0.00    -0.283 OA
ATOM     17  H6  UNL     1      83.796 -14.364   9.842  1.00  0.00     0.240 HD
ENDBRANCH  15  16
BRANCH  15  18
HETATM   18  O7  UNL     1      84.214 -17.347  10.228  1.00  0.00    -0.283 OA
ATOM     19  H7  UNL     1      84.975 -17.404   9.663  1.00  0.00     0.240 HD
ENDBRANCH  15  18
ENDBRANCH   9  15
ENDBRANCH   5   6
ENDBRANCH   4   5
ENDBRANCH   2   4
BRANCH   1  20
HETATM   20  C4  UNL     1      78.932 -11.859   3.284  1.00  0.00     0.285 C 
HETATM   21  N2  UNL     1      79.938 -11.934   2.251  1.00  0.00    -0.108 NA
HETATM   22  N1  UNL     1      79.861 -10.821   1.474  1.00  0.00    -0.125 NA
HETATM   23  C2  UNL     1      78.554 -10.564   0.956  1.00  0.00     0.090 C 
HETATM   24  C1  UNL     1      78.234  -9.083   1.176  1.00  0.00     0.047 C 
HETATM   25  C3  UNL     1      78.314 -10.978  -0.453  1.00  0.00     0.047 C 
HETATM   26  S1  UNL     1      77.512 -11.494   2.157  1.00  0.00    -0.096 SA
ENDBRANCH   1  20
BRANCH   1  27
HETATM   27  N4  UNL     1      77.383 -13.376   4.301  1.00  0.00     0.039 NA
BRANCH  27  28
HETATM   28  O1  UNL     1      76.883 -12.810   5.414  1.00  0.00    -0.188 OA
BRANCH  28  29
HETATM   29  C5  UNL     1      76.954 -13.430   6.647  1.00  0.00     0.273 C 
HETATM   30  N5  UNL     1      77.275 -12.649   7.802  1.00  0.00    -0.053 NA
HETATM   31  N6  UNL     1      76.747 -14.682   6.806  1.00  0.00    -0.234 N 
ATOM     32  H6  UNL     1      76.822 -15.050   7.754  1.00  0.00     0.197 HD
BRANCH  31  33
HETATM   33  O2  UNL     1      76.434 -15.570   5.819  1.00  0.00    -0.287 OA
ATOM     34  H2  UNL     1      76.843 -16.417   5.683  1.00  0.00     0.244 HD
ENDBRANCH  31  33
ENDBRANCH  28  29
ENDBRANCH  27  28
ENDBRANCH   1  27
TORSDOF 11
ENDMDL
MODEL 4
REMARK VINA RESULT: -7.884108809      1.621      1.983
REMARK  11 active torsions:
REMARK  status: ('A' for Active; 'I' for Inactive)
REMARK    1  A    between atoms: C4_6  and  N3_7 
REMARK    2  A    between atoms: N3_7  and  N4_8 
REMARK       I    between atoms: N3_7  and  C6_16 
REMARK    3  A    between atoms: N4_8  and  O1_9 
REMARK    4  A    between atoms: O1_9  and  C5_10 
REMARK    5  A    between atoms: N6_12  and  O2_14 
REMARK    6  A    between atoms: C6_16  and  O4_18 
REMARK    7  A    between atoms: O4_18  and  C7_19 
REMARK    8  A    between atoms: C7_19  and  C8_20 
REMARK    9  A    between atoms: C9_24  and  N8_25 
REMARK   10  A    between atoms: N8_25  and  O6_26 
REMARK   11  A    between atoms: N8_25  and  O7_28 
ROOT
HETATM    1  N3  UNL     1      78.363 -13.430   3.782  1.00  0.00    -0.183 N 
HETATM    2  C6  UNL     1      79.594 -13.920   4.286  1.00  0.00     0.383 C 
HETATM    3  O3  UNL     1      80.676 -13.459   3.874  1.00  0.00    -0.237 OA
ENDROOT
BRANCH   2   4
HETATM    4  O4  UNL     1      79.674 -14.917   5.243  1.00  0.00    -0.296 OA
BRANCH   4   5
HETATM    5  C7  UNL     1      80.640 -15.920   5.334  1.00  0.00     0.250 C 
BRANCH   5   6
HETATM    6  C8  UNL     1      81.379 -15.993   6.594  1.00  0.00     0.129 A 
HETATM    7  O5  UNL     1      82.611 -15.613   6.669  1.00  0.00    -0.236 OA
HETATM    8  N7  UNL     1      83.323 -15.653   7.757  1.00  0.00    -0.242 N 
HETATM    9  C9  UNL     1      82.819 -16.101   8.909  1.00  0.00     0.208 A 
ATOM     10  H7  UNL     1      84.291 -15.333   7.730  1.00  0.00     0.196 HD
HETATM   11  C10 UNL     1      81.507 -16.531   8.930  1.00  0.00     0.243 A 
HETATM   12  O8  UNL     1      80.997 -16.961   9.991  1.00  0.00    -0.282 OA
HETATM   13  C11 UNL     1      80.791 -16.475   7.768  1.00  0.00     0.133 A 
HETATM   14  N9  UNL     1      79.439 -16.894   7.740  1.00  0.00    -0.095 NA
BRANCH   9  15
HETATM   15  N8  UNL     1      83.545 -16.173  10.123  1.00  0.00    -0.013 NA
BRANCH  15  16
HETATM   16  O6  UNL     1      84.546 -15.271  10.073  1.00  0.00    -0.283 OA
ATOM     17  H6  UNL     1      85.325 -15.669  10.443  1.00  0.00     0.240 HD
ENDBRANCH  15  16
BRANCH  15  18
HETATM   18  O7  UNL     1      83.991 -17.407  10.413  1.00  0.00    -0.283 OA
ATOM     19  H7  UNL     1      84.911 -17.434  10.648  1.00  0.00     0.240 HD
ENDBRANCH  15  18
ENDBRANCH   9  15
ENDBRANCH   5   6
ENDBRANCH   4   5
ENDBRANCH   2   4
BRANCH   1  20
HETATM   20  C4  UNL     1      78.206 -12.438   2.792  1.00  0.00     0.285 C 
HETATM   21  N2  UNL     1      76.981 -12.469   2.028  1.00  0.00    -0.108 NA
HETATM   22  N1  UNL     1      76.900 -11.342   1.272  1.00  0.00    -0.125 NA
HETATM   23  C2  UNL     1      77.058 -10.132   2.015  1.00  0.00     0.090 C 
HETATM   24  C1  UNL     1      78.043  -9.233   1.264  1.00  0.00     0.047 C 
HETATM   25  C3  UNL     1      75.805  -9.409   2.364  1.00  0.00     0.047 C 
HETATM   26  S1  UNL     1      77.959 -10.747   3.499  1.00  0.00    -0.096 SA
ENDBRANCH   1  20
BRANCH   1  27
HETATM   27  N4  UNL     1      77.166 -13.963   4.319  1.00  0.00     0.039 NA
BRANCH  27  28
HETATM   28  O1  UNL     1      76.744 -13.299   5.410  1.00  0.00    -0.188 OA
BRANCH  28  29
HETATM   29  C5  UNL     1      77.058 -13.718   6.689  1.00  0.00     0.273 C 
HETATM   30  N5  UNL     1      77.280 -12.739   7.709  1.00  0.00    -0.053 NA
HETATM   31  N6  UNL     1      77.162 -14.953   7.007  1.00  0.00    -0.234 N 
ATOM     32  H6  UNL     1      77.398 -15.165   7.977  1.00  0.00     0.197 HD
BRANCH  31  33
HETATM   33  O2  UNL     1      76.987 -16.011   6.165  1.00  0.00    -0.287 OA
ATOM     34  H2  UNL     1      77.577 -16.750   6.070  1.00  0.00     0.244 HD
ENDBRANCH  31  33
ENDBRANCH  28  29
ENDBRANCH  27  28
ENDBRANCH   1  27
TORSDOF 11
ENDMDL
MODEL 5
REMARK VINA RESULT: -7.866326192      1.636      2.154
REMARK  11 active torsions:
REMARK  status: ('A' for Active; 'I' for Inactive)
REMARK    1  A    between atoms: C4_6  and  N3_7 
REMARK    2  A    between atoms: N3_7  and  N4_8 
REMARK       I    between atoms: N3_7  and  C6_16 
REMARK    3  A    between atoms: N4_8  and  O1_9 
REMARK    4  A    between atoms: O1_9  and  C5_10 
REMARK    5  A    between atoms: N6_12  and  O2_14 
REMARK    6  A    between atoms: C6_16  and  O4_18 
REMARK    7  A    between atoms: O4_18  and  C7_19 
REMARK    8  A    between atoms: C7_19  and  C8_20 
REMARK    9  A    between atoms: C9_24  and  N8_25 
REMARK   10  A    between atoms: N8_25  and  O6_26 
REMARK   11  A    between atoms: N8_25  and  O7_28 
ROOT
HETATM    1  N3  UNL     1      78.688 -13.127   4.005  1.00  0.00    -0.183 N 
HETATM    2  C6  UNL     1      79.757 -13.953   4.432  1.00  0.00     0.383 C 
HETATM    3  O3  UNL     1      80.939 -13.617   4.227  1.00  0.00    -0.237 OA
ENDROOT
BRANCH   2   4
HETATM    4  O4  UNL     1      79.565 -15.157   5.087  1.00  0.00    -0.296 OA
BRANCH   4   5
HETATM    5  C7  UNL     1      80.507 -16.168   5.284  1.00  0.00     0.250 C 
BRANCH   5   6
HETATM    6  C8  UNL     1      81.226 -16.142   6.557  1.00  0.00     0.129 A 
HETATM    7  O5  UNL     1      82.467 -15.788   6.619  1.00  0.00    -0.236 OA
HETATM    8  N7  UNL     1      83.161 -15.745   7.718  1.00  0.00    -0.242 N 
HETATM    9  C9  UNL     1      82.629 -16.070   8.897  1.00  0.00     0.208 A 
ATOM     10  H7  UNL     1      84.138 -15.454   7.677  1.00  0.00     0.196 HD
HETATM   11  C10 UNL     1      81.305 -16.462   8.936  1.00  0.00     0.243 A 
HETATM   12  O8  UNL     1      80.768 -16.777  10.023  1.00  0.00    -0.282 OA
HETATM   13  C11 UNL     1      80.607 -16.496   7.761  1.00  0.00     0.133 A 
HETATM   14  N9  UNL     1      79.246 -16.881   7.749  1.00  0.00    -0.095 NA
BRANCH   9  15
HETATM   15  N8  UNL     1      83.334 -16.047  10.125  1.00  0.00    -0.013 NA
BRANCH  15  16
HETATM   16  O6  UNL     1      84.392 -15.223   9.990  1.00  0.00    -0.283 OA
ATOM     17  H6  UNL     1      84.759 -15.064  10.852  1.00  0.00     0.240 HD
ENDBRANCH  15  16
BRANCH  15  18
HETATM   18  O7  UNL     1      83.695 -17.265  10.564  1.00  0.00    -0.283 OA
ATOM     19  H7  UNL     1      84.126 -17.253  11.410  1.00  0.00     0.240 HD
ENDBRANCH  15  18
ENDBRANCH   9  15
ENDBRANCH   5   6
ENDBRANCH   4   5
ENDBRANCH   2   4
BRANCH   1  20
HETATM   20  C4  UNL     1      78.807 -11.904   3.312  1.00  0.00     0.285 C 
HETATM   21  N2  UNL     1      79.856 -11.815   2.324  1.00  0.00    -0.108 NA
HETATM   22  N1  UNL     1      79.704 -10.664   1.617  1.00  0.00    -0.125 NA
HETATM   23  C2  UNL     1      78.400 -10.493   1.058  1.00  0.00     0.090 C 
HETATM   24  C1  UNL     1      77.932  -9.067   1.358  1.00  0.00     0.047 C 
HETATM   25  C3  UNL     1      78.257 -10.831  -0.385  1.00  0.00     0.047 C 
HETATM   26  S1  UNL     1      77.405 -11.596   2.147  1.00  0.00    -0.096 SA
ENDBRANCH   1  20
BRANCH   1  27
HETATM   27  N4  UNL     1      77.368 -13.542   4.303  1.00  0.00     0.039 NA
BRANCH  27  28
HETATM   28  O1  UNL     1      76.882 -12.969   5.419  1.00  0.00    -0.188 OA
BRANCH  28  29
HETATM   29  C5  UNL     1      77.101 -13.508   6.673  1.00  0.00     0.273 C 
HETATM   30  N5  UNL     1      77.398 -12.632   7.765  1.00  0.00    -0.053 NA
HETATM   31  N6  UNL     1      77.051 -14.765   6.905  1.00  0.00    -0.234 N 
ATOM     32  H6  UNL     1      77.227 -15.068   7.863  1.00  0.00     0.197 HD
BRANCH  31  33
HETATM   33  O2  UNL     1      76.785 -15.736   5.985  1.00  0.00    -0.287 OA
ATOM     34  H2  UNL     1      77.166 -15.800   5.117  1.00  0.00     0.244 HD
ENDBRANCH  31  33
ENDBRANCH  28  29
ENDBRANCH  27  28
ENDBRANCH   1  27
TORSDOF 11
ENDMDL
