MODEL 1
REMARK VINA RESULT: -7.535912083      0.000      0.000
REMARK  12 active torsions:
REMARK  status: ('A' for Active; 'I' for Inactive)
REMARK    1  A    between atoms: C2_2  and  C3_3 
REMARK    2  A    between atoms: C3_3  and  N1_4 
REMARK    3  A    between atoms: C4_8  and  N3_9 
REMARK    4  A    between atoms: N3_9  and  C5_11 
REMARK    5  A    between atoms: C6_14  and  N5_15 
REMARK    6  A    between atoms: C7_20  and  N7_21 
REMARK    7  A    between atoms: C8_24  and  N8_25 
REMARK    8  A    between atoms: C11_31  and  O3_32 
REMARK    9  A    between atoms: C11_31  and  C12_34 
REMARK   10  A    between atoms: C12_34  and  N10_35 
REMARK   11  A    between atoms: C13_39  and  C14_40 
REMARK   12  A    between atoms: C14_40  and  N13_41 
ROOT
HETATM    1  C1  UNL     1      78.158 -16.362   6.652  1.00  0.00     0.043 C 
HETATM    2  C2  UNL     1      78.886 -15.036   6.644  1.00  0.00     0.091 A 
HETATM    3  N2  UNL     1      80.145 -15.071   7.308  1.00  0.00    -0.208 NA
HETATM    4  C4  UNL     1      80.694 -16.363   7.576  1.00  0.00     0.189 A 
HETATM    5  C9  UNL     1      81.779 -15.971   6.608  1.00  0.00     0.150 A 
HETATM    6  N9  UNL     1      81.147 -14.701   6.447  1.00  0.00    -0.240 NA
HETATM    7  C10 UNL     1      80.597 -14.370   5.173  1.00  0.00     0.150 A 
HETATM    8  C11 UNL     1      79.127 -14.638   5.207  1.00  0.00     0.116 A 
ENDROOT
BRANCH   4   9
HETATM    9  N3  UNL     1      81.096 -16.524   8.951  1.00  0.00    -0.354 N 
ATOM     10  H3  UNL     1      82.041 -16.257   9.226  1.00  0.00     0.163 HD
BRANCH   9  11
HETATM   11  C5  UNL     1      80.210 -17.046   9.938  1.00  0.00     0.155 A 
HETATM   12  N4  UNL     1      78.909 -16.733   9.856  1.00  0.00    -0.174 N 
HETATM   13  C6  UNL     1      78.058 -17.219  10.784  1.00  0.00     0.679 A 
ATOM     14  H4  UNL     1      78.567 -16.135   9.104  1.00  0.00     0.186 HD
HETATM   15  N6  UNL     1      78.495 -18.016  11.789  1.00  0.00    -0.175 N 
HETATM   16  C7  UNL     1      79.785 -18.331  11.873  1.00  0.00     0.151 A 
ATOM     17  H6  UNL     1      77.836 -18.374  12.481  1.00  0.00     0.186 HD
HETATM   18  C8  UNL     1      80.677 -17.852  10.946  1.00  0.00     0.190 A 
BRANCH  13  19
HETATM   19  N5  UNL     1      76.793 -16.939  10.739  1.00  0.00    -0.234 N 
ATOM     20  H52 UNL     1      76.148 -17.566  11.220  1.00  0.00     0.174 HD
ATOM     21  H51 UNL     1      76.457 -16.117  10.238  1.00  0.00     0.174 HD
ENDBRANCH  13  19
BRANCH  16  22
HETATM   22  N7  UNL     1      80.184 -19.094  12.843  1.00  0.00    -0.383 N 
ATOM     23  H72 UNL     1      80.204 -18.749  13.802  1.00  0.00     0.157 HD
ATOM     24  H71 UNL     1      80.476 -20.048  12.632  1.00  0.00     0.157 HD
ENDBRANCH  16  22
BRANCH  18  25
HETATM   25  N8  UNL     1      82.058 -18.156  10.992  1.00  0.00    -0.108 N 
HETATM   26  O1  UNL     1      82.442 -19.339  10.872  1.00  0.00    -0.531 OA
HETATM   27  O2  UNL     1      83.028 -17.200  11.164  1.00  0.00    -0.531 OA
ENDBRANCH  18  25
ENDBRANCH   9  11
ENDBRANCH   4   9
BRANCH   2  28
HETATM   28  C3  UNL     1      78.004 -14.059   7.350  1.00  0.00     0.082 C 
BRANCH  28  29
HETATM   29  N1  UNL     1      77.015 -14.379   8.084  1.00  0.00    -0.409 N 
ATOM     30  H12 UNL     1      77.208 -15.008   8.863  1.00  0.00     0.155 HD
ATOM     31  H11 UNL     1      76.060 -14.050   7.943  1.00  0.00     0.155 HD
ENDBRANCH  28  29
ENDBRANCH   2  28
BRANCH   8  32
HETATM   32  O3  UNL     1      78.790 -15.683   4.345  1.00  0.00    -0.384 OA
ATOM     33  H3  UNL     1      79.215 -15.572   3.503  1.00  0.00     0.210 HD
ENDBRANCH   8  32
BRANCH   8  34
HETATM   34  C12 UNL     1      78.289 -13.413   4.935  1.00  0.00     0.208 C 
BRANCH  34  35
HETATM   35  N10 UNL     1      78.099 -13.163   3.521  1.00  0.00    -0.213 N 
HETATM   36  N11 UNL     1      77.145 -13.667   2.758  1.00  0.00    -0.003 NA
HETATM   37  N12 UNL     1      77.269 -13.225   1.502  1.00  0.00    -0.269 N 
HETATM   38  C13 UNL     1      78.328 -12.430   1.501  1.00  0.00     0.136 A 
ATOM     39  H12 UNL     1      76.671 -13.453   0.708  1.00  0.00     0.185 HD
HETATM   40  N14 UNL     1      78.831 -12.394   2.730  1.00  0.00    -0.271 N 
ATOM     41  H14 UNL     1      79.650 -11.859   3.019  1.00  0.00     0.189 HD
BRANCH  38  42
HETATM   42  C14 UNL     1      78.938 -11.654   0.362  1.00  0.00     0.308 C 
BRANCH  42  43
HETATM   43  N13 UNL     1      80.362 -11.644   0.400  1.00  0.00    -0.073 N 
ATOM     44 3H13 UNL     1      80.706 -10.866   0.965  1.00  0.00     0.274 HD
ATOM     45 2H13 UNL     1      80.718 -12.422   0.955  1.00  0.00     0.274 HD
ATOM     46 1H13 UNL     1      80.782 -11.634  -0.529  1.00  0.00     0.274 HD
ENDBRANCH  42  43
ENDBRANCH  38  42
ENDBRANCH  34  35
ENDBRANCH   8  34
TORSDOF 12
ENDMDL
MODEL 2
REMARK VINA RESULT: -7.405217959      3.004      9.823
REMARK  12 active torsions:
REMARK  status: ('A' for Active; 'I' for Inactive)
REMARK    1  A    between atoms: C2_2  and  C3_3 
REMARK    2  A    between atoms: C3_3  and  N1_4 
REMARK    3  A    between atoms: C4_8  and  N3_9 
REMARK    4  A    between atoms: N3_9  and  C5_11 
REMARK    5  A    between atoms: C6_14  and  N5_15 
REMARK    6  A    between atoms: C7_20  and  N7_21 
REMARK    7  A    between atoms: C8_24  and  N8_25 
REMARK    8  A    between atoms: C11_31  and  O3_32 
REMARK    9  A    between atoms: C11_31  and  C12_34 
REMARK   10  A    between atoms: C12_34  and  N10_35 
REMARK   11  A    between atoms: C13_39  and  C14_40 
REMARK   12  A    between atoms: C14_40  and  N13_41 
ROOT
HETATM    1  C1  UNL     1      80.015 -13.488   3.053  1.00  0.00     0.043 C 
HETATM    2  C2  UNL     1      78.511 -13.388   3.191  1.00  0.00     0.091 A 
HETATM    3  N2  UNL     1      77.829 -13.287   1.946  1.00  0.00    -0.208 NA
HETATM    4  C4  UNL     1      78.575 -13.628   0.775  1.00  0.00     0.189 A 
HETATM    5  C9  UNL     1      77.610 -14.777   0.641  1.00  0.00     0.150 A 
HETATM    6  N9  UNL     1      76.933 -14.316   1.810  1.00  0.00    -0.240 NA
HETATM    7  C10 UNL     1      76.954 -15.138   2.977  1.00  0.00     0.150 A 
HETATM    8  C11 UNL     1      78.018 -14.631   3.894  1.00  0.00     0.116 A 
ENDROOT
BRANCH   4   9
HETATM    9  N3  UNL     1      78.503 -12.614  -0.247  1.00  0.00    -0.354 N 
ATOM     10  H3  UNL     1      78.166 -12.868  -1.175  1.00  0.00     0.163 HD
BRANCH   9  11
HETATM   11  C5  UNL     1      78.888 -11.265   0.003  1.00  0.00     0.155 A 
HETATM   12  N4  UNL     1      80.196 -10.973   0.040  1.00  0.00    -0.174 N 
HETATM   13  C6  UNL     1      80.577  -9.699   0.276  1.00  0.00     0.679 A 
ATOM     14  H4  UNL     1      80.894 -11.701  -0.110  1.00  0.00     0.186 HD
HETATM   15  N6  UNL     1      79.665  -8.718   0.475  1.00  0.00    -0.175 N 
HETATM   16  C7  UNL     1      78.366  -9.004   0.438  1.00  0.00     0.151 A 
ATOM     17  H6  UNL     1      79.973  -7.762   0.652  1.00  0.00     0.186 HD
HETATM   18  C8  UNL     1      77.944 -10.288   0.201  1.00  0.00     0.190 A 
BRANCH  13  19
HETATM   19  N5  UNL     1      81.833  -9.377   0.319  1.00  0.00    -0.234 N 
ATOM     20  H52 UNL     1      82.520 -10.131   0.298  1.00  0.00     0.174 HD
ATOM     21  H51 UNL     1      82.121  -8.400   0.373  1.00  0.00     0.174 HD
ENDBRANCH  13  19
BRANCH  16  22
HETATM   22  N7  UNL     1      77.507  -8.050   0.631  1.00  0.00    -0.383 N 
ATOM     23  H72 UNL     1      77.684  -7.323   1.323  1.00  0.00     0.157 HD
ATOM     24  H71 UNL     1      76.650  -8.037   0.077  1.00  0.00     0.157 HD
ENDBRANCH  16  22
BRANCH  18  25
HETATM   25  N8  UNL     1      76.575 -10.643   0.154  1.00  0.00    -0.108 N 
HETATM   26  O1  UNL     1      75.803 -10.279   1.065  1.00  0.00    -0.531 OA
HETATM   27  O2  UNL     1      76.031 -11.385  -0.865  1.00  0.00    -0.531 OA
ENDBRANCH  18  25
ENDBRANCH   9  11
ENDBRANCH   4   9
BRANCH   2  28
HETATM   28  C3  UNL     1      78.235 -12.155   3.986  1.00  0.00     0.082 C 
BRANCH  28  29
HETATM   29  N1  UNL     1      77.606 -11.139   3.548  1.00  0.00    -0.409 N 
ATOM     30  H12 UNL     1      76.587 -11.190   3.564  1.00  0.00     0.155 HD
ATOM     31  H11 UNL     1      78.050 -10.294   3.188  1.00  0.00     0.155 HD
ENDBRANCH  28  29
ENDBRANCH   2  28
BRANCH   8  32
HETATM   32  O3  UNL     1      79.050 -15.563   4.024  1.00  0.00    -0.384 OA
ATOM     33  H3  UNL     1      78.997 -16.005   4.863  1.00  0.00     0.210 HD
ENDBRANCH   8  32
BRANCH   8  34
HETATM   34  C12 UNL     1      77.494 -14.205   5.243  1.00  0.00     0.208 C 
BRANCH  34  35
HETATM   35  N10 UNL     1      78.145 -14.887   6.342  1.00  0.00    -0.213 N 
HETATM   36  N11 UNL     1      79.314 -14.575   6.874  1.00  0.00    -0.003 NA
HETATM   37  N12 UNL     1      79.612 -15.415   7.872  1.00  0.00    -0.269 N 
HETATM   38  C13 UNL     1      78.596 -16.261   7.948  1.00  0.00     0.136 A 
ATOM     39  H12 UNL     1      80.449 -15.406   8.454  1.00  0.00     0.185 HD
HETATM   40  N14 UNL     1      77.706 -15.937   7.017  1.00  0.00    -0.271 N 
ATOM     41  H14 UNL     1      76.824 -16.421   6.848  1.00  0.00     0.189 HD
BRANCH  38  42
HETATM   42  C14 UNL     1      78.388 -17.420   8.889  1.00  0.00     0.308 C 
BRANCH  42  43
HETATM   43  N13 UNL     1      77.588 -17.079  10.017  1.00  0.00    -0.073 N 
ATOM     44 3H13 UNL     1      77.805 -16.138  10.348  1.00  0.00     0.274 HD
ATOM     45 2H13 UNL     1      76.614 -16.938   9.745  1.00  0.00     0.274 HD
ATOM     46 1H13 UNL     1      77.661 -17.759  10.774  1.00  0.00     0.274 HD
ENDBRANCH  42  43
ENDBRANCH  38  42
ENDBRANCH  34  35
ENDBRANCH   8  34
TORSDOF 12
ENDMDL
MODEL 3
REMARK VINA RESULT: -7.345936179      2.625      3.845
REMARK  12 active torsions:
REMARK  status: ('A' for Active; 'I' for Inactive)
REMARK    1  A    between atoms: C2_2  and  C3_3 
REMARK    2  A    between atoms: C3_3  and  N1_4 
REMARK    3  A    between atoms: C4_8  and  N3_9 
REMARK    4  A    between atoms: N3_9  and  C5_11 
REMARK    5  A    between atoms: C6_14  and  N5_15 
REMARK    6  A    between atoms: C7_20  and  N7_21 
REMARK    7  A    between atoms: C8_24  and  N8_25 
REMARK    8  A    between atoms: C11_31  and  O3_32 
REMARK    9  A    between atoms: C11_31  and  C12_34 
REMARK   10  A    between atoms: C12_34  and  N10_35 
REMARK   11  A    between atoms: C13_39  and  C14_40 
REMARK   12  A    between atoms: C14_40  and  N13_41 
ROOT
HETATM    1  C1  UNL     1      81.070 -15.511   5.447  1.00  0.00     0.043 C 
HETATM    2  C2  UNL     1      80.032 -14.800   6.288  1.00  0.00     0.091 A 
HETATM    3  N2  UNL     1      80.495 -14.443   7.585  1.00  0.00    -0.208 NA
HETATM    4  C4  UNL     1      81.909 -14.479   7.795  1.00  0.00     0.189 A 
HETATM    5  C9  UNL     1      81.801 -12.987   7.968  1.00  0.00     0.150 A 
HETATM    6  N9  UNL     1      80.391 -13.087   7.770  1.00  0.00    -0.240 NA
HETATM    7  C10 UNL     1      79.822 -12.480   6.611  1.00  0.00     0.150 A 
HETATM    8  C11 UNL     1      79.629 -13.534   5.570  1.00  0.00     0.116 A 
ENDROOT
BRANCH   4   9
HETATM    9  N3  UNL     1      82.279 -15.231   8.968  1.00  0.00    -0.354 N 
ATOM     10  H3  UNL     1      81.748 -15.100   9.829  1.00  0.00     0.163 HD
BRANCH   9  11
HETATM   11  C5  UNL     1      83.366 -16.152   8.960  1.00  0.00     0.155 A 
HETATM   12  N4  UNL     1      84.420 -15.887   8.174  1.00  0.00    -0.174 N 
HETATM   13  C6  UNL     1      85.457 -16.751   8.155  1.00  0.00     0.679 A 
ATOM     14  H4  UNL     1      84.437 -15.045   7.599  1.00  0.00     0.186 HD
HETATM   15  N6  UNL     1      85.451 -17.873   8.913  1.00  0.00    -0.175 N 
HETATM   16  C7  UNL     1      84.408 -18.139   9.696  1.00  0.00     0.151 A 
ATOM     17  H6  UNL     1      86.244 -18.514   8.885  1.00  0.00     0.186 HD
HETATM   18  C8  UNL     1      83.336 -17.283   9.738  1.00  0.00     0.190 A 
BRANCH  13  19
HETATM   19  N5  UNL     1      86.494 -16.530   7.408  1.00  0.00    -0.234 N 
ATOM     20  H52 UNL     1      87.269 -16.005   7.812  1.00  0.00     0.174 HD
ATOM     21  H51 UNL     1      86.529 -16.871   6.448  1.00  0.00     0.174 HD
ENDBRANCH  13  19
BRANCH  16  22
HETATM   22  N7  UNL     1      84.420 -19.219  10.414  1.00  0.00    -0.383 N 
ATOM     23  H72 UNL     1      83.729 -19.954  10.262  1.00  0.00     0.157 HD
ATOM     24  H71 UNL     1      85.135 -19.325  11.135  1.00  0.00     0.157 HD
ENDBRANCH  16  22
BRANCH  18  25
HETATM   25  N8  UNL     1      82.203 -17.521  10.552  1.00  0.00    -0.108 N 
HETATM   26  O1  UNL     1      81.068 -17.594  10.037  1.00  0.00    -0.531 OA
HETATM   27  O2  UNL     1      82.282 -17.681  11.913  1.00  0.00    -0.531 OA
ENDBRANCH  18  25
ENDBRANCH   9  11
ENDBRANCH   4   9
BRANCH   2  28
HETATM   28  C3  UNL     1      78.884 -15.743   6.437  1.00  0.00     0.082 C 
BRANCH  28  29
HETATM   29  N1  UNL     1      78.747 -16.569   7.395  1.00  0.00    -0.409 N 
ATOM     30  H12 UNL     1      77.818 -16.968   7.527  1.00  0.00     0.155 HD
ATOM     31  H11 UNL     1      79.496 -16.851   8.027  1.00  0.00     0.155 HD
ENDBRANCH  28  29
ENDBRANCH   2  28
BRANCH   8  32
HETATM   32  O3  UNL     1      80.460 -13.307   4.471  1.00  0.00    -0.384 OA
ATOM     33  H3  UNL     1      81.187 -13.919   4.470  1.00  0.00     0.210 HD
ENDBRANCH   8  32
BRANCH   8  34
HETATM   34  C12 UNL     1      78.191 -13.699   5.143  1.00  0.00     0.208 C 
BRANCH  34  35
HETATM   35  N10 UNL     1      77.662 -12.527   4.478  1.00  0.00    -0.213 N 
HETATM   36  N11 UNL     1      76.825 -11.645   4.996  1.00  0.00    -0.003 NA
HETATM   37  N12 UNL     1      76.545 -10.688   4.105  1.00  0.00    -0.269 N 
HETATM   38  C13 UNL     1      77.231 -10.997   3.014  1.00  0.00     0.136 A 
ATOM     39  H12 UNL     1      75.930  -9.886   4.237  1.00  0.00     0.185 HD
HETATM   40  N14 UNL     1      77.909 -12.115   3.245  1.00  0.00    -0.271 N 
ATOM     41  H14 UNL     1      78.522 -12.583   2.578  1.00  0.00     0.189 HD
BRANCH  38  42
HETATM   42  C14 UNL     1      77.299 -10.274   1.694  1.00  0.00     0.308 C 
BRANCH  42  43
HETATM   43  N13 UNL     1      77.320  -8.858   1.840  1.00  0.00    -0.073 N 
ATOM     44 3H13 UNL     1      76.374  -8.476   1.840  1.00  0.00     0.274 HD
ATOM     45 2H13 UNL     1      77.606  -8.592   2.783  1.00  0.00     0.274 HD
ATOM     46 1H13 UNL     1      77.900  -8.397   1.139  1.00  0.00     0.274 HD
ENDBRANCH  42  43
ENDBRANCH  38  42
ENDBRANCH  34  35
ENDBRANCH   8  34
TORSDOF 12
ENDMDL
MODEL 4
REMARK VINA RESULT: -7.339570931      2.747      9.335
REMARK  12 active torsions:
REMARK  status: ('A' for Active; 'I' for Inactive)
REMARK    1  A    between atoms: C2_2  and  C3_3 
REMARK    2  A    between atoms: C3_3  and  N1_4 
REMARK    3  A    between atoms: C4_8  and  N3_9 
REMARK    4  A    between atoms: N3_9  and  C5_11 
REMARK    5  A    between atoms: C6_14  and  N5_15 
REMARK    6  A    between atoms: C7_20  and  N7_21 
REMARK    7  A    between atoms: C8_24  and  N8_25 
REMARK    8  A    between atoms: C11_31  and  O3_32 
REMARK    9  A    between atoms: C11_31  and  C12_34 
REMARK   10  A    between atoms: C12_34  and  N10_35 
REMARK   11  A    between atoms: C13_39  and  C14_40 
REMARK   12  A    between atoms: C14_40  and  N13_41 
ROOT
HETATM    1  C1  UNL     1      79.721 -13.054   3.665  1.00  0.00     0.043 C 
HETATM    2  C2  UNL     1      78.321 -13.281   4.191  1.00  0.00     0.091 A 
HETATM    3  N2  UNL     1      77.351 -13.480   3.168  1.00  0.00    -0.208 NA
HETATM    4  C4  UNL     1      77.849 -13.775   1.861  1.00  0.00     0.189 A 
HETATM    5  C9  UNL     1      77.196 -15.120   2.047  1.00  0.00     0.150 A 
HETATM    6  N9  UNL     1      76.733 -14.693   3.328  1.00  0.00    -0.240 NA
HETATM    7  C10 UNL     1      77.241 -15.349   4.489  1.00  0.00     0.150 A 
HETATM    8  C11 UNL     1      78.338 -14.514   5.063  1.00  0.00     0.116 A 
ENDROOT
BRANCH   4   9
HETATM    9  N3  UNL     1      77.280 -12.928   0.843  1.00  0.00    -0.354 N 
ATOM     10  H3  UNL     1      76.908 -13.353  -0.006  1.00  0.00     0.163 HD
BRANCH   9  11
HETATM   11  C5  UNL     1      77.223 -11.511   0.989  1.00  0.00     0.155 A 
HETATM   12  N4  UNL     1      76.079 -10.961   1.421  1.00  0.00    -0.174 N 
HETATM   13  C6  UNL     1      76.009  -9.620   1.563  1.00  0.00     0.679 A 
ATOM     14  H4  UNL     1      75.273 -11.546   1.639  1.00  0.00     0.186 HD
HETATM   15  N6  UNL     1      77.070  -8.828   1.280  1.00  0.00    -0.175 N 
HETATM   16  C7  UNL     1      78.208  -9.370   0.852  1.00  0.00     0.151 A 
ATOM     17  H6  UNL     1      76.998  -7.816   1.394  1.00  0.00     0.186 HD
HETATM   18  C8  UNL     1      78.312 -10.729   0.695  1.00  0.00     0.190 A 
BRANCH  13  19
HETATM   19  N5  UNL     1      74.921  -9.050   1.978  1.00  0.00    -0.234 N 
ATOM     20  H52 UNL     1      74.217  -8.803   1.283  1.00  0.00     0.174 HD
ATOM     21  H51 UNL     1      74.776  -8.857   2.969  1.00  0.00     0.174 HD
ENDBRANCH  13  19
BRANCH  16  22
HETATM   22  N7  UNL     1      79.213  -8.594   0.586  1.00  0.00    -0.383 N 
ATOM     23  H72 UNL     1      79.062  -7.652   0.224  1.00  0.00     0.157 HD
ATOM     24  H71 UNL     1      80.159  -8.939   0.745  1.00  0.00     0.157 HD
ENDBRANCH  16  22
BRANCH  18  25
HETATM   25  N8  UNL     1      79.498 -11.354   0.243  1.00  0.00    -0.108 N 
HETATM   26  O1  UNL     1      80.553 -11.245   0.902  1.00  0.00    -0.531 OA
HETATM   27  O2  UNL     1      79.558 -12.095  -0.911  1.00  0.00    -0.531 OA
ENDBRANCH  18  25
ENDBRANCH   9  11
ENDBRANCH   4   9
BRANCH   2  28
HETATM   28  C3  UNL     1      77.951 -12.059   4.965  1.00  0.00     0.082 C 
BRANCH  28  29
HETATM   29  N1  UNL     1      77.046 -11.233   4.621  1.00  0.00    -0.409 N 
ATOM     30  H12 UNL     1      76.343 -11.572   3.964  1.00  0.00     0.155 HD
ATOM     31  H11 UNL     1      76.982 -10.272   4.957  1.00  0.00     0.155 HD
ENDBRANCH  28  29
ENDBRANCH   2  28
BRANCH   8  32
HETATM   32  O3  UNL     1      79.567 -15.168   4.963  1.00  0.00    -0.384 OA
ATOM     33  H3  UNL     1      80.283 -14.557   5.094  1.00  0.00     0.210 HD
ENDBRANCH   8  32
BRANCH   8  34
HETATM   34  C12 UNL     1      78.072 -14.065   6.479  1.00  0.00     0.208 C 
BRANCH  34  35
HETATM   35  N10 UNL     1      78.495 -15.035   7.467  1.00  0.00    -0.213 N 
HETATM   36  N11 UNL     1      79.741 -15.386   7.734  1.00  0.00    -0.003 NA
HETATM   37  N12 UNL     1      79.769 -16.307   8.704  1.00  0.00    -0.269 N 
HETATM   38  C13 UNL     1      78.504 -16.521   9.036  1.00  0.00     0.136 A 
ATOM     39  H12 UNL     1      80.593 -16.753   9.105  1.00  0.00     0.185 HD
HETATM   40  N14 UNL     1      77.733 -15.746   8.282  1.00  0.00    -0.271 N 
ATOM     41  H14 UNL     1      76.714 -15.706   8.324  1.00  0.00     0.189 HD
BRANCH  38  42
HETATM   42  C14 UNL     1      77.935 -17.457  10.071  1.00  0.00     0.308 C 
BRANCH  42  43
HETATM   43  N13 UNL     1      76.821 -16.903  10.763  1.00  0.00    -0.073 N 
ATOM     44 3H13 UNL     1      76.550 -16.005  10.360  1.00  0.00     0.274 HD
ATOM     45 2H13 UNL     1      75.971 -17.433  10.571  1.00  0.00     0.274 HD
ATOM     46 1H13 UNL     1      76.980 -16.819  11.767  1.00  0.00     0.274 HD
ENDBRANCH  42  43
ENDBRANCH  38  42
ENDBRANCH  34  35
ENDBRANCH   8  34
TORSDOF 12
ENDMDL
MODEL 5
REMARK VINA RESULT: -7.334274683      2.677      9.661
REMARK  12 active torsions:
REMARK  status: ('A' for Active; 'I' for Inactive)
REMARK    1  A    between atoms: C2_2  and  C3_3 
REMARK    2  A    between atoms: C3_3  and  N1_4 
REMARK    3  A    between atoms: C4_8  and  N3_9 
REMARK    4  A    between atoms: N3_9  and  C5_11 
REMARK    5  A    between atoms: C6_14  and  N5_15 
REMARK    6  A    between atoms: C7_20  and  N7_21 
REMARK    7  A    between atoms: C8_24  and  N8_25 
REMARK    8  A    between atoms: C11_31  and  O3_32 
REMARK    9  A    between atoms: C11_31  and  C12_34 
REMARK   10  A    between atoms: C12_34  and  N10_35 
REMARK   11  A    between atoms: C13_39  and  C14_40 
REMARK   12  A    between atoms: C14_40  and  N13_41 
ROOT
HETATM    1  C1  UNL     1      79.794 -13.190   3.901  1.00  0.00     0.043 C 
HETATM    2  C2  UNL     1      78.411 -13.388   4.481  1.00  0.00     0.091 A 
HETATM    3  N2  UNL     1      77.393 -13.534   3.496  1.00  0.00    -0.208 NA
HETATM    4  C4  UNL     1      77.826 -13.814   2.163  1.00  0.00     0.189 A 
HETATM    5  C9  UNL     1      77.140 -15.143   2.347  1.00  0.00     0.150 A 
HETATM    6  N9  UNL     1      76.745 -14.732   3.656  1.00  0.00    -0.240 NA
HETATM    7  C10 UNL     1      77.282 -15.430   4.779  1.00  0.00     0.150 A 
HETATM    8  C11 UNL     1      78.427 -14.641   5.324  1.00  0.00     0.116 A 
ENDROOT
BRANCH   4   9
HETATM    9  N3  UNL     1      77.241 -12.926   1.189  1.00  0.00    -0.354 N 
ATOM     10  H3  UNL     1      76.231 -12.940   1.049  1.00  0.00     0.163 HD
BRANCH   9  11
HETATM   11  C5  UNL     1      78.034 -12.029   0.416  1.00  0.00     0.155 A 
HETATM   12  N4  UNL     1      78.776 -12.532  -0.581  1.00  0.00    -0.174 N 
HETATM   13  C6  UNL     1      79.533 -11.694  -1.321  1.00  0.00     0.679 A 
ATOM     14  H4  UNL     1      78.769 -13.532  -0.777  1.00  0.00     0.186 HD
HETATM   15  N6  UNL     1      79.554 -10.362  -1.075  1.00  0.00    -0.175 N 
HETATM   16  C7  UNL     1      78.817  -9.859  -0.087  1.00  0.00     0.151 A 
ATOM     17  H6  UNL     1      80.132  -9.746  -1.646  1.00  0.00     0.186 HD
HETATM   18  C8  UNL     1      78.037 -10.683   0.685  1.00  0.00     0.190 A 
BRANCH  13  19
HETATM   19  N5  UNL     1      80.265 -12.142  -2.294  1.00  0.00    -0.234 N 
ATOM     20  H52 UNL     1      79.816 -12.731  -2.996  1.00  0.00     0.174 HD
ATOM     21  H51 UNL     1      81.256 -11.912  -2.351  1.00  0.00     0.174 HD
ENDBRANCH  13  19
BRANCH  16  22
HETATM   22  N7  UNL     1      78.851  -8.581   0.134  1.00  0.00    -0.383 N 
ATOM     23  H72 UNL     1      79.519  -7.986  -0.355  1.00  0.00     0.157 HD
ATOM     24  H71 UNL     1      78.196  -8.178   0.804  1.00  0.00     0.157 HD
ENDBRANCH  16  22
BRANCH  18  25
HETATM   25  N8  UNL     1      77.238 -10.197   1.748  1.00  0.00    -0.108 N 
HETATM   26  O1  UNL     1      77.776  -9.770   2.791  1.00  0.00    -0.531 OA
HETATM   27  O2  UNL     1      75.867 -10.167   1.697  1.00  0.00    -0.531 OA
ENDBRANCH  18  25
ENDBRANCH   9  11
ENDBRANCH   4   9
BRANCH   2  28
HETATM   28  C3  UNL     1      78.111 -12.174   5.297  1.00  0.00     0.082 C 
BRANCH  28  29
HETATM   29  N1  UNL     1      77.140 -11.381   5.081  1.00  0.00    -0.409 N 
ATOM     30  H12 UNL     1      76.220 -11.805   4.962  1.00  0.00     0.155 HD
ATOM     31  H11 UNL     1      77.224 -10.366   5.021  1.00  0.00     0.155 HD
ENDBRANCH  28  29
ENDBRANCH   2  28
BRANCH   8  32
HETATM   32  O3  UNL     1      79.630 -15.329   5.158  1.00  0.00    -0.384 OA
ATOM     33  H3  UNL     1      79.499 -16.110   4.632  1.00  0.00     0.210 HD
ENDBRANCH   8  32
BRANCH   8  34
HETATM   34  C12 UNL     1      78.234 -14.218   6.760  1.00  0.00     0.208 C 
BRANCH  34  35
HETATM   35  N10 UNL     1      78.593 -15.253   7.706  1.00  0.00    -0.213 N 
HETATM   36  N11 UNL     1      79.804 -15.745   7.906  1.00  0.00    -0.003 NA
HETATM   37  N12 UNL     1      79.774 -16.688   8.853  1.00  0.00    -0.269 N 
HETATM   38  C13 UNL     1      78.510 -16.772   9.241  1.00  0.00     0.136 A 
ATOM     39  H12 UNL     1      80.562 -17.231   9.205  1.00  0.00     0.185 HD
HETATM   40  N14 UNL     1      77.794 -15.898   8.542  1.00  0.00    -0.271 N 
ATOM     41  H14 UNL     1      76.790 -15.748   8.633  1.00  0.00     0.189 HD
BRANCH  38  42
HETATM   42  C14 UNL     1      77.889 -17.666  10.283  1.00  0.00     0.308 C 
BRANCH  42  43
HETATM   43  N13 UNL     1      76.721 -17.101  10.872  1.00  0.00    -0.073 N 
ATOM     44 3H13 UNL     1      76.377 -16.316  10.318  1.00  0.00     0.274 HD
ATOM     45 2H13 UNL     1      75.924 -17.731  10.779  1.00  0.00     0.274 HD
ATOM     46 1H13 UNL     1      76.862 -16.829  11.845  1.00  0.00     0.274 HD
ENDBRANCH  42  43
ENDBRANCH  38  42
ENDBRANCH  34  35
ENDBRANCH   8  34
TORSDOF 12
ENDMDL
