MODEL 1
REMARK VINA RESULT: -6.091765274      0.000      0.000
REMARK  4 active torsions:
REMARK  status: ('A' for Active; 'I' for Inactive)
REMARK    1  A    between atoms: N1_1  and  C1_5 
REMARK    2  A    between atoms: C1_5  and  C2_6 
REMARK    3  A    between atoms: C2_6  and  N2_7 
REMARK    4  A    between atoms: C3_9  and  C4_10 
ROOT
HETATM    1  N2  UNL     1     -44.450   2.154 -35.358  1.00  0.00    -0.396 N 
ATOM      2  H2  UNL     1     -44.403   1.449 -34.623  1.00  0.00     0.158 HD
HETATM    3  C3  UNL     1     -44.723   3.361 -35.068  1.00  0.00     0.097 C 
ENDROOT
BRANCH   3   4
HETATM    4  C4  UNL     1     -44.997   3.960 -33.814  1.00  0.00     0.020 A 
HETATM    5  C5  UNL     1     -44.438   5.206 -33.493  1.00  0.00     0.017 A 
HETATM    6  C6  UNL     1     -44.673   5.827 -32.293  1.00  0.00     0.018 A 
HETATM    7  C7  UNL     1     -45.486   5.207 -31.366  1.00  0.00     0.089 A 
HETATM    8  N3  UNL     1     -46.008   4.041 -31.669  1.00  0.00    -0.354 N 
HETATM    9  C8  UNL     1     -45.788   3.409 -32.852  1.00  0.00     0.127 A 
ATOM     10  H3  UNL     1     -46.609   3.586 -30.982  1.00  0.00     0.166 HD
HETATM   11  N4  UNL     1     -46.441   2.165 -32.980  1.00  0.00    -0.082 NA
ENDBRANCH   3   4
BRANCH   1  12
HETATM   12  C2  UNL     1     -44.199   1.772 -36.771  1.00  0.00     0.146 C 
BRANCH  12  13
HETATM   13  C1  UNL     1     -44.044   0.257 -36.738  1.00  0.00     0.249 C 
BRANCH  13  14
HETATM   14  N1  UNL     1     -42.741  -0.089 -37.274  1.00  0.00    -0.078 N 
ATOM     15  H13 UNL     1     -41.977   0.235 -36.682  1.00  0.00     0.274 HD
ATOM     16  H12 UNL     1     -42.549  -1.090 -37.216  1.00  0.00     0.274 HD
ATOM     17  H11 UNL     1     -42.675   0.267 -38.228  1.00  0.00     0.274 HD
ENDBRANCH  13  14
ENDBRANCH  12  13
ENDBRANCH   1  12
TORSDOF 4
ENDMDL
MODEL 2
REMARK VINA RESULT: -5.770456455      1.674      5.195
REMARK  4 active torsions:
REMARK  status: ('A' for Active; 'I' for Inactive)
REMARK    1  A    between atoms: N1_1  and  C1_5 
REMARK    2  A    between atoms: C1_5  and  C2_6 
REMARK    3  A    between atoms: C2_6  and  N2_7 
REMARK    4  A    between atoms: C3_9  and  C4_10 
ROOT
HETATM    1  N2  UNL     1     -44.713   4.450 -33.507  1.00  0.00    -0.396 N 
ATOM      2  H2  UNL     1     -44.860   3.787 -32.745  1.00  0.00     0.158 HD
HETATM    3  C3  UNL     1     -44.678   4.039 -34.710  1.00  0.00     0.097 C 
ENDROOT
BRANCH   3   4
HETATM    4  C4  UNL     1     -44.815   2.730 -35.233  1.00  0.00     0.020 A 
HETATM    5  C5  UNL     1     -43.988   2.303 -36.282  1.00  0.00     0.017 A 
HETATM    6  C6  UNL     1     -44.081   1.046 -36.823  1.00  0.00     0.018 A 
HETATM    7  C7  UNL     1     -45.021   0.169 -36.321  1.00  0.00     0.089 A 
HETATM    8  N3  UNL     1     -45.794   0.572 -35.340  1.00  0.00    -0.354 N 
HETATM    9  C8  UNL     1     -45.718   1.812 -34.790  1.00  0.00     0.127 A 
ATOM     10  H3  UNL     1     -46.488  -0.079 -34.971  1.00  0.00     0.166 HD
HETATM   11  N4  UNL     1     -46.638   2.046 -33.746  1.00  0.00    -0.082 NA
ENDBRANCH   3   4
BRANCH   1  12
HETATM   12  C2  UNL     1     -44.540   5.894 -33.213  1.00  0.00     0.146 C 
BRANCH  12  13
HETATM   13  C1  UNL     1     -44.650   5.995 -31.697  1.00  0.00     0.249 C 
BRANCH  13  14
HETATM   14  N1  UNL     1     -43.363   6.392 -31.162  1.00  0.00    -0.078 N 
ATOM     15  H13 UNL     1     -42.611   6.303 -31.846  1.00  0.00     0.274 HD
ATOM     16  H12 UNL     1     -43.296   7.399 -31.010  1.00  0.00     0.274 HD
ATOM     17  H11 UNL     1     -43.182   5.857 -30.312  1.00  0.00     0.274 HD
ENDBRANCH  13  14
ENDBRANCH  12  13
ENDBRANCH   1  12
TORSDOF 4
ENDMDL
MODEL 3
REMARK VINA RESULT: -5.702329237      1.522      5.140
REMARK  4 active torsions:
REMARK  status: ('A' for Active; 'I' for Inactive)
REMARK    1  A    between atoms: N1_1  and  C1_5 
REMARK    2  A    between atoms: C1_5  and  C2_6 
REMARK    3  A    between atoms: C2_6  and  N2_7 
REMARK    4  A    between atoms: C3_9  and  C4_10 
ROOT
HETATM    1  N2  UNL     1     -44.680   4.558 -32.890  1.00  0.00    -0.396 N 
ATOM      2  H2  UNL     1     -44.638   3.793 -32.216  1.00  0.00     0.158 HD
HETATM    3  C3  UNL     1     -44.806   4.308 -34.130  1.00  0.00     0.097 C 
ENDROOT
BRANCH   3   4
HETATM    4  C4  UNL     1     -44.906   3.069 -34.807  1.00  0.00     0.020 A 
HETATM    5  C5  UNL     1     -44.073   2.797 -35.902  1.00  0.00     0.017 A 
HETATM    6  C6  UNL     1     -44.132   1.612 -36.591  1.00  0.00     0.018 A 
HETATM    7  C7  UNL     1     -45.041   0.652 -36.196  1.00  0.00     0.089 A 
HETATM    8  N3  UNL     1     -45.820   0.909 -35.171  1.00  0.00    -0.354 N 
HETATM    9  C8  UNL     1     -45.778   2.076 -34.475  1.00  0.00     0.127 A 
ATOM     10  H3  UNL     1     -46.491   0.197 -34.881  1.00  0.00     0.166 HD
HETATM   11  N4  UNL     1     -46.697   2.154 -33.408  1.00  0.00    -0.082 NA
ENDBRANCH   3   4
BRANCH   1  12
HETATM   12  C2  UNL     1     -44.594   5.965 -32.424  1.00  0.00     0.146 C 
BRANCH  12  13
HETATM   13  C1  UNL     1     -45.179   5.941 -31.017  1.00  0.00     0.249 C 
BRANCH  13  14
HETATM   14  N1  UNL     1     -46.367   5.111 -31.022  1.00  0.00    -0.078 N 
ATOM     15  H13 UNL     1     -47.036   5.382 -30.301  1.00  0.00     0.274 HD
ATOM     16  H12 UNL     1     -46.960   5.282 -31.835  1.00  0.00     0.274 HD
ATOM     17  H11 UNL     1     -46.085   4.133 -30.945  1.00  0.00     0.274 HD
ENDBRANCH  13  14
ENDBRANCH  12  13
ENDBRANCH   1  12
TORSDOF 4
ENDMDL
MODEL 4
REMARK VINA RESULT: -5.653911518      2.000      5.454
REMARK  4 active torsions:
REMARK  status: ('A' for Active; 'I' for Inactive)
REMARK    1  A    between atoms: N1_1  and  C1_5 
REMARK    2  A    between atoms: C1_5  and  C2_6 
REMARK    3  A    between atoms: C2_6  and  N2_7 
REMARK    4  A    between atoms: C3_9  and  C4_10 
ROOT
HETATM    1  N2  UNL     1     -45.857   5.327 -31.031  1.00  0.00    -0.396 N 
ATOM      2  H2  UNL     1     -46.840   5.092 -31.171  1.00  0.00     0.158 HD
HETATM    3  C3  UNL     1     -44.973   4.869 -31.822  1.00  0.00     0.097 C 
ENDROOT
BRANCH   3   4
HETATM    4  C4  UNL     1     -45.107   4.027 -32.952  1.00  0.00     0.020 A 
HETATM    5  C5  UNL     1     -44.605   4.436 -34.196  1.00  0.00     0.017 A 
HETATM    6  C6  UNL     1     -44.709   3.656 -35.320  1.00  0.00     0.018 A 
HETATM    7  C7  UNL     1     -45.330   2.426 -35.228  1.00  0.00     0.089 A 
HETATM    8  N3  UNL     1     -45.798   2.047 -34.061  1.00  0.00    -0.354 N 
HETATM    9  C8  UNL     1     -45.706   2.804 -32.937  1.00  0.00     0.127 A 
ATOM     10  H3  UNL     1     -46.256   1.137 -33.996  1.00  0.00     0.166 HD
HETATM   11  N4  UNL     1     -46.272   2.214 -31.787  1.00  0.00    -0.082 NA
ENDBRANCH   3   4
BRANCH   1  12
HETATM   12  C2  UNL     1     -45.457   6.204 -29.902  1.00  0.00     0.146 C 
BRANCH  12  13
HETATM   13  C1  UNL     1     -43.950   6.363 -30.053  1.00  0.00     0.249 C 
BRANCH  13  14
HETATM   14  N1  UNL     1     -43.334   6.225 -28.748  1.00  0.00    -0.078 N 
ATOM     15  H13 UNL     1     -42.488   6.787 -28.653  1.00  0.00     0.274 HD
ATOM     16  H12 UNL     1     -43.881   6.668 -28.009  1.00  0.00     0.274 HD
ATOM     17  H11 UNL     1     -43.166   5.234 -28.568  1.00  0.00     0.274 HD
ENDBRANCH  13  14
ENDBRANCH  12  13
ENDBRANCH   1  12
TORSDOF 4
ENDMDL
MODEL 5
REMARK VINA RESULT: -5.552645231      2.041      2.943
REMARK  4 active torsions:
REMARK  status: ('A' for Active; 'I' for Inactive)
REMARK    1  A    between atoms: N1_1  and  C1_5 
REMARK    2  A    between atoms: C1_5  and  C2_6 
REMARK    3  A    between atoms: C2_6  and  N2_7 
REMARK    4  A    between atoms: C3_9  and  C4_10 
ROOT
HETATM    1  N2  UNL     1     -45.185   2.910 -33.501  1.00  0.00    -0.396 N 
ATOM      2  H2  UNL     1     -44.178   2.747 -33.491  1.00  0.00     0.158 HD
HETATM    3  C3  UNL     1     -45.692   3.817 -32.769  1.00  0.00     0.097 C 
ENDROOT
BRANCH   3   4
HETATM    4  C4  UNL     1     -45.072   4.717 -31.868  1.00  0.00     0.020 A 
HETATM    5  C5  UNL     1     -45.439   4.720 -30.514  1.00  0.00     0.017 A 
HETATM    6  C6  UNL     1     -44.868   5.571 -29.603  1.00  0.00     0.018 A 
HETATM    7  C7  UNL     1     -43.900   6.458 -30.029  1.00  0.00     0.089 A 
HETATM    8  N3  UNL     1     -43.559   6.453 -31.297  1.00  0.00    -0.354 N 
HETATM    9  C8  UNL     1     -44.112   5.618 -32.215  1.00  0.00     0.127 A 
ATOM     10  H3  UNL     1     -42.843   7.110 -31.608  1.00  0.00     0.166 HD
HETATM   11  N4  UNL     1     -43.607   5.772 -33.524  1.00  0.00    -0.082 NA
ENDBRANCH   3   4
BRANCH   1  12
HETATM   12  C2  UNL     1     -46.061   2.087 -34.372  1.00  0.00     0.146 C 
BRANCH  12  13
HETATM   13  C1  UNL     1     -45.130   1.534 -35.444  1.00  0.00     0.249 C 
BRANCH  13  14
HETATM   14  N1  UNL     1     -45.476   0.148 -35.690  1.00  0.00    -0.078 N 
ATOM     15  H13 UNL     1     -45.958  -0.281 -34.900  1.00  0.00     0.274 HD
ATOM     16  H12 UNL     1     -46.220   0.048 -36.381  1.00  0.00     0.274 HD
ATOM     17  H11 UNL     1     -44.629  -0.359 -35.952  1.00  0.00     0.274 HD
ENDBRANCH  13  14
ENDBRANCH  12  13
ENDBRANCH   1  12
TORSDOF 4
ENDMDL
