MODEL 1
REMARK VINA RESULT: -5.963023761      0.000      0.000
REMARK  2 active torsions:
REMARK  status: ('A' for Active; 'I' for Inactive)
REMARK    1  A    between atoms: C2_2  and  C3_3 
REMARK    2  A    between atoms: N3_12  and  N4_14 
ROOT
HETATM    1  C3  UNL     1     -46.052  -0.693 -36.151  1.00  0.00     0.223 C 
HETATM    2  O1  UNL     1     -46.772   0.304 -35.431  1.00  0.00    -0.305 OA
HETATM    3  C4  UNL     1     -45.887   1.263 -34.962  1.00  0.00     0.219 C 
HETATM    4  N1  UNL     1     -46.136   2.214 -34.128  1.00  0.00    -0.365 N 
ATOM      5  H11 UNL     1     -45.485   2.920 -33.783  1.00  0.00     0.159 HD
ATOM      6  H12 UNL     1     -47.052   2.367 -33.706  1.00  0.00     0.159 HD
HETATM    7  N2  UNL     1     -44.612   1.051 -35.549  1.00  0.00    -0.308 N 
ATOM      8  H2  UNL     1     -43.771   1.605 -35.387  1.00  0.00     0.170 HD
HETATM    9  C5  UNL     1     -44.725  -0.076 -36.403  1.00  0.00     0.134 C 
HETATM   10  N3  UNL     1     -43.845  -0.488 -37.241  1.00  0.00    -0.272 N 
ATOM     11  H3  UNL     1     -44.024  -1.314 -37.813  1.00  0.00     0.190 HD
ENDROOT
BRANCH   1  12
HETATM   12  C2  UNL     1     -45.956  -1.956 -35.388  1.00  0.00     0.003 C 
HETATM   13  C1  UNL     1     -46.722  -3.006 -35.655  1.00  0.00     0.010 C 
ENDBRANCH   1  12
BRANCH  10  14
HETATM   14  N4  UNL     1     -42.645   0.205 -37.361  1.00  0.00    -0.248 N 
HETATM   15  N5  UNL     1     -41.537  -0.397 -37.307  1.00  0.00    -0.331 N 
ATOM     16  H52 UNL     1     -41.539  -1.408 -37.173  1.00  0.00     0.178 HD
ATOM     17  H51 UNL     1     -40.657   0.112 -37.395  1.00  0.00     0.178 HD
ATOM     18  H4  UNL     1     -42.661   1.215 -37.495  1.00  0.00     0.207 HD
ENDBRANCH  10  14
TORSDOF 2
ENDMDL
MODEL 2
REMARK VINA RESULT: -5.675107762      6.483      7.486
REMARK  2 active torsions:
REMARK  status: ('A' for Active; 'I' for Inactive)
REMARK    1  A    between atoms: C2_2  and  C3_3 
REMARK    2  A    between atoms: N3_12  and  N4_14 
ROOT
HETATM    1  C3  UNL     1     -44.119   5.346 -31.493  1.00  0.00     0.223 C 
HETATM    2  O1  UNL     1     -44.467   6.212 -30.415  1.00  0.00    -0.305 OA
HETATM    3  C4  UNL     1     -45.836   6.160 -30.206  1.00  0.00     0.219 C 
HETATM    4  N1  UNL     1     -46.540   6.928 -29.445  1.00  0.00    -0.365 N 
ATOM      5  H11 UNL     1     -47.548   6.889 -29.291  1.00  0.00     0.159 HD
ATOM      6  H12 UNL     1     -46.144   7.689 -28.895  1.00  0.00     0.159 HD
HETATM    7  N2  UNL     1     -46.388   5.099 -30.972  1.00  0.00    -0.308 N 
ATOM      8  H2  UNL     1     -47.370   4.829 -31.012  1.00  0.00     0.170 HD
HETATM    9  C5  UNL     1     -45.317   4.487 -31.673  1.00  0.00     0.134 C 
HETATM   10  N3  UNL     1     -45.371   3.392 -32.340  1.00  0.00    -0.272 N 
ATOM     11  H3  UNL     1     -44.540   3.034 -32.811  1.00  0.00     0.190 HD
ENDROOT
BRANCH   1  12
HETATM   12  C2  UNL     1     -43.775   6.104 -32.715  1.00  0.00     0.003 C 
HETATM   13  C1  UNL     1     -44.351   5.862 -33.885  1.00  0.00     0.010 C 
ENDBRANCH   1  12
BRANCH  10  14
HETATM   14  N4  UNL     1     -46.575   2.700 -32.413  1.00  0.00    -0.248 N 
HETATM   15  N5  UNL     1     -47.440   2.987 -33.285  1.00  0.00    -0.331 N 
ATOM     16  H52 UNL     1     -47.238   3.742 -33.941  1.00  0.00     0.178 HD
ATOM     17  H51 UNL     1     -48.324   2.479 -33.338  1.00  0.00     0.178 HD
ATOM     18  H4  UNL     1     -46.762   1.948 -31.750  1.00  0.00     0.207 HD
ENDBRANCH  10  14
TORSDOF 2
ENDMDL
MODEL 3
REMARK VINA RESULT: -5.497373546      5.235      7.182
REMARK  2 active torsions:
REMARK  status: ('A' for Active; 'I' for Inactive)
REMARK    1  A    between atoms: C2_2  and  C3_3 
REMARK    2  A    between atoms: N3_12  and  N4_14 
ROOT
HETATM    1  C3  UNL     1     -45.179   3.552 -32.135  1.00  0.00     0.223 C 
HETATM    2  O1  UNL     1     -44.202   3.969 -33.086  1.00  0.00    -0.305 OA
HETATM    3  C4  UNL     1     -44.390   5.311 -33.381  1.00  0.00     0.219 C 
HETATM    4  N1  UNL     1     -43.822   5.992 -34.318  1.00  0.00    -0.365 N 
ATOM      5  H11 UNL     1     -43.960   6.979 -34.535  1.00  0.00     0.159 HD
ATOM      6  H12 UNL     1     -43.146   5.595 -34.970  1.00  0.00     0.159 HD
HETATM    7  N2  UNL     1     -45.331   5.864 -32.473  1.00  0.00    -0.308 N 
ATOM      8  H2  UNL     1     -45.659   6.829 -32.454  1.00  0.00     0.170 HD
HETATM    9  C5  UNL     1     -45.731   4.822 -31.597  1.00  0.00     0.134 C 
HETATM   10  N3  UNL     1     -46.438   4.950 -30.534  1.00  0.00    -0.272 N 
ATOM     11  H3  UNL     1     -46.673   4.134 -29.969  1.00  0.00     0.190 HD
ENDROOT
BRANCH   1  12
HETATM   12  C2  UNL     1     -46.216   2.700 -32.754  1.00  0.00     0.003 C 
HETATM   13  C1  UNL     1     -46.209   2.399 -34.046  1.00  0.00     0.010 C 
ENDBRANCH   1  12
BRANCH  10  14
HETATM   14  N4  UNL     1     -46.880   6.215 -30.161  1.00  0.00    -0.248 N 
HETATM   15  N5  UNL     1     -46.148   6.989 -29.485  1.00  0.00    -0.331 N 
ATOM     16  H52 UNL     1     -45.219   6.666 -29.216  1.00  0.00     0.178 HD
ATOM     17  H51 UNL     1     -46.473   7.916 -29.212  1.00  0.00     0.178 HD
ATOM     18  H4  UNL     1     -47.812   6.522 -30.439  1.00  0.00     0.207 HD
ENDBRANCH  10  14
TORSDOF 2
ENDMDL
MODEL 4
REMARK VINA RESULT: -5.089083671      1.302      3.680
REMARK  2 active torsions:
REMARK  status: ('A' for Active; 'I' for Inactive)
REMARK    1  A    between atoms: C2_2  and  C3_3 
REMARK    2  A    between atoms: N3_12  and  N4_14 
ROOT
HETATM    1  C3  UNL     1     -45.647  -0.403 -35.419  1.00  0.00     0.223 C 
HETATM    2  O1  UNL     1     -44.497  -0.951 -36.060  1.00  0.00    -0.305 OA
HETATM    3  C4  UNL     1     -43.751   0.073 -36.621  1.00  0.00     0.219 C 
HETATM    4  N1  UNL     1     -42.749  -0.040 -37.425  1.00  0.00    -0.365 N 
ATOM      5  H11 UNL     1     -42.199   0.714 -37.838  1.00  0.00     0.159 HD
ATOM      6  H12 UNL     1     -42.386  -0.937 -37.748  1.00  0.00     0.159 HD
HETATM    7  N2  UNL     1     -44.255   1.322 -36.172  1.00  0.00    -0.308 N 
ATOM      8  H2  UNL     1     -43.899   2.245 -36.422  1.00  0.00     0.170 HD
HETATM    9  C5  UNL     1     -45.347   1.048 -35.309  1.00  0.00     0.134 C 
HETATM   10  N3  UNL     1     -45.964   1.895 -34.568  1.00  0.00    -0.272 N 
ATOM     11  H3  UNL     1     -46.742   1.595 -33.980  1.00  0.00     0.190 HD
ENDROOT
BRANCH   1  12
HETATM   12  C2  UNL     1     -46.881  -0.671 -36.186  1.00  0.00     0.003 C 
HETATM   13  C1  UNL     1     -47.532  -1.824 -36.101  1.00  0.00     0.010 C 
ENDBRANCH   1  12
BRANCH  10  14
HETATM   14  N4  UNL     1     -45.560   3.225 -34.577  1.00  0.00    -0.248 N 
HETATM   15  N5  UNL     1     -46.327   4.143 -34.174  1.00  0.00    -0.331 N 
ATOM     16  H52 UNL     1     -47.256   3.887 -33.840  1.00  0.00     0.178 HD
ATOM     17  H51 UNL     1     -46.030   5.119 -34.181  1.00  0.00     0.178 HD
ATOM     18  H4  UNL     1     -44.627   3.464 -34.914  1.00  0.00     0.207 HD
ENDBRANCH  10  14
TORSDOF 2
ENDMDL
MODEL 5
REMARK VINA RESULT: -5.086169573      2.394      4.284
REMARK  2 active torsions:
REMARK  status: ('A' for Active; 'I' for Inactive)
REMARK    1  A    between atoms: C2_2  and  C3_3 
REMARK    2  A    between atoms: N3_12  and  N4_14 
ROOT
HETATM    1  C3  UNL     1     -44.771   1.910 -36.233  1.00  0.00     0.223 C 
HETATM    2  O1  UNL     1     -43.442   2.093 -36.713  1.00  0.00    -0.305 OA
HETATM    3  C4  UNL     1     -42.770   0.881 -36.682  1.00  0.00     0.219 C 
HETATM    4  N1  UNL     1     -41.509   0.681 -36.869  1.00  0.00    -0.365 N 
ATOM      5  H11 UNL     1     -41.015  -0.211 -36.846  1.00  0.00     0.159 HD
ATOM      6  H12 UNL     1     -40.845   1.430 -37.066  1.00  0.00     0.159 HD
HETATM    7  N2  UNL     1     -43.694  -0.161 -36.406  1.00  0.00    -0.308 N 
ATOM      8  H2  UNL     1     -43.480  -1.155 -36.326  1.00  0.00     0.170 HD
HETATM    9  C5  UNL     1     -44.972   0.439 -36.263  1.00  0.00     0.134 C 
HETATM   10  N3  UNL     1     -46.095  -0.175 -36.177  1.00  0.00    -0.272 N 
ATOM     11  H3  UNL     1     -46.964   0.351 -36.076  1.00  0.00     0.190 HD
ENDROOT
BRANCH   1  12
HETATM   12  C2  UNL     1     -44.948   2.479 -34.880  1.00  0.00     0.003 C 
HETATM   13  C1  UNL     1     -45.120   3.779 -34.675  1.00  0.00     0.010 C 
ENDBRANCH   1  12
BRANCH  10  14
HETATM   14  N4  UNL     1     -46.115  -1.565 -36.223  1.00  0.00    -0.248 N 
HETATM   15  N5  UNL     1     -47.149  -2.212 -35.901  1.00  0.00    -0.331 N 
ATOM     16  H52 UNL     1     -47.976  -1.693 -35.605  1.00  0.00     0.178 HD
ATOM     17  H51 UNL     1     -47.164  -3.232 -35.936  1.00  0.00     0.178 HD
ATOM     18  H4  UNL     1     -45.281  -2.068 -36.522  1.00  0.00     0.207 HD
ENDBRANCH  10  14
TORSDOF 2
ENDMDL
