MODEL 1
REMARK VINA RESULT: -6.878639945      0.000      0.000
REMARK  4 active torsions:
REMARK  status: ('A' for Active; 'I' for Inactive)
REMARK    1  A    between atoms: N3_4  and  C2_6 
REMARK    2  A    between atoms: C2_6  and  C3_7 
REMARK    3  A    between atoms: C3_7  and  C4_8 
REMARK    4  A    between atoms: N5_12  and  O1_13 
ROOT
HETATM    1  C4  UNL     1     -44.800   4.325 -33.321  1.00  0.00    -0.020 A 
HETATM    2  C5  UNL     1     -45.107   3.509 -34.401  1.00  0.00     0.118 A 
HETATM    3  N4  UNL     1     -45.800   2.434 -33.963  1.00  0.00    -0.286 N 
ATOM      4  H4  UNL     1     -46.152   1.676 -34.549  1.00  0.00     0.188 HD
HETATM    5  N5  UNL     1     -45.949   2.525 -32.650  1.00  0.00    -0.175 N 
HETATM    6  C6  UNL     1     -45.348   3.671 -32.228  1.00  0.00     0.152 A 
ENDROOT
BRANCH   1   7
HETATM    7  C3  UNL     1     -44.050   5.613 -33.320  1.00  0.00     0.061 C 
BRANCH   7   8
HETATM    8  C2  UNL     1     -44.533   6.407 -32.126  1.00  0.00     0.126 C 
BRANCH   8   9
HETATM    9  N3  UNL     1     -43.614   6.263 -31.038  1.00  0.00    -0.367 N 
HETATM   10  C1  UNL     1     -44.003   6.372 -29.806  1.00  0.00     0.196 C 
HETATM   11  N1  UNL     1     -42.991   6.209 -28.805  1.00  0.00    -0.067 NA
HETATM   12  N2  UNL     1     -45.339   6.637 -29.432  1.00  0.00    -0.067 NA
ATOM     13  H3  UNL     1     -42.632   6.072 -31.236  1.00  0.00     0.161 HD
ENDBRANCH   8   9
ENDBRANCH   7   8
ENDBRANCH   1   7
BRANCH   5  14
HETATM   14  O1  UNL     1     -46.587   1.652 -31.799  1.00  0.00    -0.268 OA
ATOM     15  H1  UNL     1     -47.194   1.851 -31.096  1.00  0.00     0.247 HD
ENDBRANCH   5  14
TORSDOF 4
ENDMDL
MODEL 2
REMARK VINA RESULT: -6.546007459      0.837      1.328
REMARK  4 active torsions:
REMARK  status: ('A' for Active; 'I' for Inactive)
REMARK    1  A    between atoms: N3_4  and  C2_6 
REMARK    2  A    between atoms: C2_6  and  C3_7 
REMARK    3  A    between atoms: C3_7  and  C4_8 
REMARK    4  A    between atoms: N5_12  and  O1_13 
ROOT
HETATM    1  C4  UNL     1     -44.918   4.266 -33.194  1.00  0.00    -0.020 A 
HETATM    2  C5  UNL     1     -45.721   3.795 -32.164  1.00  0.00     0.118 A 
HETATM    3  N4  UNL     1     -46.311   2.642 -32.553  1.00  0.00    -0.286 N 
ATOM      4  H4  UNL     1     -46.952   2.084 -31.988  1.00  0.00     0.188 HD
HETATM    5  N5  UNL     1     -45.923   2.356 -33.786  1.00  0.00    -0.175 N 
HETATM    6  C6  UNL     1     -45.071   3.330 -34.206  1.00  0.00     0.152 A 
ENDROOT
BRANCH   1   7
HETATM    7  C3  UNL     1     -44.079   5.498 -33.221  1.00  0.00     0.061 C 
BRANCH   7   8
HETATM    8  C2  UNL     1     -44.520   6.361 -32.059  1.00  0.00     0.126 C 
BRANCH   8   9
HETATM    9  N3  UNL     1     -43.607   6.217 -30.967  1.00  0.00    -0.367 N 
HETATM   10  C1  UNL     1     -43.992   6.374 -29.739  1.00  0.00     0.196 C 
HETATM   11  N1  UNL     1     -42.986   6.205 -28.732  1.00  0.00    -0.067 NA
HETATM   12  N2  UNL     1     -45.319   6.694 -29.374  1.00  0.00    -0.067 NA
ATOM     13  H3  UNL     1     -42.632   5.987 -31.158  1.00  0.00     0.161 HD
ENDBRANCH   8   9
ENDBRANCH   7   8
ENDBRANCH   1   7
BRANCH   5  14
HETATM   14  O1  UNL     1     -46.279   1.279 -34.566  1.00  0.00    -0.268 OA
ATOM     15  H1  UNL     1     -46.079   1.122 -35.481  1.00  0.00     0.247 HD
ENDBRANCH   5  14
TORSDOF 4
ENDMDL
MODEL 3
REMARK VINA RESULT: -6.290028315      1.279      1.914
REMARK  4 active torsions:
REMARK  status: ('A' for Active; 'I' for Inactive)
REMARK    1  A    between atoms: N3_4  and  C2_6 
REMARK    2  A    between atoms: C2_6  and  C3_7 
REMARK    3  A    between atoms: C3_7  and  C4_8 
REMARK    4  A    between atoms: N5_12  and  O1_13 
ROOT
HETATM    1  C4  UNL     1     -45.150   4.113 -33.540  1.00  0.00    -0.020 A 
HETATM    2  C5  UNL     1     -45.675   3.429 -32.453  1.00  0.00     0.118 A 
HETATM    3  N4  UNL     1     -46.065   2.196 -32.850  1.00  0.00    -0.286 N 
ATOM      4  H4  UNL     1     -46.485   1.485 -32.251  1.00  0.00     0.188 HD
HETATM    5  N5  UNL     1     -45.815   2.063 -34.144  1.00  0.00    -0.175 N 
HETATM    6  C6  UNL     1     -45.255   3.219 -34.595  1.00  0.00     0.152 A 
ENDROOT
BRANCH   1   7
HETATM    7  C3  UNL     1     -44.597   5.498 -33.581  1.00  0.00     0.061 C 
BRANCH   7   8
HETATM    8  C2  UNL     1     -44.123   5.827 -32.181  1.00  0.00     0.126 C 
BRANCH   8   9
HETATM    9  N3  UNL     1     -45.183   6.433 -31.435  1.00  0.00    -0.367 N 
HETATM   10  C1  UNL     1     -45.190   6.420 -30.138  1.00  0.00     0.196 C 
HETATM   11  N1  UNL     1     -46.305   7.059 -29.504  1.00  0.00    -0.067 NA
HETATM   12  N2  UNL     1     -44.175   5.820 -29.360  1.00  0.00    -0.067 NA
ATOM     13  H3  UNL     1     -45.950   6.885 -31.933  1.00  0.00     0.161 HD
ENDBRANCH   8   9
ENDBRANCH   7   8
ENDBRANCH   1   7
BRANCH   5  14
HETATM   14  O1  UNL     1     -46.053   0.976 -34.953  1.00  0.00    -0.268 OA
ATOM     15  H1  UNL     1     -46.583   0.932 -35.740  1.00  0.00     0.247 HD
ENDBRANCH   5  14
TORSDOF 4
ENDMDL
MODEL 4
REMARK VINA RESULT: -6.129525026      2.696      5.882
REMARK  4 active torsions:
REMARK  status: ('A' for Active; 'I' for Inactive)
REMARK    1  A    between atoms: N3_4  and  C2_6 
REMARK    2  A    between atoms: C2_6  and  C3_7 
REMARK    3  A    between atoms: C3_7  and  C4_8 
REMARK    4  A    between atoms: N5_12  and  O1_13 
ROOT
HETATM    1  C4  UNL     1     -45.036   4.496 -33.519  1.00  0.00    -0.020 A 
HETATM    2  C5  UNL     1     -45.130   3.994 -32.229  1.00  0.00     0.118 A 
HETATM    3  N4  UNL     1     -44.519   4.847 -31.375  1.00  0.00    -0.286 N 
ATOM      4  H4  UNL     1     -44.442   4.722 -30.366  1.00  0.00     0.188 HD
HETATM    5  N5  UNL     1     -44.038   5.872 -32.063  1.00  0.00    -0.175 N 
HETATM    6  C6  UNL     1     -44.338   5.686 -33.378  1.00  0.00     0.152 A 
ENDROOT
BRANCH   1   7
HETATM    7  C3  UNL     1     -45.561   3.901 -34.782  1.00  0.00     0.061 C 
BRANCH   7   8
HETATM    8  C2  UNL     1     -45.674   2.408 -34.555  1.00  0.00     0.126 C 
BRANCH   8   9
HETATM    9  N3  UNL     1     -44.831   1.708 -35.475  1.00  0.00    -0.367 N 
HETATM   10  C1  UNL     1     -45.156   0.540 -35.935  1.00  0.00     0.196 C 
HETATM   11  N1  UNL     1     -44.230  -0.062 -36.849  1.00  0.00    -0.067 NA
HETATM   12  N2  UNL     1     -46.345  -0.134 -35.578  1.00  0.00    -0.067 NA
ATOM     13  H3  UNL     1     -43.955   2.136 -35.775  1.00  0.00     0.161 HD
ENDBRANCH   8   9
ENDBRANCH   7   8
ENDBRANCH   1   7
BRANCH   5  14
HETATM   14  O1  UNL     1     -43.347   6.966 -31.596  1.00  0.00    -0.268 OA
ATOM     15  H1  UNL     1     -43.153   7.778 -32.049  1.00  0.00     0.247 HD
ENDBRANCH   5  14
TORSDOF 4
ENDMDL
MODEL 5
REMARK VINA RESULT: -6.127893256      3.030      4.209
REMARK  4 active torsions:
REMARK  status: ('A' for Active; 'I' for Inactive)
REMARK    1  A    between atoms: N3_4  and  C2_6 
REMARK    2  A    between atoms: C2_6  and  C3_7 
REMARK    3  A    between atoms: C3_7  and  C4_8 
REMARK    4  A    between atoms: N5_12  and  O1_13 
ROOT
HETATM    1  C4  UNL     1     -45.573   1.542 -35.134  1.00  0.00    -0.020 A 
HETATM    2  C5  UNL     1     -44.513   2.235 -35.702  1.00  0.00     0.118 A 
HETATM    3  N4  UNL     1     -43.980   1.493 -36.699  1.00  0.00    -0.286 N 
ATOM      4  H4  UNL     1     -43.189   1.765 -37.283  1.00  0.00     0.188 HD
HETATM    5  N5  UNL     1     -44.652   0.355 -36.792  1.00  0.00    -0.175 N 
HETATM    6  C6  UNL     1     -45.633   0.355 -35.849  1.00  0.00     0.152 A 
ENDROOT
BRANCH   1   7
HETATM    7  C3  UNL     1     -46.456   1.965 -34.009  1.00  0.00     0.061 C 
BRANCH   7   8
HETATM    8  C2  UNL     1     -46.404   3.477 -33.949  1.00  0.00     0.126 C 
BRANCH   8   9
HETATM    9  N3  UNL     1     -46.445   3.914 -32.586  1.00  0.00    -0.367 N 
HETATM   10  C1  UNL     1     -45.362   4.052 -31.888  1.00  0.00     0.196 C 
HETATM   11  N1  UNL     1     -45.531   4.495 -30.536  1.00  0.00    -0.067 NA
HETATM   12  N2  UNL     1     -44.070   3.787 -32.395  1.00  0.00    -0.067 NA
ATOM     13  H3  UNL     1     -47.346   4.122 -32.156  1.00  0.00     0.161 HD
ENDBRANCH   8   9
ENDBRANCH   7   8
ENDBRANCH   1   7
BRANCH   5  14
HETATM   14  O1  UNL     1     -44.449  -0.688 -37.666  1.00  0.00    -0.268 OA
ATOM     15  H1  UNL     1     -44.022  -1.521 -37.502  1.00  0.00     0.247 HD
ENDBRANCH   5  14
TORSDOF 4
ENDMDL
