MODEL 1
REMARK VINA RESULT: -6.375113173      0.000      0.000
REMARK  3 active torsions:
REMARK  status: ('A' for Active; 'I' for Inactive)
REMARK    1  A    between atoms: N2_4  and  N3_6 
REMARK    2  A    between atoms: C1_8  and  C2_10 
REMARK    3  A    between atoms: C2_10  and  C3_11 
ROOT
HETATM    1  N3  UNL     1     -44.889   6.390 -30.895  1.00  0.00    -0.277 N 
ATOM      2  H3  UNL     1     -44.378   6.542 -30.026  1.00  0.00     0.189 HD
HETATM    3  C1  UNL     1     -44.192   6.093 -31.906  1.00  0.00     0.113 C 
HETATM    4  N4  UNL     1     -42.785   5.983 -31.814  1.00  0.00    -0.086 NA
ENDROOT
BRANCH   3   5
HETATM    5  C2  UNL     1     -44.863   5.856 -33.208  1.00  0.00     0.116 C 
BRANCH   5   6
HETATM    6  C3  UNL     1     -45.076   4.414 -33.478  1.00  0.00    -0.018 A 
HETATM    7  C4  UNL     1     -45.531   3.485 -32.568  1.00  0.00     0.116 A 
HETATM    8  N5  UNL     1     -45.576   2.325 -33.215  1.00  0.00    -0.312 N 
HETATM    9  N6  UNL     1     -45.180   2.476 -34.462  1.00  0.00    -0.312 N 
ATOM     10  H5  UNL     1     -45.875   1.442 -32.802  1.00  0.00     0.186 HD
HETATM   11  C5  UNL     1     -44.864   3.760 -34.653  1.00  0.00     0.116 A 
ATOM     12  H6  UNL     1     -45.125   1.737 -35.164  1.00  0.00     0.186 HD
ENDBRANCH   5   6
ENDBRANCH   3   5
BRANCH   1  13
HETATM   13  N2  UNL     1     -46.251   6.532 -30.828  1.00  0.00    -0.248 N 
HETATM   14  N1  UNL     1     -47.065   5.761 -30.268  1.00  0.00    -0.331 N 
ATOM     15  H12 UNL     1     -46.653   4.943 -29.819  1.00  0.00     0.178 HD
ATOM     16  H11 UNL     1     -48.078   5.866 -30.218  1.00  0.00     0.178 HD
ATOM     17  H2  UNL     1     -46.645   7.356 -31.282  1.00  0.00     0.207 HD
ENDBRANCH   1  13
TORSDOF 3
ENDMDL
MODEL 2
REMARK VINA RESULT: -5.978245144      1.839      4.174
REMARK  3 active torsions:
REMARK  status: ('A' for Active; 'I' for Inactive)
REMARK    1  A    between atoms: N2_4  and  N3_6 
REMARK    2  A    between atoms: C1_8  and  C2_10 
REMARK    3  A    between atoms: C2_10  and  C3_11 
ROOT
HETATM    1  N3  UNL     1     -45.495   4.543 -34.004  1.00  0.00    -0.277 N 
ATOM      2  H3  UNL     1     -45.476   4.982 -34.925  1.00  0.00     0.189 HD
HETATM    3  C1  UNL     1     -44.716   5.031 -33.138  1.00  0.00     0.113 C 
HETATM    4  N4  UNL     1     -43.874   6.124 -33.449  1.00  0.00    -0.086 NA
ENDROOT
BRANCH   3   5
HETATM    5  C2  UNL     1     -44.686   4.447 -31.774  1.00  0.00     0.116 C 
BRANCH   5   6
HETATM    6  C3  UNL     1     -44.868   5.472 -30.719  1.00  0.00    -0.018 A 
HETATM    7  C4  UNL     1     -43.895   5.907 -29.845  1.00  0.00     0.116 A 
HETATM    8  N5  UNL     1     -44.474   6.820 -29.073  1.00  0.00    -0.312 N 
HETATM    9  N6  UNL     1     -45.737   6.978 -29.411  1.00  0.00    -0.312 N 
ATOM     10  H5  UNL     1     -44.005   7.327 -28.323  1.00  0.00     0.186 HD
HETATM   11  C5  UNL     1     -46.009   6.155 -30.427  1.00  0.00     0.116 A 
ATOM     12  H6  UNL     1     -46.396   7.621 -28.971  1.00  0.00     0.186 HD
ENDBRANCH   5   6
ENDBRANCH   3   5
BRANCH   1  13
HETATM   13  N2  UNL     1     -46.364   3.493 -33.854  1.00  0.00    -0.248 N 
HETATM   14  N1  UNL     1     -47.507   3.525 -33.341  1.00  0.00    -0.331 N 
ATOM     15  H12 UNL     1     -47.809   4.440 -33.004  1.00  0.00     0.178 HD
ATOM     16  H11 UNL     1     -48.154   2.744 -33.229  1.00  0.00     0.178 HD
ATOM     17  H2  UNL     1     -46.045   2.587 -34.197  1.00  0.00     0.207 HD
ENDBRANCH   1  13
TORSDOF 3
ENDMDL
MODEL 3
REMARK VINA RESULT: -5.976436137      1.853      4.178
REMARK  3 active torsions:
REMARK  status: ('A' for Active; 'I' for Inactive)
REMARK    1  A    between atoms: N2_4  and  N3_6 
REMARK    2  A    between atoms: C1_8  and  C2_10 
REMARK    3  A    between atoms: C2_10  and  C3_11 
ROOT
HETATM    1  N3  UNL     1     -45.479   4.578 -33.983  1.00  0.00    -0.277 N 
ATOM      2  H3  UNL     1     -45.471   5.025 -34.900  1.00  0.00     0.189 HD
HETATM    3  C1  UNL     1     -44.702   5.070 -33.117  1.00  0.00     0.113 C 
HETATM    4  N4  UNL     1     -43.876   6.176 -33.423  1.00  0.00    -0.086 NA
ENDROOT
BRANCH   3   5
HETATM    5  C2  UNL     1     -44.658   4.476 -31.758  1.00  0.00     0.116 C 
BRANCH   5   6
HETATM    6  C3  UNL     1     -44.836   5.491 -30.693  1.00  0.00    -0.018 A 
HETATM    7  C4  UNL     1     -46.005   6.164 -30.411  1.00  0.00     0.116 A 
HETATM    8  N5  UNL     1     -45.730   6.974 -29.395  1.00  0.00    -0.312 N 
HETATM    9  N6  UNL     1     -44.471   6.847 -29.030  1.00  0.00    -0.312 N 
ATOM     10  H5  UNL     1     -46.401   7.607 -28.958  1.00  0.00     0.186 HD
HETATM   11  C5  UNL     1     -43.893   5.935 -29.818  1.00  0.00     0.116 A 
ATOM     12  H6  UNL     1     -44.014   7.358 -28.274  1.00  0.00     0.186 HD
ENDBRANCH   5   6
ENDBRANCH   3   5
BRANCH   1  13
HETATM   13  N2  UNL     1     -46.334   3.516 -33.836  1.00  0.00    -0.248 N 
HETATM   14  N1  UNL     1     -47.486   3.535 -33.345  1.00  0.00    -0.331 N 
ATOM     15  H12 UNL     1     -47.809   4.449 -33.023  1.00  0.00     0.178 HD
ATOM     16  H11 UNL     1     -48.122   2.745 -33.235  1.00  0.00     0.178 HD
ATOM     17  H2  UNL     1     -45.995   2.611 -34.164  1.00  0.00     0.207 HD
ENDBRANCH   1  13
TORSDOF 3
ENDMDL
MODEL 4
REMARK VINA RESULT: -5.703481133      1.600      5.042
REMARK  3 active torsions:
REMARK  status: ('A' for Active; 'I' for Inactive)
REMARK    1  A    between atoms: N2_4  and  N3_6 
REMARK    2  A    between atoms: C1_8  and  C2_10 
REMARK    3  A    between atoms: C2_10  and  C3_11 
ROOT
HETATM    1  N3  UNL     1     -45.577   1.455 -34.904  1.00  0.00    -0.277 N 
ATOM      2  H3  UNL     1     -46.115   0.627 -34.648  1.00  0.00     0.189 HD
HETATM    3  C1  UNL     1     -45.955   2.545 -34.389  1.00  0.00     0.113 C 
HETATM    4  N4  UNL     1     -47.063   2.591 -33.511  1.00  0.00    -0.086 NA
ENDROOT
BRANCH   3   5
HETATM    5  C2  UNL     1     -45.222   3.795 -34.712  1.00  0.00     0.116 C 
BRANCH   5   6
HETATM    6  C3  UNL     1     -44.804   4.532 -33.496  1.00  0.00    -0.018 A 
HETATM    7  C4  UNL     1     -44.476   5.869 -33.440  1.00  0.00     0.116 A 
HETATM    8  N5  UNL     1     -44.163   6.120 -32.174  1.00  0.00    -0.312 N 
HETATM    9  N6  UNL     1     -44.275   5.029 -31.444  1.00  0.00    -0.312 N 
ATOM     10  H5  UNL     1     -43.875   7.031 -31.816  1.00  0.00     0.186 HD
HETATM   11  C5  UNL     1     -44.670   4.029 -32.238  1.00  0.00     0.116 A 
ATOM     12  H6  UNL     1     -44.092   4.960 -30.443  1.00  0.00     0.186 HD
ENDBRANCH   5   6
ENDBRANCH   3   5
BRANCH   1  13
HETATM   13  N2  UNL     1     -44.530   1.252 -35.765  1.00  0.00    -0.248 N 
HETATM   14  N1  UNL     1     -44.052   0.153 -36.129  1.00  0.00    -0.331 N 
ATOM     15  H12 UNL     1     -44.504  -0.672 -35.733  1.00  0.00     0.178 HD
ATOM     16  H11 UNL     1     -43.273   0.002 -36.770  1.00  0.00     0.178 HD
ATOM     17  H2  UNL     1     -44.091   2.089 -36.152  1.00  0.00     0.207 HD
ENDBRANCH   1  13
TORSDOF 3
ENDMDL
MODEL 5
REMARK VINA RESULT: -5.605958245      3.164      3.919
REMARK  3 active torsions:
REMARK  status: ('A' for Active; 'I' for Inactive)
REMARK    1  A    between atoms: N2_4  and  N3_6 
REMARK    2  A    between atoms: C1_8  and  C2_10 
REMARK    3  A    between atoms: C2_10  and  C3_11 
ROOT
HETATM    1  N3  UNL     1     -43.461   7.780 -27.763  1.00  0.00    -0.277 N 
ATOM      2  H3  UNL     1     -42.566   7.620 -27.301  1.00  0.00     0.189 HD
HETATM    3  C1  UNL     1     -43.753   6.989 -28.704  1.00  0.00     0.113 C 
HETATM    4  N4  UNL     1     -42.872   5.948 -29.080  1.00  0.00    -0.086 NA
ENDROOT
BRANCH   3   5
HETATM    5  C2  UNL     1     -45.039   7.157 -29.425  1.00  0.00     0.116 C 
BRANCH   5   6
HETATM    6  C3  UNL     1     -45.244   6.118 -30.461  1.00  0.00    -0.018 A 
HETATM    7  C4  UNL     1     -44.760   6.162 -31.751  1.00  0.00     0.116 A 
HETATM    8  N5  UNL     1     -45.169   5.043 -32.337  1.00  0.00    -0.312 N 
HETATM    9  N6  UNL     1     -45.873   4.311 -31.498  1.00  0.00    -0.312 N 
ATOM     10  H5  UNL     1     -44.967   4.786 -33.304  1.00  0.00     0.186 HD
HETATM   11  C5  UNL     1     -45.936   4.953 -30.328  1.00  0.00     0.116 A 
ATOM     12  H6  UNL     1     -46.297   3.407 -31.707  1.00  0.00     0.186 HD
ENDBRANCH   5   6
ENDBRANCH   3   5
BRANCH   1  13
HETATM   13  N2  UNL     1     -44.207   8.828 -27.288  1.00  0.00    -0.248 N 
HETATM   14  N1  UNL     1     -44.428   9.117 -26.088  1.00  0.00    -0.331 N 
ATOM     15  H12 UNL     1     -43.998   8.494 -25.404  1.00  0.00     0.178 HD
ATOM     16  H11 UNL     1     -44.982   9.896 -25.735  1.00  0.00     0.178 HD
ATOM     17  H2  UNL     1     -44.628   9.440 -27.987  1.00  0.00     0.207 HD
ENDBRANCH   1  13
TORSDOF 3
ENDMDL
