MODEL 1
REMARK VINA RESULT: -9.683967173      0.000      0.000
REMARK  6 active torsions:
REMARK  status: ('A' for Active; 'I' for Inactive)
REMARK    1  A    between atoms: C2_2  and  N1_3 
REMARK    2  A    between atoms: N1_3  and  C3_4 
REMARK    3  A    between atoms: N1_3  and  C25_30 
REMARK    4  A    between atoms: C3_4  and  C4_5 
REMARK    5  A    between atoms: C5_6  and  C6_7 
REMARK    6  A    between atoms: C14_15  and  C15_16 
ROOT
HETATM    1  C15 UNL     1      15.609  25.716  14.116  1.00  0.00    -0.026 A 
HETATM    2  C16 UNL     1      15.064  26.723  13.361  1.00  0.00     0.014 A 
HETATM    3  C17 UNL     1      14.681  27.934  13.963  1.00  0.00     0.023 A 
HETATM    4  C18 UNL     1      14.855  28.106  15.325  1.00  0.00     0.044 A 
HETATM    5  C19 UNL     1      14.470  29.338  15.976  1.00  0.00     0.099 C 
HETATM    6  N2  UNL     1      14.148  30.329  16.497  1.00  0.00    -0.191 NA
HETATM    7  C20 UNL     1      15.407  27.088  16.095  1.00  0.00     0.023 A 
HETATM    8  C21 UNL     1      15.777  25.897  15.461  1.00  0.00     0.014 A 
ENDROOT
BRANCH   1   9
HETATM    9  C14 UNL     1      15.994  24.474  13.457  1.00  0.00    -0.025 A 
HETATM   10  C13 UNL     1      15.512  23.260  13.824  1.00  0.00     0.026 A 
HETATM   11  C12 UNL     1      15.869  22.060  13.210  1.00  0.00    -0.002 A 
HETATM   12  C10 UNL     1      15.439  20.719  13.495  1.00  0.00    -0.001 A 
HETATM   13  C24 UNL     1      16.757  22.171  12.185  1.00  0.00     0.075 A 
HETATM   14  C9  UNL     1      15.972  19.742  12.710  1.00  0.00     0.075 A 
HETATM   15  C11 UNL     1      14.538  20.281  14.484  1.00  0.00     0.034 A 
HETATM   16  C8  UNL     1      15.675  18.393  12.840  1.00  0.00     0.026 A 
HETATM   17  S1  UNL     1      17.051  20.576  11.579  1.00  0.00     0.208 S 
HETATM   18  C7  UNL     1      14.788  18.042  13.825  1.00  0.00     0.022 A 
HETATM   19  C6  UNL     1      14.205  18.968  14.661  1.00  0.00     0.018 A 
HETATM   20  O1  UNL     1      18.479  20.129  11.815  1.00  0.00    -0.217 OA
HETATM   21  O2  UNL     1      16.617  20.373  10.174  1.00  0.00    -0.217 OA
HETATM   22  C23 UNL     1      17.256  23.383  11.796  1.00  0.00     0.025 A 
HETATM   23  C22 UNL     1      16.894  24.559  12.413  1.00  0.00     0.014 A 
BRANCH  19  24
HETATM   24  C5  UNL     1      13.267  18.557  15.696  1.00  0.00    -0.065 C 
HETATM   25  C4  UNL     1      12.502  18.200  16.559  1.00  0.00    -0.081 C 
BRANCH  25  26
HETATM   26  C3  UNL     1      11.578  17.738  17.599  1.00  0.00     0.218 C 
BRANCH  26  27
HETATM   27  N1  UNL     1      10.225  18.127  17.369  1.00  0.00    -0.357 N 
BRANCH  27  28
HETATM   28  C2  UNL     1       9.289  17.365  16.598  1.00  0.00     0.121 C 
HETATM   29  C1  UNL     1       8.710  16.190  17.321  1.00  0.00     0.026 C 
ENDBRANCH  27  28
BRANCH  27  30
HETATM   30  C25 UNL     1       9.758  19.353  17.937  1.00  0.00     0.103 A 
HETATM   31  C26 UNL     1       9.183  20.241  17.032  1.00  0.00     0.048 A 
HETATM   32  C27 UNL     1       8.695  21.454  17.456  1.00  0.00     0.005 A 
HETATM   33  C28 UNL     1       8.804  21.740  18.797  1.00  0.00     0.017 A 
HETATM   34  C29 UNL     1       9.388  20.823  19.677  1.00  0.00     0.089 A 
HETATM   35  N3  UNL     1       9.854  19.647  19.224  1.00  0.00    -0.352 N 
ATOM     36  H3  UNL     1      10.280  18.982  19.871  1.00  0.00     0.166 HD
ENDBRANCH  27  30
ENDBRANCH  26  27
ENDBRANCH  25  26
ENDBRANCH  19  24
ENDBRANCH   1   9
TORSDOF 6
ENDMDL
MODEL 2
REMARK VINA RESULT: -9.612762901      0.922      1.371
REMARK  6 active torsions:
REMARK  status: ('A' for Active; 'I' for Inactive)
REMARK    1  A    between atoms: C2_2  and  N1_3 
REMARK    2  A    between atoms: N1_3  and  C3_4 
REMARK    3  A    between atoms: N1_3  and  C25_30 
REMARK    4  A    between atoms: C3_4  and  C4_5 
REMARK    5  A    between atoms: C5_6  and  C6_7 
REMARK    6  A    between atoms: C14_15  and  C15_16 
ROOT
HETATM    1  C15 UNL     1      15.727  25.873  14.133  1.00  0.00    -0.026 A 
HETATM    2  C16 UNL     1      15.168  26.855  13.355  1.00  0.00     0.014 A 
HETATM    3  C17 UNL     1      14.733  28.059  13.935  1.00  0.00     0.023 A 
HETATM    4  C18 UNL     1      14.869  28.249  15.299  1.00  0.00     0.044 A 
HETATM    5  C19 UNL     1      14.431  29.474  15.928  1.00  0.00     0.099 C 
HETATM    6  N2  UNL     1      14.065  30.460  16.431  1.00  0.00    -0.191 NA
HETATM    7  C20 UNL     1      15.434  27.256  16.092  1.00  0.00     0.023 A 
HETATM    8  C21 UNL     1      15.857  26.072  15.480  1.00  0.00     0.014 A 
ENDROOT
BRANCH   1   9
HETATM    9  C14 UNL     1      16.166  24.638  13.496  1.00  0.00    -0.025 A 
HETATM   10  C13 UNL     1      15.619  23.426  13.772  1.00  0.00     0.026 A 
HETATM   11  C12 UNL     1      16.026  22.232  13.177  1.00  0.00    -0.002 A 
HETATM   12  C10 UNL     1      15.538  20.896  13.374  1.00  0.00    -0.001 A 
HETATM   13  C24 UNL     1      17.036  22.347  12.272  1.00  0.00     0.075 A 
HETATM   14  C9  UNL     1      16.145  19.924  12.637  1.00  0.00     0.075 A 
HETATM   15  C11 UNL     1      14.513  20.456  14.233  1.00  0.00     0.034 A 
HETATM   16  C8  UNL     1      15.808  18.580  12.696  1.00  0.00     0.026 A 
HETATM   17  S1  UNL     1      17.371  20.759  11.668  1.00  0.00     0.208 S 
HETATM   18  C7  UNL     1      14.800  18.227  13.555  1.00  0.00     0.022 A 
HETATM   19  C6  UNL     1      14.136  19.148  14.335  1.00  0.00     0.018 A 
HETATM   20  O1  UNL     1      18.750  20.276  12.067  1.00  0.00    -0.217 OA
HETATM   21  O2  UNL     1      17.111  20.596  10.216  1.00  0.00    -0.217 OA
HETATM   22  C23 UNL     1      17.602  23.556  11.977  1.00  0.00     0.025 A 
HETATM   23  C22 UNL     1      17.190  24.725  12.574  1.00  0.00     0.014 A 
BRANCH  19  24
HETATM   24  C5  UNL     1      13.069  18.735  15.237  1.00  0.00    -0.065 C 
HETATM   25  C4  UNL     1      12.171  18.406  15.974  1.00  0.00    -0.081 C 
BRANCH  25  26
HETATM   26  C3  UNL     1      11.071  18.033  16.867  1.00  0.00     0.218 C 
BRANCH  26  27
HETATM   27  N1  UNL     1      10.975  18.860  18.025  1.00  0.00    -0.357 N 
BRANCH  27  28
HETATM   28  C2  UNL     1      11.404  18.466  19.333  1.00  0.00     0.121 C 
HETATM   29  C1  UNL     1      12.886  18.514  19.534  1.00  0.00     0.026 C 
ENDBRANCH  27  28
BRANCH  27  30
HETATM   30  C25 UNL     1      10.415  20.169  17.888  1.00  0.00     0.103 A 
HETATM   31  C26 UNL     1       9.032  20.236  18.028  1.00  0.00     0.048 A 
HETATM   32  C27 UNL     1       8.375  21.439  17.918  1.00  0.00     0.005 A 
HETATM   33  C28 UNL     1       9.144  22.552  17.668  1.00  0.00     0.017 A 
HETATM   34  C29 UNL     1      10.532  22.446  17.534  1.00  0.00     0.089 A 
HETATM   35  N3  UNL     1      11.137  21.252  17.647  1.00  0.00    -0.352 N 
ATOM     36  H3  UNL     1      12.150  21.180  17.548  1.00  0.00     0.166 HD
ENDBRANCH  27  30
ENDBRANCH  26  27
ENDBRANCH  25  26
ENDBRANCH  19  24
ENDBRANCH   1   9
TORSDOF 6
ENDMDL
MODEL 3
REMARK VINA RESULT: -9.405702632      4.426      6.697
REMARK  6 active torsions:
REMARK  status: ('A' for Active; 'I' for Inactive)
REMARK    1  A    between atoms: C2_2  and  N1_3 
REMARK    2  A    between atoms: N1_3  and  C3_4 
REMARK    3  A    between atoms: N1_3  and  C25_30 
REMARK    4  A    between atoms: C3_4  and  C4_5 
REMARK    5  A    between atoms: C5_6  and  C6_7 
REMARK    6  A    between atoms: C14_15  and  C15_16 
ROOT
HETATM    1  C15 UNL     1      17.734  22.377  12.407  1.00  0.00    -0.026 A 
HETATM    2  C16 UNL     1      17.227  21.404  11.583  1.00  0.00     0.014 A 
HETATM    3  C17 UNL     1      18.083  20.659  10.754  1.00  0.00     0.023 A 
HETATM    4  C18 UNL     1      19.444  20.912  10.773  1.00  0.00     0.044 A 
HETATM    5  C19 UNL     1      20.352  20.165   9.932  1.00  0.00     0.099 C 
HETATM    6  N2  UNL     1      21.078  19.566   9.244  1.00  0.00    -0.191 NA
HETATM    7  C20 UNL     1      19.962  21.897  11.605  1.00  0.00     0.023 A 
HETATM    8  C21 UNL     1      19.080  22.619  12.416  1.00  0.00     0.014 A 
ENDROOT
BRANCH   1   9
HETATM    9  C14 UNL     1      16.815  23.131  13.251  1.00  0.00    -0.025 A 
HETATM   10  C13 UNL     1      15.660  22.610  13.737  1.00  0.00     0.026 A 
HETATM   11  C12 UNL     1      14.765  23.313  14.544  1.00  0.00    -0.002 A 
HETATM   12  C10 UNL     1      13.521  22.887  15.121  1.00  0.00    -0.001 A 
HETATM   13  C24 UNL     1      15.122  24.595  14.830  1.00  0.00     0.075 A 
HETATM   14  C9  UNL     1      12.864  23.815  15.873  1.00  0.00     0.075 A 
HETATM   15  C11 UNL     1      12.887  21.635  15.011  1.00  0.00     0.034 A 
HETATM   16  C8  UNL     1      11.651  23.584  16.505  1.00  0.00     0.026 A 
HETATM   17  S1  UNL     1      13.879  25.266  15.832  1.00  0.00     0.208 S 
HETATM   18  C7  UNL     1      11.095  22.340  16.353  1.00  0.00     0.022 A 
HETATM   19  C6  UNL     1      11.694  21.347  15.610  1.00  0.00     0.018 A 
HETATM   20  O1  UNL     1      13.133  26.389  15.142  1.00  0.00    -0.217 OA
HETATM   21  O2  UNL     1      14.337  25.640  17.194  1.00  0.00    -0.217 OA
HETATM   22  C23 UNL     1      16.281  25.141  14.352  1.00  0.00     0.025 A 
HETATM   23  C22 UNL     1      17.153  24.434  13.557  1.00  0.00     0.014 A 
BRANCH  19  24
HETATM   24  C5  UNL     1      11.073  20.037  15.470  1.00  0.00    -0.065 C 
HETATM   25  C4  UNL     1      10.541  18.961  15.345  1.00  0.00    -0.081 C 
BRANCH  25  26
HETATM   26  C3  UNL     1       9.870  17.666  15.201  1.00  0.00     0.218 C 
BRANCH  26  27
HETATM   27  N1  UNL     1      10.689  16.666  14.600  1.00  0.00    -0.357 N 
BRANCH  27  28
HETATM   28  C2  UNL     1      12.089  16.508  14.860  1.00  0.00     0.121 C 
HETATM   29  C1  UNL     1      12.400  15.867  16.176  1.00  0.00     0.026 C 
ENDBRANCH  27  28
BRANCH  27  30
HETATM   30  C25 UNL     1      10.091  15.754  13.675  1.00  0.00     0.103 A 
HETATM   31  C26 UNL     1      10.982  15.114  12.818  1.00  0.00     0.048 A 
HETATM   32  C27 UNL     1      10.529  14.213  11.883  1.00  0.00     0.005 A 
HETATM   33  C28 UNL     1       9.174  13.982  11.840  1.00  0.00     0.017 A 
HETATM   34  C29 UNL     1       8.308  14.643  12.718  1.00  0.00     0.089 A 
HETATM   35  N3  UNL     1       8.790  15.517  13.618  1.00  0.00    -0.352 N 
ATOM     36  H3  UNL     1       8.154  15.998  14.255  1.00  0.00     0.166 HD
ENDBRANCH  27  30
ENDBRANCH  26  27
ENDBRANCH  25  26
ENDBRANCH  19  24
ENDBRANCH   1   9
TORSDOF 6
ENDMDL
MODEL 4
REMARK VINA RESULT: -9.311728082      3.939      5.877
REMARK  6 active torsions:
REMARK  status: ('A' for Active; 'I' for Inactive)
REMARK    1  A    between atoms: C2_2  and  N1_3 
REMARK    2  A    between atoms: N1_3  and  C3_4 
REMARK    3  A    between atoms: N1_3  and  C25_30 
REMARK    4  A    between atoms: C3_4  and  C4_5 
REMARK    5  A    between atoms: C5_6  and  C6_7 
REMARK    6  A    between atoms: C14_15  and  C15_16 
ROOT
HETATM    1  C15 UNL     1      18.499  22.331  11.963  1.00  0.00    -0.026 A 
HETATM    2  C16 UNL     1      17.892  21.469  11.085  1.00  0.00     0.014 A 
HETATM    3  C17 UNL     1      18.659  20.556  10.341  1.00  0.00     0.023 A 
HETATM    4  C18 UNL     1      20.034  20.532  10.497  1.00  0.00     0.044 A 
HETATM    5  C19 UNL     1      20.854  19.608   9.746  1.00  0.00     0.099 C 
HETATM    6  N2  UNL     1      21.510  18.868   9.129  1.00  0.00    -0.191 NA
HETATM    7  C20 UNL     1      20.654  21.404  11.385  1.00  0.00     0.023 A 
HETATM    8  C21 UNL     1      19.858  22.298  12.109  1.00  0.00     0.014 A 
ENDROOT
BRANCH   1   9
HETATM    9  C14 UNL     1      17.670  23.263  12.717  1.00  0.00    -0.025 A 
HETATM   10  C13 UNL     1      16.471  22.922  13.254  1.00  0.00     0.026 A 
HETATM   11  C12 UNL     1      15.661  23.798  13.975  1.00  0.00    -0.002 A 
HETATM   12  C10 UNL     1      14.384  23.569  14.593  1.00  0.00    -0.001 A 
HETATM   13  C24 UNL     1      16.151  25.059  14.120  1.00  0.00     0.075 A 
HETATM   14  C9  UNL     1      13.833  24.637  15.236  1.00  0.00     0.075 A 
HETATM   15  C11 UNL     1      13.624  22.385  14.619  1.00  0.00     0.034 A 
HETATM   16  C8  UNL     1      12.609  24.603  15.886  1.00  0.00     0.026 A 
HETATM   17  S1  UNL     1      14.993  25.961  15.039  1.00  0.00     0.208 S 
HETATM   18  C7  UNL     1      11.926  23.415  15.870  1.00  0.00     0.022 A 
HETATM   19  C6  UNL     1      12.413  22.290  15.243  1.00  0.00     0.018 A 
HETATM   20  O1  UNL     1      14.361  27.073  14.227  1.00  0.00    -0.217 OA
HETATM   21  O2  UNL     1      15.498  26.434  16.352  1.00  0.00    -0.217 OA
HETATM   22  C23 UNL     1      17.355  25.427  13.588  1.00  0.00     0.025 A 
HETATM   23  C22 UNL     1      18.143  24.550  12.878  1.00  0.00     0.014 A 
BRANCH  19  24
HETATM   24  C5  UNL     1      11.658  21.044  15.246  1.00  0.00    -0.065 C 
HETATM   25  C4  UNL     1      11.032  20.013  15.270  1.00  0.00    -0.081 C 
BRANCH  25  26
HETATM   26  C3  UNL     1      10.284  18.753  15.324  1.00  0.00     0.218 C 
BRANCH  26  27
HETATM   27  N1  UNL     1       9.725  18.479  16.608  1.00  0.00    -0.357 N 
BRANCH  27  28
HETATM   28  C2  UNL     1       9.360  17.172  17.064  1.00  0.00     0.121 C 
HETATM   29  C1  UNL     1       8.638  16.345  16.047  1.00  0.00     0.026 C 
ENDBRANCH  27  28
BRANCH  27  30
HETATM   30  C25 UNL     1       9.509  19.569  17.508  1.00  0.00     0.103 A 
HETATM   31  C26 UNL     1       8.677  20.576  17.025  1.00  0.00     0.048 A 
HETATM   32  C27 UNL     1       8.391  21.677  17.797  1.00  0.00     0.005 A 
HETATM   33  C28 UNL     1       8.960  21.731  19.048  1.00  0.00     0.017 A 
HETATM   34  C29 UNL     1       9.791  20.700  19.499  1.00  0.00     0.089 A 
HETATM   35  N3  UNL     1      10.047  19.640  18.715  1.00  0.00    -0.352 N 
ATOM     36  H3  UNL     1      10.654  18.891  19.049  1.00  0.00     0.166 HD
ENDBRANCH  27  30
ENDBRANCH  26  27
ENDBRANCH  25  26
ENDBRANCH  19  24
ENDBRANCH   1   9
TORSDOF 6
ENDMDL
MODEL 5
REMARK VINA RESULT: -9.263576141      1.142      1.880
REMARK  6 active torsions:
REMARK  status: ('A' for Active; 'I' for Inactive)
REMARK    1  A    between atoms: C2_2  and  N1_3 
REMARK    2  A    between atoms: N1_3  and  C3_4 
REMARK    3  A    between atoms: N1_3  and  C25_30 
REMARK    4  A    between atoms: C3_4  and  C4_5 
REMARK    5  A    between atoms: C5_6  and  C6_7 
REMARK    6  A    between atoms: C14_15  and  C15_16 
ROOT
HETATM    1  C15 UNL     1      15.571  25.752  14.111  1.00  0.00    -0.026 A 
HETATM    2  C16 UNL     1      15.752  25.897  15.463  1.00  0.00     0.014 A 
HETATM    3  C17 UNL     1      15.393  27.096  16.103  1.00  0.00     0.023 A 
HETATM    4  C18 UNL     1      14.854  28.132  15.360  1.00  0.00     0.044 A 
HETATM    5  C19 UNL     1      14.474  29.379  15.986  1.00  0.00     0.099 C 
HETATM    6  N2  UNL     1      14.181  30.386  16.495  1.00  0.00    -0.191 NA
HETATM    7  C20 UNL     1      14.668  27.990  13.989  1.00  0.00     0.023 A 
HETATM    8  C21 UNL     1      15.037  26.782  13.387  1.00  0.00     0.014 A 
ENDROOT
BRANCH   1   9
HETATM    9  C14 UNL     1      15.956  24.494  13.483  1.00  0.00    -0.025 A 
HETATM   10  C13 UNL     1      15.437  23.294  13.846  1.00  0.00     0.026 A 
HETATM   11  C12 UNL     1      15.793  22.079  13.261  1.00  0.00    -0.002 A 
HETATM   12  C10 UNL     1      15.326  20.751  13.546  1.00  0.00    -0.001 A 
HETATM   13  C24 UNL     1      16.723  22.160  12.271  1.00  0.00     0.075 A 
HETATM   14  C9  UNL     1      15.870  19.754  12.795  1.00  0.00     0.075 A 
HETATM   15  C11 UNL     1      14.378  20.344  14.503  1.00  0.00     0.034 A 
HETATM   16  C8  UNL     1      15.541  18.413  12.930  1.00  0.00     0.026 A 
HETATM   17  S1  UNL     1      17.008  20.551  11.697  1.00  0.00     0.208 S 
HETATM   18  C7  UNL     1      14.609  18.092  13.883  1.00  0.00     0.022 A 
HETATM   19  C6  UNL     1      14.012  19.040  14.683  1.00  0.00     0.018 A 
HETATM   20  O1  UNL     1      18.417  20.081  11.995  1.00  0.00    -0.217 OA
HETATM   21  O2  UNL     1      16.626  20.339  10.279  1.00  0.00    -0.217 OA
HETATM   22  C23 UNL     1      17.261  23.357  11.887  1.00  0.00     0.025 A 
HETATM   23  C22 UNL     1      16.899  24.548  12.475  1.00  0.00     0.014 A 
BRANCH  19  24
HETATM   24  C5  UNL     1      13.026  18.661  15.686  1.00  0.00    -0.065 C 
HETATM   25  C4  UNL     1      12.224  18.334  16.525  1.00  0.00    -0.081 C 
BRANCH  25  26
HETATM   26  C3  UNL     1      11.258  17.909  17.543  1.00  0.00     0.218 C 
BRANCH  26  27
HETATM   27  N1  UNL     1      11.552  18.406  18.847  1.00  0.00    -0.357 N 
BRANCH  27  28
HETATM   28  C2  UNL     1      12.876  18.565  19.369  1.00  0.00     0.121 C 
HETATM   29  C1  UNL     1      13.457  17.320  19.961  1.00  0.00     0.026 C 
ENDBRANCH  27  28
BRANCH  27  30
HETATM   30  C25 UNL     1      10.465  18.773  19.702  1.00  0.00     0.103 A 
HETATM   31  C26 UNL     1       9.975  20.062  19.510  1.00  0.00     0.048 A 
HETATM   32  C27 UNL     1       8.930  20.532  20.270  1.00  0.00     0.005 A 
HETATM   33  C28 UNL     1       8.406  19.679  21.213  1.00  0.00     0.017 A 
HETATM   34  C29 UNL     1       8.925  18.391  21.377  1.00  0.00     0.089 A 
HETATM   35  N3  UNL     1       9.947  17.967  20.615  1.00  0.00    -0.352 N 
ATOM     36  H3  UNL     1      10.323  17.027  20.739  1.00  0.00     0.166 HD
ENDBRANCH  27  30
ENDBRANCH  26  27
ENDBRANCH  25  26
ENDBRANCH  19  24
ENDBRANCH   1   9
TORSDOF 6
ENDMDL
