MODEL 1
REMARK VINA RESULT: -7.529807594      0.000      0.000
REMARK  9 active torsions:
REMARK  status: ('A' for Active; 'I' for Inactive)
REMARK    1  A    between atoms: C2_2  and  C3_3 
REMARK    2  A    between atoms: C6_7  and  O1_8 
REMARK    3  A    between atoms: O1_8  and  C7_9 
REMARK    4  A    between atoms: C7_9  and  C8_10 
REMARK    5  A    between atoms: C8_10  and  C9_11 
REMARK    6  A    between atoms: C9_11  and  O2_12 
REMARK    7  A    between atoms: C9_11  and  C10_14 
REMARK    8  A    between atoms: C10_14  and  N1_15 
REMARK    9  A    between atoms: C19_24  and  O3_25 
ROOT
HETATM    1  N1  UNL     1     -36.898  12.658 -48.829  1.00  0.00     0.091 N 
HETATM    2  C11 UNL     1     -36.102  12.274 -47.719  1.00  0.00     0.273 C 
HETATM    3  C12 UNL     1     -34.762  11.680 -48.121  1.00  0.00     0.044 C 
HETATM    4  C13 UNL     1     -35.014  10.485 -49.018  1.00  0.00    -0.009 C 
HETATM    5  C14 UNL     1     -35.562   9.332 -48.176  1.00  0.00     0.015 C 
HETATM    6  C15 UNL     1     -34.679   9.039 -47.011  1.00  0.00     0.006 C 
HETATM    7  C16 UNL     1     -33.226   8.938 -47.361  1.00  0.00     0.039 C 
HETATM    8  C17 UNL     1     -32.931   9.235 -48.787  1.00  0.00    -0.048 A 
HETATM    9  C18 UNL     1     -31.758   8.746 -49.313  1.00  0.00     0.044 A 
HETATM   10  C19 UNL     1     -31.350   8.937 -50.614  1.00  0.00     0.068 A 
HETATM   11  C21 UNL     1     -32.181   9.670 -51.428  1.00  0.00     0.037 A 
HETATM   12  C22 UNL     1     -33.376  10.177 -50.914  1.00  0.00     0.011 A 
HETATM   13  C23 UNL     1     -33.757   9.968 -49.610  1.00  0.00    -0.043 A 
HETATM   14  C24 UNL     1     -35.999  10.803 -50.088  1.00  0.00     0.044 C 
HETATM   15  C25 UNL     1     -37.267  11.436 -49.534  1.00  0.00     0.273 C 
ENDROOT
BRANCH   1  16
HETATM   16  C10 UNL     1     -36.423  13.671 -49.689  1.00  0.00     0.303 C 
BRANCH  16  17
HETATM   17  C9  UNL     1     -37.379  14.805 -49.907  1.00  0.00     0.148 C 
BRANCH  17  18
HETATM   18  C8  UNL     1     -36.811  15.852 -50.865  1.00  0.00     0.060 C 
BRANCH  18  19
HETATM   19  C7  UNL     1     -35.356  15.617 -51.056  1.00  0.00     0.178 C 
BRANCH  19  20
HETATM   20  O1  UNL     1     -34.923  15.421 -52.357  1.00  0.00    -0.348 OA
BRANCH  20  21
HETATM   21  C6  UNL     1     -34.162  14.421 -52.883  1.00  0.00     0.103 A 
HETATM   22  C5  UNL     1     -34.610  13.230 -53.362  1.00  0.00     0.046 A 
HETATM   23  C4  UNL     1     -33.765  12.247 -53.895  1.00  0.00     0.029 A 
HETATM   24 BR1  UNL     1     -36.477  12.830 -53.282  1.00  0.00    -0.048 Br
HETATM   25  C3  UNL     1     -32.424  12.507 -53.930  1.00  0.00    -0.056 A 
HETATM   26  C27 UNL     1     -31.922  13.694 -53.459  1.00  0.00     0.029 A 
HETATM   27  C26 UNL     1     -32.778  14.632 -52.945  1.00  0.00     0.046 A 
HETATM   28 BR2  UNL     1     -32.056  16.267 -52.299  1.00  0.00    -0.048 Br
BRANCH  25  29
HETATM   29  C2  UNL     1     -31.462  11.494 -54.485  1.00  0.00     0.034 C 
HETATM   30  C1  UNL     1     -30.390  12.225 -55.266  1.00  0.00     0.010 C 
ENDBRANCH  25  29
ENDBRANCH  20  21
ENDBRANCH  19  20
ENDBRANCH  18  19
ENDBRANCH  17  18
BRANCH  17  31
HETATM   31  O2  UNL     1     -38.627  14.349 -50.275  1.00  0.00    -0.394 OA
ATOM     32  H2  UNL     1     -38.785  14.399 -51.210  1.00  0.00     0.210 HD
ENDBRANCH  17  31
ENDBRANCH  16  17
ENDBRANCH   1  16
BRANCH  10  33
HETATM   33  O3  UNL     1     -30.172   8.447 -51.148  1.00  0.00    -0.356 OA
HETATM   34  C20 UNL     1     -30.201   7.801 -52.395  1.00  0.00     0.210 C 
ENDBRANCH  10  33
TORSDOF 9
ENDMDL
MODEL 2
REMARK VINA RESULT: -7.522964190      1.015      2.045
REMARK  9 active torsions:
REMARK  status: ('A' for Active; 'I' for Inactive)
REMARK    1  A    between atoms: C2_2  and  C3_3 
REMARK    2  A    between atoms: C6_7  and  O1_8 
REMARK    3  A    between atoms: O1_8  and  C7_9 
REMARK    4  A    between atoms: C7_9  and  C8_10 
REMARK    5  A    between atoms: C8_10  and  C9_11 
REMARK    6  A    between atoms: C9_11  and  O2_12 
REMARK    7  A    between atoms: C9_11  and  C10_14 
REMARK    8  A    between atoms: C10_14  and  N1_15 
REMARK    9  A    between atoms: C19_24  and  O3_25 
ROOT
HETATM    1  N1  UNL     1     -35.878  11.583 -48.566  1.00  0.00     0.091 N 
HETATM    2  C11 UNL     1     -34.814  11.404 -47.645  1.00  0.00     0.273 C 
HETATM    3  C12 UNL     1     -33.544  10.878 -48.293  1.00  0.00     0.044 C 
HETATM    4  C13 UNL     1     -33.861   9.566 -48.982  1.00  0.00    -0.009 C 
HETATM    5  C14 UNL     1     -34.075   8.483 -47.924  1.00  0.00     0.015 C 
HETATM    6  C15 UNL     1     -32.924   8.407 -46.979  1.00  0.00     0.006 C 
HETATM    7  C16 UNL     1     -31.587   8.386 -47.653  1.00  0.00     0.039 C 
HETATM    8  C17 UNL     1     -31.656   8.531 -49.130  1.00  0.00    -0.048 A 
HETATM    9  C18 UNL     1     -30.588   8.080 -49.868  1.00  0.00     0.044 A 
HETATM   10  C19 UNL     1     -30.508   8.145 -51.241  1.00  0.00     0.068 A 
HETATM   11  C21 UNL     1     -31.576   8.703 -51.903  1.00  0.00     0.037 A 
HETATM   12  C22 UNL     1     -32.672   9.167 -51.172  1.00  0.00     0.011 A 
HETATM   13  C23 UNL     1     -32.723   9.088 -49.801  1.00  0.00    -0.043 A 
HETATM   14  C24 UNL     1     -35.092   9.670 -49.813  1.00  0.00     0.044 C 
HETATM   15  C25 UNL     1     -36.262  10.258 -49.039  1.00  0.00     0.273 C 
ENDROOT
BRANCH   1  16
HETATM   16  C10 UNL     1     -35.724  12.520 -49.610  1.00  0.00     0.303 C 
BRANCH  16  17
HETATM   17  C9  UNL     1     -36.468  13.806 -49.411  1.00  0.00     0.148 C 
BRANCH  17  18
HETATM   18  C8  UNL     1     -36.973  14.381 -50.734  1.00  0.00     0.060 C 
BRANCH  18  19
HETATM   19  C7  UNL     1     -35.910  15.214 -51.355  1.00  0.00     0.178 C 
BRANCH  19  20
HETATM   20  O1  UNL     1     -35.498  14.849 -52.626  1.00  0.00    -0.348 OA
BRANCH  20  21
HETATM   21  C6  UNL     1     -34.441  14.082 -53.016  1.00  0.00     0.103 A 
HETATM   22  C5  UNL     1     -33.132  14.446 -53.009  1.00  0.00     0.046 A 
HETATM   23  C4  UNL     1     -32.094  13.598 -53.422  1.00  0.00     0.029 A 
HETATM   24 BR1  UNL     1     -32.650  16.209 -52.450  1.00  0.00    -0.048 Br
HETATM   25  C3  UNL     1     -32.426  12.345 -53.853  1.00  0.00    -0.056 A 
HETATM   26  C27 UNL     1     -33.734  11.930 -53.880  1.00  0.00     0.029 A 
HETATM   27  C26 UNL     1     -34.721  12.786 -53.468  1.00  0.00     0.046 A 
HETATM   28 BR2  UNL     1     -36.524  12.186 -53.516  1.00  0.00    -0.048 Br
BRANCH  25  29
HETATM   29  C2  UNL     1     -31.363  11.388 -54.314  1.00  0.00     0.034 C 
HETATM   30  C1  UNL     1     -30.425  12.122 -55.249  1.00  0.00     0.010 C 
ENDBRANCH  25  29
ENDBRANCH  20  21
ENDBRANCH  19  20
ENDBRANCH  18  19
ENDBRANCH  17  18
BRANCH  17  31
HETATM   31  O2  UNL     1     -37.457  13.674 -48.461  1.00  0.00    -0.394 OA
ATOM     32  H2  UNL     1     -37.141  13.330 -47.633  1.00  0.00     0.210 HD
ENDBRANCH  17  31
ENDBRANCH  16  17
ENDBRANCH   1  16
BRANCH  10  33
HETATM   33  O3  UNL     1     -29.435   7.693 -51.989  1.00  0.00    -0.356 OA
HETATM   34  C20 UNL     1     -29.557   7.620 -53.386  1.00  0.00     0.210 C 
ENDBRANCH  10  33
TORSDOF 9
ENDMDL
MODEL 3
REMARK VINA RESULT: -7.494022766      2.314      4.719
REMARK  9 active torsions:
REMARK  status: ('A' for Active; 'I' for Inactive)
REMARK    1  A    between atoms: C2_2  and  C3_3 
REMARK    2  A    between atoms: C6_7  and  O1_8 
REMARK    3  A    between atoms: O1_8  and  C7_9 
REMARK    4  A    between atoms: C7_9  and  C8_10 
REMARK    5  A    between atoms: C8_10  and  C9_11 
REMARK    6  A    between atoms: C9_11  and  O2_12 
REMARK    7  A    between atoms: C9_11  and  C10_14 
REMARK    8  A    between atoms: C10_14  and  N1_15 
REMARK    9  A    between atoms: C19_24  and  O3_25 
ROOT
HETATM    1  N1  UNL     1     -34.520  15.421 -52.209  1.00  0.00     0.091 N 
HETATM    2  C11 UNL     1     -34.516  14.558 -53.335  1.00  0.00     0.273 C 
HETATM    3  C12 UNL     1     -34.151  13.124 -52.988  1.00  0.00     0.044 C 
HETATM    4  C13 UNL     1     -32.789  13.119 -52.325  1.00  0.00    -0.009 C 
HETATM    5  C14 UNL     1     -31.718  13.408 -53.377  1.00  0.00     0.015 C 
HETATM    6  C15 UNL     1     -31.828  12.479 -54.538  1.00  0.00     0.006 C 
HETATM    7  C16 UNL     1     -31.971  11.040 -54.151  1.00  0.00     0.039 C 
HETATM    8  C17 UNL     1     -32.062  10.818 -52.684  1.00  0.00    -0.048 A 
HETATM    9  C18 UNL     1     -31.741   9.570 -52.205  1.00  0.00     0.044 A 
HETATM   10  C19 UNL     1     -31.777   9.216 -50.875  1.00  0.00     0.068 A 
HETATM   11  C21 UNL     1     -32.163  10.186 -49.979  1.00  0.00     0.037 A 
HETATM   12  C22 UNL     1     -32.494  11.460 -50.447  1.00  0.00     0.011 A 
HETATM   13  C23 UNL     1     -32.448  11.784 -51.781  1.00  0.00    -0.043 A 
HETATM   14  C24 UNL     1     -32.698  14.153 -51.258  1.00  0.00     0.044 C 
HETATM   15  C25 UNL     1     -33.142  15.525 -51.744  1.00  0.00     0.273 C 
ENDROOT
BRANCH   1  16
HETATM   16  C10 UNL     1     -35.439  15.175 -51.166  1.00  0.00     0.303 C 
BRANCH  16  17
HETATM   17  C9  UNL     1     -36.829  15.671 -51.428  1.00  0.00     0.148 C 
BRANCH  17  18
HETATM   18  C8  UNL     1     -37.777  15.340 -50.276  1.00  0.00     0.060 C 
BRANCH  18  19
HETATM   19  C7  UNL     1     -37.251  14.177 -49.514  1.00  0.00     0.178 C 
BRANCH  19  20
HETATM   20  O1  UNL     1     -37.746  12.931 -49.861  1.00  0.00    -0.348 OA
BRANCH  20  21
HETATM   21  C6  UNL     1     -37.234  11.993 -50.707  1.00  0.00     0.103 A 
HETATM   22  C5  UNL     1     -37.587  11.796 -52.005  1.00  0.00     0.046 A 
HETATM   23  C4  UNL     1     -37.012  10.810 -52.819  1.00  0.00     0.029 A 
HETATM   24 BR1  UNL     1     -38.962  12.876 -52.778  1.00  0.00    -0.048 Br
HETATM   25  C3  UNL     1     -36.050  10.010 -52.270  1.00  0.00    -0.056 A 
HETATM   26  C27 UNL     1     -35.659  10.169 -50.965  1.00  0.00     0.029 A 
HETATM   27  C26 UNL     1     -36.243  11.143 -50.200  1.00  0.00     0.046 A 
HETATM   28 BR2  UNL     1     -35.683  11.341 -48.394  1.00  0.00    -0.048 Br
BRANCH  25  29
HETATM   29  C2  UNL     1     -35.396   8.930 -53.086  1.00  0.00     0.034 C 
HETATM   30  C1  UNL     1     -35.005   7.797 -52.161  1.00  0.00     0.010 C 
ENDBRANCH  25  29
ENDBRANCH  20  21
ENDBRANCH  19  20
ENDBRANCH  18  19
ENDBRANCH  17  18
BRANCH  17  31
HETATM   31  O2  UNL     1     -36.832  17.005 -51.771  1.00  0.00    -0.394 OA
ATOM     32  H2  UNL     1     -36.562  17.164 -52.668  1.00  0.00     0.210 HD
ENDBRANCH  17  31
ENDBRANCH  16  17
ENDBRANCH   1  16
BRANCH  10  33
HETATM   33  O3  UNL     1     -31.455   7.962 -50.386  1.00  0.00    -0.356 OA
HETATM   34  C20 UNL     1     -30.537   7.854 -49.329  1.00  0.00     0.210 C 
ENDBRANCH  10  33
TORSDOF 9
ENDMDL
MODEL 4
REMARK VINA RESULT: -7.479400503      2.299      4.831
REMARK  9 active torsions:
REMARK  status: ('A' for Active; 'I' for Inactive)
REMARK    1  A    between atoms: C2_2  and  C3_3 
REMARK    2  A    between atoms: C6_7  and  O1_8 
REMARK    3  A    between atoms: O1_8  and  C7_9 
REMARK    4  A    between atoms: C7_9  and  C8_10 
REMARK    5  A    between atoms: C8_10  and  C9_11 
REMARK    6  A    between atoms: C9_11  and  O2_12 
REMARK    7  A    between atoms: C9_11  and  C10_14 
REMARK    8  A    between atoms: C10_14  and  N1_15 
REMARK    9  A    between atoms: C19_24  and  O3_25 
ROOT
HETATM    1  N1  UNL     1     -34.496  15.435 -52.175  1.00  0.00     0.091 N 
HETATM    2  C11 UNL     1     -34.500  14.579 -53.308  1.00  0.00     0.273 C 
HETATM    3  C12 UNL     1     -34.139  13.142 -52.972  1.00  0.00     0.044 C 
HETATM    4  C13 UNL     1     -32.774  13.128 -52.315  1.00  0.00    -0.009 C 
HETATM    5  C14 UNL     1     -31.707  13.419 -53.370  1.00  0.00     0.015 C 
HETATM    6  C15 UNL     1     -31.826  12.499 -54.537  1.00  0.00     0.006 C 
HETATM    7  C16 UNL     1     -31.972  11.057 -54.159  1.00  0.00     0.039 C 
HETATM    8  C17 UNL     1     -32.058  10.826 -52.693  1.00  0.00    -0.048 A 
HETATM    9  C18 UNL     1     -31.739   9.574 -52.223  1.00  0.00     0.044 A 
HETATM   10  C19 UNL     1     -31.770   9.211 -50.895  1.00  0.00     0.068 A 
HETATM   11  C21 UNL     1     -32.148  10.176 -49.992  1.00  0.00     0.037 A 
HETATM   12  C22 UNL     1     -32.476  11.455 -50.449  1.00  0.00     0.011 A 
HETATM   13  C23 UNL     1     -32.435  11.788 -51.782  1.00  0.00    -0.043 A 
HETATM   14  C24 UNL     1     -32.674  14.154 -51.241  1.00  0.00     0.044 C 
HETATM   15  C25 UNL     1     -33.115  15.531 -51.716  1.00  0.00     0.273 C 
ENDROOT
BRANCH   1  16
HETATM   16  C10 UNL     1     -35.411  15.185 -51.130  1.00  0.00     0.303 C 
BRANCH  16  17
HETATM   17  C9  UNL     1     -36.794  15.709 -51.372  1.00  0.00     0.148 C 
BRANCH  17  18
HETATM   18  C8  UNL     1     -37.709  15.476 -50.169  1.00  0.00     0.060 C 
BRANCH  18  19
HETATM   19  C7  UNL     1     -37.296  14.237 -49.460  1.00  0.00     0.178 C 
BRANCH  19  20
HETATM   20  O1  UNL     1     -37.809  13.044 -49.944  1.00  0.00    -0.348 OA
BRANCH  20  21
HETATM   21  C6  UNL     1     -37.189  12.039 -50.623  1.00  0.00     0.103 A 
HETATM   22  C5  UNL     1     -36.239  11.198 -50.135  1.00  0.00     0.046 A 
HETATM   23  C4  UNL     1     -35.647  10.179 -50.895  1.00  0.00     0.029 A 
HETATM   24 BR1  UNL     1     -35.629  11.414 -48.337  1.00  0.00    -0.048 Br
HETATM   25  C3  UNL     1     -36.052  10.033 -52.192  1.00  0.00    -0.056 A 
HETATM   26  C27 UNL     1     -37.007  10.856 -52.732  1.00  0.00     0.029 A 
HETATM   27  C26 UNL     1     -37.564  11.840 -51.959  1.00  0.00     0.046 A 
HETATM   28 BR2  UNL     1     -38.885  12.968 -52.732  1.00  0.00    -0.048 Br
BRANCH  25  29
HETATM   29  C2  UNL     1     -35.455   8.964 -53.064  1.00  0.00     0.034 C 
HETATM   30  C1  UNL     1     -35.009   7.816 -52.182  1.00  0.00     0.010 C 
ENDBRANCH  25  29
ENDBRANCH  20  21
ENDBRANCH  19  20
ENDBRANCH  18  19
ENDBRANCH  17  18
BRANCH  17  31
HETATM   31  O2  UNL     1     -36.771  17.020 -51.794  1.00  0.00    -0.394 OA
ATOM     32  H2  UNL     1     -36.579  17.115 -52.719  1.00  0.00     0.210 HD
ENDBRANCH  17  31
ENDBRANCH  16  17
ENDBRANCH   1  16
BRANCH  10  33
HETATM   33  O3  UNL     1     -31.451   7.953 -50.417  1.00  0.00    -0.356 OA
HETATM   34  C20 UNL     1     -30.542   7.835 -49.352  1.00  0.00     0.210 C 
ENDBRANCH  10  33
TORSDOF 9
ENDMDL
MODEL 5
REMARK VINA RESULT: -7.475411168      2.567      4.845
REMARK  9 active torsions:
REMARK  status: ('A' for Active; 'I' for Inactive)
REMARK    1  A    between atoms: C2_2  and  C3_3 
REMARK    2  A    between atoms: C6_7  and  O1_8 
REMARK    3  A    between atoms: O1_8  and  C7_9 
REMARK    4  A    between atoms: C7_9  and  C8_10 
REMARK    5  A    between atoms: C8_10  and  C9_11 
REMARK    6  A    between atoms: C9_11  and  O2_12 
REMARK    7  A    between atoms: C9_11  and  C10_14 
REMARK    8  A    between atoms: C10_14  and  N1_15 
REMARK    9  A    between atoms: C19_24  and  O3_25 
ROOT
HETATM    1  N1  UNL     1     -34.936  14.964 -52.318  1.00  0.00     0.091 N 
HETATM    2  C11 UNL     1     -34.736  14.152 -53.465  1.00  0.00     0.273 C 
HETATM    3  C12 UNL     1     -34.213  12.765 -53.130  1.00  0.00     0.044 C 
HETATM    4  C13 UNL     1     -32.915  12.909 -52.363  1.00  0.00    -0.009 C 
HETATM    5  C14 UNL     1     -31.816  13.373 -53.319  1.00  0.00     0.015 C 
HETATM    6  C15 UNL     1     -31.718  12.482 -54.511  1.00  0.00     0.006 C 
HETATM    7  C16 UNL     1     -31.700  11.022 -54.177  1.00  0.00     0.039 C 
HETATM    8  C17 UNL     1     -31.869  10.735 -52.729  1.00  0.00    -0.048 A 
HETATM    9  C18 UNL     1     -31.424   9.522 -52.261  1.00  0.00     0.044 A 
HETATM   10  C19 UNL     1     -31.512   9.115 -50.948  1.00  0.00     0.068 A 
HETATM   11  C21 UNL     1     -32.087   9.993 -50.059  1.00  0.00     0.037 A 
HETATM   12  C22 UNL     1     -32.545  11.231 -50.515  1.00  0.00     0.011 A 
HETATM   13  C23 UNL     1     -32.444  11.609 -51.832  1.00  0.00    -0.043 A 
HETATM   14  C24 UNL     1     -33.039  13.905 -51.263  1.00  0.00     0.044 C 
HETATM   15  C25 UNL     1     -33.621  15.226 -51.744  1.00  0.00     0.273 C 
ENDROOT
BRANCH   1  16
HETATM   16  C10 UNL     1     -35.889  14.563 -51.358  1.00  0.00     0.303 C 
BRANCH  16  17
HETATM   17  C9  UNL     1     -37.234  15.209 -51.504  1.00  0.00     0.148 C 
BRANCH  17  18
HETATM   18  C8  UNL     1     -38.368  14.186 -51.431  1.00  0.00     0.060 C 
BRANCH  18  19
HETATM   19  C7  UNL     1     -38.280  13.259 -52.589  1.00  0.00     0.178 C 
BRANCH  19  20
HETATM   20  O1  UNL     1     -38.319  11.904 -52.305  1.00  0.00    -0.348 OA
BRANCH  20  21
HETATM   21  C6  UNL     1     -37.350  10.955 -52.440  1.00  0.00     0.103 A 
HETATM   22  C5  UNL     1     -36.530  10.492 -51.460  1.00  0.00     0.046 A 
HETATM   23  C4  UNL     1     -35.555   9.507 -51.672  1.00  0.00     0.029 A 
HETATM   24 BR1  UNL     1     -36.659  11.229 -49.701  1.00  0.00    -0.048 Br
HETATM   25  C3  UNL     1     -35.430   8.993 -52.932  1.00  0.00    -0.056 A 
HETATM   26  C27 UNL     1     -36.235   9.427 -53.955  1.00  0.00     0.029 A 
HETATM   27  C26 UNL     1     -37.176  10.390 -53.710  1.00  0.00     0.046 A 
HETATM   28 BR2  UNL     1     -38.277  10.975 -55.146  1.00  0.00    -0.048 Br
BRANCH  25  29
HETATM   29  C2  UNL     1     -34.403   7.937 -53.230  1.00  0.00     0.034 C 
HETATM   30  C1  UNL     1     -34.298   7.015 -52.033  1.00  0.00     0.010 C 
ENDBRANCH  25  29
ENDBRANCH  20  21
ENDBRANCH  19  20
ENDBRANCH  18  19
ENDBRANCH  17  18
BRANCH  17  31
HETATM   31  O2  UNL     1     -37.388  16.258 -50.624  1.00  0.00    -0.394 OA
ATOM     32  H2  UNL     1     -36.705  16.914 -50.697  1.00  0.00     0.210 HD
ENDBRANCH  17  31
ENDBRANCH  16  17
ENDBRANCH   1  16
BRANCH  10  33
HETATM   33  O3  UNL     1     -31.067   7.895 -50.472  1.00  0.00    -0.356 OA
HETATM   34  C20 UNL     1     -30.541   7.818 -49.171  1.00  0.00     0.210 C 
ENDBRANCH  10  33
TORSDOF 9
ENDMDL
