MODEL 1
REMARK VINA RESULT: -7.747047673      0.000      0.000
REMARK  8 active torsions:
REMARK  status: ('A' for Active; 'I' for Inactive)
REMARK    1  A    between atoms: N1_4  and  C4_5 
REMARK    2  A    between atoms: C7_9  and  C8_10 
REMARK    3  A    between atoms: C10_12  and  C11_13 
REMARK    4  A    between atoms: C11_13  and  C12_14 
REMARK       I    between atoms: N2_22  and  C17_23 
REMARK    5  A    between atoms: C17_23  and  C18_25 
REMARK    6  A    between atoms: N3_28  and  C21_29 
REMARK    7  A    between atoms: C21_29  and  C22_30 
REMARK    8  A    between atoms: C22_30  and  C23_31 
ROOT
HETATM    1  C1  UNL     1     -32.234  14.506 -51.415  1.00  0.00     0.034 C 
HETATM    2  C2  UNL     1     -33.228  13.377 -51.290  1.00  0.00     0.101 C 
HETATM    3  C3  UNL     1     -32.576  12.085 -51.651  1.00  0.00     0.148 C 
HETATM    4  N1  UNL     1     -32.768  11.604 -52.979  1.00  0.00    -0.376 N 
HETATM    5  C15 UNL     1     -33.760  12.160 -53.857  1.00  0.00     0.143 C 
HETATM    6  C16 UNL     1     -34.210  13.550 -53.519  1.00  0.00     0.146 C 
HETATM    7  N2  UNL     1     -34.402  13.667 -52.051  1.00  0.00    -0.344 N 
HETATM    8  C17 UNL     1     -35.668  14.023 -51.547  1.00  0.00     0.224 C 
HETATM    9  O3  UNL     1     -36.617  14.225 -52.381  1.00  0.00    -0.273 OA
ENDROOT
BRANCH   8  10
HETATM   10  C18 UNL     1     -35.960  14.176 -50.111  1.00  0.00     0.084 C 
HETATM   11  C19 UNL     1     -35.769  12.861 -49.363  1.00  0.00     0.034 C 
HETATM   12  C20 UNL     1     -36.523  12.853 -48.047  1.00  0.00     0.128 C 
HETATM   13  N3  UNL     1     -37.925  12.841 -48.349  1.00  0.00    -0.374 N 
HETATM   14  C29 UNL     1     -38.295  13.554 -49.503  1.00  0.00     0.064 C 
HETATM   15  C30 UNL     1     -37.363  14.694 -49.870  1.00  0.00     0.059 C 
BRANCH  13  16
HETATM   16  C21 UNL     1     -38.831  12.671 -47.304  1.00  0.00     0.063 C 
BRANCH  16  17
HETATM   17  C22 UNL     1     -39.496  11.345 -47.147  1.00  0.00     0.049 C 
BRANCH  17  18
HETATM   18  C23 UNL     1     -38.768  10.580 -46.061  1.00  0.00    -0.010 C 
HETATM   19  C24 UNL     1     -37.671   9.701 -46.562  1.00  0.00     0.005 C 
HETATM   20  C25 UNL     1     -36.832   9.266 -45.376  1.00  0.00     0.000 C 
HETATM   21  C26 UNL     1     -37.658   9.354 -44.088  1.00  0.00     0.000 C 
HETATM   22  C27 UNL     1     -37.973  10.797 -43.744  1.00  0.00     0.000 C 
HETATM   23  C28 UNL     1     -38.205  11.560 -45.047  1.00  0.00     0.005 C 
ENDBRANCH  17  18
ENDBRANCH  16  17
ENDBRANCH  13  16
ENDBRANCH   8  10
BRANCH   4  24
HETATM   24  C4  UNL     1     -31.953  10.524 -53.459  1.00  0.00     0.053 A 
HETATM   25  C5  UNL     1     -32.125   9.244 -52.941  1.00  0.00     0.055 A 
HETATM   26  C6  UNL     1     -31.364   8.188 -53.365  1.00  0.00     0.043 A 
HETATM   27 CL1  UNL     1     -31.602   6.596 -52.683  1.00  0.00    -0.084 Cl
HETATM   28  C7  UNL     1     -30.377   8.340 -54.338  1.00  0.00    -0.030 A 
HETATM   29  C13 UNL     1     -30.230   9.608 -54.830  1.00  0.00     0.035 A 
HETATM   30  C14 UNL     1     -30.994  10.696 -54.412  1.00  0.00     0.061 A 
HETATM   31 CL2  UNL     1     -30.724  12.282 -55.133  1.00  0.00    -0.082 Cl
BRANCH  28  32
HETATM   32  C8  UNL     1     -29.551   7.234 -54.806  1.00  0.00     0.025 A 
HETATM   33  C9  UNL     1     -29.100   7.277 -56.244  1.00  0.00     0.015 A 
HETATM   34  C10 UNL     1     -30.020   6.155 -55.697  1.00  0.00     0.004 A 
BRANCH  34  35
HETATM   35  C11 UNL     1     -29.322   4.814 -55.686  1.00  0.00     0.118 C 
BRANCH  35  36
HETATM   36  C12 UNL     1     -28.832   4.410 -54.347  1.00  0.00     0.172 C 
HETATM   37  O1  UNL     1     -27.607   4.469 -54.079  1.00  0.00    -0.648 OA
HETATM   38  O2  UNL     1     -29.698   3.955 -53.348  1.00  0.00    -0.648 OA
ENDBRANCH  35  36
ENDBRANCH  34  35
ENDBRANCH  28  32
ENDBRANCH   4  24
TORSDOF 8
ENDMDL
MODEL 2
REMARK VINA RESULT: -7.709456779      1.343      1.942
REMARK  8 active torsions:
REMARK  status: ('A' for Active; 'I' for Inactive)
REMARK    1  A    between atoms: N1_4  and  C4_5 
REMARK    2  A    between atoms: C7_9  and  C8_10 
REMARK    3  A    between atoms: C10_12  and  C11_13 
REMARK    4  A    between atoms: C11_13  and  C12_14 
REMARK       I    between atoms: N2_22  and  C17_23 
REMARK    5  A    between atoms: C17_23  and  C18_25 
REMARK    6  A    between atoms: N3_28  and  C21_29 
REMARK    7  A    between atoms: C21_29  and  C22_30 
REMARK    8  A    between atoms: C22_30  and  C23_31 
ROOT
HETATM    1  C1  UNL     1     -32.445  14.484 -51.366  1.00  0.00     0.034 C 
HETATM    2  C2  UNL     1     -33.360  13.296 -51.189  1.00  0.00     0.101 C 
HETATM    3  C3  UNL     1     -32.646  12.044 -51.572  1.00  0.00     0.148 C 
HETATM    4  N1  UNL     1     -32.869  11.540 -52.886  1.00  0.00    -0.376 N 
HETATM    5  C15 UNL     1     -33.933  12.026 -53.721  1.00  0.00     0.143 C 
HETATM    6  C16 UNL     1     -34.452  13.388 -53.370  1.00  0.00     0.146 C 
HETATM    7  N2  UNL     1     -34.583  13.506 -51.895  1.00  0.00    -0.344 N 
HETATM    8  C17 UNL     1     -35.845  13.787 -51.335  1.00  0.00     0.224 C 
HETATM    9  O3  UNL     1     -36.841  13.922 -52.125  1.00  0.00    -0.273 OA
ENDROOT
BRANCH   8  10
HETATM   10  C18 UNL     1     -36.079  13.934 -49.888  1.00  0.00     0.084 C 
HETATM   11  C19 UNL     1     -35.951  12.597 -49.167  1.00  0.00     0.034 C 
HETATM   12  C20 UNL     1     -36.661  12.615 -47.826  1.00  0.00     0.128 C 
HETATM   13  N3  UNL     1     -38.070  12.700 -48.081  1.00  0.00    -0.374 N 
HETATM   14  C29 UNL     1     -38.429  13.456 -49.211  1.00  0.00     0.064 C 
HETATM   15  C30 UNL     1     -37.436  14.539 -49.592  1.00  0.00     0.059 C 
BRANCH  13  16
HETATM   16  C21 UNL     1     -38.950  12.573 -47.009  1.00  0.00     0.063 C 
BRANCH  16  17
HETATM   17  C22 UNL     1     -38.400  12.636 -45.624  1.00  0.00     0.049 C 
BRANCH  17  18
HETATM   18  C23 UNL     1     -39.522  13.041 -44.691  1.00  0.00    -0.010 C 
HETATM   19  C24 UNL     1     -40.854  13.164 -45.352  1.00  0.00     0.005 C 
HETATM   20  C25 UNL     1     -41.915  13.245 -44.272  1.00  0.00     0.000 C 
HETATM   21  C26 UNL     1     -41.295  13.750 -42.964  1.00  0.00     0.000 C 
HETATM   22  C27 UNL     1     -40.333  12.727 -42.391  1.00  0.00     0.000 C 
HETATM   23  C28 UNL     1     -39.615  12.042 -43.552  1.00  0.00     0.005 C 
ENDBRANCH  17  18
ENDBRANCH  16  17
ENDBRANCH  13  16
ENDBRANCH   8  10
BRANCH   4  24
HETATM   24  C4  UNL     1     -32.011  10.509 -53.398  1.00  0.00     0.053 A 
HETATM   25  C5  UNL     1     -32.102   9.217 -52.888  1.00  0.00     0.055 A 
HETATM   26  C6  UNL     1     -31.298   8.206 -53.342  1.00  0.00     0.043 A 
HETATM   27 CL1  UNL     1     -31.434   6.598 -52.670  1.00  0.00    -0.084 Cl
HETATM   28  C7  UNL     1     -30.346   8.418 -54.338  1.00  0.00    -0.030 A 
HETATM   29  C13 UNL     1     -30.278   9.697 -54.821  1.00  0.00     0.035 A 
HETATM   30  C14 UNL     1     -31.087  10.739 -54.373  1.00  0.00     0.061 A 
HETATM   31 CL2  UNL     1     -30.919  12.343 -55.085  1.00  0.00    -0.082 Cl
BRANCH  28  32
HETATM   32  C8  UNL     1     -29.475   7.362 -54.838  1.00  0.00     0.025 A 
HETATM   33  C9  UNL     1     -29.084   7.427 -56.293  1.00  0.00     0.015 A 
HETATM   34  C10 UNL     1     -29.915   6.254 -55.710  1.00  0.00     0.004 A 
BRANCH  34  35
HETATM   35  C11 UNL     1     -29.140   4.957 -55.726  1.00  0.00     0.118 C 
BRANCH  35  36
HETATM   36  C12 UNL     1     -28.371   4.708 -54.485  1.00  0.00     0.172 C 
HETATM   37  O1  UNL     1     -28.923   4.155 -53.501  1.00  0.00    -0.648 OA
HETATM   38  O2  UNL     1     -27.027   5.073 -54.360  1.00  0.00    -0.648 OA
ENDBRANCH  35  36
ENDBRANCH  34  35
ENDBRANCH  28  32
ENDBRANCH   4  24
TORSDOF 8
ENDMDL
MODEL 3
REMARK VINA RESULT: -7.698421217      5.249      8.877
REMARK  8 active torsions:
REMARK  status: ('A' for Active; 'I' for Inactive)
REMARK    1  A    between atoms: N1_4  and  C4_5 
REMARK    2  A    between atoms: C7_9  and  C8_10 
REMARK    3  A    between atoms: C10_12  and  C11_13 
REMARK    4  A    between atoms: C11_13  and  C12_14 
REMARK       I    between atoms: N2_22  and  C17_23 
REMARK    5  A    between atoms: C17_23  and  C18_25 
REMARK    6  A    between atoms: N3_28  and  C21_29 
REMARK    7  A    between atoms: C21_29  and  C22_30 
REMARK    8  A    between atoms: C22_30  and  C23_31 
ROOT
HETATM    1  C1  UNL     1     -36.310   9.491 -46.167  1.00  0.00     0.034 C 
HETATM    2  C2  UNL     1     -35.220   9.014 -47.096  1.00  0.00     0.101 C 
HETATM    3  C3  UNL     1     -34.650  10.171 -47.845  1.00  0.00     0.148 C 
HETATM    4  N1  UNL     1     -35.146  10.408 -49.160  1.00  0.00    -0.376 N 
HETATM    5  C15 UNL     1     -35.941   9.439 -49.862  1.00  0.00     0.143 C 
HETATM    6  C16 UNL     1     -36.636   8.430 -48.997  1.00  0.00     0.146 C 
HETATM    7  N2  UNL     1     -35.710   7.965 -47.933  1.00  0.00    -0.344 N 
HETATM    8  C17 UNL     1     -35.391   6.597 -47.847  1.00  0.00     0.224 C 
HETATM    9  O3  UNL     1     -35.909   5.798 -48.702  1.00  0.00    -0.273 OA
ENDROOT
BRANCH   8  10
HETATM   10  C18 UNL     1     -34.494   6.033 -46.823  1.00  0.00     0.084 C 
HETATM   11  C19 UNL     1     -34.606   6.793 -45.507  1.00  0.00     0.034 C 
HETATM   12  C20 UNL     1     -33.384   6.583 -44.634  1.00  0.00     0.128 C 
HETATM   13  N3  UNL     1     -32.276   7.231 -45.275  1.00  0.00    -0.374 N 
HETATM   14  C29 UNL     1     -32.297   7.201 -46.681  1.00  0.00     0.064 C 
HETATM   15  C30 UNL     1     -33.048   6.026 -47.279  1.00  0.00     0.059 C 
BRANCH  13  16
HETATM   16  C21 UNL     1     -31.067   7.318 -44.590  1.00  0.00     0.063 C 
BRANCH  16  17
HETATM   17  C22 UNL     1     -30.898   6.522 -43.339  1.00  0.00     0.049 C 
BRANCH  17  18
HETATM   18  C23 UNL     1     -30.111   7.359 -42.352  1.00  0.00    -0.010 C 
HETATM   19  C24 UNL     1     -29.223   8.379 -42.985  1.00  0.00     0.005 C 
HETATM   20  C25 UNL     1     -28.764   9.342 -41.908  1.00  0.00     0.000 C 
HETATM   21  C26 UNL     1     -28.846   8.671 -40.533  1.00  0.00     0.000 C 
HETATM   22  C27 UNL     1     -30.289   8.417 -40.140  1.00  0.00     0.000 C 
HETATM   23  C28 UNL     1     -31.071   8.049 -41.399  1.00  0.00     0.005 C 
ENDBRANCH  17  18
ENDBRANCH  16  17
ENDBRANCH  13  16
ENDBRANCH   8  10
BRANCH   4  24
HETATM   24  C4  UNL     1     -34.839  11.649 -49.813  1.00  0.00     0.053 A 
HETATM   25  C5  UNL     1     -35.772  12.681 -49.812  1.00  0.00     0.055 A 
HETATM   26  C6  UNL     1     -35.523  13.877 -50.431  1.00  0.00     0.043 A 
HETATM   27 CL1  UNL     1     -36.724  15.146 -50.418  1.00  0.00    -0.084 Cl
HETATM   28  C7  UNL     1     -34.321  14.122 -51.093  1.00  0.00    -0.030 A 
HETATM   29  C13 UNL     1     -33.422  13.091 -51.078  1.00  0.00     0.035 A 
HETATM   30  C14 UNL     1     -33.657  11.867 -50.455  1.00  0.00     0.061 A 
HETATM   31 CL2  UNL     1     -32.413  10.618 -50.488  1.00  0.00    -0.082 Cl
BRANCH  28  32
HETATM   32  C8  UNL     1     -34.030  15.384 -51.762  1.00  0.00     0.025 A 
HETATM   33  C9  UNL     1     -34.500  15.529 -53.188  1.00  0.00     0.015 A 
HETATM   34  C10 UNL     1     -32.998  15.565 -52.802  1.00  0.00     0.004 A 
BRANCH  34  35
HETATM   35  C11 UNL     1     -32.393  16.931 -53.033  1.00  0.00     0.118 C 
BRANCH  35  36
HETATM   36  C12 UNL     1     -31.286  17.255 -52.103  1.00  0.00     0.172 C 
HETATM   37  O1  UNL     1     -30.525  16.346 -51.687  1.00  0.00    -0.648 OA
HETATM   38  O2  UNL     1     -31.050  18.559 -51.659  1.00  0.00    -0.648 OA
ENDBRANCH  35  36
ENDBRANCH  34  35
ENDBRANCH  28  32
ENDBRANCH   4  24
TORSDOF 8
ENDMDL
MODEL 4
REMARK VINA RESULT: -7.533690677      5.353      8.998
REMARK  8 active torsions:
REMARK  status: ('A' for Active; 'I' for Inactive)
REMARK    1  A    between atoms: N1_4  and  C4_5 
REMARK    2  A    between atoms: C7_9  and  C8_10 
REMARK    3  A    between atoms: C10_12  and  C11_13 
REMARK    4  A    between atoms: C11_13  and  C12_14 
REMARK       I    between atoms: N2_22  and  C17_23 
REMARK    5  A    between atoms: C17_23  and  C18_25 
REMARK    6  A    between atoms: N3_28  and  C21_29 
REMARK    7  A    between atoms: C21_29  and  C22_30 
REMARK    8  A    between atoms: C22_30  and  C23_31 
ROOT
HETATM    1  C1  UNL     1     -34.158   7.067 -51.590  1.00  0.00     0.034 C 
HETATM    2  C2  UNL     1     -34.026   8.424 -50.941  1.00  0.00     0.101 C 
HETATM    3  C3  UNL     1     -33.240   8.308 -49.679  1.00  0.00     0.148 C 
HETATM    4  N1  UNL     1     -33.971   8.216 -48.460  1.00  0.00    -0.376 N 
HETATM    5  C15 UNL     1     -35.378   8.502 -48.388  1.00  0.00     0.143 C 
HETATM    6  C16 UNL     1     -36.120   8.398 -49.687  1.00  0.00     0.146 C 
HETATM    7  N2  UNL     1     -35.314   9.016 -50.771  1.00  0.00    -0.344 N 
HETATM    8  C17 UNL     1     -35.851  10.095 -51.500  1.00  0.00     0.224 C 
HETATM    9  O3  UNL     1     -37.020  10.512 -51.192  1.00  0.00    -0.273 OA
ENDROOT
BRANCH   8  10
HETATM   10  C18 UNL     1     -35.139  10.769 -52.599  1.00  0.00     0.084 C 
HETATM   11  C19 UNL     1     -34.013  11.651 -52.072  1.00  0.00     0.034 C 
HETATM   12  C20 UNL     1     -33.613  12.711 -53.082  1.00  0.00     0.128 C 
HETATM   13  N3  UNL     1     -34.705  13.633 -53.199  1.00  0.00    -0.374 N 
HETATM   14  C29 UNL     1     -35.985  13.066 -53.065  1.00  0.00     0.064 C 
HETATM   15  C30 UNL     1     -36.073  11.602 -53.454  1.00  0.00     0.059 C 
BRANCH  13  16
HETATM   16  C21 UNL     1     -34.522  14.792 -53.950  1.00  0.00     0.063 C 
BRANCH  16  17
HETATM   17  C22 UNL     1     -34.317  16.083 -53.231  1.00  0.00     0.049 C 
BRANCH  17  18
HETATM   18  C23 UNL     1     -32.895  16.110 -52.710  1.00  0.00    -0.010 C 
HETATM   19  C24 UNL     1     -32.167  17.385 -52.980  1.00  0.00     0.005 C 
HETATM   20  C25 UNL     1     -30.908  17.401 -52.136  1.00  0.00     0.000 C 
HETATM   21  C26 UNL     1     -30.501  15.968 -51.772  1.00  0.00     0.000 C 
HETATM   22  C27 UNL     1     -31.510  15.342 -50.829  1.00  0.00     0.000 C 
HETATM   23  C28 UNL     1     -32.901  15.840 -51.216  1.00  0.00     0.005 C 
ENDBRANCH  17  18
ENDBRANCH  16  17
ENDBRANCH  13  16
ENDBRANCH   8  10
BRANCH   4  24
HETATM   24  C4  UNL     1     -33.287   7.832 -47.257  1.00  0.00     0.053 A 
HETATM   25  C5  UNL     1     -33.992   7.227 -46.222  1.00  0.00     0.055 A 
HETATM   26  C6  UNL     1     -33.380   6.854 -45.055  1.00  0.00     0.043 A 
HETATM   27 CL1  UNL     1     -34.302   6.106 -43.773  1.00  0.00    -0.084 Cl
HETATM   28  C7  UNL     1     -32.017   7.061 -44.845  1.00  0.00    -0.030 A 
HETATM   29  C13 UNL     1     -31.348   7.657 -45.879  1.00  0.00     0.035 A 
HETATM   30  C14 UNL     1     -31.953   8.044 -47.073  1.00  0.00     0.061 A 
HETATM   31 CL2  UNL     1     -30.982   8.789 -48.342  1.00  0.00    -0.082 Cl
BRANCH  28  32
HETATM   32  C8  UNL     1     -31.340   6.676 -43.613  1.00  0.00     0.025 A 
HETATM   33  C9  UNL     1     -31.530   7.574 -42.417  1.00  0.00     0.015 A 
HETATM   34  C10 UNL     1     -30.142   7.346 -43.069  1.00  0.00     0.004 A 
BRANCH  34  35
HETATM   35  C11 UNL     1     -29.209   6.591 -42.151  1.00  0.00     0.118 C 
BRANCH  35  36
HETATM   36  C12 UNL     1     -28.252   7.461 -41.430  1.00  0.00     0.172 C 
HETATM   37  O1  UNL     1     -27.232   6.966 -40.888  1.00  0.00    -0.648 OA
HETATM   38  O2  UNL     1     -28.441   8.843 -41.325  1.00  0.00    -0.648 OA
ENDBRANCH  35  36
ENDBRANCH  34  35
ENDBRANCH  28  32
ENDBRANCH   4  24
TORSDOF 8
ENDMDL
MODEL 5
REMARK VINA RESULT: -7.483480748      5.386      8.792
REMARK  8 active torsions:
REMARK  status: ('A' for Active; 'I' for Inactive)
REMARK    1  A    between atoms: N1_4  and  C4_5 
REMARK    2  A    between atoms: C7_9  and  C8_10 
REMARK    3  A    between atoms: C10_12  and  C11_13 
REMARK    4  A    between atoms: C11_13  and  C12_14 
REMARK       I    between atoms: N2_22  and  C17_23 
REMARK    5  A    between atoms: C17_23  and  C18_25 
REMARK    6  A    between atoms: N3_28  and  C21_29 
REMARK    7  A    between atoms: C21_29  and  C22_30 
REMARK    8  A    between atoms: C22_30  and  C23_31 
ROOT
HETATM    1  C1  UNL     1     -37.108  10.387 -45.814  1.00  0.00     0.034 C 
HETATM    2  C2  UNL     1     -36.300   9.678 -46.874  1.00  0.00     0.101 C 
HETATM    3  C3  UNL     1     -35.582  10.676 -47.717  1.00  0.00     0.148 C 
HETATM    4  N1  UNL     1     -36.185  11.040 -48.956  1.00  0.00    -0.376 N 
HETATM    5  C15 UNL     1     -37.275  10.295 -49.523  1.00  0.00     0.143 C 
HETATM    6  C16 UNL     1     -38.062   9.469 -48.550  1.00  0.00     0.146 C 
HETATM    7  N2  UNL     1     -37.133   8.785 -47.614  1.00  0.00    -0.344 N 
HETATM    8  C17 UNL     1     -37.137   7.378 -47.544  1.00  0.00     0.224 C 
HETATM    9  O3  UNL     1     -37.941   6.736 -48.303  1.00  0.00    -0.273 OA
ENDROOT
BRANCH   8  10
HETATM   10  C18 UNL     1     -36.265   6.606 -46.642  1.00  0.00     0.084 C 
HETATM   11  C19 UNL     1     -36.048   7.335 -45.321  1.00  0.00     0.034 C 
HETATM   12  C20 UNL     1     -34.802   6.843 -44.608  1.00  0.00     0.128 C 
HETATM   13  N3  UNL     1     -33.667   7.254 -45.383  1.00  0.00    -0.374 N 
HETATM   14  C29 UNL     1     -33.866   7.269 -46.775  1.00  0.00     0.064 C 
HETATM   15  C30 UNL     1     -34.922   6.301 -47.275  1.00  0.00     0.059 C 
BRANCH  13  16
HETATM   16  C21 UNL     1     -32.393   7.059 -44.855  1.00  0.00     0.063 C 
BRANCH  16  17
HETATM   17  C22 UNL     1     -32.260   6.812 -43.389  1.00  0.00     0.049 C 
BRANCH  17  18
HETATM   18  C23 UNL     1     -31.074   7.608 -42.885  1.00  0.00    -0.010 C 
HETATM   19  C24 UNL     1     -31.085   7.860 -41.415  1.00  0.00     0.005 C 
HETATM   20  C25 UNL     1     -29.712   8.360 -41.008  1.00  0.00     0.000 C 
HETATM   21  C26 UNL     1     -29.001   8.981 -42.216  1.00  0.00     0.000 C 
HETATM   22  C27 UNL     1     -28.662   7.922 -43.247  1.00  0.00     0.000 C 
HETATM   23  C28 UNL     1     -29.790   6.892 -43.265  1.00  0.00     0.005 C 
ENDBRANCH  17  18
ENDBRANCH  16  17
ENDBRANCH  13  16
ENDBRANCH   8  10
BRANCH   4  24
HETATM   24  C4  UNL     1     -35.688  12.182 -49.671  1.00  0.00     0.053 A 
HETATM   25  C5  UNL     1     -36.447  13.347 -49.729  1.00  0.00     0.055 A 
HETATM   26  C6  UNL     1     -36.014  14.455 -50.406  1.00  0.00     0.043 A 
HETATM   27 CL1  UNL     1     -37.000  15.896 -50.466  1.00  0.00    -0.084 Cl
HETATM   28  C7  UNL     1     -34.789  14.473 -51.073  1.00  0.00    -0.030 A 
HETATM   29  C13 UNL     1     -34.064  13.315 -50.999  1.00  0.00     0.035 A 
HETATM   30  C14 UNL     1     -34.487  12.178 -50.315  1.00  0.00     0.061 A 
HETATM   31 CL2  UNL     1     -33.455  10.748 -50.277  1.00  0.00    -0.082 Cl
BRANCH  28  32
HETATM   32  C8  UNL     1     -34.305  15.638 -51.804  1.00  0.00     0.025 A 
HETATM   33  C9  UNL     1     -34.656  15.723 -53.268  1.00  0.00     0.015 A 
HETATM   34  C10 UNL     1     -33.190  15.616 -52.773  1.00  0.00     0.004 A 
BRANCH  34  35
HETATM   35  C11 UNL     1     -32.412  16.882 -53.051  1.00  0.00     0.118 C 
BRANCH  35  36
HETATM   36  C12 UNL     1     -31.299  17.116 -52.102  1.00  0.00     0.172 C 
HETATM   37  O1  UNL     1     -30.980  18.287 -51.780  1.00  0.00    -0.648 OA
HETATM   38  O2  UNL     1     -30.574  16.062 -51.537  1.00  0.00    -0.648 OA
ENDBRANCH  35  36
ENDBRANCH  34  35
ENDBRANCH  28  32
ENDBRANCH   4  24
TORSDOF 8
ENDMDL
