MODEL 1
REMARK VINA RESULT: -8.680527525      0.000      0.000
REMARK  8 active torsions:
REMARK  status: ('A' for Active; 'I' for Inactive)
REMARK    1  A    between atoms: C2_2  and  C3_3 
REMARK    2  A    between atoms: C3_3  and  C4_4 
REMARK    3  A    between atoms: C4_4  and  N1_5 
REMARK    4  A    between atoms: N2_8  and  C7_9 
REMARK    5  A    between atoms: C7_9  and  C8_10 
REMARK    6  A    between atoms: C8_10  and  C9_11 
REMARK    7  A    between atoms: N3_12  and  C10_14 
REMARK    8  A    between atoms: C19_26  and  C20_27 
ROOT
HETATM    1  C10 UNL     1     -31.914   9.950 -51.274  1.00  0.00     0.058 A 
HETATM    2  C11 UNL     1     -31.938   9.306 -50.032  1.00  0.00     0.018 A 
HETATM    3  C12 UNL     1     -32.594   9.833 -48.931  1.00  0.00     0.017 A 
HETATM    4  C13 UNL     1     -32.625   9.183 -47.711  1.00  0.00     0.020 A 
HETATM    5  C14 UNL     1     -31.990   7.983 -47.589  1.00  0.00     0.013 A 
HETATM    6 BR1  UNL     1     -31.966   6.999 -45.965  1.00  0.00    -0.051 Br
HETATM    7  C15 UNL     1     -31.333   7.445 -48.672  1.00  0.00     0.049 A 
HETATM    8  C16 UNL     1     -31.296   8.095 -49.912  1.00  0.00     0.046 A 
HETATM    9  N4  UNL     1     -30.651   7.516 -50.942  1.00  0.00    -0.355 N 
ATOM     10  H4  UNL     1     -30.187   6.618 -50.808  1.00  0.00     0.166 HD
HETATM   11  C17 UNL     1     -30.616   8.114 -52.148  1.00  0.00     0.047 A 
HETATM   12  C18 UNL     1     -29.942   7.468 -53.197  1.00  0.00     0.038 A 
HETATM   13  C19 UNL     1     -29.871   8.008 -54.458  1.00  0.00    -0.051 A 
HETATM   14  C23 UNL     1     -30.498   9.218 -54.635  1.00  0.00     0.027 A 
HETATM   15  C24 UNL     1     -31.164   9.860 -53.602  1.00  0.00     0.026 A 
HETATM   16 BR2  UNL     1     -32.001  11.498 -54.018  1.00  0.00    -0.050 Br
HETATM   17  C25 UNL     1     -31.234   9.320 -52.340  1.00  0.00     0.036 A 
ENDROOT
BRANCH   1  18
HETATM   18  N3  UNL     1     -32.434  11.056 -51.437  1.00  0.00    -0.368 N 
HETATM   19  C9  UNL     1     -32.745  12.317 -51.040  1.00  0.00     0.063 C 
ATOM     20  H3  UNL     1     -32.854  10.987 -52.364  1.00  0.00     0.165 HD
BRANCH  19  21
HETATM   21  C8  UNL     1     -34.054  12.534 -50.277  1.00  0.00     0.074 C 
BRANCH  21  22
HETATM   22  C7  UNL     1     -35.149  12.035 -51.184  1.00  0.00     0.277 C 
BRANCH  22  23
HETATM   23  N2  UNL     1     -36.109  13.058 -51.496  1.00  0.00     0.092 N 
HETATM   24  C6  UNL     1     -36.124  13.345 -52.902  1.00  0.00     0.302 C 
HETATM   25  C5  UNL     1     -34.934  14.139 -53.329  1.00  0.00     0.302 C 
HETATM   26  N1  UNL     1     -34.735  15.308 -52.525  1.00  0.00     0.091 N 
HETATM   27  C27 UNL     1     -35.878  15.515 -51.648  1.00  0.00     0.302 C 
HETATM   28  C26 UNL     1     -35.953  14.276 -50.746  1.00  0.00     0.302 C 
BRANCH  26  29
HETATM   29  C4  UNL     1     -34.450  16.498 -53.298  1.00  0.00     0.272 C 
BRANCH  29  30
HETATM   30  C3  UNL     1     -32.968  16.797 -53.341  1.00  0.00     0.030 C 
BRANCH  30  31
HETATM   31  C2  UNL     1     -32.292  16.254 -52.087  1.00  0.00    -0.003 C 
HETATM   32  C1  UNL     1     -30.929  16.868 -51.908  1.00  0.00     0.005 C 
ENDBRANCH  30  31
ENDBRANCH  29  30
ENDBRANCH  26  29
ENDBRANCH  22  23
ENDBRANCH  21  22
ENDBRANCH  19  21
ENDBRANCH   1  18
BRANCH  13  33
HETATM   33  C20 UNL     1     -29.142   7.323 -55.567  1.00  0.00     0.010 C 
HETATM   34  C21 UNL     1     -28.381   6.123 -54.974  1.00  0.00     0.015 C 
HETATM   35  C22 UNL     1     -30.088   6.748 -56.585  1.00  0.00     0.015 C 
ENDBRANCH  13  33
TORSDOF 8
ENDMDL
MODEL 2
REMARK VINA RESULT: -8.369301977      3.851      6.537
REMARK  8 active torsions:
REMARK  status: ('A' for Active; 'I' for Inactive)
REMARK    1  A    between atoms: C2_2  and  C3_3 
REMARK    2  A    between atoms: C3_3  and  C4_4 
REMARK    3  A    between atoms: C4_4  and  N1_5 
REMARK    4  A    between atoms: N2_8  and  C7_9 
REMARK    5  A    between atoms: C7_9  and  C8_10 
REMARK    6  A    between atoms: C8_10  and  C9_11 
REMARK    7  A    between atoms: N3_12  and  C10_14 
REMARK    8  A    between atoms: C19_26  and  C20_27 
ROOT
HETATM    1  C10 UNL     1     -34.872  12.474 -52.097  1.00  0.00     0.058 A 
HETATM    2  C11 UNL     1     -34.127  13.647 -52.265  1.00  0.00     0.018 A 
HETATM    3  C12 UNL     1     -34.557  14.698 -53.060  1.00  0.00     0.017 A 
HETATM    4  C13 UNL     1     -33.821  15.859 -53.209  1.00  0.00     0.020 A 
HETATM    5  C14 UNL     1     -32.634  15.973 -52.549  1.00  0.00     0.013 A 
HETATM    6 BR1  UNL     1     -31.539  17.520 -52.676  1.00  0.00    -0.051 Br
HETATM    7  C15 UNL     1     -32.191  14.940 -51.755  1.00  0.00     0.049 A 
HETATM    8  C16 UNL     1     -32.928  13.760 -51.598  1.00  0.00     0.046 A 
HETATM    9  N4  UNL     1     -32.455  12.787 -50.797  1.00  0.00    -0.355 N 
ATOM     10  H4  UNL     1     -31.561  12.913 -50.323  1.00  0.00     0.166 HD
HETATM   11  C17 UNL     1     -33.154  11.650 -50.617  1.00  0.00     0.047 A 
HETATM   12  C18 UNL     1     -32.627  10.668 -49.763  1.00  0.00     0.038 A 
HETATM   13  C19 UNL     1     -33.286   9.487 -49.521  1.00  0.00    -0.051 A 
HETATM   14  C23 UNL     1     -34.490   9.322 -50.160  1.00  0.00     0.027 A 
HETATM   15  C24 UNL     1     -35.014  10.289 -51.004  1.00  0.00     0.026 A 
HETATM   16 BR2  UNL     1     -36.694   9.923 -51.779  1.00  0.00    -0.050 Br
HETATM   17  C25 UNL     1     -34.355  11.471 -51.249  1.00  0.00     0.036 A 
ENDROOT
BRANCH   1  18
HETATM   18  N3  UNL     1     -35.932  12.293 -52.698  1.00  0.00    -0.368 N 
HETATM   19  C9  UNL     1     -37.015  12.721 -53.398  1.00  0.00     0.063 C 
ATOM     20  H3  UNL     1     -36.070  11.284 -52.640  1.00  0.00     0.165 HD
BRANCH  19  21
HETATM   21  C8  UNL     1     -38.275  13.109 -52.619  1.00  0.00     0.074 C 
BRANCH  21  22
HETATM   22  C7  UNL     1     -37.947  14.404 -51.923  1.00  0.00     0.277 C 
BRANCH  22  23
HETATM   23  N2  UNL     1     -38.492  14.463 -50.593  1.00  0.00     0.092 N 
HETATM   24  C6  UNL     1     -37.464  14.708 -49.623  1.00  0.00     0.302 C 
HETATM   25  C5  UNL     1     -36.622  13.501 -49.372  1.00  0.00     0.302 C 
HETATM   26  N1  UNL     1     -37.404  12.338 -49.074  1.00  0.00     0.091 N 
HETATM   27  C27 UNL     1     -38.799  12.706 -48.883  1.00  0.00     0.302 C 
HETATM   28  C26 UNL     1     -39.266  13.313 -50.212  1.00  0.00     0.302 C 
BRANCH  26  29
HETATM   29  C4  UNL     1     -36.904  11.582 -47.944  1.00  0.00     0.272 C 
BRANCH  29  30
HETATM   30  C3  UNL     1     -35.488  11.977 -47.588  1.00  0.00     0.030 C 
BRANCH  30  31
HETATM   31  C2  UNL     1     -35.407  12.340 -46.109  1.00  0.00    -0.003 C 
HETATM   32  C1  UNL     1     -36.702  12.946 -45.638  1.00  0.00     0.005 C 
ENDBRANCH  30  31
ENDBRANCH  29  30
ENDBRANCH  26  29
ENDBRANCH  22  23
ENDBRANCH  21  22
ENDBRANCH  19  21
ENDBRANCH   1  18
BRANCH  13  33
HETATM   33  C20 UNL     1     -32.715   8.440 -48.622  1.00  0.00     0.010 C 
HETATM   34  C21 UNL     1     -31.216   8.734 -48.430  1.00  0.00     0.015 C 
HETATM   35  C22 UNL     1     -33.323   8.491 -47.247  1.00  0.00     0.015 C 
ENDBRANCH  13  33
TORSDOF 8
ENDMDL
MODEL 3
REMARK VINA RESULT: -8.308006548      2.411      4.913
REMARK  8 active torsions:
REMARK  status: ('A' for Active; 'I' for Inactive)
REMARK    1  A    between atoms: C2_2  and  C3_3 
REMARK    2  A    between atoms: C3_3  and  C4_4 
REMARK    3  A    between atoms: C4_4  and  N1_5 
REMARK    4  A    between atoms: N2_8  and  C7_9 
REMARK    5  A    between atoms: C7_9  and  C8_10 
REMARK    6  A    between atoms: C8_10  and  C9_11 
REMARK    7  A    between atoms: N3_12  and  C10_14 
REMARK    8  A    between atoms: C19_26  and  C20_27 
ROOT
HETATM    1  C10 UNL     1     -32.209  10.812 -51.236  1.00  0.00     0.058 A 
HETATM    2  C11 UNL     1     -32.722  12.041 -51.669  1.00  0.00     0.018 A 
HETATM    3  C12 UNL     1     -33.395  12.908 -50.825  1.00  0.00     0.017 A 
HETATM    4  C13 UNL     1     -33.885  14.126 -51.258  1.00  0.00     0.020 A 
HETATM    5  C14 UNL     1     -33.697  14.485 -52.560  1.00  0.00     0.013 A 
HETATM    6 BR1  UNL     1     -34.324  16.133 -53.267  1.00  0.00    -0.051 Br
HETATM    7  C15 UNL     1     -33.030  13.636 -53.413  1.00  0.00     0.049 A 
HETATM    8  C16 UNL     1     -32.531  12.400 -52.984  1.00  0.00     0.046 A 
HETATM    9  N4  UNL     1     -31.873  11.615 -53.858  1.00  0.00    -0.355 N 
ATOM     10  H4  UNL     1     -31.756  11.920 -54.824  1.00  0.00     0.166 HD
HETATM   11  C17 UNL     1     -31.369  10.429 -53.465  1.00  0.00     0.047 A 
HETATM   12  C18 UNL     1     -30.680   9.649 -54.407  1.00  0.00     0.038 A 
HETATM   13  C19 UNL     1     -30.128   8.434 -54.080  1.00  0.00    -0.051 A 
HETATM   14  C23 UNL     1     -30.287   8.027 -52.779  1.00  0.00     0.027 A 
HETATM   15  C24 UNL     1     -30.967   8.794 -51.845  1.00  0.00     0.026 A 
HETATM   16 BR2  UNL     1     -31.068   8.107 -50.091  1.00  0.00    -0.050 Br
HETATM   17  C25 UNL     1     -31.521  10.009 -52.171  1.00  0.00     0.036 A 
ENDROOT
BRANCH   1  18
HETATM   18  N3  UNL     1     -32.382  10.413 -50.083  1.00  0.00    -0.368 N 
HETATM   19  C9  UNL     1     -33.130   9.858 -49.094  1.00  0.00     0.063 C 
ATOM     20  H3  UNL     1     -31.487  10.597 -49.630  1.00  0.00     0.165 HD
BRANCH  19  21
HETATM   21  C8  UNL     1     -33.962  10.787 -48.206  1.00  0.00     0.074 C 
BRANCH  21  22
HETATM   22  C7  UNL     1     -35.165   9.985 -47.782  1.00  0.00     0.277 C 
BRANCH  22  23
HETATM   23  N2  UNL     1     -36.135  10.784 -47.084  1.00  0.00     0.092 N 
HETATM   24  C6  UNL     1     -37.427  10.686 -47.701  1.00  0.00     0.302 C 
HETATM   25  C5  UNL     1     -37.505  11.461 -48.976  1.00  0.00     0.302 C 
HETATM   26  N1  UNL     1     -37.059  12.814 -48.825  1.00  0.00     0.091 N 
HETATM   27  C27 UNL     1     -36.859  13.123 -47.417  1.00  0.00     0.302 C 
HETATM   28  C26 UNL     1     -35.769  12.165 -46.920  1.00  0.00     0.302 C 
BRANCH  26  29
HETATM   29  C4  UNL     1     -37.935  13.782 -49.452  1.00  0.00     0.272 C 
BRANCH  29  30
HETATM   30  C3  UNL     1     -37.219  15.083 -49.738  1.00  0.00     0.030 C 
BRANCH  30  31
HETATM   31  C2  UNL     1     -37.416  15.474 -51.199  1.00  0.00    -0.003 C 
HETATM   32  C1  UNL     1     -37.750  14.266 -52.033  1.00  0.00     0.005 C 
ENDBRANCH  30  31
ENDBRANCH  29  30
ENDBRANCH  26  29
ENDBRANCH  22  23
ENDBRANCH  21  22
ENDBRANCH  19  21
ENDBRANCH   1  18
BRANCH  13  33
HETATM   33  C20 UNL     1     -29.408   7.602 -55.090  1.00  0.00     0.010 C 
HETATM   34  C21 UNL     1     -28.783   6.397 -54.363  1.00  0.00     0.015 C 
HETATM   35  C22 UNL     1     -30.349   7.023 -56.111  1.00  0.00     0.015 C 
ENDBRANCH  13  33
TORSDOF 8
ENDMDL
MODEL 4
REMARK VINA RESULT: -8.196182327      2.221      8.115
REMARK  8 active torsions:
REMARK  status: ('A' for Active; 'I' for Inactive)
REMARK    1  A    between atoms: C2_2  and  C3_3 
REMARK    2  A    between atoms: C3_3  and  C4_4 
REMARK    3  A    between atoms: C4_4  and  N1_5 
REMARK    4  A    between atoms: N2_8  and  C7_9 
REMARK    5  A    between atoms: C7_9  and  C8_10 
REMARK    6  A    between atoms: C8_10  and  C9_11 
REMARK    7  A    between atoms: N3_12  and  C10_14 
REMARK    8  A    between atoms: C19_26  and  C20_27 
ROOT
HETATM    1  C10 UNL     1     -31.871  10.466 -51.950  1.00  0.00     0.058 A 
HETATM    2  C11 UNL     1     -32.121   9.818 -50.735  1.00  0.00     0.018 A 
HETATM    3  C12 UNL     1     -31.762   8.499 -50.505  1.00  0.00     0.017 A 
HETATM    4  C13 UNL     1     -31.999   7.871 -49.296  1.00  0.00     0.020 A 
HETATM    5  C14 UNL     1     -32.607   8.574 -48.298  1.00  0.00     0.013 A 
HETATM    6 BR1  UNL     1     -32.983   7.817 -46.597  1.00  0.00    -0.051 Br
HETATM    7  C15 UNL     1     -32.971   9.884 -48.509  1.00  0.00     0.049 A 
HETATM    8  C16 UNL     1     -32.734  10.529 -49.729  1.00  0.00     0.046 A 
HETATM    9  N4  UNL     1     -33.098  11.818 -49.877  1.00  0.00    -0.355 N 
ATOM     10  H4  UNL     1     -33.551  12.307 -49.105  1.00  0.00     0.166 HD
HETATM   11  C17 UNL     1     -32.866  12.465 -51.035  1.00  0.00     0.047 A 
HETATM   12  C18 UNL     1     -33.251  13.811 -51.139  1.00  0.00     0.038 A 
HETATM   13  C19 UNL     1     -33.039  14.541 -52.283  1.00  0.00    -0.051 A 
HETATM   14  C23 UNL     1     -32.427  13.879 -53.319  1.00  0.00     0.027 A 
HETATM   15  C24 UNL     1     -32.045  12.550 -53.221  1.00  0.00     0.026 A 
HETATM   16 BR2  UNL     1     -31.186  11.798 -54.723  1.00  0.00    -0.050 Br
HETATM   17  C25 UNL     1     -32.259  11.818 -52.077  1.00  0.00     0.036 A 
ENDROOT
BRANCH   1  18
HETATM   18  N3  UNL     1     -31.363   9.874 -52.904  1.00  0.00    -0.368 N 
HETATM   19  C9  UNL     1     -31.058   8.753 -53.609  1.00  0.00     0.063 C 
ATOM     20  H3  UNL     1     -30.954  10.624 -53.460  1.00  0.00     0.165 HD
BRANCH  19  21
HETATM   21  C8  UNL     1     -29.741   8.037 -53.298  1.00  0.00     0.074 C 
BRANCH  21  22
HETATM   22  C7  UNL     1     -29.969   6.587 -53.638  1.00  0.00     0.277 C 
BRANCH  22  23
HETATM   23  N2  UNL     1     -29.003   6.089 -54.580  1.00  0.00     0.092 N 
HETATM   24  C6  UNL     1     -28.925   6.935 -55.737  1.00  0.00     0.302 C 
HETATM   25  C5  UNL     1     -30.100   6.765 -56.643  1.00  0.00     0.302 C 
HETATM   26  N1  UNL     1     -30.347   5.392 -56.971  1.00  0.00     0.091 N 
HETATM   27  C27 UNL     1     -29.248   4.559 -56.505  1.00  0.00     0.302 C 
HETATM   28  C26 UNL     1     -29.206   4.723 -54.981  1.00  0.00     0.302 C 
BRANCH  26  29
HETATM   29  C4  UNL     1     -30.605   5.175 -58.379  1.00  0.00     0.272 C 
BRANCH  29  30
HETATM   30  C3  UNL     1     -31.062   6.442 -59.068  1.00  0.00     0.030 C 
BRANCH  30  31
HETATM   31  C2  UNL     1     -31.243   6.186 -60.560  1.00  0.00    -0.003 C 
HETATM   32  C1  UNL     1     -31.101   7.465 -61.341  1.00  0.00     0.005 C 
ENDBRANCH  30  31
ENDBRANCH  29  30
ENDBRANCH  26  29
ENDBRANCH  22  23
ENDBRANCH  21  22
ENDBRANCH  19  21
ENDBRANCH   1  18
BRANCH  13  33
HETATM   33  C20 UNL     1     -33.462  15.969 -52.394  1.00  0.00     0.010 C 
HETATM   34  C21 UNL     1     -32.243  16.801 -52.831  1.00  0.00     0.015 C 
HETATM   35  C22 UNL     1     -34.498  16.162 -53.467  1.00  0.00     0.015 C 
ENDBRANCH  13  33
TORSDOF 8
ENDMDL
MODEL 5
REMARK VINA RESULT: -8.095795197      3.470      6.048
REMARK  8 active torsions:
REMARK  status: ('A' for Active; 'I' for Inactive)
REMARK    1  A    between atoms: C2_2  and  C3_3 
REMARK    2  A    between atoms: C3_3  and  C4_4 
REMARK    3  A    between atoms: C4_4  and  N1_5 
REMARK    4  A    between atoms: N2_8  and  C7_9 
REMARK    5  A    between atoms: C7_9  and  C8_10 
REMARK    6  A    between atoms: C8_10  and  C9_11 
REMARK    7  A    between atoms: N3_12  and  C10_14 
REMARK    8  A    between atoms: C19_26  and  C20_27 
ROOT
HETATM    1  C10 UNL     1     -36.148  13.085 -49.755  1.00  0.00     0.058 A 
HETATM    2  C11 UNL     1     -35.827  11.927 -49.038  1.00  0.00     0.018 A 
HETATM    3  C12 UNL     1     -36.775  11.194 -48.341  1.00  0.00     0.017 A 
HETATM    4  C13 UNL     1     -36.452  10.042 -47.648  1.00  0.00     0.020 A 
HETATM    5  C14 UNL     1     -35.157   9.613 -47.652  1.00  0.00     0.013 A 
HETATM    6 BR1  UNL     1     -34.596   8.046 -46.737  1.00  0.00    -0.051 Br
HETATM    7  C15 UNL     1     -34.203  10.328 -48.339  1.00  0.00     0.049 A 
HETATM    8  C16 UNL     1     -34.520  11.496 -49.044  1.00  0.00     0.046 A 
HETATM    9  N4  UNL     1     -33.549  12.148 -49.712  1.00  0.00    -0.355 N 
ATOM     10  H4  UNL     1     -32.594  11.795 -49.688  1.00  0.00     0.166 HD
HETATM   11  C17 UNL     1     -33.833  13.264 -50.411  1.00  0.00     0.047 A 
HETATM   12  C18 UNL     1     -32.792  13.905 -51.101  1.00  0.00     0.038 A 
HETATM   13  C19 UNL     1     -33.003  15.040 -51.844  1.00  0.00    -0.051 A 
HETATM   14  C23 UNL     1     -34.292  15.513 -51.875  1.00  0.00     0.027 A 
HETATM   15  C24 UNL     1     -35.323  14.884 -51.194  1.00  0.00     0.026 A 
HETATM   16 BR2  UNL     1     -37.042  15.642 -51.365  1.00  0.00    -0.050 Br
HETATM   17  C25 UNL     1     -35.113  13.749 -50.449  1.00  0.00     0.036 A 
ENDROOT
BRANCH   1  18
HETATM   18  N3  UNL     1     -37.290  13.547 -49.755  1.00  0.00    -0.368 N 
HETATM   19  C9  UNL     1     -38.637  13.445 -49.607  1.00  0.00     0.063 C 
ATOM     20  H3  UNL     1     -37.151  14.529 -49.995  1.00  0.00     0.165 HD
BRANCH  19  21
HETATM   21  C8  UNL     1     -39.477  13.090 -50.837  1.00  0.00     0.074 C 
BRANCH  21  22
HETATM   22  C7  UNL     1     -39.210  11.632 -51.112  1.00  0.00     0.277 C 
BRANCH  22  23
HETATM   23  N2  UNL     1     -38.834  11.395 -52.480  1.00  0.00     0.092 N 
HETATM   24  C6  UNL     1     -38.244  10.097 -52.637  1.00  0.00     0.302 C 
HETATM   25  C5  UNL     1     -36.851  10.040 -52.101  1.00  0.00     0.302 C 
HETATM   26  N1  UNL     1     -36.024  11.094 -52.608  1.00  0.00     0.091 N 
HETATM   27  C27 UNL     1     -36.711  11.802 -53.678  1.00  0.00     0.302 C 
HETATM   28  C26 UNL     1     -37.977  12.400 -53.049  1.00  0.00     0.302 C 
BRANCH  26  29
HETATM   29  C4  UNL     1     -34.716  10.643 -53.038  1.00  0.00     0.272 C 
BRANCH  29  30
HETATM   30  C3  UNL     1     -33.949  11.740 -53.742  1.00  0.00     0.030 C 
BRANCH  30  31
HETATM   31  C2  UNL     1     -32.464  11.393 -53.781  1.00  0.00    -0.003 C 
HETATM   32  C1  UNL     1     -31.683  12.475 -54.478  1.00  0.00     0.005 C 
ENDBRANCH  30  31
ENDBRANCH  29  30
ENDBRANCH  26  29
ENDBRANCH  22  23
ENDBRANCH  21  22
ENDBRANCH  19  21
ENDBRANCH   1  18
BRANCH  13  33
HETATM   33  C20 UNL     1     -31.890  15.725 -52.567  1.00  0.00     0.010 C 
HETATM   34  C21 UNL     1     -32.417  17.069 -53.102  1.00  0.00     0.015 C 
HETATM   35  C22 UNL     1     -30.753  16.068 -51.643  1.00  0.00     0.015 C 
ENDBRANCH  13  33
TORSDOF 8
ENDMDL
