MODEL 1
REMARK VINA RESULT: -7.704632158      0.000      0.000
REMARK  9 active torsions:
REMARK  status: ('A' for Active; 'I' for Inactive)
REMARK    1  A    between atoms: C2_2  and  C3_3 
REMARK    2  A    between atoms: C3_3  and  C4_4 
REMARK    3  A    between atoms: C9_9  and  O1_10 
REMARK    4  A    between atoms: C12_16  and  C13_17 
REMARK    5  A    between atoms: C13_17  and  C14_18 
REMARK    6  A    between atoms: C14_18  and  C15_19 
REMARK    7  A    between atoms: C15_19  and  N1_20 
REMARK    8  A    between atoms: N2_29  and  C23_30 
REMARK    9  A    between atoms: C23_30  and  C24_31 
ROOT
HETATM    1  C4  UNL     1     -33.408  11.464 -49.792  1.00  0.00     0.003 A 
HETATM    2  C5  UNL     1     -32.796  11.388 -51.066  1.00  0.00     0.015 A 
HETATM    3  C6  UNL     1     -33.165  11.253 -52.486  1.00  0.00     0.013 C 
HETATM    4  C7  UNL     1     -32.080  10.796 -53.438  1.00  0.00     0.058 C 
HETATM    5  C8  UNL     1     -31.837   9.362 -53.467  1.00  0.00     0.011 A 
HETATM    6  C9  UNL     1     -30.920   8.884 -54.383  1.00  0.00     0.093 A 
HETATM    7  C10 UNL     1     -30.624   7.539 -54.485  1.00  0.00     0.067 A 
HETATM    8 BR1  UNL     1     -29.350   6.889 -55.760  1.00  0.00    -0.046 Br
HETATM    9  C11 UNL     1     -31.230   6.601 -53.676  1.00  0.00     0.063 A 
HETATM   10 CL1  UNL     1     -30.841   4.895 -53.824  1.00  0.00    -0.082 Cl
HETATM   11  C12 UNL     1     -32.149   7.065 -52.757  1.00  0.00    -0.001 A 
HETATM   12  C18 UNL     1     -32.433   8.411 -52.667  1.00  0.00     0.086 A 
HETATM   13  O2  UNL     1     -33.357   8.942 -51.754  1.00  0.00    -0.343 OA
HETATM   14  C19 UNL     1     -34.047  10.133 -52.002  1.00  0.00     0.149 C 
HETATM   15  C20 UNL     1     -34.257  10.963 -50.801  1.00  0.00     0.000 A 
HETATM   16  C21 UNL     1     -35.332  11.885 -51.127  1.00  0.00     0.057 C 
HETATM   17  C22 UNL     1     -35.019  13.339 -51.231  1.00  0.00     0.064 C 
HETATM   18  N2  UNL     1     -34.115  13.525 -52.290  1.00  0.00    -0.373 N 
HETATM   19  C29 UNL     1     -33.871  12.399 -53.119  1.00  0.00     0.139 C 
ENDROOT
BRANCH  11  20
HETATM   20  C13 UNL     1     -32.822   6.106 -51.877  1.00  0.00     0.045 C 
BRANCH  20  21
HETATM   21  C14 UNL     1     -32.099   5.760 -50.629  1.00  0.00     0.035 C 
BRANCH  21  22
HETATM   22  C15 UNL     1     -32.475   6.576 -49.436  1.00  0.00     0.271 C 
BRANCH  22  23
HETATM   23  N1  UNL     1     -31.236   6.811 -48.678  1.00  0.00     0.080 N 
HETATM   24  C16 UNL     1     -30.538   7.886 -49.398  1.00  0.00     0.309 C 
HETATM   25  C17 UNL     1     -31.562   7.361 -47.363  1.00  0.00     0.309 C 
ENDBRANCH  22  23
ENDBRANCH  21  22
ENDBRANCH  20  21
ENDBRANCH  11  20
BRANCH   6  26
HETATM   26  O1  UNL     1     -30.260   9.747 -55.236  1.00  0.00    -0.359 OA
ATOM     27  H1  UNL     1     -30.232   9.578 -56.170  1.00  0.00     0.217 HD
ENDBRANCH   6  26
BRANCH   1  28
HETATM   28  C3  UNL     1     -33.185  10.563 -48.587  1.00  0.00     0.005 C 
BRANCH  28  29
HETATM   29  C2  UNL     1     -34.376  10.547 -47.672  1.00  0.00    -0.004 C 
HETATM   30  C1  UNL     1     -34.762  11.913 -47.196  1.00  0.00     0.005 C 
ENDBRANCH  28  29
ENDBRANCH   1  28
BRANCH  18  31
HETATM   31  C23 UNL     1     -33.928  14.810 -52.809  1.00  0.00     0.067 C 
BRANCH  31  32
HETATM   32  C24 UNL     1     -32.519  15.336 -52.813  1.00  0.00     0.024 C 
HETATM   33  C25 UNL     1     -31.808  15.210 -51.505  1.00  0.00     0.010 C 
HETATM   34  C26 UNL     1     -30.639  16.185 -51.683  1.00  0.00     0.001 C 
HETATM   35  C27 UNL     1     -31.357  17.389 -52.253  1.00  0.00     0.001 C 
HETATM   36  C28 UNL     1     -32.550  16.855 -53.011  1.00  0.00     0.010 C 
ENDBRANCH  31  32
ENDBRANCH  18  31
TORSDOF 9
ENDMDL
MODEL 2
REMARK VINA RESULT: -7.520690635      3.921      7.718
REMARK  9 active torsions:
REMARK  status: ('A' for Active; 'I' for Inactive)
REMARK    1  A    between atoms: C2_2  and  C3_3 
REMARK    2  A    between atoms: C3_3  and  C4_4 
REMARK    3  A    between atoms: C9_9  and  O1_10 
REMARK    4  A    between atoms: C12_16  and  C13_17 
REMARK    5  A    between atoms: C13_17  and  C14_18 
REMARK    6  A    between atoms: C14_18  and  C15_19 
REMARK    7  A    between atoms: C15_19  and  N1_20 
REMARK    8  A    between atoms: N2_29  and  C23_30 
REMARK    9  A    between atoms: C23_30  and  C24_31 
ROOT
HETATM    1  C4  UNL     1     -32.113  14.294 -52.836  1.00  0.00     0.003 A 
HETATM    2  C5  UNL     1     -32.334  13.156 -52.023  1.00  0.00     0.015 A 
HETATM    3  C6  UNL     1     -33.048  11.867 -52.061  1.00  0.00     0.013 C 
HETATM    4  C7  UNL     1     -33.304  11.184 -50.734  1.00  0.00     0.058 C 
HETATM    5  C8  UNL     1     -34.446  11.683 -49.984  1.00  0.00     0.011 A 
HETATM    6  C9  UNL     1     -34.776  11.035 -48.809  1.00  0.00     0.093 A 
HETATM    7  C10 UNL     1     -35.844  11.436 -48.031  1.00  0.00     0.067 A 
HETATM    8 BR1  UNL     1     -36.291  10.528 -46.403  1.00  0.00    -0.046 Br
HETATM    9  C11 UNL     1     -36.639  12.505 -48.386  1.00  0.00     0.063 A 
HETATM   10 CL1  UNL     1     -37.993  12.996 -47.382  1.00  0.00    -0.082 Cl
HETATM   11  C12 UNL     1     -36.320  13.161 -49.557  1.00  0.00    -0.001 A 
HETATM   12  C18 UNL     1     -35.251  12.749 -50.323  1.00  0.00     0.086 A 
HETATM   13  O2  UNL     1     -34.878  13.375 -51.523  1.00  0.00    -0.343 OA
HETATM   14  C19 UNL     1     -34.212  12.689 -52.545  1.00  0.00     0.149 C 
HETATM   15  C20 UNL     1     -33.205  13.502 -53.251  1.00  0.00     0.000 A 
HETATM   16  C21 UNL     1     -32.950  12.827 -54.512  1.00  0.00     0.057 C 
HETATM   17  C22 UNL     1     -31.608  12.217 -54.738  1.00  0.00     0.064 C 
HETATM   18  N2  UNL     1     -31.419  11.196 -53.792  1.00  0.00    -0.373 N 
HETATM   19  C29 UNL     1     -32.549  10.839 -53.012  1.00  0.00     0.139 C 
ENDROOT
BRANCH  11  20
HETATM   20  C13 UNL     1     -37.136  14.302 -49.979  1.00  0.00     0.045 C 
BRANCH  20  21
HETATM   21  C14 UNL     1     -38.391  13.966 -50.695  1.00  0.00     0.035 C 
BRANCH  21  22
HETATM   22  C15 UNL     1     -38.260  13.857 -52.179  1.00  0.00     0.271 C 
BRANCH  22  23
HETATM   23  N1  UNL     1     -38.571  12.461 -52.528  1.00  0.00     0.080 N 
HETATM   24  C16 UNL     1     -39.932  12.494 -53.081  1.00  0.00     0.309 C 
HETATM   25  C17 UNL     1     -37.707  12.026 -53.625  1.00  0.00     0.309 C 
ENDBRANCH  22  23
ENDBRANCH  21  22
ENDBRANCH  20  21
ENDBRANCH  11  20
BRANCH   6  26
HETATM   26  O1  UNL     1     -34.039   9.953 -48.369  1.00  0.00    -0.359 OA
ATOM     27  H1  UNL     1     -33.931   9.785 -47.441  1.00  0.00     0.217 HD
ENDBRANCH   6  26
BRANCH   1  28
HETATM   28  C3  UNL     1     -32.416  15.750 -52.517  1.00  0.00     0.005 C 
BRANCH  28  29
HETATM   29  C2  UNL     1     -31.314  16.389 -51.722  1.00  0.00    -0.004 C 
HETATM   30  C1  UNL     1     -31.057  17.809 -52.123  1.00  0.00     0.005 C 
ENDBRANCH  28  29
ENDBRANCH   1  28
BRANCH  18  31
HETATM   31  C23 UNL     1     -30.404  10.257 -53.997  1.00  0.00     0.067 C 
BRANCH  31  32
HETATM   32  C24 UNL     1     -30.812   8.810 -53.988  1.00  0.00     0.024 C 
HETATM   33  C25 UNL     1     -30.268   8.021 -52.842  1.00  0.00     0.010 C 
HETATM   34  C26 UNL     1     -30.464   6.580 -53.326  1.00  0.00     0.001 C 
HETATM   35  C27 UNL     1     -29.931   6.679 -54.739  1.00  0.00     0.001 C 
HETATM   36  C28 UNL     1     -30.180   8.100 -55.189  1.00  0.00     0.010 C 
ENDBRANCH  31  32
ENDBRANCH  18  31
TORSDOF 9
ENDMDL
MODEL 3
REMARK VINA RESULT: -7.405525637      3.720      7.242
REMARK  9 active torsions:
REMARK  status: ('A' for Active; 'I' for Inactive)
REMARK    1  A    between atoms: C2_2  and  C3_3 
REMARK    2  A    between atoms: C3_3  and  C4_4 
REMARK    3  A    between atoms: C9_9  and  O1_10 
REMARK    4  A    between atoms: C12_16  and  C13_17 
REMARK    5  A    between atoms: C13_17  and  C14_18 
REMARK    6  A    between atoms: C14_18  and  C15_19 
REMARK    7  A    between atoms: C15_19  and  N1_20 
REMARK    8  A    between atoms: N2_29  and  C23_30 
REMARK    9  A    between atoms: C23_30  and  C24_31 
ROOT
HETATM    1  C4  UNL     1     -32.071  13.970 -51.966  1.00  0.00     0.003 A 
HETATM    2  C5  UNL     1     -32.147  12.640 -51.488  1.00  0.00     0.015 A 
HETATM    3  C6  UNL     1     -32.851  11.378 -51.778  1.00  0.00     0.013 C 
HETATM    4  C7  UNL     1     -32.878  10.338 -50.678  1.00  0.00     0.058 C 
HETATM    5  C8  UNL     1     -33.880  10.545 -49.645  1.00  0.00     0.011 A 
HETATM    6  C9  UNL     1     -34.006   9.577 -48.668  1.00  0.00     0.093 A 
HETATM    7  C10 UNL     1     -34.930   9.687 -47.647  1.00  0.00     0.067 A 
HETATM    8 BR1  UNL     1     -35.094   8.336 -46.298  1.00  0.00    -0.046 Br
HETATM    9  C11 UNL     1     -35.778  10.770 -47.550  1.00  0.00     0.063 A 
HETATM   10 CL1  UNL     1     -36.947  10.888 -46.246  1.00  0.00    -0.082 Cl
HETATM   11  C12 UNL     1     -35.663  11.744 -48.521  1.00  0.00    -0.001 A 
HETATM   12  C18 UNL     1     -34.735  11.620 -49.533  1.00  0.00     0.086 A 
HETATM   13  O2  UNL     1     -34.572  12.577 -50.547  1.00  0.00    -0.343 OA
HETATM   14  C19 UNL     1     -34.084  12.241 -51.815  1.00  0.00     0.149 C 
HETATM   15  C20 UNL     1     -33.212  13.271 -52.410  1.00  0.00     0.000 A 
HETATM   16  C21 UNL     1     -33.170  12.992 -53.836  1.00  0.00     0.057 C 
HETATM   17  C22 UNL     1     -31.882  12.541 -54.437  1.00  0.00     0.064 C 
HETATM   18  N2  UNL     1     -31.532  11.306 -53.865  1.00  0.00    -0.373 N 
HETATM   19  C29 UNL     1     -32.514  10.686 -53.050  1.00  0.00     0.139 C 
ENDROOT
BRANCH  11  20
HETATM   20  C13 UNL     1     -36.543  12.913 -48.463  1.00  0.00     0.045 C 
BRANCH  20  21
HETATM   21  C14 UNL     1     -37.823  12.794 -49.205  1.00  0.00     0.035 C 
BRANCH  21  22
HETATM   22  C15 UNL     1     -38.295  14.053 -49.854  1.00  0.00     0.271 C 
BRANCH  22  23
HETATM   23  N1  UNL     1     -37.095  14.745 -50.352  1.00  0.00     0.080 N 
HETATM   24  C16 UNL     1     -37.116  14.557 -51.810  1.00  0.00     0.309 C 
HETATM   25  C17 UNL     1     -37.234  16.185 -50.136  1.00  0.00     0.309 C 
ENDBRANCH  22  23
ENDBRANCH  21  22
ENDBRANCH  20  21
ENDBRANCH  11  20
BRANCH   6  26
HETATM   26  O1  UNL     1     -33.201   8.455 -48.679  1.00  0.00    -0.359 OA
ATOM     27  H1  UNL     1     -33.495   7.651 -49.090  1.00  0.00     0.217 HD
ENDBRANCH   6  26
BRANCH   1  28
HETATM   28  C3  UNL     1     -32.322  15.260 -51.200  1.00  0.00     0.005 C 
BRANCH  28  29
HETATM   29  C2  UNL     1     -31.480  16.391 -51.717  1.00  0.00    -0.004 C 
HETATM   30  C1  UNL     1     -32.063  17.042 -52.933  1.00  0.00     0.005 C 
ENDBRANCH  28  29
ENDBRANCH   1  28
BRANCH  18  31
HETATM   31  C23 UNL     1     -30.562  10.517 -54.489  1.00  0.00     0.067 C 
BRANCH  31  32
HETATM   32  C24 UNL     1     -30.670   9.031 -54.288  1.00  0.00     0.024 C 
HETATM   33  C25 UNL     1     -29.818   8.492 -53.185  1.00  0.00     0.010 C 
HETATM   34  C26 UNL     1     -29.794   6.993 -53.504  1.00  0.00     0.001 C 
HETATM   35  C27 UNL     1     -29.505   7.023 -54.990  1.00  0.00     0.001 C 
HETATM   36  C28 UNL     1     -30.094   8.313 -55.512  1.00  0.00     0.010 C 
ENDBRANCH  31  32
ENDBRANCH  18  31
TORSDOF 9
ENDMDL
MODEL 4
REMARK VINA RESULT: -7.357715964      3.043      5.605
REMARK  9 active torsions:
REMARK  status: ('A' for Active; 'I' for Inactive)
REMARK    1  A    between atoms: C2_2  and  C3_3 
REMARK    2  A    between atoms: C3_3  and  C4_4 
REMARK    3  A    between atoms: C9_9  and  O1_10 
REMARK    4  A    between atoms: C12_16  and  C13_17 
REMARK    5  A    between atoms: C13_17  and  C14_18 
REMARK    6  A    between atoms: C14_18  and  C15_19 
REMARK    7  A    between atoms: C15_19  and  N1_20 
REMARK    8  A    between atoms: N2_29  and  C23_30 
REMARK    9  A    between atoms: C23_30  and  C24_31 
ROOT
HETATM    1  C4  UNL     1     -33.250  12.703 -53.487  1.00  0.00     0.003 A 
HETATM    2  C5  UNL     1     -33.987  12.549 -52.288  1.00  0.00     0.015 A 
HETATM    3  C6  UNL     1     -34.003  13.052 -50.903  1.00  0.00     0.013 C 
HETATM    4  C7  UNL     1     -34.766  12.235 -49.883  1.00  0.00     0.058 C 
HETATM    5  C8  UNL     1     -34.058  11.081 -49.351  1.00  0.00     0.011 A 
HETATM    6  C9  UNL     1     -34.676  10.353 -48.352  1.00  0.00     0.093 A 
HETATM    7  C10 UNL     1     -34.082   9.243 -47.785  1.00  0.00     0.067 A 
HETATM    8 BR1  UNL     1     -34.948   8.242 -46.400  1.00  0.00    -0.046 Br
HETATM    9  C11 UNL     1     -32.838   8.802 -48.186  1.00  0.00     0.063 A 
HETATM   10 CL1  UNL     1     -32.100   7.389 -47.450  1.00  0.00    -0.082 Cl
HETATM   11  C12 UNL     1     -32.211   9.520 -49.183  1.00  0.00    -0.001 A 
HETATM   12  C18 UNL     1     -32.817  10.626 -49.740  1.00  0.00     0.086 A 
HETATM   13  O2  UNL     1     -32.229  11.396 -50.755  1.00  0.00    -0.343 OA
HETATM   14  C19 UNL     1     -32.528  12.751 -50.929  1.00  0.00     0.149 C 
HETATM   15  C20 UNL     1     -32.577  13.175 -52.340  1.00  0.00     0.000 A 
HETATM   16  C21 UNL     1     -32.445  14.623 -52.334  1.00  0.00     0.057 C 
HETATM   17  C22 UNL     1     -33.609  15.448 -52.766  1.00  0.00     0.064 C 
HETATM   18  N2  UNL     1     -34.669  15.226 -51.870  1.00  0.00    -0.373 N 
HETATM   19  C29 UNL     1     -34.363  14.481 -50.701  1.00  0.00     0.139 C 
ENDROOT
BRANCH  11  20
HETATM   20  C13 UNL     1     -30.887   9.093 -49.643  1.00  0.00     0.045 C 
BRANCH  20  21
HETATM   21  C14 UNL     1     -30.876   8.049 -50.697  1.00  0.00     0.035 C 
BRANCH  21  22
HETATM   22  C15 UNL     1     -30.840   8.569 -52.097  1.00  0.00     0.271 C 
BRANCH  22  23
HETATM   23  N1  UNL     1     -30.063   7.598 -52.886  1.00  0.00     0.080 N 
HETATM   24  C16 UNL     1     -30.929   6.417 -53.009  1.00  0.00     0.309 C 
HETATM   25  C17 UNL     1     -29.887   8.104 -54.247  1.00  0.00     0.309 C 
ENDBRANCH  22  23
ENDBRANCH  21  22
ENDBRANCH  20  21
ENDBRANCH  11  20
BRANCH   6  26
HETATM   26  O1  UNL     1     -35.923  10.716 -47.883  1.00  0.00    -0.359 OA
ATOM     27  H1  UNL     1     -36.531  11.189 -48.437  1.00  0.00     0.217 HD
ENDBRANCH   6  26
BRANCH   1  28
HETATM   28  C3  UNL     1     -32.536  11.631 -54.296  1.00  0.00     0.005 C 
BRANCH  28  29
HETATM   29  C2  UNL     1     -31.046  11.693 -54.117  1.00  0.00    -0.004 C 
HETATM   30  C1  UNL     1     -30.335  12.200 -55.334  1.00  0.00     0.005 C 
ENDBRANCH  28  29
ENDBRANCH   1  28
BRANCH  18  31
HETATM   31  C23 UNL     1     -35.744  16.119 -51.851  1.00  0.00     0.067 C 
BRANCH  31  32
HETATM   32  C24 UNL     1     -37.102  15.534 -51.581  1.00  0.00     0.024 C 
HETATM   33  C25 UNL     1     -37.348  15.173 -50.153  1.00  0.00     0.010 C 
HETATM   34  C26 UNL     1     -38.558  14.239 -50.263  1.00  0.00     0.001 C 
HETATM   35  C27 UNL     1     -38.120  13.341 -51.400  1.00  0.00     0.001 C 
HETATM   36  C28 UNL     1     -37.210  14.172 -52.274  1.00  0.00     0.010 C 
ENDBRANCH  31  32
ENDBRANCH  18  31
TORSDOF 9
ENDMDL
MODEL 5
REMARK VINA RESULT: -7.098069497      1.658      2.563
REMARK  9 active torsions:
REMARK  status: ('A' for Active; 'I' for Inactive)
REMARK    1  A    between atoms: C2_2  and  C3_3 
REMARK    2  A    between atoms: C3_3  and  C4_4 
REMARK    3  A    between atoms: C9_9  and  O1_10 
REMARK    4  A    between atoms: C12_16  and  C13_17 
REMARK    5  A    between atoms: C13_17  and  C14_18 
REMARK    6  A    between atoms: C14_18  and  C15_19 
REMARK    7  A    between atoms: C15_19  and  N1_20 
REMARK    8  A    between atoms: N2_29  and  C23_30 
REMARK    9  A    between atoms: C23_30  and  C24_31 
ROOT
HETATM    1  C4  UNL     1     -33.615  11.586 -49.843  1.00  0.00     0.003 A 
HETATM    2  C5  UNL     1     -32.952  11.524 -51.093  1.00  0.00     0.015 A 
HETATM    3  C6  UNL     1     -33.265  11.427 -52.529  1.00  0.00     0.013 C 
HETATM    4  C7  UNL     1     -32.151  10.968 -53.446  1.00  0.00     0.058 C 
HETATM    5  C8  UNL     1     -31.935   9.530 -53.496  1.00  0.00     0.011 A 
HETATM    6  C9  UNL     1     -30.990   9.053 -54.384  1.00  0.00     0.093 A 
HETATM    7  C10 UNL     1     -30.717   7.705 -54.503  1.00  0.00     0.067 A 
HETATM    8 BR1  UNL     1     -29.404   7.056 -55.739  1.00  0.00    -0.046 Br
HETATM    9  C11 UNL     1     -31.374   6.762 -53.741  1.00  0.00     0.063 A 
HETATM   10 CL1  UNL     1     -31.013   5.052 -53.910  1.00  0.00    -0.082 Cl
HETATM   11  C12 UNL     1     -32.320   7.226 -52.850  1.00  0.00    -0.001 A 
HETATM   12  C18 UNL     1     -32.582   8.575 -52.743  1.00  0.00     0.086 A 
HETATM   13  O2  UNL     1     -33.532   9.105 -51.856  1.00  0.00    -0.343 OA
HETATM   14  C19 UNL     1     -34.188  10.316 -52.106  1.00  0.00     0.149 C 
HETATM   15  C20 UNL     1     -34.431  11.124 -50.897  1.00  0.00     0.000 A 
HETATM   16  C21 UNL     1     -35.473  12.074 -51.247  1.00  0.00     0.057 C 
HETATM   17  C22 UNL     1     -35.128  13.523 -51.306  1.00  0.00     0.064 C 
HETATM   18  N2  UNL     1     -34.178  13.713 -52.323  1.00  0.00    -0.373 N 
HETATM   19  C29 UNL     1     -33.922  12.600 -53.165  1.00  0.00     0.139 C 
ENDROOT
BRANCH  11  20
HETATM   20  C13 UNL     1     -33.048   6.263 -52.020  1.00  0.00     0.045 C 
BRANCH  20  21
HETATM   21  C14 UNL     1     -34.207   5.600 -52.666  1.00  0.00     0.035 C 
BRANCH  21  22
HETATM   22  C15 UNL     1     -35.518   6.285 -52.463  1.00  0.00     0.271 C 
BRANCH  22  23
HETATM   23  N1  UNL     1     -36.149   6.390 -53.789  1.00  0.00     0.080 N 
HETATM   24  C16 UNL     1     -36.050   7.811 -54.153  1.00  0.00     0.309 C 
HETATM   25  C17 UNL     1     -35.343   5.671 -54.774  1.00  0.00     0.309 C 
ENDBRANCH  22  23
ENDBRANCH  21  22
ENDBRANCH  20  21
ENDBRANCH  11  20
BRANCH   6  26
HETATM   26  O1  UNL     1     -30.279   9.920 -55.191  1.00  0.00    -0.359 OA
ATOM     27  H1  UNL     1     -29.628   9.592 -55.800  1.00  0.00     0.217 HD
ENDBRANCH   6  26
BRANCH   1  28
HETATM   28  C3  UNL     1     -33.460  10.655 -48.650  1.00  0.00     0.005 C 
BRANCH  28  29
HETATM   29  C2  UNL     1     -32.262   9.760 -48.791  1.00  0.00    -0.004 C 
HETATM   30  C1  UNL     1     -32.595   8.311 -48.611  1.00  0.00     0.005 C 
ENDBRANCH  28  29
ENDBRANCH   1  28
BRANCH  18  31
HETATM   31  C23 UNL     1     -33.944  15.004 -52.805  1.00  0.00     0.067 C 
BRANCH  31  32
HETATM   32  C24 UNL     1     -32.514  15.469 -52.822  1.00  0.00     0.024 C 
HETATM   33  C25 UNL     1     -31.805  15.334 -51.515  1.00  0.00     0.010 C 
HETATM   34  C26 UNL     1     -30.595  16.254 -51.713  1.00  0.00     0.001 C 
HETATM   35  C27 UNL     1     -31.262  17.479 -52.301  1.00  0.00     0.001 C 
HETATM   36  C28 UNL     1     -32.480  16.984 -53.046  1.00  0.00     0.010 C 
ENDBRANCH  31  32
ENDBRANCH  18  31
TORSDOF 9
ENDMDL
