MODEL 1
REMARK VINA RESULT: -6.129532353      0.000      0.000
REMARK  12 active torsions:
REMARK  status: ('A' for Active; 'I' for Inactive)
REMARK    1  A    between atoms: C2_2  and  C3_3 
REMARK    2  A    between atoms: C3_3  and  C4_4 
REMARK    3  A    between atoms: C4_4  and  C5_5 
REMARK    4  A    between atoms: C4_4  and  C7_7 
REMARK    5  A    between atoms: C11_14  and  C12_15 
REMARK    6  A    between atoms: C12_15  and  C14_17 
REMARK    7  A    between atoms: C14_17  and  C15_18 
REMARK    8  A    between atoms: C16_19  and  C17_20 
REMARK    9  A    between atoms: C19_26  and  C20_27 
REMARK   10  A    between atoms: C20_27  and  C21_28 
REMARK   11  A    between atoms: C21_28  and  C22_29 
REMARK   12  A    between atoms: C22_29  and  N3_30 
ROOT
HETATM    1  C7  UNL     1      23.516  46.096  44.344  1.00  0.00     0.082 C 
HETATM    2  C8  UNL     1      23.074  44.714  44.627  1.00  0.00     0.024 C 
HETATM    3  C9  UNL     1      21.992  44.205  43.692  1.00  0.00     0.103 C 
HETATM    4  C10 UNL     1      20.749  43.870  44.432  1.00  0.00     0.219 C 
HETATM    5  O1  UNL     1      20.711  42.744  44.992  1.00  0.00    -0.274 OA
HETATM    6  N1  UNL     1      19.622  44.719  44.547  1.00  0.00    -0.340 N 
ATOM      7  H1  UNL     1      19.107  44.728  45.427  1.00  0.00     0.164 HD
HETATM    8  C11 UNL     1      19.159  45.593  43.449  1.00  0.00     0.191 C 
HETATM    9  N2  UNL     1      18.910  46.940  43.900  1.00  0.00    -0.338 N 
ATOM     10  H2  UNL     1      17.998  47.332  43.663  1.00  0.00     0.164 HD
HETATM   11  C18 UNL     1      19.778  47.781  44.632  1.00  0.00     0.242 C 
HETATM   12  O2  UNL     1      19.343  48.226  45.764  1.00  0.00    -0.271 OA
HETATM   13  C19 UNL     1      21.133  48.224  44.266  1.00  0.00     0.176 C 
HETATM   14  N6  UNL     1      21.697  47.481  43.167  1.00  0.00    -0.347 N 
ATOM     15  H6  UNL     1      21.165  47.467  42.297  1.00  0.00     0.163 HD
HETATM   16  C24 UNL     1      22.924  46.767  43.184  1.00  0.00     0.222 C 
HETATM   17  O3  UNL     1      23.516  46.747  42.047  1.00  0.00    -0.273 OA
ENDROOT
BRANCH  13  18
HETATM   18  C20 UNL     1      21.103  49.669  43.817  1.00  0.00     0.036 C 
BRANCH  18  19
HETATM   19  C21 UNL     1      22.286  50.483  44.207  1.00  0.00     0.022 C 
BRANCH  19  20
HETATM   20  C22 UNL     1      22.021  51.121  45.585  1.00  0.00     0.122 C 
BRANCH  20  21
HETATM   21  N3  UNL     1      22.228  52.549  45.544  1.00  0.00    -0.367 N 
HETATM   22  C23 UNL     1      21.254  53.388  45.772  1.00  0.00     0.196 C 
HETATM   23  N4  UNL     1      19.955  52.925  46.066  1.00  0.00    -0.067 NA
HETATM   24  N5  UNL     1      21.505  54.783  45.723  1.00  0.00    -0.067 NA
ATOM     25  H3  UNL     1      23.157  52.912  45.333  1.00  0.00     0.161 HD
ENDBRANCH  20  21
ENDBRANCH  19  20
ENDBRANCH  18  19
ENDBRANCH  13  18
BRANCH   8  26
HETATM   26  C12 UNL     1      17.825  44.967  43.042  1.00  0.00     0.035 C 
HETATM   27  C13 UNL     1      17.556  43.722  43.876  1.00  0.00     0.015 C 
BRANCH  26  28
HETATM   28  C14 UNL     1      17.729  44.636  41.594  1.00  0.00     0.102 C 
BRANCH  28  29
HETATM   29  C15 UNL     1      16.781  45.613  41.006  1.00  0.00    -0.105 C 
HETATM   30  C16 UNL     1      16.025  46.419  40.548  1.00  0.00    -0.092 C 
BRANCH  30  31
HETATM   31  C17 UNL     1      15.082  47.422  40.011  1.00  0.00     0.208 C 
HETATM   32 CL1  UNL     1      13.433  46.856  40.348  1.00  0.00    -0.117 Cl
ENDBRANCH  30  31
ENDBRANCH  28  29
ENDBRANCH  26  28
ENDBRANCH   8  26
BRANCH   1  33
HETATM   33  C4  UNL     1      25.025  46.306  44.389  1.00  0.00    -0.002 C 
BRANCH  33  34
HETATM   34  C3  UNL     1      25.838  45.101  44.421  1.00  0.00     0.005 C 
BRANCH  34  35
HETATM   35  C2  UNL     1      27.289  45.249  44.680  1.00  0.00    -0.004 C 
HETATM   36  C1  UNL     1      28.112  44.110  45.133  1.00  0.00     0.005 C 
ENDBRANCH  34  35
ENDBRANCH  33  34
BRANCH  33  37
HETATM   37  C5  UNL     1      25.408  47.382  45.347  1.00  0.00     0.001 C 
HETATM   38  C6  UNL     1      24.248  47.929  46.161  1.00  0.00     0.005 C 
ENDBRANCH  33  37
ENDBRANCH   1  33
TORSDOF 12
ENDMDL
MODEL 2
REMARK VINA RESULT: -6.054532392      0.898      1.955
REMARK  12 active torsions:
REMARK  status: ('A' for Active; 'I' for Inactive)
REMARK    1  A    between atoms: C2_2  and  C3_3 
REMARK    2  A    between atoms: C3_3  and  C4_4 
REMARK    3  A    between atoms: C4_4  and  C5_5 
REMARK    4  A    between atoms: C4_4  and  C7_7 
REMARK    5  A    between atoms: C11_14  and  C12_15 
REMARK    6  A    between atoms: C12_15  and  C14_17 
REMARK    7  A    between atoms: C14_17  and  C15_18 
REMARK    8  A    between atoms: C16_19  and  C17_20 
REMARK    9  A    between atoms: C19_26  and  C20_27 
REMARK   10  A    between atoms: C20_27  and  C21_28 
REMARK   11  A    between atoms: C21_28  and  C22_29 
REMARK   12  A    between atoms: C22_29  and  N3_30 
ROOT
HETATM    1  C7  UNL     1      23.250  46.201  44.889  1.00  0.00     0.082 C 
HETATM    2  C8  UNL     1      22.753  44.818  45.037  1.00  0.00     0.024 C 
HETATM    3  C9  UNL     1      21.841  44.362  43.913  1.00  0.00     0.103 C 
HETATM    4  C10 UNL     1      20.488  44.019  44.417  1.00  0.00     0.219 C 
HETATM    5  O1  UNL     1      20.344  42.874  44.917  1.00  0.00    -0.274 OA
HETATM    6  N1  UNL     1      19.366  44.882  44.373  1.00  0.00    -0.340 N 
ATOM      7  H1  UNL     1      18.709  44.867  45.153  1.00  0.00     0.164 HD
HETATM    8  C11 UNL     1      19.105  45.804  43.248  1.00  0.00     0.191 C 
HETATM    9  N2  UNL     1      18.796  47.137  43.704  1.00  0.00    -0.338 N 
ATOM     10  H2  UNL     1      17.942  47.553  43.331  1.00  0.00     0.164 HD
HETATM   11  C18 UNL     1      19.535  47.936  44.605  1.00  0.00     0.242 C 
HETATM   12  O2  UNL     1      18.918  48.345  45.664  1.00  0.00    -0.271 OA
HETATM   13  C19 UNL     1      20.936  48.370  44.493  1.00  0.00     0.176 C 
HETATM   14  N6  UNL     1      21.672  47.660  43.477  1.00  0.00    -0.347 N 
ATOM     15  H6  UNL     1      21.296  47.687  42.529  1.00  0.00     0.163 HD
HETATM   16  C24 UNL     1      22.872  46.925  43.673  1.00  0.00     0.222 C 
HETATM   17  O3  UNL     1      23.648  46.938  42.653  1.00  0.00    -0.273 OA
ENDROOT
BRANCH  13  18
HETATM   18  C20 UNL     1      20.998  49.832  44.103  1.00  0.00     0.036 C 
BRANCH  18  19
HETATM   19  C21 UNL     1      22.349  50.452  44.166  1.00  0.00     0.022 C 
BRANCH  19  20
HETATM   20  C22 UNL     1      22.484  51.219  45.496  1.00  0.00     0.122 C 
BRANCH  20  21
HETATM   21  N3  UNL     1      22.352  52.642  45.291  1.00  0.00    -0.367 N 
HETATM   22  C23 UNL     1      23.332  53.464  45.548  1.00  0.00     0.196 C 
HETATM   23  N4  UNL     1      24.565  52.988  46.040  1.00  0.00    -0.067 NA
HETATM   24  N5  UNL     1      23.157  54.854  45.330  1.00  0.00    -0.067 NA
ATOM     25  H3  UNL     1      21.471  53.014  44.937  1.00  0.00     0.161 HD
ENDBRANCH  20  21
ENDBRANCH  19  20
ENDBRANCH  18  19
ENDBRANCH  13  18
BRANCH   8  26
HETATM   26  C12 UNL     1      17.853  45.217  42.596  1.00  0.00     0.035 C 
HETATM   27  C13 UNL     1      17.622  43.796  43.095  1.00  0.00     0.015 C 
BRANCH  26  28
HETATM   28  C14 UNL     1      17.883  45.231  41.108  1.00  0.00     0.102 C 
BRANCH  28  29
HETATM   29  C15 UNL     1      16.765  46.104  40.678  1.00  0.00    -0.105 C 
HETATM   30  C16 UNL     1      15.870  46.804  40.306  1.00  0.00    -0.092 C 
BRANCH  30  31
HETATM   31  C17 UNL     1      14.784  47.686  39.828  1.00  0.00     0.208 C 
HETATM   32 CL1  UNL     1      13.237  46.936  40.274  1.00  0.00    -0.117 Cl
ENDBRANCH  30  31
ENDBRANCH  28  29
ENDBRANCH  26  28
ENDBRANCH   8  26
BRANCH   1  33
HETATM   33  C4  UNL     1      24.732  46.385  45.197  1.00  0.00    -0.002 C 
BRANCH  33  34
HETATM   34  C3  UNL     1      25.091  47.602  45.909  1.00  0.00     0.005 C 
BRANCH  34  35
HETATM   35  C2  UNL     1      24.026  48.307  46.659  1.00  0.00    -0.004 C 
HETATM   36  C1  UNL     1      24.026  48.357  48.135  1.00  0.00     0.005 C 
ENDBRANCH  34  35
ENDBRANCH  33  34
BRANCH  33  37
HETATM   37  C5  UNL     1      25.591  46.028  44.032  1.00  0.00     0.001 C 
HETATM   38  C6  UNL     1      27.076  45.992  44.345  1.00  0.00     0.005 C 
ENDBRANCH  33  37
ENDBRANCH   1  33
TORSDOF 12
ENDMDL
MODEL 3
REMARK VINA RESULT: -6.011912235      1.405      1.676
REMARK  12 active torsions:
REMARK  status: ('A' for Active; 'I' for Inactive)
REMARK    1  A    between atoms: C2_2  and  C3_3 
REMARK    2  A    between atoms: C3_3  and  C4_4 
REMARK    3  A    between atoms: C4_4  and  C5_5 
REMARK    4  A    between atoms: C4_4  and  C7_7 
REMARK    5  A    between atoms: C11_14  and  C12_15 
REMARK    6  A    between atoms: C12_15  and  C14_17 
REMARK    7  A    between atoms: C14_17  and  C15_18 
REMARK    8  A    between atoms: C16_19  and  C17_20 
REMARK    9  A    between atoms: C19_26  and  C20_27 
REMARK   10  A    between atoms: C20_27  and  C21_28 
REMARK   11  A    between atoms: C21_28  and  C22_29 
REMARK   12  A    between atoms: C22_29  and  N3_30 
ROOT
HETATM    1  C7  UNL     1      23.821  45.465  44.282  1.00  0.00     0.082 C 
HETATM    2  C8  UNL     1      23.288  44.190  44.804  1.00  0.00     0.024 C 
HETATM    3  C9  UNL     1      22.107  43.644  44.022  1.00  0.00     0.103 C 
HETATM    4  C10 UNL     1      20.894  43.541  44.872  1.00  0.00     0.219 C 
HETATM    5  O1  UNL     1      20.802  42.524  45.605  1.00  0.00    -0.274 OA
HETATM    6  N1  UNL     1      19.850  44.497  44.911  1.00  0.00    -0.340 N 
ATOM      7  H1  UNL     1      19.398  44.689  45.805  1.00  0.00     0.164 HD
HETATM    8  C11 UNL     1      19.387  45.230  43.714  1.00  0.00     0.191 C 
HETATM    9  N2  UNL     1      19.280  46.647  43.957  1.00  0.00    -0.338 N 
ATOM     10  H2  UNL     1      18.389  47.080  43.710  1.00  0.00     0.164 HD
HETATM   11  C18 UNL     1      20.261  47.508  44.498  1.00  0.00     0.242 C 
HETATM   12  O2  UNL     1      19.941  48.160  45.567  1.00  0.00    -0.271 OA
HETATM   13  C19 UNL     1      21.619  47.765  43.994  1.00  0.00     0.176 C 
HETATM   14  N6  UNL     1      22.046  46.813  42.999  1.00  0.00    -0.347 N 
ATOM     15  H6  UNL     1      21.457  46.713  42.172  1.00  0.00     0.163 HD
HETATM   16  C24 UNL     1      23.209  46.001  43.063  1.00  0.00     0.222 C 
HETATM   17  O3  UNL     1      23.719  45.752  41.914  1.00  0.00    -0.273 OA
ENDROOT
BRANCH  13  18
HETATM   18  C20 UNL     1      21.678  49.120  43.323  1.00  0.00     0.036 C 
BRANCH  18  19
HETATM   19  C21 UNL     1      22.844  49.967  43.694  1.00  0.00     0.022 C 
BRANCH  19  20
HETATM   20  C22 UNL     1      22.451  50.862  44.885  1.00  0.00     0.122 C 
BRANCH  20  21
HETATM   21  N3  UNL     1      22.503  50.127  46.127  1.00  0.00    -0.367 N 
HETATM   22  C23 UNL     1      23.210  50.547  47.141  1.00  0.00     0.196 C 
HETATM   23  N4  UNL     1      23.955  51.742  47.058  1.00  0.00    -0.067 NA
HETATM   24  N5  UNL     1      23.230  49.793  48.342  1.00  0.00    -0.067 NA
ATOM     25  H3  UNL     1      21.975  49.259  46.215  1.00  0.00     0.161 HD
ENDBRANCH  20  21
ENDBRANCH  19  20
ENDBRANCH  18  19
ENDBRANCH  13  18
BRANCH   8  26
HETATM   26  C12 UNL     1      17.982  44.673  43.485  1.00  0.00     0.035 C 
HETATM   27  C13 UNL     1      17.727  43.497  44.418  1.00  0.00     0.015 C 
BRANCH  26  28
HETATM   28  C14 UNL     1      17.714  44.269  42.077  1.00  0.00     0.102 C 
BRANCH  28  29
HETATM   29  C15 UNL     1      16.505  45.016  41.652  1.00  0.00    -0.105 C 
HETATM   30  C16 UNL     1      15.541  45.621  41.287  1.00  0.00    -0.092 C 
BRANCH  30  31
HETATM   31  C17 UNL     1      14.369  46.393  40.825  1.00  0.00     0.208 C 
HETATM   32 CL1  UNL     1      14.960  47.737  39.827  1.00  0.00    -0.117 Cl
ENDBRANCH  30  31
ENDBRANCH  28  29
ENDBRANCH  26  28
ENDBRANCH   8  26
BRANCH   1  33
HETATM   33  C4  UNL     1      25.341  45.542  44.211  1.00  0.00    -0.002 C 
BRANCH  33  34
HETATM   34  C3  UNL     1      26.065  44.397  44.741  1.00  0.00     0.005 C 
BRANCH  34  35
HETATM   35  C2  UNL     1      27.540  44.492  44.839  1.00  0.00    -0.004 C 
HETATM   36  C1  UNL     1      28.334  43.470  45.549  1.00  0.00     0.005 C 
ENDBRANCH  34  35
ENDBRANCH  33  34
BRANCH  33  37
HETATM   37  C5  UNL     1      25.850  46.884  44.614  1.00  0.00     0.001 C 
HETATM   38  C6  UNL     1      24.892  47.673  45.489  1.00  0.00     0.005 C 
ENDBRANCH  33  37
ENDBRANCH   1  33
TORSDOF 12
ENDMDL
MODEL 4
REMARK VINA RESULT: -5.800064513      4.195      8.293
REMARK  12 active torsions:
REMARK  status: ('A' for Active; 'I' for Inactive)
REMARK    1  A    between atoms: C2_2  and  C3_3 
REMARK    2  A    between atoms: C3_3  and  C4_4 
REMARK    3  A    between atoms: C4_4  and  C5_5 
REMARK    4  A    between atoms: C4_4  and  C7_7 
REMARK    5  A    between atoms: C11_14  and  C12_15 
REMARK    6  A    between atoms: C12_15  and  C14_17 
REMARK    7  A    between atoms: C14_17  and  C15_18 
REMARK    8  A    between atoms: C16_19  and  C17_20 
REMARK    9  A    between atoms: C19_26  and  C20_27 
REMARK   10  A    between atoms: C20_27  and  C21_28 
REMARK   11  A    between atoms: C21_28  and  C22_29 
REMARK   12  A    between atoms: C22_29  and  N3_30 
ROOT
HETATM    1  C7  UNL     1      21.017  45.153  44.594  1.00  0.00     0.082 C 
HETATM    2  C8  UNL     1      21.123  45.638  45.986  1.00  0.00     0.024 C 
HETATM    3  C9  UNL     1      21.059  47.148  46.123  1.00  0.00     0.103 C 
HETATM    4  C10 UNL     1      22.306  47.693  46.716  1.00  0.00     0.219 C 
HETATM    5  O1  UNL     1      22.405  47.643  47.969  1.00  0.00    -0.274 OA
HETATM    6  N1  UNL     1      23.375  48.255  45.977  1.00  0.00    -0.340 N 
ATOM      7  H1  UNL     1      24.329  48.088  46.296  1.00  0.00     0.164 HD
HETATM    8  C11 UNL     1      23.169  49.074  44.764  1.00  0.00     0.191 C 
HETATM    9  N2  UNL     1      24.022  48.654  43.679  1.00  0.00    -0.338 N 
ATOM     10  H2  UNL     1      24.576  49.386  43.233  1.00  0.00     0.164 HD
HETATM   11  C18 UNL     1      24.181  47.349  43.160  1.00  0.00     0.242 C 
HETATM   12  O2  UNL     1      25.377  46.860  43.166  1.00  0.00    -0.271 OA
HETATM   13  C19 UNL     1      23.147  46.463  42.604  1.00  0.00     0.176 C 
HETATM   14  N6  UNL     1      21.805  46.906  42.886  1.00  0.00    -0.347 N 
ATOM     15  H6  UNL     1      21.556  47.848  42.583  1.00  0.00     0.163 HD
HETATM   16  C24 UNL     1      20.798  46.154  43.547  1.00  0.00     0.222 C 
HETATM   17  O3  UNL     1      19.612  46.428  43.143  1.00  0.00    -0.273 OA
ENDROOT
BRANCH  13  18
HETATM   18  C20 UNL     1      23.259  46.416  41.094  1.00  0.00     0.036 C 
BRANCH  18  19
HETATM   19  C21 UNL     1      23.626  45.093  40.522  1.00  0.00     0.022 C 
BRANCH  19  20
HETATM   20  C22 UNL     1      22.943  44.935  39.150  1.00  0.00     0.122 C 
BRANCH  20  21
HETATM   21  N3  UNL     1      23.864  45.219  38.075  1.00  0.00    -0.367 N 
HETATM   22  C23 UNL     1      23.445  45.522  36.877  1.00  0.00     0.196 C 
HETATM   23  N4  UNL     1      22.066  45.581  36.587  1.00  0.00    -0.067 NA
HETATM   24  N5  UNL     1      24.386  45.794  35.852  1.00  0.00    -0.067 NA
ATOM     25  H3  UNL     1      24.867  45.182  38.256  1.00  0.00     0.161 HD
ENDBRANCH  20  21
ENDBRANCH  19  20
ENDBRANCH  18  19
ENDBRANCH  13  18
BRANCH   8  26
HETATM   26  C12 UNL     1      23.606  50.471  45.205  1.00  0.00     0.035 C 
HETATM   27  C13 UNL     1      23.641  50.551  46.726  1.00  0.00     0.015 C 
BRANCH  26  28
HETATM   28  C14 UNL     1      22.760  51.569  44.661  1.00  0.00     0.102 C 
BRANCH  28  29
HETATM   29  C15 UNL     1      23.378  52.836  45.119  1.00  0.00    -0.105 C 
HETATM   30  C16 UNL     1      23.876  53.867  45.465  1.00  0.00    -0.092 C 
BRANCH  30  31
HETATM   31  C17 UNL     1      24.511  55.140  45.867  1.00  0.00     0.208 C 
HETATM   32 CL1  UNL     1      26.264  54.969  45.641  1.00  0.00    -0.117 Cl
ENDBRANCH  30  31
ENDBRANCH  28  29
ENDBRANCH  26  28
ENDBRANCH   8  26
BRANCH   1  33
HETATM   33  C4  UNL     1      20.098  43.952  44.404  1.00  0.00    -0.002 C 
BRANCH  33  34
HETATM   34  C3  UNL     1      18.690  44.250  44.194  1.00  0.00     0.005 C 
BRANCH  34  35
HETATM   35  C2  UNL     1      17.975  43.509  43.128  1.00  0.00    -0.004 C 
HETATM   36  C1  UNL     1      16.997  44.177  42.247  1.00  0.00     0.005 C 
ENDBRANCH  34  35
ENDBRANCH  33  34
BRANCH  33  37
HETATM   37  C5  UNL     1      20.401  42.861  45.375  1.00  0.00     0.001 C 
HETATM   38  C6  UNL     1      21.877  42.527  45.491  1.00  0.00     0.005 C 
ENDBRANCH  33  37
ENDBRANCH   1  33
TORSDOF 12
ENDMDL
MODEL 5
REMARK VINA RESULT: -5.428247652      2.139      3.049
REMARK  12 active torsions:
REMARK  status: ('A' for Active; 'I' for Inactive)
REMARK    1  A    between atoms: C2_2  and  C3_3 
REMARK    2  A    between atoms: C3_3  and  C4_4 
REMARK    3  A    between atoms: C4_4  and  C5_5 
REMARK    4  A    between atoms: C4_4  and  C7_7 
REMARK    5  A    between atoms: C11_14  and  C12_15 
REMARK    6  A    between atoms: C12_15  and  C14_17 
REMARK    7  A    between atoms: C14_17  and  C15_18 
REMARK    8  A    between atoms: C16_19  and  C17_20 
REMARK    9  A    between atoms: C19_26  and  C20_27 
REMARK   10  A    between atoms: C20_27  and  C21_28 
REMARK   11  A    between atoms: C21_28  and  C22_29 
REMARK   12  A    between atoms: C22_29  and  N3_30 
ROOT
HETATM    1  C7  UNL     1      21.949  44.255  44.892  1.00  0.00     0.082 C 
HETATM    2  C8  UNL     1      20.782  43.378  45.122  1.00  0.00     0.024 C 
HETATM    3  C9  UNL     1      19.882  43.210  43.911  1.00  0.00     0.103 C 
HETATM    4  C10 UNL     1      18.512  43.713  44.179  1.00  0.00     0.219 C 
HETATM    5  O1  UNL     1      17.734  42.935  44.789  1.00  0.00    -0.274 OA
HETATM    6  N1  UNL     1      18.029  44.989  43.799  1.00  0.00    -0.340 N 
ATOM      7  H1  UNL     1      17.391  45.475  44.429  1.00  0.00     0.164 HD
HETATM    8  C11 UNL     1      18.410  45.647  42.532  1.00  0.00     0.191 C 
HETATM    9  N2  UNL     1      18.812  47.017  42.736  1.00  0.00    -0.338 N 
ATOM     10  H2  UNL     1      18.350  47.714  42.150  1.00  0.00     0.164 HD
HETATM   11  C18 UNL     1      19.769  47.510  43.651  1.00  0.00     0.242 C 
HETATM   12  O2  UNL     1      19.362  48.393  44.503  1.00  0.00    -0.271 OA
HETATM   13  C19 UNL     1      21.190  47.146  43.761  1.00  0.00     0.176 C 
HETATM   14  N6  UNL     1      21.533  45.961  43.014  1.00  0.00    -0.347 N 
ATOM     15  H6  UNL     1      21.324  45.967  42.016  1.00  0.00     0.163 HD
HETATM   16  C24 UNL     1      22.134  44.787  43.539  1.00  0.00     0.222 C 
HETATM   17  O3  UNL     1      22.894  44.186  42.700  1.00  0.00    -0.273 OA
ENDROOT
BRANCH  13  18
HETATM   18  C20 UNL     1      22.056  48.254  43.200  1.00  0.00     0.036 C 
BRANCH  18  19
HETATM   19  C21 UNL     1      23.151  48.721  44.091  1.00  0.00     0.022 C 
BRANCH  19  20
HETATM   20  C22 UNL     1      22.534  49.288  45.385  1.00  0.00     0.122 C 
BRANCH  20  21
HETATM   21  N3  UNL     1      22.966  48.536  46.539  1.00  0.00    -0.367 N 
HETATM   22  C23 UNL     1      23.470  49.124  47.590  1.00  0.00     0.196 C 
HETATM   23  N4  UNL     1      23.613  50.527  47.633  1.00  0.00    -0.067 NA
HETATM   24  N5  UNL     1      23.880  48.345  48.701  1.00  0.00    -0.067 NA
ATOM     25  H3  UNL     1      22.875  47.520  46.534  1.00  0.00     0.161 HD
ENDBRANCH  20  21
ENDBRANCH  19  20
ENDBRANCH  18  19
ENDBRANCH  13  18
BRANCH   8  26
HETATM   26  C12 UNL     1      17.108  45.643  41.730  1.00  0.00     0.035 C 
HETATM   27  C13 UNL     1      16.825  44.243  41.201  1.00  0.00     0.015 C 
BRANCH  26  28
HETATM   28  C14 UNL     1      17.086  46.621  40.609  1.00  0.00     0.102 C 
BRANCH  28  29
HETATM   29  C15 UNL     1      15.657  46.911  40.337  1.00  0.00    -0.105 C 
HETATM   30  C16 UNL     1      14.511  47.167  40.109  1.00  0.00    -0.092 C 
BRANCH  30  31
HETATM   31  C17 UNL     1      13.099  47.512  39.842  1.00  0.00     0.208 C 
HETATM   32 CL1  UNL     1      12.942  47.857  38.108  1.00  0.00    -0.117 Cl
ENDBRANCH  30  31
ENDBRANCH  28  29
ENDBRANCH  26  28
ENDBRANCH   8  26
BRANCH   1  33
HETATM   33  C4  UNL     1      23.263  43.731  45.459  1.00  0.00    -0.002 C 
BRANCH  33  34
HETATM   34  C3  UNL     1      24.420  43.822  44.582  1.00  0.00     0.005 C 
BRANCH  34  35
HETATM   35  C2  UNL     1      25.432  44.865  44.874  1.00  0.00    -0.004 C 
HETATM   36  C1  UNL     1      25.520  46.100  44.070  1.00  0.00     0.005 C 
ENDBRANCH  34  35
ENDBRANCH  33  34
BRANCH  33  37
HETATM   37  C5  UNL     1      23.083  42.437  46.176  1.00  0.00     0.001 C 
HETATM   38  C6  UNL     1      23.822  42.353  47.501  1.00  0.00     0.005 C 
ENDBRANCH  33  37
ENDBRANCH   1  33
TORSDOF 12
ENDMDL
