MODEL 1
REMARK VINA RESULT: -7.641763361      0.000      0.000
REMARK  12 active torsions:
REMARK  status: ('A' for Active; 'I' for Inactive)
REMARK    1  A    between atoms: C2_2  and  C3_3 
REMARK    2  A    between atoms: C3_3  and  C4_4 
REMARK    3  A    between atoms: C4_4  and  C5_5 
REMARK    4  A    between atoms: C5_5  and  C6_6 
REMARK    5  A    between atoms: C6_6  and  C7_7 
REMARK    6  A    between atoms: C7_7  and  C8_8 
REMARK    7  A    between atoms: C18_27  and  C19_28 
REMARK    8  A    between atoms: C19_28  and  C20_29 
REMARK    9  A    between atoms: C20_29  and  C21_30 
REMARK   10  A    between atoms: C21_30  and  N4_31 
REMARK   11  A    between atoms: C22_33  and  O4_35 
REMARK   12  A    between atoms: C23_39  and  O5_40 
ROOT
HETATM    1  C7  UNL     1      19.305  45.787  43.533  1.00  0.00     0.037 C 
HETATM    2  C9  UNL     1      18.510  44.856  44.483  1.00  0.00     0.020 C 
HETATM    3  C10 UNL     1      19.311  43.689  44.940  1.00  0.00     0.021 C 
HETATM    4  C11 UNL     1      20.353  43.977  45.983  1.00  0.00     0.122 C 
HETATM    5  N1  UNL     1      21.128  42.777  46.220  1.00  0.00    -0.360 N 
ATOM      6  H1  UNL     1      20.606  41.961  46.538  1.00  0.00     0.162 HD
HETATM    7  C12 UNL     1      22.505  42.604  46.064  1.00  0.00     0.235 C 
HETATM    8  O1  UNL     1      23.154  42.195  47.098  1.00  0.00    -0.272 OA
HETATM    9  C13 UNL     1      23.327  42.823  44.873  1.00  0.00     0.225 C 
HETATM   10  N2  UNL     1      24.469  43.635  45.219  1.00  0.00    -0.351 N 
ATOM     11  H2  UNL     1      25.170  43.215  45.829  1.00  0.00     0.163 HD
HETATM   12  C14 UNL     1      24.701  44.968  44.784  1.00  0.00     0.235 C 
HETATM   13  O2  UNL     1      25.829  45.219  44.301  1.00  0.00    -0.272 OA
HETATM   14  C15 UNL     1      23.701  46.044  44.872  1.00  0.00     0.228 C 
HETATM   15  N3  UNL     1      24.050  47.291  44.257  1.00  0.00    -0.346 N 
HETATM   16  C16 UNL     1      25.434  47.739  44.485  1.00  0.00     0.153 C 
HETATM   17  C17 UNL     1      23.236  48.118  43.478  1.00  0.00     0.242 C 
HETATM   18  O3  UNL     1      23.830  48.728  42.516  1.00  0.00    -0.271 OA
HETATM   19  C18 UNL     1      21.795  48.403  43.583  1.00  0.00     0.175 C 
HETATM   20  N6  UNL     1      21.042  47.544  44.439  1.00  0.00    -0.360 N 
ATOM     21  H6  UNL     1      21.497  47.389  45.338  1.00  0.00     0.162 HD
HETATM   22  C23 UNL     1      19.843  46.875  44.329  1.00  0.00     0.122 C 
ENDROOT
BRANCH  19  23
HETATM   23  C19 UNL     1      21.653  49.858  44.127  1.00  0.00     0.036 C 
BRANCH  23  24
HETATM   24  C20 UNL     1      22.905  50.327  44.788  1.00  0.00     0.022 C 
BRANCH  24  25
HETATM   25  C21 UNL     1      22.533  50.575  46.256  1.00  0.00     0.123 C 
BRANCH  25  26
HETATM   26  N4  UNL     1      23.518  49.886  47.057  1.00  0.00    -0.359 N 
HETATM   27  C22 UNL     1      23.365  48.681  47.475  1.00  0.00     0.225 C 
HETATM   28  N5  UNL     1      24.342  48.019  48.259  1.00  0.00    -0.057 NA
ATOM     29  H4  UNL     1      24.376  50.379  47.303  1.00  0.00     0.162 HD
BRANCH  27  30
HETATM   30  O4  UNL     1      22.198  48.010  47.140  1.00  0.00    -0.335 OA
ATOM     31  H4  UNL     1      22.095  47.110  47.427  1.00  0.00     0.220 HD
ENDBRANCH  27  30
ENDBRANCH  25  26
ENDBRANCH  24  25
ENDBRANCH  23  24
ENDBRANCH  19  23
BRANCH  22  32
HETATM   32  O5  UNL     1      18.927  47.337  45.176  1.00  0.00    -0.349 OA
ATOM     33  H5  UNL     1      19.084  48.253  45.375  1.00  0.00     0.219 HD
ENDBRANCH  22  32
BRANCH   1  34
HETATM   34  C6  UNL     1      18.264  46.284  42.568  1.00  0.00     0.019 C 
BRANCH  34  35
HETATM   35  C5  UNL     1      17.558  45.264  41.756  1.00  0.00     0.001 C 
BRANCH  35  36
HETATM   36  C4  UNL     1      16.857  45.972  40.583  1.00  0.00     0.000 C 
BRANCH  36  37
HETATM   37  C3  UNL     1      15.421  46.257  40.869  1.00  0.00    -0.000 C 
BRANCH  37  38
HETATM   38  C2  UNL     1      14.897  47.403  40.042  1.00  0.00    -0.005 C 
HETATM   39  C1  UNL     1      13.381  47.465  40.068  1.00  0.00     0.005 C 
ENDBRANCH  37  38
ENDBRANCH  36  37
ENDBRANCH  35  36
ENDBRANCH  34  35
ENDBRANCH   1  34
BRANCH   1  40
HETATM   40  C8  UNL     1      20.239  44.949  42.723  1.00  0.00     0.132 C 
HETATM   41 CL1  UNL     1      21.709  45.732  42.164  1.00  0.00    -0.129 Cl
ENDBRANCH   1  40
TORSDOF 12
ENDMDL
MODEL 2
REMARK VINA RESULT: -7.292427411      1.505      1.831
REMARK  12 active torsions:
REMARK  status: ('A' for Active; 'I' for Inactive)
REMARK    1  A    between atoms: C2_2  and  C3_3 
REMARK    2  A    between atoms: C3_3  and  C4_4 
REMARK    3  A    between atoms: C4_4  and  C5_5 
REMARK    4  A    between atoms: C5_5  and  C6_6 
REMARK    5  A    between atoms: C6_6  and  C7_7 
REMARK    6  A    between atoms: C7_7  and  C8_8 
REMARK    7  A    between atoms: C18_27  and  C19_28 
REMARK    8  A    between atoms: C19_28  and  C20_29 
REMARK    9  A    between atoms: C20_29  and  C21_30 
REMARK   10  A    between atoms: C21_30  and  N4_31 
REMARK   11  A    between atoms: C22_33  and  O4_35 
REMARK   12  A    between atoms: C23_39  and  O5_40 
ROOT
HETATM    1  C7  UNL     1      19.270  45.744  43.543  1.00  0.00     0.037 C 
HETATM    2  C9  UNL     1      18.502  44.780  44.483  1.00  0.00     0.020 C 
HETATM    3  C10 UNL     1      19.335  43.629  44.925  1.00  0.00     0.021 C 
HETATM    4  C11 UNL     1      20.370  43.933  45.970  1.00  0.00     0.122 C 
HETATM    5  N1  UNL     1      21.178  42.751  46.191  1.00  0.00    -0.360 N 
ATOM      6  H1  UNL     1      20.678  41.917  46.500  1.00  0.00     0.162 HD
HETATM    7  C12 UNL     1      22.559  42.617  46.032  1.00  0.00     0.235 C 
HETATM    8  O1  UNL     1      23.220  42.213  47.059  1.00  0.00    -0.272 OA
HETATM    9  C13 UNL     1      23.373  42.873  44.842  1.00  0.00     0.225 C 
HETATM   10  N2  UNL     1      24.493  43.711  45.197  1.00  0.00    -0.351 N 
ATOM     11  H2  UNL     1      25.206  43.303  45.801  1.00  0.00     0.163 HD
HETATM   12  C14 UNL     1      24.689  45.055  44.778  1.00  0.00     0.235 C 
HETATM   13  O2  UNL     1      25.808  45.342  44.297  1.00  0.00    -0.272 OA
HETATM   14  C15 UNL     1      23.659  46.102  44.881  1.00  0.00     0.228 C 
HETATM   15  N3  UNL     1      23.974  47.366  44.280  1.00  0.00    -0.346 N 
HETATM   16  C16 UNL     1      25.346  47.848  44.512  1.00  0.00     0.153 C 
HETATM   17  C17 UNL     1      23.137  48.180  43.512  1.00  0.00     0.242 C 
HETATM   18  O3  UNL     1      23.713  48.818  42.557  1.00  0.00    -0.271 OA
HETATM   19  C18 UNL     1      21.689  48.425  43.623  1.00  0.00     0.175 C 
HETATM   20  N6  UNL     1      20.961  47.535  44.469  1.00  0.00    -0.360 N 
ATOM     21  H6  UNL     1      21.422  47.381  45.366  1.00  0.00     0.162 HD
HETATM   22  C23 UNL     1      19.780  46.836  44.353  1.00  0.00     0.122 C 
ENDROOT
BRANCH  19  23
HETATM   23  C19 UNL     1      21.509  49.869  44.185  1.00  0.00     0.036 C 
BRANCH  23  24
HETATM   24  C20 UNL     1      22.479  50.162  45.279  1.00  0.00     0.022 C 
BRANCH  24  25
HETATM   25  C21 UNL     1      22.311  51.654  45.595  1.00  0.00     0.123 C 
BRANCH  25  26
HETATM   26  N4  UNL     1      23.628  52.165  45.900  1.00  0.00    -0.359 N 
HETATM   27  C22 UNL     1      23.935  53.409  45.817  1.00  0.00     0.225 C 
HETATM   28  N5  UNL     1      25.232  53.894  46.121  1.00  0.00    -0.057 NA
ATOM     29  H4  UNL     1      24.348  51.507  46.196  1.00  0.00     0.162 HD
BRANCH  27  30
HETATM   30  O4  UNL     1      22.955  54.305  45.415  1.00  0.00    -0.335 OA
ATOM     31  H4  UNL     1      22.784  55.064  45.960  1.00  0.00     0.220 HD
ENDBRANCH  27  30
ENDBRANCH  25  26
ENDBRANCH  24  25
ENDBRANCH  23  24
ENDBRANCH  19  23
BRANCH  22  32
HETATM   32  O5  UNL     1      18.853  47.263  45.206  1.00  0.00    -0.349 OA
ATOM     33  H5  UNL     1      18.641  48.175  45.044  1.00  0.00     0.219 HD
ENDBRANCH  22  32
BRANCH   1  34
HETATM   34  C6  UNL     1      18.215  46.224  42.586  1.00  0.00     0.019 C 
BRANCH  34  35
HETATM   35  C5  UNL     1      17.506  45.192  41.792  1.00  0.00     0.001 C 
BRANCH  35  36
HETATM   36  C4  UNL     1      16.812  45.879  40.603  1.00  0.00     0.000 C 
BRANCH  36  37
HETATM   37  C3  UNL     1      15.414  46.288  40.921  1.00  0.00    -0.000 C 
BRANCH  37  38
HETATM   38  C2  UNL     1      14.924  47.383  40.008  1.00  0.00    -0.005 C 
HETATM   39  C1  UNL     1      13.410  47.483  40.016  1.00  0.00     0.005 C 
ENDBRANCH  37  38
ENDBRANCH  36  37
ENDBRANCH  35  36
ENDBRANCH  34  35
ENDBRANCH   1  34
BRANCH   1  40
HETATM   40  C8  UNL     1      20.225  44.941  42.723  1.00  0.00     0.132 C 
HETATM   41 CL1  UNL     1      21.649  45.783  42.131  1.00  0.00    -0.129 Cl
ENDBRANCH   1  40
TORSDOF 12
ENDMDL
MODEL 3
REMARK VINA RESULT: -7.255940449      1.629      2.008
REMARK  12 active torsions:
REMARK  status: ('A' for Active; 'I' for Inactive)
REMARK    1  A    between atoms: C2_2  and  C3_3 
REMARK    2  A    between atoms: C3_3  and  C4_4 
REMARK    3  A    between atoms: C4_4  and  C5_5 
REMARK    4  A    between atoms: C5_5  and  C6_6 
REMARK    5  A    between atoms: C6_6  and  C7_7 
REMARK    6  A    between atoms: C7_7  and  C8_8 
REMARK    7  A    between atoms: C18_27  and  C19_28 
REMARK    8  A    between atoms: C19_28  and  C20_29 
REMARK    9  A    between atoms: C20_29  and  C21_30 
REMARK   10  A    between atoms: C21_30  and  N4_31 
REMARK   11  A    between atoms: C22_33  and  O4_35 
REMARK   12  A    between atoms: C23_39  and  O5_40 
ROOT
HETATM    1  C7  UNL     1      19.316  45.813  43.560  1.00  0.00     0.037 C 
HETATM    2  C9  UNL     1      18.517  44.886  44.511  1.00  0.00     0.020 C 
HETATM    3  C10 UNL     1      19.310  43.711  44.963  1.00  0.00     0.021 C 
HETATM    4  C11 UNL     1      20.358  43.989  46.002  1.00  0.00     0.122 C 
HETATM    5  N1  UNL     1      21.125  42.782  46.234  1.00  0.00    -0.360 N 
ATOM      6  H1  UNL     1      20.597  41.970  46.552  1.00  0.00     0.162 HD
HETATM    7  C12 UNL     1      22.499  42.598  46.073  1.00  0.00     0.235 C 
HETATM    8  O1  UNL     1      23.149  42.182  47.102  1.00  0.00    -0.272 OA
HETATM    9  C13 UNL     1      23.319  42.814  44.878  1.00  0.00     0.225 C 
HETATM   10  N2  UNL     1      24.469  43.615  45.222  1.00  0.00    -0.351 N 
ATOM     11  H2  UNL     1      25.169  43.189  45.829  1.00  0.00     0.163 HD
HETATM   12  C14 UNL     1      24.710  44.948  44.789  1.00  0.00     0.235 C 
HETATM   13  O2  UNL     1      25.838  45.191  44.303  1.00  0.00    -0.272 OA
HETATM   14  C15 UNL     1      23.718  46.031  44.883  1.00  0.00     0.228 C 
HETATM   15  N3  UNL     1      24.075  47.277  44.270  1.00  0.00    -0.346 N 
HETATM   16  C16 UNL     1      25.464  47.713  44.493  1.00  0.00     0.153 C 
HETATM   17  C17 UNL     1      23.265  48.112  43.495  1.00  0.00     0.242 C 
HETATM   18  O3  UNL     1      23.860  48.719  42.532  1.00  0.00    -0.271 OA
HETATM   19  C18 UNL     1      21.827  48.409  43.606  1.00  0.00     0.175 C 
HETATM   20  N6  UNL     1      21.071  47.553  44.463  1.00  0.00    -0.360 N 
ATOM     21  H6  UNL     1      21.528  47.393  45.360  1.00  0.00     0.162 HD
HETATM   22  C23 UNL     1      19.865  46.895  44.357  1.00  0.00     0.122 C 
ENDROOT
BRANCH  19  23
HETATM   23  C19 UNL     1      21.699  49.863  44.154  1.00  0.00     0.036 C 
BRANCH  23  24
HETATM   24  C20 UNL     1      22.857  50.234  45.018  1.00  0.00     0.022 C 
BRANCH  24  25
HETATM   25  C21 UNL     1      22.789  51.759  45.174  1.00  0.00     0.123 C 
BRANCH  25  26
HETATM   26  N4  UNL     1      21.471  52.066  45.680  1.00  0.00    -0.359 N 
HETATM   27  C22 UNL     1      21.104  53.252  46.010  1.00  0.00     0.225 C 
HETATM   28  N5  UNL     1      19.807  53.536  46.505  1.00  0.00    -0.057 NA
ATOM     29  H4  UNL     1      20.800  51.305  45.781  1.00  0.00     0.162 HD
BRANCH  27  30
HETATM   30  O4  UNL     1      22.018  54.287  45.873  1.00  0.00    -0.335 OA
ATOM     31  H4  UNL     1      21.784  55.144  46.209  1.00  0.00     0.220 HD
ENDBRANCH  27  30
ENDBRANCH  25  26
ENDBRANCH  24  25
ENDBRANCH  23  24
ENDBRANCH  19  23
BRANCH  22  32
HETATM   32  O5  UNL     1      18.956  47.362  45.208  1.00  0.00    -0.349 OA
ATOM     33  H5  UNL     1      19.076  48.295  45.350  1.00  0.00     0.219 HD
ENDBRANCH  22  32
BRANCH   1  34
HETATM   34  C6  UNL     1      18.275  46.320  42.600  1.00  0.00     0.019 C 
BRANCH  34  35
HETATM   35  C5  UNL     1      17.632  45.320  41.714  1.00  0.00     0.001 C 
BRANCH  35  36
HETATM   36  C4  UNL     1      16.607  46.043  40.823  1.00  0.00     0.000 C 
BRANCH  36  37
HETATM   37  C3  UNL     1      15.205  45.824  41.280  1.00  0.00    -0.000 C 
BRANCH  37  38
HETATM   38  C2  UNL     1      14.223  46.682  40.523  1.00  0.00    -0.005 C 
HETATM   39  C1  UNL     1      14.911  47.851  39.841  1.00  0.00     0.005 C 
ENDBRANCH  37  38
ENDBRANCH  36  37
ENDBRANCH  35  36
ENDBRANCH  34  35
ENDBRANCH   1  34
BRANCH   1  40
HETATM   40  C8  UNL     1      20.240  44.969  42.745  1.00  0.00     0.132 C 
HETATM   41 CL1  UNL     1      21.693  45.754  42.145  1.00  0.00    -0.129 Cl
ENDBRANCH   1  40
TORSDOF 12
ENDMDL
MODEL 4
REMARK VINA RESULT: -3.919811714      3.066      7.380
REMARK  12 active torsions:
REMARK  status: ('A' for Active; 'I' for Inactive)
REMARK    1  A    between atoms: C2_2  and  C3_3 
REMARK    2  A    between atoms: C3_3  and  C4_4 
REMARK    3  A    between atoms: C4_4  and  C5_5 
REMARK    4  A    between atoms: C5_5  and  C6_6 
REMARK    5  A    between atoms: C6_6  and  C7_7 
REMARK    6  A    between atoms: C7_7  and  C8_8 
REMARK    7  A    between atoms: C18_27  and  C19_28 
REMARK    8  A    between atoms: C19_28  and  C20_29 
REMARK    9  A    between atoms: C20_29  and  C21_30 
REMARK   10  A    between atoms: C21_30  and  N4_31 
REMARK   11  A    between atoms: C22_33  and  O4_35 
REMARK   12  A    between atoms: C23_39  and  O5_40 
ROOT
HETATM    1  C7  UNL     1      22.371  48.428  44.695  1.00  0.00     0.037 C 
HETATM    2  C9  UNL     1      23.830  48.713  44.260  1.00  0.00     0.020 C 
HETATM    3  C10 UNL     1      24.778  47.662  44.719  1.00  0.00     0.021 C 
HETATM    4  C11 UNL     1      24.734  46.364  43.963  1.00  0.00     0.122 C 
HETATM    5  N1  UNL     1      25.611  45.411  44.611  1.00  0.00    -0.360 N 
ATOM      6  H1  UNL     1      26.592  45.680  44.683  1.00  0.00     0.162 HD
HETATM    7  C12 UNL     1      25.274  44.167  45.149  1.00  0.00     0.235 C 
HETATM    8  O1  UNL     1      25.916  43.150  44.693  1.00  0.00    -0.272 OA
HETATM    9  C13 UNL     1      24.277  43.852  46.175  1.00  0.00     0.225 C 
HETATM   10  N2  UNL     1      23.437  42.773  45.714  1.00  0.00    -0.351 N 
ATOM     11  H2  UNL     1      23.870  41.855  45.616  1.00  0.00     0.163 HD
HETATM   12  C14 UNL     1      22.058  42.879  45.385  1.00  0.00     0.235 C 
HETATM   13  O2  UNL     1      21.287  42.035  45.895  1.00  0.00    -0.272 OA
HETATM   14  C15 UNL     1      21.507  43.911  44.492  1.00  0.00     0.228 C 
HETATM   15  N3  UNL     1      20.078  43.961  44.382  1.00  0.00    -0.346 N 
HETATM   16  C16 UNL     1      19.410  42.654  44.272  1.00  0.00     0.153 C 
HETATM   17  C17 UNL     1      19.260  45.095  44.365  1.00  0.00     0.242 C 
HETATM   18  O3  UNL     1      18.119  44.960  44.940  1.00  0.00    -0.271 OA
HETATM   19  C18 UNL     1      19.500  46.430  43.792  1.00  0.00     0.175 C 
HETATM   20  N6  UNL     1      20.843  46.718  43.403  1.00  0.00    -0.360 N 
ATOM     21  H6  UNL     1      21.269  45.959  42.871  1.00  0.00     0.162 HD
HETATM   22  C23 UNL     1      21.696  47.785  43.581  1.00  0.00     0.122 C 
ENDROOT
BRANCH  19  23
HETATM   23  C19 UNL     1      18.601  46.552  42.523  1.00  0.00     0.036 C 
BRANCH  23  24
HETATM   24  C20 UNL     1      18.186  45.216  42.006  1.00  0.00     0.022 C 
BRANCH  24  25
HETATM   25  C21 UNL     1      16.773  45.409  41.442  1.00  0.00     0.123 C 
BRANCH  25  26
HETATM   26  N4  UNL     1      16.702  44.632  40.225  1.00  0.00    -0.359 N 
HETATM   27  C22 UNL     1      15.721  43.853  39.946  1.00  0.00     0.225 C 
HETATM   28  N5  UNL     1      15.667  43.099  38.747  1.00  0.00    -0.057 NA
ATOM     29  H4  UNL     1      17.468  44.707  39.556  1.00  0.00     0.162 HD
BRANCH  27  30
HETATM   30  O4  UNL     1      14.678  43.752  40.856  1.00  0.00    -0.335 OA
ATOM     31  H4  UNL     1      14.050  43.049  40.748  1.00  0.00     0.220 HD
ENDBRANCH  27  30
ENDBRANCH  25  26
ENDBRANCH  24  25
ENDBRANCH  23  24
ENDBRANCH  19  23
BRANCH  22  32
HETATM   32  O5  UNL     1      21.991  48.394  42.436  1.00  0.00    -0.349 OA
ATOM     33  H5  UNL     1      22.267  49.290  42.593  1.00  0.00     0.219 HD
ENDBRANCH  22  32
BRANCH   1  34
HETATM   34  C6  UNL     1      21.803  49.795  44.957  1.00  0.00     0.019 C 
BRANCH  34  35
HETATM   35  C5  UNL     1      22.653  50.956  44.601  1.00  0.00     0.001 C 
BRANCH  35  36
HETATM   36  C4  UNL     1      22.744  51.890  45.820  1.00  0.00     0.000 C 
BRANCH  36  37
HETATM   37  C3  UNL     1      23.638  53.058  45.575  1.00  0.00    -0.000 C 
BRANCH  37  38
HETATM   38  C2  UNL     1      22.862  54.339  45.407  1.00  0.00    -0.005 C 
HETATM   39  C1  UNL     1      23.772  55.507  45.076  1.00  0.00     0.005 C 
ENDBRANCH  37  38
ENDBRANCH  36  37
ENDBRANCH  35  36
ENDBRANCH  34  35
ENDBRANCH   1  34
BRANCH   1  40
HETATM   40  C8  UNL     1      22.399  47.741  46.021  1.00  0.00     0.132 C 
HETATM   41 CL1  UNL     1      23.076  48.654  47.361  1.00  0.00    -0.129 Cl
ENDBRANCH   1  40
TORSDOF 12
ENDMDL
