MODEL 1
REMARK VINA RESULT: -6.851801325      0.000      0.000
REMARK  13 active torsions:
REMARK  status: ('A' for Active; 'I' for Inactive)
REMARK    1  A    between atoms: C2_2  and  C4_4 
REMARK    2  A    between atoms: C4_4  and  C5_5 
REMARK    3  A    between atoms: C6_8  and  O1_9 
REMARK    4  A    between atoms: C7_11  and  C8_12 
REMARK    5  A    between atoms: C8_12  and  C9_13 
REMARK    6  A    between atoms: C9_13  and  C10_14 
REMARK    7  A    between atoms: C10_14  and  N2_15 
REMARK    8  A    between atoms: C12_22  and  O2_23 
REMARK    9  A    between atoms: C13_25  and  C14_26 
REMARK   10  A    between atoms: C13_25  and  C20_32 
REMARK   11  A    between atoms: C23_35  and  C24_36 
REMARK   12  A    between atoms: C24_36  and  C25_37 
REMARK   13  A    between atoms: C26_41  and  O3_42 
ROOT
HETATM    1  C5  UNL     1      23.269  48.208  42.774  1.00  0.00     0.062 C 
HETATM    2  N1  UNL     1      24.060  48.150  43.963  1.00  0.00    -0.339 N 
ATOM      3  H1  UNL     1      24.815  48.836  43.944  1.00  0.00     0.167 HD
HETATM    4  C6  UNL     1      24.074  47.411  45.133  1.00  0.00     0.139 C 
HETATM    5  C7  UNL     1      23.178  47.355  46.305  1.00  0.00     0.158 C 
HETATM    6  N5  UNL     1      21.795  47.077  46.094  1.00  0.00    -0.361 N 
ATOM      7  H5  UNL     1      21.223  47.918  46.167  1.00  0.00     0.162 HD
HETATM    8  C12 UNL     1      21.023  45.941  45.811  1.00  0.00     0.131 C 
HETATM    9  C13 UNL     1      21.058  45.058  44.606  1.00  0.00     0.093 C 
HETATM   10  C23 UNL     1      20.856  45.933  43.454  1.00  0.00     0.013 C 
HETATM   11  N6  UNL     1      21.753  46.093  42.358  1.00  0.00    -0.341 N 
ATOM     12  H6  UNL     1      21.578  45.460  41.577  1.00  0.00     0.167 HD
HETATM   13  C26 UNL     1      22.837  46.968  42.163  1.00  0.00     0.163 C 
ENDROOT
BRANCH   9  14
HETATM   14  C14 UNL     1      22.312  44.315  44.807  1.00  0.00    -0.035 A 
HETATM   15  C15 UNL     1      23.172  44.166  43.701  1.00  0.00     0.009 A 
HETATM   16  C16 UNL     1      24.397  43.547  43.779  1.00  0.00     0.001 A 
HETATM   17  C17 UNL     1      24.849  43.031  44.970  1.00  0.00     0.000 A 
HETATM   18  C18 UNL     1      24.019  43.172  46.051  1.00  0.00     0.001 A 
HETATM   19  C19 UNL     1      22.789  43.798  45.961  1.00  0.00     0.009 A 
ENDBRANCH   9  14
BRANCH   9  20
HETATM   20  C20 UNL     1      20.046  43.931  44.651  1.00  0.00     0.004 C 
HETATM   21  C21 UNL     1      18.606  44.233  44.768  1.00  0.00     0.011 C 
HETATM   22  C22 UNL     1      20.289  42.954  45.782  1.00  0.00     0.011 C 
ENDBRANCH   9  20
BRANCH   8  23
HETATM   23  O2  UNL     1      20.178  45.678  46.775  1.00  0.00    -0.348 OA
ATOM     24  H2  UNL     1      19.800  44.812  46.684  1.00  0.00     0.219 HD
ENDBRANCH   8  23
BRANCH  10  25
HETATM   25  C24 UNL     1      19.469  46.145  42.928  1.00  0.00     0.085 C 
BRANCH  25  26
HETATM   26  C25 UNL     1      18.974  45.256  41.854  1.00  0.00     0.227 C 
HETATM   27  F1  UNL     1      17.635  45.565  41.517  1.00  0.00    -0.255 F 
ENDBRANCH  25  26
ENDBRANCH  10  25
BRANCH   5  28
HETATM   28  C8  UNL     1      23.281  48.677  47.132  1.00  0.00     0.035 C 
BRANCH  28  29
HETATM   29  C9  UNL     1      24.135  48.604  48.317  1.00  0.00     0.022 C 
BRANCH  29  30
HETATM   30  C10 UNL     1      23.634  49.412  49.497  1.00  0.00     0.122 C 
BRANCH  30  31
HETATM   31  N2  UNL     1      22.620  48.722  50.244  1.00  0.00    -0.367 N 
HETATM   32  C11 UNL     1      22.497  48.807  51.517  1.00  0.00     0.196 C 
HETATM   33  N3  UNL     1      21.462  48.085  52.156  1.00  0.00    -0.067 NA
HETATM   34  N4  UNL     1      23.362  49.601  52.307  1.00  0.00    -0.067 NA
ATOM     35  H2  UNL     1      21.963  48.132  49.734  1.00  0.00     0.161 HD
ENDBRANCH  30  31
ENDBRANCH  29  30
ENDBRANCH  28  29
ENDBRANCH   5  28
BRANCH  13  36
HETATM   36  O3  UNL     1      23.643  46.559  41.201  1.00  0.00    -0.345 OA
ATOM     37  H3  UNL     1      23.181  46.151  40.478  1.00  0.00     0.219 HD
ENDBRANCH  13  36
BRANCH   4  38
HETATM   38  O1  UNL     1      25.099  46.590  45.223  1.00  0.00    -0.348 OA
ATOM     39  H1  UNL     1      25.493  46.569  46.088  1.00  0.00     0.219 HD
ENDBRANCH   4  38
BRANCH   1  40
HETATM   40  C4  UNL     1      22.263  49.312  42.952  1.00  0.00     0.065 C 
BRANCH  40  41
HETATM   41  C2  UNL     1      21.772  49.512  44.342  1.00  0.00    -0.017 C 
HETATM   42  C1  UNL     1      20.235  49.437  44.400  1.00  0.00     0.010 C 
HETATM   43  C3  UNL     1      22.100  50.966  44.711  1.00  0.00     0.010 C 
ENDBRANCH  40  41
ENDBRANCH   1  40
TORSDOF 13
ENDMDL
MODEL 2
REMARK VINA RESULT: -6.403027732      1.582      2.319
REMARK  13 active torsions:
REMARK  status: ('A' for Active; 'I' for Inactive)
REMARK    1  A    between atoms: C2_2  and  C4_4 
REMARK    2  A    between atoms: C4_4  and  C5_5 
REMARK    3  A    between atoms: C6_8  and  O1_9 
REMARK    4  A    between atoms: C7_11  and  C8_12 
REMARK    5  A    between atoms: C8_12  and  C9_13 
REMARK    6  A    between atoms: C9_13  and  C10_14 
REMARK    7  A    between atoms: C10_14  and  N2_15 
REMARK    8  A    between atoms: C12_22  and  O2_23 
REMARK    9  A    between atoms: C13_25  and  C14_26 
REMARK   10  A    between atoms: C13_25  and  C20_32 
REMARK   11  A    between atoms: C23_35  and  C24_36 
REMARK   12  A    between atoms: C24_36  and  C25_37 
REMARK   13  A    between atoms: C26_41  and  O3_42 
ROOT
HETATM    1  C5  UNL     1      23.586  49.653  44.030  1.00  0.00     0.062 C 
HETATM    2  N1  UNL     1      24.457  48.964  44.931  1.00  0.00    -0.339 N 
ATOM      3  H1  UNL     1      25.308  49.497  45.109  1.00  0.00     0.167 HD
HETATM    4  C6  UNL     1      24.451  47.767  45.626  1.00  0.00     0.139 C 
HETATM    5  C7  UNL     1      23.662  47.263  46.767  1.00  0.00     0.158 C 
HETATM    6  N5  UNL     1      22.240  47.261  46.665  1.00  0.00    -0.361 N 
ATOM      7  H5  UNL     1      21.819  48.024  47.195  1.00  0.00     0.162 HD
HETATM    8  C12 UNL     1      21.273  46.475  46.021  1.00  0.00     0.131 C 
HETATM    9  C13 UNL     1      21.060  46.260  44.558  1.00  0.00     0.093 C 
HETATM   10  C23 UNL     1      20.904  47.587  43.969  1.00  0.00     0.013 C 
HETATM   11  N6  UNL     1      21.718  48.147  42.941  1.00  0.00    -0.341 N 
ATOM     12  H6  UNL     1      21.376  47.974  41.995  1.00  0.00     0.167 HD
HETATM   13  C26 UNL     1      22.908  48.895  43.000  1.00  0.00     0.163 C 
ENDROOT
BRANCH   9  14
HETATM   14  C14 UNL     1      22.191  45.384  44.210  1.00  0.00    -0.035 A 
HETATM   15  C15 UNL     1      22.640  44.472  45.186  1.00  0.00     0.009 A 
HETATM   16  C16 UNL     1      23.645  43.563  44.958  1.00  0.00     0.001 A 
HETATM   17  C17 UNL     1      24.275  43.501  43.738  1.00  0.00     0.000 A 
HETATM   18  C18 UNL     1      23.844  44.384  42.783  1.00  0.00     0.001 A 
HETATM   19  C19 UNL     1      22.830  45.294  43.022  1.00  0.00     0.009 A 
ENDBRANCH   9  14
BRANCH   9  20
HETATM   20  C20 UNL     1      19.887  45.353  44.243  1.00  0.00     0.004 C 
HETATM   21  C21 UNL     1      19.943  43.921  44.596  1.00  0.00     0.011 C 
HETATM   22  C22 UNL     1      19.522  45.336  42.774  1.00  0.00     0.011 C 
ENDBRANCH   9  20
BRANCH   8  23
HETATM   23  O2  UNL     1      20.483  45.881  46.879  1.00  0.00    -0.348 OA
ATOM     24  H2  UNL     1      20.739  46.062  47.775  1.00  0.00     0.219 HD
ENDBRANCH   8  23
BRANCH  10  25
HETATM   25  C24 UNL     1      19.530  48.163  43.811  1.00  0.00     0.085 C 
BRANCH  25  26
HETATM   26  C25 UNL     1      19.140  49.311  44.660  1.00  0.00     0.227 C 
HETATM   27  F1  UNL     1      19.936  50.445  44.375  1.00  0.00    -0.255 F 
ENDBRANCH  25  26
ENDBRANCH  10  25
BRANCH   5  28
HETATM   28  C8  UNL     1      24.048  48.026  48.075  1.00  0.00     0.035 C 
BRANCH  28  29
HETATM   29  C9  UNL     1      23.671  49.439  48.104  1.00  0.00     0.022 C 
BRANCH  29  30
HETATM   30  C10 UNL     1      23.340  49.968  49.485  1.00  0.00     0.122 C 
BRANCH  30  31
HETATM   31  N2  UNL     1      22.560  49.041  50.254  1.00  0.00    -0.367 N 
HETATM   32  C11 UNL     1      22.619  48.956  51.532  1.00  0.00     0.196 C 
HETATM   33  N3  UNL     1      21.806  48.006  52.195  1.00  0.00    -0.067 NA
HETATM   34  N4  UNL     1      23.471  49.781  52.305  1.00  0.00    -0.067 NA
ATOM     35  H2  UNL     1      21.924  48.418  49.758  1.00  0.00     0.161 HD
ENDBRANCH  30  31
ENDBRANCH  29  30
ENDBRANCH  28  29
ENDBRANCH   5  28
BRANCH  13  36
HETATM   36  O3  UNL     1      23.551  48.901  41.847  1.00  0.00    -0.345 OA
ATOM     37  H3  UNL     1      23.162  48.323  41.201  1.00  0.00     0.219 HD
ENDBRANCH  13  36
BRANCH   4  38
HETATM   38  O1  UNL     1      25.334  46.898  45.180  1.00  0.00    -0.348 OA
ATOM     39  H1  UNL     1      25.381  46.105  45.701  1.00  0.00     0.219 HD
ENDBRANCH   4  38
BRANCH   1  40
HETATM   40  C4  UNL     1      22.791  50.643  44.837  1.00  0.00     0.065 C 
BRANCH  40  41
HETATM   41  C2  UNL     1      23.344  52.023  44.883  1.00  0.00    -0.017 C 
HETATM   42  C1  UNL     1      24.324  52.185  46.061  1.00  0.00     0.010 C 
HETATM   43  C3  UNL     1      22.169  52.948  45.230  1.00  0.00     0.010 C 
ENDBRANCH  40  41
ENDBRANCH   1  40
TORSDOF 13
ENDMDL
MODEL 3
REMARK VINA RESULT: -4.475260646      2.836      6.847
REMARK  13 active torsions:
REMARK  status: ('A' for Active; 'I' for Inactive)
REMARK    1  A    between atoms: C2_2  and  C4_4 
REMARK    2  A    between atoms: C4_4  and  C5_5 
REMARK    3  A    between atoms: C6_8  and  O1_9 
REMARK    4  A    between atoms: C7_11  and  C8_12 
REMARK    5  A    between atoms: C8_12  and  C9_13 
REMARK    6  A    between atoms: C9_13  and  C10_14 
REMARK    7  A    between atoms: C10_14  and  N2_15 
REMARK    8  A    between atoms: C12_22  and  O2_23 
REMARK    9  A    between atoms: C13_25  and  C14_26 
REMARK   10  A    between atoms: C13_25  and  C20_32 
REMARK   11  A    between atoms: C23_35  and  C24_36 
REMARK   12  A    between atoms: C24_36  and  C25_37 
REMARK   13  A    between atoms: C26_41  and  O3_42 
ROOT
HETATM    1  C5  UNL     1      20.684  48.134  45.578  1.00  0.00     0.062 C 
HETATM    2  N1  UNL     1      19.629  47.253  45.183  1.00  0.00    -0.339 N 
ATOM      3  H1  UNL     1      18.717  47.613  45.460  1.00  0.00     0.167 HD
HETATM    4  C6  UNL     1      19.519  46.040  44.525  1.00  0.00     0.139 C 
HETATM    5  C7  UNL     1      19.738  45.624  43.126  1.00  0.00     0.158 C 
HETATM    6  N5  UNL     1      21.006  45.883  42.528  1.00  0.00    -0.361 N 
ATOM      7  H5  UNL     1      20.972  46.679  41.892  1.00  0.00     0.162 HD
HETATM    8  C12 UNL     1      22.289  45.319  42.593  1.00  0.00     0.131 C 
HETATM    9  C13 UNL     1      23.215  45.226  43.762  1.00  0.00     0.093 C 
HETATM   10  C23 UNL     1      23.390  46.589  44.254  1.00  0.00     0.013 C 
HETATM   11  N6  UNL     1      23.085  47.049  45.568  1.00  0.00    -0.341 N 
ATOM     12  H6  UNL     1      23.865  46.992  46.224  1.00  0.00     0.167 HD
HETATM   13  C26 UNL     1      21.900  47.567  46.122  1.00  0.00     0.163 C 
ENDROOT
BRANCH   9  14
HETATM   14  C14 UNL     1      22.574  44.181  44.577  1.00  0.00    -0.035 A 
HETATM   15  C15 UNL     1      23.237  43.762  45.747  1.00  0.00     0.009 A 
HETATM   16  C16 UNL     1      22.709  42.840  46.620  1.00  0.00     0.001 A 
HETATM   17  C17 UNL     1      21.482  42.270  46.383  1.00  0.00     0.000 A 
HETATM   18  C18 UNL     1      20.831  42.672  45.246  1.00  0.00     0.001 A 
HETATM   19  C19 UNL     1      21.369  43.602  44.376  1.00  0.00     0.009 A 
ENDBRANCH   9  14
BRANCH   9  20
HETATM   20  C20 UNL     1      24.538  44.563  43.434  1.00  0.00     0.004 C 
HETATM   21  C21 UNL     1      24.633  43.091  43.371  1.00  0.00     0.011 C 
HETATM   22  C22 UNL     1      25.650  44.943  44.388  1.00  0.00     0.011 C 
ENDBRANCH   9  20
BRANCH   8  23
HETATM   23  O2  UNL     1      22.662  44.831  41.437  1.00  0.00    -0.348 OA
ATOM     24  H2  UNL     1      23.035  43.962  41.527  1.00  0.00     0.219 HD
ENDBRANCH   8  23
BRANCH  10  25
HETATM   25  C24 UNL     1      24.538  47.410  43.751  1.00  0.00     0.085 C 
BRANCH  25  26
HETATM   26  C25 UNL     1      24.305  48.340  42.624  1.00  0.00     0.227 C 
HETATM   27  F1  UNL     1      22.964  48.271  42.179  1.00  0.00    -0.255 F 
ENDBRANCH  25  26
ENDBRANCH  10  25
BRANCH   5  28
HETATM   28  C8  UNL     1      18.638  46.234  42.199  1.00  0.00     0.035 C 
BRANCH  28  29
HETATM   29  C9  UNL     1      17.570  45.312  41.811  1.00  0.00     0.022 C 
BRANCH  29  30
HETATM   30  C10 UNL     1      16.834  45.706  40.547  1.00  0.00     0.122 C 
BRANCH  30  31
HETATM   31  N2  UNL     1      16.706  44.615  39.624  1.00  0.00    -0.367 N 
HETATM   32  C11 UNL     1      15.680  43.848  39.571  1.00  0.00     0.196 C 
HETATM   33  N3  UNL     1      15.655  42.799  38.622  1.00  0.00    -0.067 NA
HETATM   34  N4  UNL     1      14.569  44.015  40.432  1.00  0.00    -0.067 NA
ATOM     35  H2  UNL     1      17.473  44.440  38.974  1.00  0.00     0.161 HD
ENDBRANCH  30  31
ENDBRANCH  29  30
ENDBRANCH  28  29
ENDBRANCH   5  28
BRANCH  13  36
HETATM   36  O3  UNL     1      21.903  47.520  47.441  1.00  0.00    -0.345 OA
ATOM     37  H3  UNL     1      21.095  47.174  47.803  1.00  0.00     0.219 HD
ENDBRANCH  13  36
BRANCH   4  38
HETATM   38  O1  UNL     1      19.136  45.052  45.307  1.00  0.00    -0.348 OA
ATOM     39  H1  UNL     1      19.671  44.272  45.221  1.00  0.00     0.219 HD
ENDBRANCH   4  38
BRANCH   1  40
HETATM   40  C4  UNL     1      20.795  49.205  44.528  1.00  0.00     0.065 C 
BRANCH  40  41
HETATM   41  C2  UNL     1      21.415  50.481  44.977  1.00  0.00    -0.017 C 
HETATM   42  C1  UNL     1      20.476  51.673  44.714  1.00  0.00     0.010 C 
HETATM   43  C3  UNL     1      22.616  50.726  44.054  1.00  0.00     0.010 C 
ENDBRANCH  40  41
ENDBRANCH   1  40
TORSDOF 13
ENDMDL
MODEL 4
REMARK VINA RESULT: -4.452539100      2.903      6.817
REMARK  13 active torsions:
REMARK  status: ('A' for Active; 'I' for Inactive)
REMARK    1  A    between atoms: C2_2  and  C4_4 
REMARK    2  A    between atoms: C4_4  and  C5_5 
REMARK    3  A    between atoms: C6_8  and  O1_9 
REMARK    4  A    between atoms: C7_11  and  C8_12 
REMARK    5  A    between atoms: C8_12  and  C9_13 
REMARK    6  A    between atoms: C9_13  and  C10_14 
REMARK    7  A    between atoms: C10_14  and  N2_15 
REMARK    8  A    between atoms: C12_22  and  O2_23 
REMARK    9  A    between atoms: C13_25  and  C14_26 
REMARK   10  A    between atoms: C13_25  and  C20_32 
REMARK   11  A    between atoms: C23_35  and  C24_36 
REMARK   12  A    between atoms: C24_36  and  C25_37 
REMARK   13  A    between atoms: C26_41  and  O3_42 
ROOT
HETATM    1  C5  UNL     1      20.923  48.461  45.283  1.00  0.00     0.062 C 
HETATM    2  N1  UNL     1      19.822  47.590  45.011  1.00  0.00    -0.339 N 
ATOM      3  H1  UNL     1      18.933  48.021  45.263  1.00  0.00     0.167 HD
HETATM    4  C6  UNL     1      19.642  46.317  44.498  1.00  0.00     0.139 C 
HETATM    5  C7  UNL     1      19.808  45.737  43.151  1.00  0.00     0.158 C 
HETATM    6  N5  UNL     1      21.071  45.867  42.502  1.00  0.00    -0.361 N 
ATOM      7  H5  UNL     1      21.056  46.588  41.781  1.00  0.00     0.162 HD
HETATM    8  C12 UNL     1      22.330  45.256  42.606  1.00  0.00     0.131 C 
HETATM    9  C13 UNL     1      23.280  45.252  43.759  1.00  0.00     0.093 C 
HETATM   10  C23 UNL     1      23.525  46.653  44.090  1.00  0.00     0.013 C 
HETATM   11  N6  UNL     1      23.274  47.272  45.349  1.00  0.00    -0.341 N 
ATOM     12  H6  UNL     1      24.066  47.254  45.991  1.00  0.00     0.167 HD
HETATM   13  C26 UNL     1      22.126  47.903  45.864  1.00  0.00     0.163 C 
ENDROOT
BRANCH   9  14
HETATM   14  C14 UNL     1      22.614  44.337  44.701  1.00  0.00    -0.035 A 
HETATM   15  C15 UNL     1      21.425  43.711  44.278  1.00  0.00     0.009 A 
HETATM   16  C16 UNL     1      20.747  42.792  45.043  1.00  0.00     0.001 A 
HETATM   17  C17 UNL     1      21.210  42.434  46.286  1.00  0.00     0.000 A 
HETATM   18  C18 UNL     1      22.366  43.038  46.705  1.00  0.00     0.001 A 
HETATM   19  C19 UNL     1      23.041  43.961  45.927  1.00  0.00     0.009 A 
ENDBRANCH   9  14
BRANCH   9  20
HETATM   20  C20 UNL     1      24.564  44.497  43.484  1.00  0.00     0.004 C 
HETATM   21  C21 UNL     1      24.571  43.020  43.496  1.00  0.00     0.011 C 
HETATM   22  C22 UNL     1      25.686  44.858  44.433  1.00  0.00     0.011 C 
ENDBRANCH   9  20
BRANCH   8  23
HETATM   23  O2  UNL     1      22.652  44.625  41.506  1.00  0.00    -0.348 OA
ATOM     24  H2  UNL     1      22.730  43.689  41.649  1.00  0.00     0.219 HD
ENDBRANCH   8  23
BRANCH  10  25
HETATM   25  C24 UNL     1      24.696  47.358  43.475  1.00  0.00     0.085 C 
BRANCH  25  26
HETATM   26  C25 UNL     1      24.490  48.706  42.899  1.00  0.00     0.227 C 
HETATM   27  F1  UNL     1      23.412  48.707  41.983  1.00  0.00    -0.255 F 
ENDBRANCH  25  26
ENDBRANCH  10  25
BRANCH   5  28
HETATM   28  C8  UNL     1      18.713  46.288  42.182  1.00  0.00     0.035 C 
BRANCH  28  29
HETATM   29  C9  UNL     1      17.646  45.345  41.847  1.00  0.00     0.022 C 
BRANCH  29  30
HETATM   30  C10 UNL     1      16.817  45.742  40.643  1.00  0.00     0.122 C 
BRANCH  30  31
HETATM   31  N2  UNL     1      16.700  44.682  39.683  1.00  0.00    -0.367 N 
HETATM   32  C11 UNL     1      15.686  43.901  39.610  1.00  0.00     0.196 C 
HETATM   33  N3  UNL     1      15.670  42.886  38.625  1.00  0.00    -0.067 NA
HETATM   34  N4  UNL     1      14.578  44.020  40.484  1.00  0.00    -0.067 NA
ATOM     35  H2  UNL     1      17.464  44.543  39.023  1.00  0.00     0.161 HD
ENDBRANCH  30  31
ENDBRANCH  29  30
ENDBRANCH  28  29
ENDBRANCH   5  28
BRANCH  13  36
HETATM   36  O3  UNL     1      22.159  48.005  47.179  1.00  0.00    -0.345 OA
ATOM     37  H3  UNL     1      21.308  47.883  47.583  1.00  0.00     0.219 HD
ENDBRANCH  13  36
BRANCH   4  38
HETATM   38  O1  UNL     1      19.236  45.443  45.394  1.00  0.00    -0.348 OA
ATOM     39  H1  UNL     1      19.368  45.730  46.291  1.00  0.00     0.219 HD
ENDBRANCH   4  38
BRANCH   1  40
HETATM   40  C4  UNL     1      21.055  49.401  44.115  1.00  0.00     0.065 C 
BRANCH  40  41
HETATM   41  C2  UNL     1      21.494  50.782  44.451  1.00  0.00    -0.017 C 
HETATM   42  C1  UNL     1      22.774  50.760  45.308  1.00  0.00     0.010 C 
HETATM   43  C3  UNL     1      20.419  51.362  45.381  1.00  0.00     0.010 C 
ENDBRANCH  40  41
ENDBRANCH   1  40
TORSDOF 13
ENDMDL
MODEL 5
REMARK VINA RESULT: -4.275602423      1.638      2.333
REMARK  13 active torsions:
REMARK  status: ('A' for Active; 'I' for Inactive)
REMARK    1  A    between atoms: C2_2  and  C4_4 
REMARK    2  A    between atoms: C4_4  and  C5_5 
REMARK    3  A    between atoms: C6_8  and  O1_9 
REMARK    4  A    between atoms: C7_11  and  C8_12 
REMARK    5  A    between atoms: C8_12  and  C9_13 
REMARK    6  A    between atoms: C9_13  and  C10_14 
REMARK    7  A    between atoms: C10_14  and  N2_15 
REMARK    8  A    between atoms: C12_22  and  O2_23 
REMARK    9  A    between atoms: C13_25  and  C14_26 
REMARK   10  A    between atoms: C13_25  and  C20_32 
REMARK   11  A    between atoms: C23_35  and  C24_36 
REMARK   12  A    between atoms: C24_36  and  C25_37 
REMARK   13  A    between atoms: C26_41  and  O3_42 
ROOT
HETATM    1  C5  UNL     1      23.404  47.525  42.468  1.00  0.00     0.062 C 
HETATM    2  N1  UNL     1      24.182  47.452  43.666  1.00  0.00    -0.339 N 
ATOM      3  H1  UNL     1      25.062  47.958  43.572  1.00  0.00     0.167 HD
HETATM    4  C6  UNL     1      24.057  46.876  44.918  1.00  0.00     0.139 C 
HETATM    5  C7  UNL     1      23.184  47.152  46.076  1.00  0.00     0.158 C 
HETATM    6  N5  UNL     1      21.772  47.144  45.883  1.00  0.00    -0.361 N 
ATOM      7  H5  UNL     1      21.387  48.087  45.845  1.00  0.00     0.162 HD
HETATM    8  C12 UNL     1      20.777  46.166  45.733  1.00  0.00     0.131 C 
HETATM    9  C13 UNL     1      20.612  45.153  44.646  1.00  0.00     0.093 C 
HETATM   10  C23 UNL     1      20.581  45.902  43.393  1.00  0.00     0.013 C 
HETATM   11  N6  UNL     1      21.477  45.736  42.298  1.00  0.00    -0.341 N 
ATOM     12  H6  UNL     1      21.164  45.062  41.598  1.00  0.00     0.167 HD
HETATM   13  C26 UNL     1      22.716  46.336  42.009  1.00  0.00     0.163 C 
ENDROOT
BRANCH   9  14
HETATM   14  C14 UNL     1      21.687  44.197  44.954  1.00  0.00    -0.035 A 
HETATM   15  C15 UNL     1      21.506  43.334  46.052  1.00  0.00     0.009 A 
HETATM   16  C16 UNL     1      22.410  42.359  46.400  1.00  0.00     0.001 A 
HETATM   17  C17 UNL     1      23.563  42.179  45.674  1.00  0.00     0.000 A 
HETATM   18  C18 UNL     1      23.748  43.014  44.604  1.00  0.00     0.001 A 
HETATM   19  C19 UNL     1      22.830  43.990  44.262  1.00  0.00     0.009 A 
ENDBRANCH   9  14
BRANCH   9  20
HETATM   20  C20 UNL     1      19.389  44.275  44.818  1.00  0.00     0.004 C 
HETATM   21  C21 UNL     1      19.171  43.126  43.917  1.00  0.00     0.011 C 
HETATM   22  C22 UNL     1      18.085  45.040  44.729  1.00  0.00     0.011 C 
ENDBRANCH   9  20
BRANCH   8  23
HETATM   23  O2  UNL     1      19.909  46.205  46.711  1.00  0.00    -0.348 OA
ATOM     24  H2  UNL     1      19.021  46.079  46.398  1.00  0.00     0.219 HD
ENDBRANCH   8  23
BRANCH  10  25
HETATM   25  C24 UNL     1      19.261  46.331  42.827  1.00  0.00     0.085 C 
BRANCH  25  26
HETATM   26  C25 UNL     1      18.639  45.501  41.772  1.00  0.00     0.227 C 
HETATM   27  F1  UNL     1      17.375  46.018  41.400  1.00  0.00    -0.255 F 
ENDBRANCH  25  26
ENDBRANCH  10  25
BRANCH   5  28
HETATM   28  C8  UNL     1      23.570  48.516  46.735  1.00  0.00     0.035 C 
BRANCH  28  29
HETATM   29  C9  UNL     1      23.273  48.623  48.163  1.00  0.00     0.022 C 
BRANCH  29  30
HETATM   30  C10 UNL     1      23.126  50.045  48.665  1.00  0.00     0.122 C 
BRANCH  30  31
HETATM   31  N2  UNL     1      23.888  50.982  47.889  1.00  0.00    -0.367 N 
HETATM   32  C11 UNL     1      23.376  51.744  46.995  1.00  0.00     0.196 C 
HETATM   33  N3  UNL     1      24.217  52.633  46.286  1.00  0.00    -0.067 NA
HETATM   34  N4  UNL     1      21.993  51.727  46.691  1.00  0.00    -0.067 NA
ATOM     35  H2  UNL     1      24.892  51.045  48.059  1.00  0.00     0.161 HD
ENDBRANCH  30  31
ENDBRANCH  29  30
ENDBRANCH  28  29
ENDBRANCH   5  28
BRANCH  13  36
HETATM   36  O3  UNL     1      23.407  45.653  41.116  1.00  0.00    -0.345 OA
ATOM     37  H3  UNL     1      22.856  45.176  40.506  1.00  0.00     0.219 HD
ENDBRANCH  13  36
BRANCH   4  38
HETATM   38  O1  UNL     1      24.891  45.878  45.122  1.00  0.00    -0.348 OA
ATOM     39  H1  UNL     1      24.480  45.023  45.063  1.00  0.00     0.219 HD
ENDBRANCH   4  38
BRANCH   1  40
HETATM   40  C4  UNL     1      22.651  48.828  42.496  1.00  0.00     0.065 C 
BRANCH  40  41
HETATM   41  C2  UNL     1      22.322  49.347  43.850  1.00  0.00    -0.017 C 
HETATM   42  C1  UNL     1      20.800  49.522  44.019  1.00  0.00     0.010 C 
HETATM   43  C3  UNL     1      22.881  50.776  43.913  1.00  0.00     0.010 C 
ENDBRANCH  40  41
ENDBRANCH   1  40
TORSDOF 13
ENDMDL
