MODEL 1
REMARK VINA RESULT: -9.298680634      0.000      0.000
REMARK  13 active torsions:
REMARK  status: ('A' for Active; 'I' for Inactive)
REMARK    1  A    between atoms: N1_2  and  C3_4 
REMARK    2  A    between atoms: C3_4  and  C4_5 
REMARK    3  A    between atoms: C4_5  and  C5_6 
REMARK    4  A    between atoms: C5_6  and  N2_7 
REMARK    5  A    between atoms: N2_7  and  C6_8 
REMARK    6  A    between atoms: C8_12  and  C9_13 
REMARK    7  A    between atoms: C9_13  and  C10_14 
REMARK    8  A    between atoms: C10_14  and  N4_15 
REMARK    9  A    between atoms: N4_15  and  C11_17 
REMARK   10  A    between atoms: C12_20  and  N6_21 
REMARK   11  A    between atoms: N6_21  and  C13_23 
REMARK   12  A    between atoms: C13_23  and  C14_24 
REMARK   13  A    between atoms: C14_24  and  C15_25 
ROOT
HETATM    1  C11 UNL     1      23.304  45.104  43.621  1.00  0.00     0.129 A 
HETATM    2  N5  UNL     1      23.364  44.677  42.351  1.00  0.00    -0.176 N 
ATOM      3  H5  UNL     1      23.328  43.675  42.166  1.00  0.00     0.186 HD
HETATM    4  C12 UNL     1      23.472  45.539  41.296  1.00  0.00     0.680 A 
HETATM    5  N7  UNL     1      23.520  46.855  41.525  1.00  0.00    -0.191 N 
ATOM      6  H7  UNL     1      23.600  47.491  40.731  1.00  0.00     0.184 HD
HETATM    7  C16 UNL     1      23.468  47.362  42.749  1.00  0.00     0.063 A 
HETATM    8  C17 UNL     1      23.522  48.742  42.944  1.00  0.00     0.032 A 
HETATM    9  C18 UNL     1      23.467  49.268  44.216  1.00  0.00     0.021 A 
HETATM   10  C19 UNL     1      23.356  48.392  45.294  1.00  0.00     0.012 A 
HETATM   11 BR1  UNL     1      23.281  49.140  47.044  1.00  0.00    -0.051 Br
HETATM   12  C20 UNL     1      23.304  47.034  45.079  1.00  0.00     0.036 A 
HETATM   13  C21 UNL     1      23.358  46.478  43.806  1.00  0.00     0.037 A 
ENDROOT
BRANCH   1  14
HETATM   14  N4  UNL     1      23.203  44.347  44.652  1.00  0.00    -0.375 N 
ATOM     15  H4  UNL     1      23.889  44.473  45.395  1.00  0.00     0.161 HD
BRANCH  14  16
HETATM   16  C10 UNL     1      22.199  43.334  44.844  1.00  0.00     0.127 C 
BRANCH  16  17
HETATM   17  C9  UNL     1      20.971  43.855  45.574  1.00  0.00     0.078 C 
BRANCH  17  18
HETATM   18  C8  UNL     1      19.988  44.398  44.602  1.00  0.00     0.030 A 
HETATM   19  C7  UNL     1      19.671  45.701  44.338  1.00  0.00     0.117 A 
HETATM   20  N3  UNL     1      18.743  45.762  43.411  1.00  0.00    -0.325 N 
HETATM   21  C6  UNL     1      18.414  44.480  43.027  1.00  0.00     0.253 A 
ATOM     22  H3  UNL     1      18.333  46.617  43.036  1.00  0.00     0.169 HD
HETATM   23  N8  UNL     1      19.217  43.672  43.798  1.00  0.00    -0.319 N 
ATOM     24  H8  UNL     1      19.220  42.654  43.760  1.00  0.00     0.170 HD
BRANCH  21  25
HETATM   25  N2  UNL     1      17.607  44.121  42.202  1.00  0.00    -0.416 NA
BRANCH  25  26
HETATM   26  C5  UNL     1      16.826  44.094  41.114  1.00  0.00     0.223 C 
BRANCH  26  27
HETATM   27  C4  UNL     1      16.997  45.316  40.178  1.00  0.00     0.064 C 
BRANCH  27  28
HETATM   28  C3  UNL     1      16.150  46.443  40.663  1.00  0.00     0.274 C 
BRANCH  28  29
HETATM   29  N1  UNL     1      14.899  46.558  39.919  1.00  0.00     0.080 N 
HETATM   30  C1  UNL     1      14.627  47.953  39.584  1.00  0.00     0.309 C 
HETATM   31  C2  UNL     1      13.812  46.069  40.792  1.00  0.00     0.309 C 
ENDBRANCH  28  29
ENDBRANCH  27  28
ENDBRANCH  26  27
ENDBRANCH  25  26
ENDBRANCH  21  25
ENDBRANCH  17  18
ENDBRANCH  16  17
ENDBRANCH  14  16
ENDBRANCH   1  14
BRANCH   4  32
HETATM   32  N6  UNL     1      23.518  45.000  40.147  1.00  0.00    -0.225 N 
ATOM     33  H6  UNL     1      23.576  43.981  40.139  1.00  0.00     0.177 HD
BRANCH  32  34
HETATM   34  C13 UNL     1      23.498  45.627  38.871  1.00  0.00     0.148 C 
BRANCH  34  35
HETATM   35  C14 UNL     1      23.302  44.723  37.697  1.00  0.00     0.133 C 
BRANCH  35  36
HETATM   36  C15 UNL     1      22.557  45.330  36.574  1.00  0.00     0.174 C 
HETATM   37  O1  UNL     1      23.198  45.603  35.535  1.00  0.00    -0.648 OA
HETATM   38  O2  UNL     1      21.204  45.617  36.591  1.00  0.00    -0.648 OA
ENDBRANCH  35  36
ENDBRANCH  34  35
ENDBRANCH  32  34
ENDBRANCH   4  32
TORSDOF 13
ENDMDL
MODEL 2
REMARK VINA RESULT: -9.088868158      0.715      1.083
REMARK  13 active torsions:
REMARK  status: ('A' for Active; 'I' for Inactive)
REMARK    1  A    between atoms: N1_2  and  C3_4 
REMARK    2  A    between atoms: C3_4  and  C4_5 
REMARK    3  A    between atoms: C4_5  and  C5_6 
REMARK    4  A    between atoms: C5_6  and  N2_7 
REMARK    5  A    between atoms: N2_7  and  C6_8 
REMARK    6  A    between atoms: C8_12  and  C9_13 
REMARK    7  A    between atoms: C9_13  and  C10_14 
REMARK    8  A    between atoms: C10_14  and  N4_15 
REMARK    9  A    between atoms: N4_15  and  C11_17 
REMARK   10  A    between atoms: C12_20  and  N6_21 
REMARK   11  A    between atoms: N6_21  and  C13_23 
REMARK   12  A    between atoms: C13_23  and  C14_24 
REMARK   13  A    between atoms: C14_24  and  C15_25 
ROOT
HETATM    1  C11 UNL     1      22.931  45.194  43.611  1.00  0.00     0.129 A 
HETATM    2  N5  UNL     1      22.997  44.764  42.341  1.00  0.00    -0.176 N 
ATOM      3  H5  UNL     1      22.827  43.777  42.146  1.00  0.00     0.186 HD
HETATM    4  C12 UNL     1      23.282  45.603  41.301  1.00  0.00     0.680 A 
HETATM    5  N7  UNL     1      23.506  46.898  41.543  1.00  0.00    -0.191 N 
ATOM      6  H7  UNL     1      23.718  47.517  40.760  1.00  0.00     0.184 HD
HETATM    7  C16 UNL     1      23.462  47.406  42.767  1.00  0.00     0.063 A 
HETATM    8  C17 UNL     1      23.703  48.763  42.977  1.00  0.00     0.032 A 
HETATM    9  C18 UNL     1      23.656  49.291  44.249  1.00  0.00     0.021 A 
HETATM   10  C19 UNL     1      23.364  48.438  45.313  1.00  0.00     0.012 A 
HETATM   11 BR1  UNL     1      23.303  49.187  47.062  1.00  0.00    -0.051 Br
HETATM   12  C20 UNL     1      23.129  47.102  45.083  1.00  0.00     0.036 A 
HETATM   13  C21 UNL     1      23.171  46.546  43.810  1.00  0.00     0.037 A 
ENDROOT
BRANCH   1  14
HETATM   14  N4  UNL     1      22.667  44.458  44.628  1.00  0.00    -0.375 N 
ATOM     15  H4  UNL     1      23.389  44.372  45.343  1.00  0.00     0.161 HD
BRANCH  14  16
HETATM   16  C10 UNL     1      21.436  43.745  44.842  1.00  0.00     0.127 C 
BRANCH  16  17
HETATM   17  C9  UNL     1      20.278  44.665  45.196  1.00  0.00     0.078 C 
BRANCH  17  18
HETATM   18  C8  UNL     1      19.150  44.456  44.253  1.00  0.00     0.030 A 
HETATM   19  C7  UNL     1      17.956  43.825  44.468  1.00  0.00     0.117 A 
HETATM   20  N3  UNL     1      17.230  43.846  43.374  1.00  0.00    -0.325 N 
HETATM   21  C6  UNL     1      17.933  44.504  42.388  1.00  0.00     0.253 A 
ATOM     22  H3  UNL     1      16.299  43.443  43.272  1.00  0.00     0.169 HD
HETATM   23  N8  UNL     1      19.118  44.860  42.987  1.00  0.00    -0.319 N 
ATOM     24  H8  UNL     1      19.871  45.367  42.523  1.00  0.00     0.170 HD
BRANCH  21  25
HETATM   25  N2  UNL     1      17.603  44.728  41.246  1.00  0.00    -0.416 NA
BRANCH  25  26
HETATM   26  C5  UNL     1      17.208  44.553  39.979  1.00  0.00     0.223 C 
BRANCH  26  27
HETATM   27  C4  UNL     1      15.938  45.351  39.593  1.00  0.00     0.064 C 
BRANCH  27  28
HETATM   28  C3  UNL     1      15.923  46.654  40.318  1.00  0.00     0.274 C 
BRANCH  28  29
HETATM   29  N1  UNL     1      14.675  46.870  41.046  1.00  0.00     0.080 N 
HETATM   30  C1  UNL     1      13.886  45.642  41.085  1.00  0.00     0.309 C 
HETATM   31  C2  UNL     1      13.902  47.896  40.316  1.00  0.00     0.309 C 
ENDBRANCH  28  29
ENDBRANCH  27  28
ENDBRANCH  26  27
ENDBRANCH  25  26
ENDBRANCH  21  25
ENDBRANCH  17  18
ENDBRANCH  16  17
ENDBRANCH  14  16
ENDBRANCH   1  14
BRANCH   4  32
HETATM   32  N6  UNL     1      23.311  45.064  40.152  1.00  0.00    -0.225 N 
ATOM     33  H6  UNL     1      23.136  44.059  40.130  1.00  0.00     0.177 HD
BRANCH  32  34
HETATM   34  C13 UNL     1      23.555  45.675  38.891  1.00  0.00     0.148 C 
BRANCH  34  35
HETATM   35  C14 UNL     1      23.490  44.774  37.700  1.00  0.00     0.133 C 
BRANCH  35  36
HETATM   36  C15 UNL     1      22.984  45.420  36.470  1.00  0.00     0.174 C 
HETATM   37  O1  UNL     1      23.809  45.652  35.559  1.00  0.00    -0.648 OA
HETATM   38  O2  UNL     1      21.667  45.785  36.257  1.00  0.00    -0.648 OA
ENDBRANCH  35  36
ENDBRANCH  34  35
ENDBRANCH  32  34
ENDBRANCH   4  32
TORSDOF 13
ENDMDL
MODEL 3
REMARK VINA RESULT: -8.789337882      4.678      6.604
REMARK  13 active torsions:
REMARK  status: ('A' for Active; 'I' for Inactive)
REMARK    1  A    between atoms: N1_2  and  C3_4 
REMARK    2  A    between atoms: C3_4  and  C4_5 
REMARK    3  A    between atoms: C4_5  and  C5_6 
REMARK    4  A    between atoms: C5_6  and  N2_7 
REMARK    5  A    between atoms: N2_7  and  C6_8 
REMARK    6  A    between atoms: C8_12  and  C9_13 
REMARK    7  A    between atoms: C9_13  and  C10_14 
REMARK    8  A    between atoms: C10_14  and  N4_15 
REMARK    9  A    between atoms: N4_15  and  C11_17 
REMARK   10  A    between atoms: C12_20  and  N6_21 
REMARK   11  A    between atoms: N6_21  and  C13_23 
REMARK   12  A    between atoms: C13_23  and  C14_24 
REMARK   13  A    between atoms: C14_24  and  C15_25 
ROOT
HETATM    1  C11 UNL     1      22.037  48.271  45.107  1.00  0.00     0.129 A 
HETATM    2  N5  UNL     1      22.359  48.701  46.337  1.00  0.00    -0.176 N 
ATOM      3  H5  UNL     1      21.698  49.294  46.840  1.00  0.00     0.186 HD
HETATM    4  C12 UNL     1      23.541  48.373  46.938  1.00  0.00     0.680 A 
HETATM    5  N7  UNL     1      24.416  47.597  46.289  1.00  0.00    -0.191 N 
ATOM      6  H7  UNL     1      25.296  47.357  46.746  1.00  0.00     0.184 HD
HETATM    7  C16 UNL     1      24.178  47.130  45.071  1.00  0.00     0.063 A 
HETATM    8  C17 UNL     1      25.117  46.324  44.428  1.00  0.00     0.032 A 
HETATM    9  C18 UNL     1      24.870  45.838  43.163  1.00  0.00     0.021 A 
HETATM   10  C19 UNL     1      23.664  46.171  42.547  1.00  0.00     0.012 A 
HETATM   11 BR1  UNL     1      23.340  45.488  40.799  1.00  0.00    -0.051 Br
HETATM   12  C20 UNL     1      22.750  46.967  43.200  1.00  0.00     0.036 A 
HETATM   13  C21 UNL     1      22.977  47.469  44.476  1.00  0.00     0.037 A 
ENDROOT
BRANCH   1  14
HETATM   14  N4  UNL     1      20.946  48.544  44.491  1.00  0.00    -0.375 N 
ATOM     15  H4  UNL     1      20.988  49.245  43.752  1.00  0.00     0.161 HD
BRANCH  14  16
HETATM   16  C10 UNL     1      19.667  47.941  44.758  1.00  0.00     0.127 C 
BRANCH  16  17
HETATM   17  C9  UNL     1      19.783  46.499  45.226  1.00  0.00     0.078 C 
BRANCH  17  18
HETATM   18  C8  UNL     1      19.260  45.577  44.185  1.00  0.00     0.030 A 
HETATM   19  C7  UNL     1      19.180  44.213  44.208  1.00  0.00     0.117 A 
HETATM   20  N3  UNL     1      18.661  43.772  43.085  1.00  0.00    -0.325 N 
HETATM   21  C6  UNL     1      18.377  44.849  42.274  1.00  0.00     0.253 A 
ATOM     22  H3  UNL     1      18.495  42.793  42.852  1.00  0.00     0.169 HD
HETATM   23  N8  UNL     1      18.770  45.945  43.006  1.00  0.00    -0.319 N 
ATOM     24  H8  UNL     1      18.694  46.910  42.687  1.00  0.00     0.170 HD
BRANCH  21  25
HETATM   25  N2  UNL     1      17.893  44.855  41.166  1.00  0.00    -0.416 NA
BRANCH  25  26
HETATM   26  C5  UNL     1      17.276  44.458  40.046  1.00  0.00     0.223 C 
BRANCH  26  27
HETATM   27  C4  UNL     1      15.961  45.217  39.742  1.00  0.00     0.064 C 
BRANCH  27  28
HETATM   28  C3  UNL     1      16.018  46.582  40.338  1.00  0.00     0.274 C 
BRANCH  28  29
HETATM   29  N1  UNL     1      14.694  47.093  40.682  1.00  0.00     0.080 N 
HETATM   30  C1  UNL     1      13.746  45.994  40.844  1.00  0.00     0.309 C 
HETATM   31  C2  UNL     1      14.236  47.941  39.562  1.00  0.00     0.309 C 
ENDBRANCH  28  29
ENDBRANCH  27  28
ENDBRANCH  26  27
ENDBRANCH  25  26
ENDBRANCH  21  25
ENDBRANCH  17  18
ENDBRANCH  16  17
ENDBRANCH  14  16
ENDBRANCH   1  14
BRANCH   4  32
HETATM   32  N6  UNL     1      23.716  48.847  48.102  1.00  0.00    -0.225 N 
ATOM     33  H6  UNL     1      24.177  48.226  48.768  1.00  0.00     0.177 HD
BRANCH  32  34
HETATM   34  C13 UNL     1      23.356  50.129  48.603  1.00  0.00     0.148 C 
BRANCH  34  35
HETATM   35  C14 UNL     1      23.567  50.347  50.066  1.00  0.00     0.133 C 
BRANCH  35  36
HETATM   36  C15 UNL     1      22.945  49.324  50.933  1.00  0.00     0.174 C 
HETATM   37  O1  UNL     1      23.217  49.359  52.154  1.00  0.00    -0.648 OA
HETATM   38  O2  UNL     1      22.085  48.335  50.492  1.00  0.00    -0.648 OA
ENDBRANCH  35  36
ENDBRANCH  34  35
ENDBRANCH  32  34
ENDBRANCH   4  32
TORSDOF 13
ENDMDL
MODEL 4
REMARK VINA RESULT: -8.624532969      4.666      6.464
REMARK  13 active torsions:
REMARK  status: ('A' for Active; 'I' for Inactive)
REMARK    1  A    between atoms: N1_2  and  C3_4 
REMARK    2  A    between atoms: C3_4  and  C4_5 
REMARK    3  A    between atoms: C4_5  and  C5_6 
REMARK    4  A    between atoms: C5_6  and  N2_7 
REMARK    5  A    between atoms: N2_7  and  C6_8 
REMARK    6  A    between atoms: C8_12  and  C9_13 
REMARK    7  A    between atoms: C9_13  and  C10_14 
REMARK    8  A    between atoms: C10_14  and  N4_15 
REMARK    9  A    between atoms: N4_15  and  C11_17 
REMARK   10  A    between atoms: C12_20  and  N6_21 
REMARK   11  A    between atoms: N6_21  and  C13_23 
REMARK   12  A    between atoms: C13_23  and  C14_24 
REMARK   13  A    between atoms: C14_24  and  C15_25 
ROOT
HETATM    1  C11 UNL     1      21.781  46.889  45.594  1.00  0.00     0.129 A 
HETATM    2  N5  UNL     1      22.094  47.504  46.745  1.00  0.00    -0.176 N 
ATOM      3  H5  UNL     1      21.373  47.608  47.459  1.00  0.00     0.186 HD
HETATM    4  C12 UNL     1      23.345  47.994  46.993  1.00  0.00     0.680 A 
HETATM    5  N7  UNL     1      24.299  47.863  46.065  1.00  0.00    -0.191 N 
ATOM      6  H7  UNL     1      25.230  48.232  46.259  1.00  0.00     0.184 HD
HETATM    7  C16 UNL     1      24.075  47.270  44.900  1.00  0.00     0.063 A 
HETATM    8  C17 UNL     1      25.097  47.155  43.959  1.00  0.00     0.032 A 
HETATM    9  C18 UNL     1      24.864  46.539  42.749  1.00  0.00     0.021 A 
HETATM   10  C19 UNL     1      23.589  46.036  42.493  1.00  0.00     0.012 A 
HETATM   11 BR1  UNL     1      23.288  45.186  40.816  1.00  0.00    -0.051 Br
HETATM   12  C20 UNL     1      22.595  46.160  43.436  1.00  0.00     0.036 A 
HETATM   13  C21 UNL     1      22.805  46.778  44.663  1.00  0.00     0.037 A 
ENDROOT
BRANCH   1  14
HETATM   14  N4  UNL     1      20.628  46.408  45.303  1.00  0.00    -0.375 N 
ATOM     15  H4  UNL     1      20.099  46.874  44.566  1.00  0.00     0.161 HD
BRANCH  14  16
HETATM   16  C10 UNL     1      20.022  45.263  45.930  1.00  0.00     0.127 C 
BRANCH  16  17
HETATM   17  C9  UNL     1      20.098  44.012  45.069  1.00  0.00     0.078 C 
BRANCH  17  18
HETATM   18  C8  UNL     1      18.928  43.946  44.156  1.00  0.00     0.030 A 
HETATM   19  C7  UNL     1      17.638  43.589  44.436  1.00  0.00     0.117 A 
HETATM   20  N3  UNL     1      16.905  43.653  43.349  1.00  0.00    -0.325 N 
HETATM   21  C6  UNL     1      17.700  44.063  42.301  1.00  0.00     0.253 A 
ATOM     22  H3  UNL     1      15.910  43.437  43.290  1.00  0.00     0.169 HD
HETATM   23  N8  UNL     1      18.946  44.230  42.857  1.00  0.00    -0.319 N 
ATOM     24  H8  UNL     1      19.773  44.531  42.343  1.00  0.00     0.170 HD
BRANCH  21  25
HETATM   25  N2  UNL     1      17.394  44.242  41.145  1.00  0.00    -0.416 NA
BRANCH  25  26
HETATM   26  C5  UNL     1      16.794  44.720  40.048  1.00  0.00     0.223 C 
BRANCH  26  27
HETATM   27  C4  UNL     1      16.321  46.190  40.170  1.00  0.00     0.064 C 
BRANCH  27  28
HETATM   28  C3  UNL     1      15.040  46.244  40.932  1.00  0.00     0.274 C 
BRANCH  28  29
HETATM   29  N1  UNL     1      14.291  47.470  40.672  1.00  0.00     0.080 N 
HETATM   30  C1  UNL     1      13.018  47.166  40.024  1.00  0.00     0.309 C 
HETATM   31  C2  UNL     1      15.095  48.299  39.750  1.00  0.00     0.309 C 
ENDBRANCH  28  29
ENDBRANCH  27  28
ENDBRANCH  26  27
ENDBRANCH  25  26
ENDBRANCH  21  25
ENDBRANCH  17  18
ENDBRANCH  16  17
ENDBRANCH  14  16
ENDBRANCH   1  14
BRANCH   4  32
HETATM   32  N6  UNL     1      23.503  48.551  48.122  1.00  0.00    -0.225 N 
ATOM     33  H6  UNL     1      23.805  47.938  48.880  1.00  0.00     0.177 HD
BRANCH  32  34
HETATM   34  C13 UNL     1      23.317  49.917  48.473  1.00  0.00     0.148 C 
BRANCH  34  35
HETATM   35  C14 UNL     1      23.625  50.282  49.889  1.00  0.00     0.133 C 
BRANCH  35  36
HETATM   36  C15 UNL     1      23.052  49.363  50.896  1.00  0.00     0.174 C 
HETATM   37  O1  UNL     1      23.547  49.384  52.044  1.00  0.00    -0.648 OA
HETATM   38  O2  UNL     1      22.010  48.486  50.658  1.00  0.00    -0.648 OA
ENDBRANCH  35  36
ENDBRANCH  34  35
ENDBRANCH  32  34
ENDBRANCH   4  32
TORSDOF 13
ENDMDL
MODEL 5
REMARK VINA RESULT: -8.405853105      3.318      7.339
REMARK  13 active torsions:
REMARK  status: ('A' for Active; 'I' for Inactive)
REMARK    1  A    between atoms: N1_2  and  C3_4 
REMARK    2  A    between atoms: C3_4  and  C4_5 
REMARK    3  A    between atoms: C4_5  and  C5_6 
REMARK    4  A    between atoms: C5_6  and  N2_7 
REMARK    5  A    between atoms: N2_7  and  C6_8 
REMARK    6  A    between atoms: C8_12  and  C9_13 
REMARK    7  A    between atoms: C9_13  and  C10_14 
REMARK    8  A    between atoms: C10_14  and  N4_15 
REMARK    9  A    between atoms: N4_15  and  C11_17 
REMARK   10  A    between atoms: C12_20  and  N6_21 
REMARK   11  A    between atoms: N6_21  and  C13_23 
REMARK   12  A    between atoms: C13_23  and  C14_24 
REMARK   13  A    between atoms: C14_24  and  C15_25 
ROOT
HETATM    1  C11 UNL     1      21.388  46.029  42.576  1.00  0.00     0.129 A 
HETATM    2  N5  UNL     1      20.446  45.075  42.529  1.00  0.00    -0.176 N 
ATOM      3  H5  UNL     1      20.624  44.234  41.980  1.00  0.00     0.186 HD
HETATM    4  C12 UNL     1      19.257  45.191  43.192  1.00  0.00     0.680 A 
HETATM    5  N7  UNL     1      19.012  46.289  43.915  1.00  0.00    -0.191 N 
ATOM      6  H7  UNL     1      18.121  46.367  44.407  1.00  0.00     0.184 HD
HETATM    7  C16 UNL     1      19.887  47.280  44.015  1.00  0.00     0.063 A 
HETATM    8  C17 UNL     1      19.592  48.408  44.778  1.00  0.00     0.032 A 
HETATM    9  C18 UNL     1      20.502  49.437  44.882  1.00  0.00     0.021 A 
HETATM   10  C19 UNL     1      21.717  49.321  44.208  1.00  0.00     0.012 A 
HETATM   11 BR1  UNL     1      22.961  50.754  44.365  1.00  0.00    -0.051 Br
HETATM   12  C20 UNL     1      21.988  48.199  43.460  1.00  0.00     0.036 A 
HETATM   13  C21 UNL     1      21.087  47.148  43.340  1.00  0.00     0.037 A 
ENDROOT
BRANCH   1  14
HETATM   14  N4  UNL     1      22.522  45.978  41.978  1.00  0.00    -0.375 N 
ATOM     15  H4  UNL     1      22.830  46.817  41.487  1.00  0.00     0.161 HD
BRANCH  14  16
HETATM   16  C10 UNL     1      23.394  44.834  41.944  1.00  0.00     0.127 C 
BRANCH  16  17
HETATM   17  C9  UNL     1      23.787  44.353  43.332  1.00  0.00     0.078 C 
BRANCH  17  18
HETATM   18  C8  UNL     1      24.340  45.478  44.128  1.00  0.00     0.030 A 
HETATM   19  C7  UNL     1      25.576  46.058  44.052  1.00  0.00     0.117 A 
HETATM   20  N3  UNL     1      25.677  47.023  44.936  1.00  0.00    -0.325 N 
HETATM   21  C6  UNL     1      24.492  47.113  45.634  1.00  0.00     0.253 A 
ATOM     22  H3  UNL     1      26.498  47.611  45.082  1.00  0.00     0.169 HD
HETATM   23  N8  UNL     1      23.698  46.130  45.092  1.00  0.00    -0.319 N 
ATOM     24  H8  UNL     1      22.744  45.928  45.389  1.00  0.00     0.170 HD
BRANCH  21  25
HETATM   25  N2  UNL     1      24.195  47.874  46.525  1.00  0.00    -0.416 NA
BRANCH  25  26
HETATM   26  C5  UNL     1      23.479  48.635  47.361  1.00  0.00     0.223 C 
BRANCH  26  27
HETATM   27  C4  UNL     1      23.930  48.553  48.840  1.00  0.00     0.064 C 
BRANCH  27  28
HETATM   28  C3  UNL     1      23.318  49.671  49.615  1.00  0.00     0.274 C 
BRANCH  28  29
HETATM   29  N1  UNL     1      23.506  49.516  51.055  1.00  0.00     0.080 N 
HETATM   30  C1  UNL     1      22.413  48.739  51.634  1.00  0.00     0.309 C 
HETATM   31  C2  UNL     1      23.488  50.865  51.657  1.00  0.00     0.309 C 
ENDBRANCH  28  29
ENDBRANCH  27  28
ENDBRANCH  26  27
ENDBRANCH  25  26
ENDBRANCH  21  25
ENDBRANCH  17  18
ENDBRANCH  16  17
ENDBRANCH  14  16
ENDBRANCH   1  14
BRANCH   4  32
HETATM   32  N6  UNL     1      18.457  44.214  43.063  1.00  0.00    -0.225 N 
ATOM     33  H6  UNL     1      18.785  43.322  43.433  1.00  0.00     0.177 HD
BRANCH  32  34
HETATM   34  C13 UNL     1      17.164  44.197  42.470  1.00  0.00     0.148 C 
BRANCH  34  35
HETATM   35  C14 UNL     1      16.916  45.213  41.402  1.00  0.00     0.133 C 
BRANCH  35  36
HETATM   36  C15 UNL     1      16.997  44.684  40.024  1.00  0.00     0.174 C 
HETATM   37  O1  UNL     1      18.136  44.464  39.556  1.00  0.00    -0.648 OA
HETATM   38  O2  UNL     1      15.906  44.415  39.219  1.00  0.00    -0.648 OA
ENDBRANCH  35  36
ENDBRANCH  34  35
ENDBRANCH  32  34
ENDBRANCH   4  32
TORSDOF 13
ENDMDL
