MODEL 1
REMARK VINA RESULT: -8.682461460      0.000      0.000
REMARK  13 active torsions:
REMARK  status: ('A' for Active; 'I' for Inactive)
REMARK       I    between atoms: C2_2  and  N1_4 
REMARK    1  A    between atoms: N1_4  and  C3_6 
REMARK    2  A    between atoms: C4_9  and  C5_10 
REMARK    3  A    between atoms: C5_10  and  C6_11 
REMARK    4  A    between atoms: C6_11  and  N3_12 
REMARK    5  A    between atoms: N3_12  and  C8_14 
REMARK    6  A    between atoms: C8_14  and  C9_15 
REMARK    7  A    between atoms: C9_15  and  N4_16 
REMARK    8  A    between atoms: C12_23  and  O2_24 
REMARK    9  A    between atoms: O2_24  and  C13_25 
REMARK   10  A    between atoms: C13_25  and  C14_26 
REMARK       I    between atoms: C14_26  and  N5_28 
REMARK   11  A    between atoms: N5_28  and  C15_30 
REMARK   12  A    between atoms: C15_30  and  C16_31 
REMARK   13  A    between atoms: C16_31  and  C17_32 
ROOT
HETATM    1  C3  UNL     1      23.843  46.962  45.610  1.00  0.00     0.143 A 
HETATM    2  N2  UNL     1      24.142  47.773  46.614  1.00  0.00    -0.344 N 
ATOM      3  H2  UNL     1      25.040  47.681  47.088  1.00  0.00     0.167 HD
HETATM    4  C4  UNL     1      23.275  48.713  47.013  1.00  0.00     0.013 A 
HETATM    5  C10 UNL     1      22.045  48.841  46.367  1.00  0.00     0.047 A 
HETATM    6  C11 UNL     1      21.712  48.007  45.320  1.00  0.00     0.050 A 
HETATM    7 BR1  UNL     1      20.037  48.165  44.425  1.00  0.00    -0.048 Br
HETATM    8  C12 UNL     1      22.622  47.047  44.929  1.00  0.00     0.130 A 
ENDROOT
BRANCH   8   9
HETATM    9  O2  UNL     1      22.298  46.207  43.881  1.00  0.00    -0.337 OA
BRANCH   9  10
HETATM   10  C13 UNL     1      22.056  44.842  44.063  1.00  0.00     0.278 C 
BRANCH  10  11
HETATM   11  C14 UNL     1      20.571  44.568  44.157  1.00  0.00     0.241 C 
HETATM   12  O3  UNL     1      20.124  43.947  45.164  1.00  0.00    -0.271 OA
HETATM   13  N5  UNL     1      19.770  45.030  43.095  1.00  0.00    -0.359 N 
ATOM     14  H5  UNL     1      20.224  45.517  42.323  1.00  0.00     0.162 HD
BRANCH  13  15
HETATM   15  C15 UNL     1      18.342  44.850  43.044  1.00  0.00     0.127 C 
BRANCH  15  16
HETATM   16  C16 UNL     1      17.872  44.787  41.633  1.00  0.00     0.060 C 
BRANCH  16  17
HETATM   17  C17 UNL     1      16.384  44.864  41.537  1.00  0.00    -0.029 A 
HETATM   18  C18 UNL     1      15.438  43.918  41.837  1.00  0.00     0.096 A 
HETATM   19  N6  UNL     1      14.215  44.454  41.582  1.00  0.00    -0.365 N 
HETATM   20  C19 UNL     1      14.342  45.710  41.130  1.00  0.00     0.042 A 
ATOM     21  H6  UNL     1      13.327  43.970  41.716  1.00  0.00     0.165 HD
HETATM   22  C20 UNL     1      13.466  46.699  40.727  1.00  0.00     0.030 A 
HETATM   23  C24 UNL     1      15.680  45.964  41.100  1.00  0.00    -0.002 A 
HETATM   24  C21 UNL     1      13.888  47.932  40.297  1.00  0.00     0.002 A 
HETATM   25  C22 UNL     1      15.252  48.184  40.270  1.00  0.00     0.001 A 
HETATM   26  C23 UNL     1      16.139  47.200  40.672  1.00  0.00     0.014 A 
ENDBRANCH  16  17
ENDBRANCH  15  16
ENDBRANCH  13  15
ENDBRANCH  10  11
ENDBRANCH   9  10
ENDBRANCH   8   9
BRANCH   1  27
HETATM   27  N1  UNL     1      24.648  46.071  45.215  1.00  0.00    -0.311 N 
HETATM   28  C2  UNL     1      25.684  46.193  44.273  1.00  0.00     0.219 C 
HETATM   29  C1  UNL     1      27.072  45.836  44.629  1.00  0.00     0.117 C 
HETATM   30  O1  UNL     1      25.446  46.607  43.113  1.00  0.00    -0.274 OA
ATOM     31  H1  UNL     1      24.532  45.148  45.632  1.00  0.00     0.170 HD
ENDBRANCH   1  27
BRANCH   4  32
HETATM   32  C5  UNL     1      23.557  49.645  48.132  1.00  0.00     0.076 C 
BRANCH  32  33
HETATM   33  C6  UNL     1      23.584  48.946  49.464  1.00  0.00     0.122 C 
BRANCH  33  34
HETATM   34  N3  UNL     1      23.186  49.743  50.559  1.00  0.00    -0.415 N 
HETATM   35  C7  UNL     1      23.835  50.988  50.751  1.00  0.00     0.143 C 
BRANCH  34  36
HETATM   36  C8  UNL     1      22.748  49.075  51.735  1.00  0.00     0.143 C 
BRANCH  36  37
HETATM   37  C9  UNL     1      21.491  48.273  51.477  1.00  0.00     0.248 C 
BRANCH  37  38
HETATM   38  N4  UNL     1      21.211  47.522  52.692  1.00  0.00    -0.078 N 
ATOM     39  H43 UNL     1      21.841  46.732  52.830  1.00  0.00     0.274 HD
ATOM     40  H42 UNL     1      21.452  48.030  53.542  1.00  0.00     0.274 HD
ATOM     41  H41 UNL     1      20.229  47.250  52.652  1.00  0.00     0.274 HD
ENDBRANCH  37  38
ENDBRANCH  36  37
ENDBRANCH  34  36
ENDBRANCH  33  34
ENDBRANCH  32  33
ENDBRANCH   4  32
TORSDOF 13
ENDMDL
MODEL 2
REMARK VINA RESULT: -8.642298682      3.375      4.802
REMARK  13 active torsions:
REMARK  status: ('A' for Active; 'I' for Inactive)
REMARK       I    between atoms: C2_2  and  N1_4 
REMARK    1  A    between atoms: N1_4  and  C3_6 
REMARK    2  A    between atoms: C4_9  and  C5_10 
REMARK    3  A    between atoms: C5_10  and  C6_11 
REMARK    4  A    between atoms: C6_11  and  N3_12 
REMARK    5  A    between atoms: N3_12  and  C8_14 
REMARK    6  A    between atoms: C8_14  and  C9_15 
REMARK    7  A    between atoms: C9_15  and  N4_16 
REMARK    8  A    between atoms: C12_23  and  O2_24 
REMARK    9  A    between atoms: O2_24  and  C13_25 
REMARK   10  A    between atoms: C13_25  and  C14_26 
REMARK       I    between atoms: C14_26  and  N5_28 
REMARK   11  A    between atoms: N5_28  and  C15_30 
REMARK   12  A    between atoms: C15_30  and  C16_31 
REMARK   13  A    between atoms: C16_31  and  C17_32 
ROOT
HETATM    1  C3  UNL     1      22.678  45.374  44.772  1.00  0.00     0.143 A 
HETATM    2  N2  UNL     1      23.985  45.270  44.577  1.00  0.00    -0.344 N 
ATOM      3  H2  UNL     1      24.405  44.349  44.449  1.00  0.00     0.167 HD
HETATM    4  C4  UNL     1      24.759  46.362  44.545  1.00  0.00     0.013 A 
HETATM    5  C10 UNL     1      24.187  47.623  44.719  1.00  0.00     0.047 A 
HETATM    6  C11 UNL     1      22.830  47.755  44.925  1.00  0.00     0.050 A 
HETATM    7 BR1  UNL     1      22.030  49.468  45.165  1.00  0.00    -0.048 Br
HETATM    8  C12 UNL     1      22.054  46.615  44.953  1.00  0.00     0.130 A 
ENDROOT
BRANCH   8   9
HETATM    9  O2  UNL     1      20.694  46.738  45.159  1.00  0.00    -0.337 OA
BRANCH   9  10
HETATM   10  C13 UNL     1      19.805  47.045  44.126  1.00  0.00     0.278 C 
BRANCH  10  11
HETATM   11  C14 UNL     1      19.478  45.810  43.314  1.00  0.00     0.241 C 
HETATM   12  O3  UNL     1      20.305  45.411  42.445  1.00  0.00    -0.271 OA
HETATM   13  N5  UNL     1      18.250  45.178  43.585  1.00  0.00    -0.359 N 
ATOM     14  H5  UNL     1      17.647  45.578  44.303  1.00  0.00     0.162 HD
BRANCH  13  15
HETATM   15  C15 UNL     1      17.802  43.992  42.900  1.00  0.00     0.127 C 
BRANCH  15  16
HETATM   16  C16 UNL     1      17.442  44.306  41.491  1.00  0.00     0.060 C 
BRANCH  16  17
HETATM   17  C17 UNL     1      16.022  44.752  41.363  1.00  0.00    -0.029 A 
HETATM   18  C18 UNL     1      14.863  44.056  41.594  1.00  0.00     0.096 A 
HETATM   19  N6  UNL     1      13.819  44.888  41.338  1.00  0.00    -0.365 N 
HETATM   20  C19 UNL     1      14.266  46.092  40.951  1.00  0.00     0.042 A 
ATOM     21  H6  UNL     1      12.835  44.633  41.426  1.00  0.00     0.165 HD
HETATM   22  C20 UNL     1      13.673  47.282  40.577  1.00  0.00     0.030 A 
HETATM   23  C24 UNL     1      15.626  46.009  40.966  1.00  0.00    -0.002 A 
HETATM   24  C21 UNL     1      14.400  48.390  40.219  1.00  0.00     0.002 A 
HETATM   25  C22 UNL     1      15.784  48.299  40.236  1.00  0.00     0.001 A 
HETATM   26  C23 UNL     1      16.388  47.110  40.610  1.00  0.00     0.014 A 
ENDBRANCH  16  17
ENDBRANCH  15  16
ENDBRANCH  13  15
ENDBRANCH  10  11
ENDBRANCH   9  10
ENDBRANCH   8   9
BRANCH   1  27
HETATM   27  N1  UNL     1      21.928  44.356  44.801  1.00  0.00    -0.311 N 
HETATM   28  C2  UNL     1      21.647  43.516  45.891  1.00  0.00     0.219 C 
HETATM   29  C1  UNL     1      20.254  43.282  46.322  1.00  0.00     0.117 C 
HETATM   30  O1  UNL     1      22.575  42.950  46.518  1.00  0.00    -0.274 OA
ATOM     31  H1  UNL     1      21.470  44.115  43.923  1.00  0.00     0.170 HD
ENDBRANCH   1  27
BRANCH   4  32
HETATM   32  C5  UNL     1      26.226  46.303  44.333  1.00  0.00     0.076 C 
BRANCH  32  33
HETATM   33  C6  UNL     1      26.812  44.987  44.766  1.00  0.00     0.122 C 
BRANCH  33  34
HETATM   34  N3  UNL     1      28.220  44.974  44.876  1.00  0.00    -0.415 N 
HETATM   35  C7  UNL     1      28.828  43.893  45.563  1.00  0.00     0.143 C 
BRANCH  34  36
HETATM   36  C8  UNL     1      28.885  46.227  44.965  1.00  0.00     0.143 C 
BRANCH  36  37
HETATM   37  C9  UNL     1      29.834  46.265  46.142  1.00  0.00     0.248 C 
BRANCH  37  38
HETATM   38  N4  UNL     1      30.211  47.656  46.338  1.00  0.00    -0.078 N 
ATOM     39  H43 UNL     1      31.198  47.835  46.150  1.00  0.00     0.274 HD
ATOM     40  H42 UNL     1      29.829  48.280  45.628  1.00  0.00     0.274 HD
ATOM     41  H41 UNL     1      29.931  47.909  47.286  1.00  0.00     0.274 HD
ENDBRANCH  37  38
ENDBRANCH  36  37
ENDBRANCH  34  36
ENDBRANCH  33  34
ENDBRANCH  32  33
ENDBRANCH   4  32
TORSDOF 13
ENDMDL
MODEL 3
REMARK VINA RESULT: -8.498180636      1.088      1.377
REMARK  13 active torsions:
REMARK  status: ('A' for Active; 'I' for Inactive)
REMARK       I    between atoms: C2_2  and  N1_4 
REMARK    1  A    between atoms: N1_4  and  C3_6 
REMARK    2  A    between atoms: C4_9  and  C5_10 
REMARK    3  A    between atoms: C5_10  and  C6_11 
REMARK    4  A    between atoms: C6_11  and  N3_12 
REMARK    5  A    between atoms: N3_12  and  C8_14 
REMARK    6  A    between atoms: C8_14  and  C9_15 
REMARK    7  A    between atoms: C9_15  and  N4_16 
REMARK    8  A    between atoms: C12_23  and  O2_24 
REMARK    9  A    between atoms: O2_24  and  C13_25 
REMARK   10  A    between atoms: C13_25  and  C14_26 
REMARK       I    between atoms: C14_26  and  N5_28 
REMARK   11  A    between atoms: N5_28  and  C15_30 
REMARK   12  A    between atoms: C15_30  and  C16_31 
REMARK   13  A    between atoms: C16_31  and  C17_32 
ROOT
HETATM    1  C3  UNL     1      23.631  47.197  45.046  1.00  0.00     0.143 A 
HETATM    2  N2  UNL     1      24.003  48.368  45.542  1.00  0.00    -0.344 N 
ATOM      3  H2  UNL     1      24.981  48.526  45.786  1.00  0.00     0.167 HD
HETATM    4  C4  UNL     1      23.108  49.347  45.726  1.00  0.00     0.013 A 
HETATM    5  C10 UNL     1      21.770  49.134  45.394  1.00  0.00     0.047 A 
HETATM    6  C11 UNL     1      21.359  47.922  44.877  1.00  0.00     0.050 A 
HETATM    7 BR1  UNL     1      19.536  47.611  44.418  1.00  0.00    -0.048 Br
HETATM    8  C12 UNL     1      22.301  46.930  44.698  1.00  0.00     0.130 A 
ENDROOT
BRANCH   8   9
HETATM    9  O2  UNL     1      21.899  45.714  44.181  1.00  0.00    -0.337 OA
BRANCH   9  10
HETATM   10  C13 UNL     1      21.626  44.609  44.992  1.00  0.00     0.278 C 
BRANCH  10  11
HETATM   11  C14 UNL     1      20.212  44.118  44.772  1.00  0.00     0.241 C 
HETATM   12  O3  UNL     1      19.639  43.464  45.691  1.00  0.00    -0.271 OA
HETATM   13  N5  UNL     1      19.618  44.425  43.533  1.00  0.00    -0.359 N 
ATOM     14  H5  UNL     1      20.163  44.954  42.853  1.00  0.00     0.162 HD
BRANCH  13  15
HETATM   15  C15 UNL     1      18.278  44.032  43.178  1.00  0.00     0.127 C 
BRANCH  15  16
HETATM   16  C16 UNL     1      17.934  44.519  41.814  1.00  0.00     0.060 C 
BRANCH  16  17
HETATM   17  C17 UNL     1      16.462  44.700  41.642  1.00  0.00    -0.029 A 
HETATM   18  C18 UNL     1      15.436  43.831  41.913  1.00  0.00     0.096 A 
HETATM   19  N6  UNL     1      14.269  44.448  41.586  1.00  0.00    -0.365 N 
HETATM   20  C19 UNL     1      14.509  45.681  41.117  1.00  0.00     0.042 A 
ATOM     21  H6  UNL     1      13.343  44.032  41.685  1.00  0.00     0.165 HD
HETATM   22  C20 UNL     1      13.728  46.720  40.651  1.00  0.00     0.030 A 
HETATM   23  C24 UNL     1      15.862  45.838  41.150  1.00  0.00    -0.002 A 
HETATM   24  C21 UNL     1      14.259  47.910  40.220  1.00  0.00     0.002 A 
HETATM   25  C22 UNL     1      15.638  48.063  40.256  1.00  0.00     0.001 A 
HETATM   26  C23 UNL     1      16.430  47.027  40.721  1.00  0.00     0.014 A 
ENDBRANCH  16  17
ENDBRANCH  15  16
ENDBRANCH  13  15
ENDBRANCH  10  11
ENDBRANCH   9  10
ENDBRANCH   8   9
BRANCH   1  27
HETATM   27  N1  UNL     1      24.461  46.261  44.861  1.00  0.00    -0.311 N 
HETATM   28  C2  UNL     1      25.596  46.259  44.032  1.00  0.00     0.219 C 
HETATM   29  C1  UNL     1      26.930  45.949  44.583  1.00  0.00     0.117 C 
HETATM   30  O1  UNL     1      25.493  46.520  42.809  1.00  0.00    -0.274 OA
ATOM     31  H1  UNL     1      24.285  45.400  45.377  1.00  0.00     0.170 HD
ENDBRANCH   1  27
BRANCH   4  32
HETATM   32  C5  UNL     1      23.469  50.675  46.279  1.00  0.00     0.076 C 
BRANCH  32  33
HETATM   33  C6  UNL     1      22.885  50.902  47.647  1.00  0.00     0.122 C 
BRANCH  33  34
HETATM   34  N3  UNL     1      23.519  50.189  48.687  1.00  0.00    -0.415 N 
HETATM   35  C7  UNL     1      23.437  48.774  48.676  1.00  0.00     0.143 C 
BRANCH  34  36
HETATM   36  C8  UNL     1      23.576  50.804  49.967  1.00  0.00     0.143 C 
BRANCH  36  37
HETATM   37  C9  UNL     1      23.541  49.774  51.075  1.00  0.00     0.248 C 
BRANCH  37  38
HETATM   38  N4  UNL     1      23.469  50.505  52.331  1.00  0.00    -0.078 N 
ATOM     39  H43 UNL     1      24.144  50.180  53.024  1.00  0.00     0.274 HD
ATOM     40  H42 UNL     1      23.811  51.463  52.258  1.00  0.00     0.274 HD
ATOM     41  H41 UNL     1      22.503  50.447  52.654  1.00  0.00     0.274 HD
ENDBRANCH  37  38
ENDBRANCH  36  37
ENDBRANCH  34  36
ENDBRANCH  33  34
ENDBRANCH  32  33
ENDBRANCH   4  32
TORSDOF 13
ENDMDL
MODEL 4
REMARK VINA RESULT: -8.360585997      2.971      4.840
REMARK  13 active torsions:
REMARK  status: ('A' for Active; 'I' for Inactive)
REMARK       I    between atoms: C2_2  and  N1_4 
REMARK    1  A    between atoms: N1_4  and  C3_6 
REMARK    2  A    between atoms: C4_9  and  C5_10 
REMARK    3  A    between atoms: C5_10  and  C6_11 
REMARK    4  A    between atoms: C6_11  and  N3_12 
REMARK    5  A    between atoms: N3_12  and  C8_14 
REMARK    6  A    between atoms: C8_14  and  C9_15 
REMARK    7  A    between atoms: C9_15  and  N4_16 
REMARK    8  A    between atoms: C12_23  and  O2_24 
REMARK    9  A    between atoms: O2_24  and  C13_25 
REMARK   10  A    between atoms: C13_25  and  C14_26 
REMARK       I    between atoms: C14_26  and  N5_28 
REMARK   11  A    between atoms: N5_28  and  C15_30 
REMARK   12  A    between atoms: C15_30  and  C16_31 
REMARK   13  A    between atoms: C16_31  and  C17_32 
ROOT
HETATM    1  C3  UNL     1      22.769  47.515  44.997  1.00  0.00     0.143 A 
HETATM    2  N2  UNL     1      24.066  47.492  44.725  1.00  0.00    -0.344 N 
ATOM      3  H2  UNL     1      24.575  48.369  44.617  1.00  0.00     0.167 HD
HETATM    4  C4  UNL     1      24.714  46.328  44.589  1.00  0.00     0.013 A 
HETATM    5  C10 UNL     1      24.019  45.127  44.736  1.00  0.00     0.047 A 
HETATM    6  C11 UNL     1      22.669  45.127  45.019  1.00  0.00     0.050 A 
HETATM    7 BR1  UNL     1      21.703  43.497  45.223  1.00  0.00    -0.048 Br
HETATM    8  C12 UNL     1      22.025  46.339  45.153  1.00  0.00     0.130 A 
ENDROOT
BRANCH   8   9
HETATM    9  O2  UNL     1      20.673  46.349  45.436  1.00  0.00    -0.337 OA
BRANCH   9  10
HETATM   10  C13 UNL     1      19.717  46.772  44.508  1.00  0.00     0.278 C 
BRANCH  10  11
HETATM   11  C14 UNL     1      19.417  45.676  43.509  1.00  0.00     0.241 C 
HETATM   12  O3  UNL     1      20.227  45.474  42.558  1.00  0.00    -0.271 OA
HETATM   13  N5  UNL     1      18.233  44.940  43.707  1.00  0.00    -0.359 N 
ATOM     14  H5  UNL     1      17.641  45.181  44.502  1.00  0.00     0.162 HD
BRANCH  13  15
HETATM   15  C15 UNL     1      17.815  43.865  42.845  1.00  0.00     0.127 C 
BRANCH  15  16
HETATM   16  C16 UNL     1      17.495  44.378  41.485  1.00  0.00     0.060 C 
BRANCH  16  17
HETATM   17  C17 UNL     1      16.060  44.771  41.361  1.00  0.00    -0.029 A 
HETATM   18  C18 UNL     1      14.927  44.031  41.590  1.00  0.00     0.096 A 
HETATM   19  N6  UNL     1      13.852  44.825  41.338  1.00  0.00    -0.365 N 
HETATM   20  C19 UNL     1      14.254  46.046  40.957  1.00  0.00     0.042 A 
ATOM     21  H6  UNL     1      12.879  44.533  41.426  1.00  0.00     0.165 HD
HETATM   22  C20 UNL     1      13.617  47.215  40.589  1.00  0.00     0.030 A 
HETATM   23  C24 UNL     1      15.616  46.014  40.970  1.00  0.00    -0.002 A 
HETATM   24  C21 UNL     1      14.301  48.351  40.235  1.00  0.00     0.002 A 
HETATM   25  C22 UNL     1      15.688  48.312  40.251  1.00  0.00     0.001 A 
HETATM   26  C23 UNL     1      16.336  47.145  40.619  1.00  0.00     0.014 A 
ENDBRANCH  16  17
ENDBRANCH  15  16
ENDBRANCH  13  15
ENDBRANCH  10  11
ENDBRANCH   9  10
ENDBRANCH   8   9
BRANCH   1  27
HETATM   27  N1  UNL     1      22.139  48.603  45.133  1.00  0.00    -0.311 N 
HETATM   28  C2  UNL     1      22.529  49.750  45.846  1.00  0.00     0.219 C 
HETATM   29  C1  UNL     1      22.600  51.064  45.178  1.00  0.00     0.117 C 
HETATM   30  O1  UNL     1      22.825  49.674  47.063  1.00  0.00    -0.274 OA
ATOM     31  H1  UNL     1      21.234  48.656  44.666  1.00  0.00     0.170 HD
ENDBRANCH   1  27
BRANCH   4  32
HETATM   32  C5  UNL     1      26.163  46.244  44.283  1.00  0.00     0.076 C 
BRANCH  32  33
HETATM   33  C6  UNL     1      26.781  44.972  44.794  1.00  0.00     0.122 C 
BRANCH  33  34
HETATM   34  N3  UNL     1      28.190  44.992  44.882  1.00  0.00    -0.415 N 
HETATM   35  C7  UNL     1      28.833  43.937  45.576  1.00  0.00     0.143 C 
BRANCH  34  36
HETATM   36  C8  UNL     1      28.827  46.262  44.940  1.00  0.00     0.143 C 
BRANCH  36  37
HETATM   37  C9  UNL     1      29.909  46.287  45.997  1.00  0.00     0.248 C 
BRANCH  37  38
HETATM   38  N4  UNL     1      29.910  47.624  46.571  1.00  0.00    -0.078 N 
ATOM     39  H43 UNL     1      29.412  47.680  47.460  1.00  0.00     0.274 HD
ATOM     40  H42 UNL     1      30.825  47.912  46.918  1.00  0.00     0.274 HD
ATOM     41  H41 UNL     1      29.534  48.252  45.861  1.00  0.00     0.274 HD
ENDBRANCH  37  38
ENDBRANCH  36  37
ENDBRANCH  34  36
ENDBRANCH  33  34
ENDBRANCH  32  33
ENDBRANCH   4  32
TORSDOF 13
ENDMDL
MODEL 5
REMARK VINA RESULT: -8.334395375      3.954      5.329
REMARK  13 active torsions:
REMARK  status: ('A' for Active; 'I' for Inactive)
REMARK       I    between atoms: C2_2  and  N1_4 
REMARK    1  A    between atoms: N1_4  and  C3_6 
REMARK    2  A    between atoms: C4_9  and  C5_10 
REMARK    3  A    between atoms: C5_10  and  C6_11 
REMARK    4  A    between atoms: C6_11  and  N3_12 
REMARK    5  A    between atoms: N3_12  and  C8_14 
REMARK    6  A    between atoms: C8_14  and  C9_15 
REMARK    7  A    between atoms: C9_15  and  N4_16 
REMARK    8  A    between atoms: C12_23  and  O2_24 
REMARK    9  A    between atoms: O2_24  and  C13_25 
REMARK   10  A    between atoms: C13_25  and  C14_26 
REMARK       I    between atoms: C14_26  and  N5_28 
REMARK   11  A    between atoms: N5_28  and  C15_30 
REMARK   12  A    between atoms: C15_30  and  C16_31 
REMARK   13  A    between atoms: C16_31  and  C17_32 
ROOT
HETATM    1  C3  UNL     1      23.246  50.310  47.443  1.00  0.00     0.143 A 
HETATM    2  N2  UNL     1      23.634  51.557  47.216  1.00  0.00    -0.344 N 
ATOM      3  H2  UNL     1      24.266  52.017  47.872  1.00  0.00     0.167 HD
HETATM    4  C4  UNL     1      23.205  52.219  46.133  1.00  0.00     0.013 A 
HETATM    5  C10 UNL     1      22.341  51.592  45.235  1.00  0.00     0.047 A 
HETATM    6  C11 UNL     1      21.924  50.295  45.452  1.00  0.00     0.050 A 
HETATM    7 BR1  UNL     1      20.744  49.421  44.237  1.00  0.00    -0.048 Br
HETATM    8  C12 UNL     1      22.380  49.635  46.574  1.00  0.00     0.130 A 
ENDROOT
BRANCH   8   9
HETATM    9  O2  UNL     1      21.967  48.336  46.799  1.00  0.00    -0.337 OA
BRANCH   9  10
HETATM   10  C13 UNL     1      22.462  47.255  46.066  1.00  0.00     0.278 C 
BRANCH  10  11
HETATM   11  C14 UNL     1      21.336  46.348  45.619  1.00  0.00     0.241 C 
HETATM   12  O3  UNL     1      20.390  46.104  46.422  1.00  0.00    -0.271 OA
HETATM   13  N5  UNL     1      21.420  45.826  44.315  1.00  0.00    -0.359 N 
ATOM     14  H5  UNL     1      22.226  46.078  43.743  1.00  0.00     0.162 HD
BRANCH  13  15
HETATM   15  C15 UNL     1      20.425  44.955  43.745  1.00  0.00     0.127 C 
BRANCH  15  16
HETATM   16  C16 UNL     1      19.443  45.735  42.943  1.00  0.00     0.060 C 
BRANCH  16  17
HETATM   17  C17 UNL     1      18.143  45.015  42.799  1.00  0.00    -0.029 A 
HETATM   18  C18 UNL     1      17.694  43.884  43.432  1.00  0.00     0.096 A 
HETATM   19  N6  UNL     1      16.446  43.611  42.966  1.00  0.00    -0.365 N 
HETATM   20  C19 UNL     1      16.078  44.526  42.056  1.00  0.00     0.042 A 
ATOM     21  H6  UNL     1      15.872  42.823  43.264  1.00  0.00     0.165 HD
HETATM   22  C20 UNL     1      14.955  44.738  41.281  1.00  0.00     0.030 A 
HETATM   23  C24 UNL     1      17.124  45.393  41.952  1.00  0.00    -0.002 A 
HETATM   24  C21 UNL     1      14.848  45.791  40.407  1.00  0.00     0.002 A 
HETATM   25  C22 UNL     1      15.917  46.670  40.306  1.00  0.00     0.001 A 
HETATM   26  C23 UNL     1      17.047  46.466  41.079  1.00  0.00     0.014 A 
ENDBRANCH  16  17
ENDBRANCH  15  16
ENDBRANCH  13  15
ENDBRANCH  10  11
ENDBRANCH   9  10
ENDBRANCH   8   9
BRANCH   1  27
HETATM   27  N1  UNL     1      23.643  49.666  48.456  1.00  0.00    -0.311 N 
HETATM   28  C2  UNL     1      23.584  50.049  49.807  1.00  0.00     0.219 C 
HETATM   29  C1  UNL     1      22.911  49.192  50.804  1.00  0.00     0.117 C 
HETATM   30  O1  UNL     1      24.101  51.127  50.188  1.00  0.00    -0.274 OA
ATOM     31  H1  UNL     1      24.059  48.753  48.270  1.00  0.00     0.170 HD
ENDBRANCH   1  27
BRANCH   4  32
HETATM   32  C5  UNL     1      23.605  53.615  45.832  1.00  0.00     0.076 C 
BRANCH  32  33
HETATM   33  C6  UNL     1      25.013  53.912  46.271  1.00  0.00     0.122 C 
BRANCH  33  34
HETATM   34  N3  UNL     1      25.493  55.186  45.897  1.00  0.00    -0.415 N 
HETATM   35  C7  UNL     1      24.595  56.079  45.262  1.00  0.00     0.143 C 
BRANCH  34  36
HETATM   36  C8  UNL     1      26.857  55.288  45.513  1.00  0.00     0.143 C 
BRANCH  36  37
HETATM   37  C9  UNL     1      27.307  56.732  45.459  1.00  0.00     0.248 C 
BRANCH  37  38
HETATM   38  N4  UNL     1      28.537  56.822  46.231  1.00  0.00    -0.078 N 
ATOM     39  H43 UNL     1      29.157  56.024  46.092  1.00  0.00     0.274 HD
ATOM     40  H42 UNL     1      29.175  57.542  45.890  1.00  0.00     0.274 HD
ATOM     41  H41 UNL     1      28.267  56.955  47.206  1.00  0.00     0.274 HD
ENDBRANCH  37  38
ENDBRANCH  36  37
ENDBRANCH  34  36
ENDBRANCH  33  34
ENDBRANCH  32  33
ENDBRANCH   4  32
TORSDOF 13
ENDMDL
