MODEL 1
REMARK VINA RESULT: -9.625416369      0.000      0.000
REMARK  11 active torsions:
REMARK  status: ('A' for Active; 'I' for Inactive)
REMARK       I    between atoms: N2_7  and  C5_9 
REMARK       I    between atoms: C5_9  and  N7_22 
REMARK    1  A    between atoms: N3_10  and  C6_12 
REMARK    2  A    between atoms: C6_12  and  C7_13 
REMARK    3  A    between atoms: C7_13  and  C8_14 
REMARK    4  A    between atoms: C8_14  and  N4_15 
REMARK       I    between atoms: N4_15  and  C9_17 
REMARK    5  A    between atoms: N7_22  and  C10_24 
REMARK    6  A    between atoms: C10_24  and  C11_25 
REMARK    7  A    between atoms: C11_25  and  C12_26 
REMARK    8  A    between atoms: C12_26  and  C13_27 
REMARK    9  A    between atoms: C13_27  and  O1_28 
REMARK   10  A    between atoms: O1_28  and  C14_29 
REMARK   11  A    between atoms: C14_29  and  N8_30 
ROOT
HETATM    1  C1  UNL     1      22.867  51.303  46.104  1.00  0.00     0.051 C 
HETATM    2  C2  UNL     1      23.030  49.952  45.511  1.00  0.00    -0.029 A 
HETATM    3  C3  UNL     1      22.968  49.820  44.137  1.00  0.00     0.097 A 
HETATM    4  N1  UNL     1      23.111  48.612  43.564  1.00  0.00    -0.351 N 
ATOM      5  H1  UNL     1      23.064  48.528  42.548  1.00  0.00     0.166 HD
HETATM    6  C4  UNL     1      23.317  47.509  44.314  1.00  0.00     0.122 A 
HETATM    7  N2  UNL     1      23.447  46.386  43.705  1.00  0.00    -0.177 N 
ATOM      8  H2  UNL     1      23.391  46.375  42.687  1.00  0.00     0.185 HD
HETATM    9  C5  UNL     1      23.667  45.158  44.383  1.00  0.00     0.675 C 
HETATM   10  N3  UNL     1      24.822  44.802  44.822  1.00  0.00    -0.226 N 
ATOM     11  H3  UNL     1      24.910  43.905  45.300  1.00  0.00     0.177 HD
HETATM   12  N7  UNL     1      22.561  44.267  44.583  1.00  0.00    -0.226 N 
ATOM     13  H7  UNL     1      22.618  43.308  44.241  1.00  0.00     0.177 HD
HETATM   14  C20 UNL     1      23.384  47.603  45.681  1.00  0.00     0.068 A 
HETATM   15  C21 UNL     1      23.241  48.826  46.284  1.00  0.00     0.021 A 
HETATM   16 BR1  UNL     1      23.324  49.031  48.176  1.00  0.00    -0.050 Br
ENDROOT
BRANCH  10  17
HETATM   17  C6  UNL     1      25.987  45.617  44.666  1.00  0.00     0.139 C 
BRANCH  17  18
HETATM   18  C7  UNL     1      27.270  44.811  44.920  1.00  0.00     0.040 C 
BRANCH  18  19
HETATM   19  C8  UNL     1      28.373  45.571  44.260  1.00  0.00     0.123 C 
BRANCH  19  20
HETATM   20  N4  UNL     1      28.779  46.771  44.915  1.00  0.00    -0.365 N 
HETATM   21  C9  UNL     1      29.620  46.771  46.047  1.00  0.00     0.181 C 
HETATM   22  N5  UNL     1      29.985  45.718  46.685  1.00  0.00    -0.374 N 
HETATM   23  N6  UNL     1      30.133  48.015  46.570  1.00  0.00    -0.064 NA
ATOM     24  H52 UNL     1      29.623  44.839  46.315  1.00  0.00     0.158 HD
ATOM     25  H51 UNL     1      30.594  45.718  47.504  1.00  0.00     0.158 HD
ATOM     26  H4  UNL     1      28.448  47.664  44.550  1.00  0.00     0.162 HD
ENDBRANCH  19  20
ENDBRANCH  18  19
ENDBRANCH  17  18
ENDBRANCH  10  17
BRANCH  12  27
HETATM   27  C10 UNL     1      21.369  44.715  45.262  1.00  0.00     0.138 C 
BRANCH  27  28
HETATM   28  C11 UNL     1      20.241  44.833  44.260  1.00  0.00     0.022 C 
BRANCH  28  29
HETATM   29  C12 UNL     1      19.121  43.879  44.674  1.00  0.00     0.028 C 
BRANCH  29  30
HETATM   30  C13 UNL     1      17.878  44.341  43.967  1.00  0.00     0.176 C 
BRANCH  30  31
HETATM   31  O1  UNL     1      17.857  44.215  42.623  1.00  0.00    -0.346 OA
BRANCH  31  32
HETATM   32  C14 UNL     1      16.717  43.821  41.989  1.00  0.00     0.231 C 
BRANCH  32  33
HETATM   33  N8  UNL     1      16.024  44.841  41.261  1.00  0.00    -0.309 N 
HETATM   34  C15 UNL     1      14.596  45.011  41.545  1.00  0.00     0.133 C 
HETATM   35  C16 UNL     1      14.194  46.458  41.372  1.00  0.00     0.021 C 
HETATM   36  C17 UNL     1      14.753  47.101  40.150  1.00  0.00     0.011 C 
HETATM   37  C18 UNL     1      16.264  47.094  40.227  1.00  0.00     0.103 C 
HETATM   38  C19 UNL     1      16.682  45.656  40.326  1.00  0.00     0.225 C 
HETATM   39  O2  UNL     1      17.591  45.204  39.591  1.00  0.00    -0.273 OA
ENDBRANCH  32  33
ENDBRANCH  31  32
ENDBRANCH  30  31
ENDBRANCH  29  30
ENDBRANCH  28  29
ENDBRANCH  27  28
ENDBRANCH  12  27
TORSDOF 11
ENDMDL
MODEL 2
REMARK VINA RESULT: -9.172973190      1.170      1.610
REMARK  11 active torsions:
REMARK  status: ('A' for Active; 'I' for Inactive)
REMARK       I    between atoms: N2_7  and  C5_9 
REMARK       I    between atoms: C5_9  and  N7_22 
REMARK    1  A    between atoms: N3_10  and  C6_12 
REMARK    2  A    between atoms: C6_12  and  C7_13 
REMARK    3  A    between atoms: C7_13  and  C8_14 
REMARK    4  A    between atoms: C8_14  and  N4_15 
REMARK       I    between atoms: N4_15  and  C9_17 
REMARK    5  A    between atoms: N7_22  and  C10_24 
REMARK    6  A    between atoms: C10_24  and  C11_25 
REMARK    7  A    between atoms: C11_25  and  C12_26 
REMARK    8  A    between atoms: C12_26  and  C13_27 
REMARK    9  A    between atoms: C13_27  and  O1_28 
REMARK   10  A    between atoms: O1_28  and  C14_29 
REMARK   11  A    between atoms: C14_29  and  N8_30 
ROOT
HETATM    1  C1  UNL     1      23.240  51.398  47.312  1.00  0.00     0.051 C 
HETATM    2  C2  UNL     1      22.873  50.409  46.269  1.00  0.00    -0.029 A 
HETATM    3  C3  UNL     1      22.411  50.872  45.051  1.00  0.00     0.097 A 
HETATM    4  N1  UNL     1      22.069  50.005  44.081  1.00  0.00    -0.351 N 
ATOM      5  H1  UNL     1      21.729  50.360  43.187  1.00  0.00     0.166 HD
HETATM    6  C4  UNL     1      22.168  48.674  44.275  1.00  0.00     0.122 A 
HETATM    7  N2  UNL     1      21.827  47.900  43.308  1.00  0.00    -0.177 N 
ATOM      8  H2  UNL     1      21.498  48.323  42.440  1.00  0.00     0.185 HD
HETATM    9  C5  UNL     1      21.886  46.485  43.390  1.00  0.00     0.675 C 
HETATM   10  N3  UNL     1      22.978  45.823  43.241  1.00  0.00    -0.226 N 
ATOM     11  H3  UNL     1      22.950  44.806  43.311  1.00  0.00     0.177 HD
HETATM   12  N7  UNL     1      20.679  45.752  43.642  1.00  0.00    -0.226 N 
ATOM     13  H7  UNL     1      20.384  45.025  42.990  1.00  0.00     0.177 HD
HETATM   14  C20 UNL     1      22.622  48.179  45.470  1.00  0.00     0.068 A 
HETATM   15  C21 UNL     1      22.976  49.046  46.472  1.00  0.00     0.021 A 
HETATM   16 BR1  UNL     1      23.616  48.430  48.157  1.00  0.00    -0.050 Br
ENDROOT
BRANCH  10  17
HETATM   17  C6  UNL     1      24.231  46.461  42.979  1.00  0.00     0.139 C 
BRANCH  17  18
HETATM   18  C7  UNL     1      24.957  46.822  44.284  1.00  0.00     0.040 C 
BRANCH  18  19
HETATM   19  C8  UNL     1      26.098  45.866  44.400  1.00  0.00     0.123 C 
BRANCH  19  20
HETATM   20  N4  UNL     1      27.185  46.291  45.219  1.00  0.00    -0.365 N 
HETATM   21  C9  UNL     1      28.532  46.074  44.867  1.00  0.00     0.181 C 
HETATM   22  N5  UNL     1      28.922  45.360  43.872  1.00  0.00    -0.374 N 
HETATM   23  N6  UNL     1      29.592  46.668  45.647  1.00  0.00    -0.064 NA
ATOM     24  H52 UNL     1      28.173  44.940  43.321  1.00  0.00     0.158 HD
ATOM     25  H51 UNL     1      29.896  45.202  43.618  1.00  0.00     0.158 HD
ATOM     26  H4  UNL     1      26.979  46.773  46.094  1.00  0.00     0.162 HD
ENDBRANCH  19  20
ENDBRANCH  18  19
ENDBRANCH  17  18
ENDBRANCH  10  17
BRANCH  12  27
HETATM   27  C10 UNL     1      19.876  46.034  44.808  1.00  0.00     0.138 C 
BRANCH  27  28
HETATM   28  C11 UNL     1      19.633  44.748  45.566  1.00  0.00     0.022 C 
BRANCH  28  29
HETATM   29  C12 UNL     1      19.240  43.661  44.566  1.00  0.00     0.028 C 
BRANCH  29  30
HETATM   30  C13 UNL     1      17.905  44.058  44.001  1.00  0.00     0.176 C 
BRANCH  30  31
HETATM   31  O1  UNL     1      17.838  44.249  42.667  1.00  0.00    -0.346 OA
BRANCH  31  32
HETATM   32  C14 UNL     1      16.743  43.839  41.969  1.00  0.00     0.231 C 
BRANCH  32  33
HETATM   33  N8  UNL     1      16.041  44.861  41.253  1.00  0.00    -0.309 N 
HETATM   34  C15 UNL     1      14.619  45.036  41.562  1.00  0.00     0.133 C 
HETATM   35  C16 UNL     1      14.219  46.485  41.396  1.00  0.00     0.021 C 
HETATM   36  C17 UNL     1      14.758  47.125  40.164  1.00  0.00     0.011 C 
HETATM   37  C18 UNL     1      16.270  47.113  40.214  1.00  0.00     0.103 C 
HETATM   38  C19 UNL     1      16.685  45.674  40.307  1.00  0.00     0.225 C 
HETATM   39  O2  UNL     1      17.580  45.218  39.556  1.00  0.00    -0.273 OA
ENDBRANCH  32  33
ENDBRANCH  31  32
ENDBRANCH  30  31
ENDBRANCH  29  30
ENDBRANCH  28  29
ENDBRANCH  27  28
ENDBRANCH  12  27
TORSDOF 11
ENDMDL
MODEL 3
REMARK VINA RESULT: -8.902379159      1.125      1.443
REMARK  11 active torsions:
REMARK  status: ('A' for Active; 'I' for Inactive)
REMARK       I    between atoms: N2_7  and  C5_9 
REMARK       I    between atoms: C5_9  and  N7_22 
REMARK    1  A    between atoms: N3_10  and  C6_12 
REMARK    2  A    between atoms: C6_12  and  C7_13 
REMARK    3  A    between atoms: C7_13  and  C8_14 
REMARK    4  A    between atoms: C8_14  and  N4_15 
REMARK       I    between atoms: N4_15  and  C9_17 
REMARK    5  A    between atoms: N7_22  and  C10_24 
REMARK    6  A    between atoms: C10_24  and  C11_25 
REMARK    7  A    between atoms: C11_25  and  C12_26 
REMARK    8  A    between atoms: C12_26  and  C13_27 
REMARK    9  A    between atoms: C13_27  and  O1_28 
REMARK   10  A    between atoms: O1_28  and  C14_29 
REMARK   11  A    between atoms: C14_29  and  N8_30 
ROOT
HETATM    1  C1  UNL     1      22.639  50.603  45.525  1.00  0.00     0.051 C 
HETATM    2  C2  UNL     1      22.408  49.195  45.117  1.00  0.00    -0.029 A 
HETATM    3  C3  UNL     1      21.824  48.949  43.889  1.00  0.00     0.097 A 
HETATM    4  N1  UNL     1      21.598  47.686  43.485  1.00  0.00    -0.351 N 
ATOM      5  H1  UNL     1      21.167  47.518  42.576  1.00  0.00     0.166 HD
HETATM    6  C4  UNL     1      21.935  46.639  44.266  1.00  0.00     0.122 A 
HETATM    7  N2  UNL     1      21.695  45.458  43.821  1.00  0.00    -0.177 N 
ATOM      8  H2  UNL     1      21.263  45.363  42.902  1.00  0.00     0.185 HD
HETATM    9  C5  UNL     1      22.003  44.278  44.547  1.00  0.00     0.675 C 
HETATM   10  N3  UNL     1      23.187  43.779  44.596  1.00  0.00    -0.226 N 
ATOM     11  H3  UNL     1      23.339  42.928  45.137  1.00  0.00     0.177 HD
HETATM   12  N7  UNL     1      20.954  43.603  45.254  1.00  0.00    -0.226 N 
ATOM     13  H7  UNL     1      20.764  42.621  45.058  1.00  0.00     0.177 HD
HETATM   14  C20 UNL     1      22.517  46.845  45.490  1.00  0.00     0.068 A 
HETATM   15  C21 UNL     1      22.755  48.125  45.920  1.00  0.00     0.021 A 
HETATM   16 BR1  UNL     1      23.559  48.487  47.608  1.00  0.00    -0.050 Br
ENDROOT
BRANCH  10  17
HETATM   17  C6  UNL     1      24.299  44.374  43.920  1.00  0.00     0.139 C 
BRANCH  17  18
HETATM   18  C7  UNL     1      25.434  44.710  44.900  1.00  0.00     0.040 C 
BRANCH  18  19
HETATM   19  C8  UNL     1      26.037  45.985  44.411  1.00  0.00     0.123 C 
BRANCH  19  20
HETATM   20  N4  UNL     1      27.131  46.488  45.175  1.00  0.00    -0.365 N 
HETATM   21  C9  UNL     1      28.472  46.165  44.885  1.00  0.00     0.181 C 
HETATM   22  N5  UNL     1      28.843  45.292  44.018  1.00  0.00    -0.374 N 
HETATM   23  N6  UNL     1      29.547  46.830  45.584  1.00  0.00    -0.064 NA
ATOM     24  H52 UNL     1      28.084  44.823  43.524  1.00  0.00     0.158 HD
ATOM     25  H51 UNL     1      29.813  45.059  43.808  1.00  0.00     0.158 HD
ATOM     26  H4  UNL     1      26.935  47.105  45.962  1.00  0.00     0.162 HD
ENDBRANCH  19  20
ENDBRANCH  18  19
ENDBRANCH  17  18
ENDBRANCH  10  17
BRANCH  12  27
HETATM   27  C10 UNL     1      20.162  44.301  46.239  1.00  0.00     0.138 C 
BRANCH  27  28
HETATM   28  C11 UNL     1      18.911  44.840  45.579  1.00  0.00     0.022 C 
BRANCH  28  29
HETATM   29  C12 UNL     1      18.476  43.861  44.490  1.00  0.00     0.028 C 
BRANCH  29  30
HETATM   30  C13 UNL     1      18.235  44.675  43.249  1.00  0.00     0.176 C 
BRANCH  30  31
HETATM   31  O1  UNL     1      17.805  44.011  42.156  1.00  0.00    -0.346 OA
BRANCH  31  32
HETATM   32  C14 UNL     1      16.471  43.859  41.927  1.00  0.00     0.231 C 
BRANCH  32  33
HETATM   33  N8  UNL     1      15.841  44.912  41.188  1.00  0.00    -0.309 N 
HETATM   34  C15 UNL     1      14.418  45.148  41.444  1.00  0.00     0.133 C 
HETATM   35  C16 UNL     1      14.087  46.613  41.268  1.00  0.00     0.021 C 
HETATM   36  C17 UNL     1      14.700  47.231  40.060  1.00  0.00     0.011 C 
HETATM   37  C18 UNL     1      16.207  47.153  40.166  1.00  0.00     0.103 C 
HETATM   38  C19 UNL     1      16.555  45.697  40.269  1.00  0.00     0.225 C 
HETATM   39  O2  UNL     1      17.457  45.204  39.550  1.00  0.00    -0.273 OA
ENDBRANCH  32  33
ENDBRANCH  31  32
ENDBRANCH  30  31
ENDBRANCH  29  30
ENDBRANCH  28  29
ENDBRANCH  27  28
ENDBRANCH  12  27
TORSDOF 11
ENDMDL
MODEL 4
REMARK VINA RESULT: -8.594907466      2.231      3.049
REMARK  11 active torsions:
REMARK  status: ('A' for Active; 'I' for Inactive)
REMARK       I    between atoms: N2_7  and  C5_9 
REMARK       I    between atoms: C5_9  and  N7_22 
REMARK    1  A    between atoms: N3_10  and  C6_12 
REMARK    2  A    between atoms: C6_12  and  C7_13 
REMARK    3  A    between atoms: C7_13  and  C8_14 
REMARK    4  A    between atoms: C8_14  and  N4_15 
REMARK       I    between atoms: N4_15  and  C9_17 
REMARK    5  A    between atoms: N7_22  and  C10_24 
REMARK    6  A    between atoms: C10_24  and  C11_25 
REMARK    7  A    between atoms: C11_25  and  C12_26 
REMARK    8  A    between atoms: C12_26  and  C13_27 
REMARK    9  A    between atoms: C13_27  and  O1_28 
REMARK   10  A    between atoms: O1_28  and  C14_29 
REMARK   11  A    between atoms: C14_29  and  N8_30 
ROOT
HETATM    1  C1  UNL     1      23.455  51.388  48.003  1.00  0.00     0.051 C 
HETATM    2  C2  UNL     1      22.952  50.606  46.847  1.00  0.00    -0.029 A 
HETATM    3  C3  UNL     1      22.329  51.278  45.813  1.00  0.00     0.097 A 
HETATM    4  N1  UNL     1      21.860  50.603  44.749  1.00  0.00    -0.351 N 
ATOM      5  H1  UNL     1      21.402  51.111  43.992  1.00  0.00     0.166 HD
HETATM    6  C4  UNL     1      21.987  49.262  44.669  1.00  0.00     0.122 A 
HETATM    7  N2  UNL     1      21.519  48.676  43.625  1.00  0.00    -0.177 N 
ATOM      8  H2  UNL     1      21.075  49.247  42.906  1.00  0.00     0.185 HD
HETATM    9  C5  UNL     1      21.592  47.273  43.425  1.00  0.00     0.675 C 
HETATM   10  N3  UNL     1      22.655  46.683  43.009  1.00  0.00    -0.226 N 
ATOM     11  H3  UNL     1      22.638  45.670  42.886  1.00  0.00     0.177 HD
HETATM   12  N7  UNL     1      20.431  46.473  43.690  1.00  0.00    -0.226 N 
ATOM     13  H7  UNL     1      20.053  45.875  42.956  1.00  0.00     0.177 HD
HETATM   14  C20 UNL     1      22.599  48.562  45.676  1.00  0.00     0.068 A 
HETATM   15  C21 UNL     1      23.084  49.232  46.770  1.00  0.00     0.021 A 
HETATM   16 BR1  UNL     1      23.947  48.326  48.206  1.00  0.00    -0.050 Br
ENDROOT
BRANCH  10  17
HETATM   17  C6  UNL     1      23.860  47.393  42.711  1.00  0.00     0.139 C 
BRANCH  17  18
HETATM   18  C7  UNL     1      24.817  47.398  43.913  1.00  0.00     0.040 C 
BRANCH  18  19
HETATM   19  C8  UNL     1      25.205  45.973  44.137  1.00  0.00     0.123 C 
BRANCH  19  20
HETATM   20  N4  UNL     1      24.474  45.281  45.147  1.00  0.00    -0.365 N 
HETATM   21  C9  UNL     1      23.833  44.048  44.911  1.00  0.00     0.181 C 
HETATM   22  N5  UNL     1      23.714  43.496  43.757  1.00  0.00    -0.374 N 
HETATM   23  N6  UNL     1      23.249  43.312  46.007  1.00  0.00    -0.064 NA
ATOM     24  H52 UNL     1      24.127  44.016  42.983  1.00  0.00     0.158 HD
ATOM     25  H51 UNL     1      23.250  42.604  43.587  1.00  0.00     0.158 HD
ATOM     26  H4  UNL     1      24.413  45.695  46.077  1.00  0.00     0.162 HD
ENDBRANCH  19  20
ENDBRANCH  18  19
ENDBRANCH  17  18
ENDBRANCH  10  17
BRANCH  12  27
HETATM   27  C10 UNL     1      19.793  46.506  44.984  1.00  0.00     0.138 C 
BRANCH  27  28
HETATM   28  C11 UNL     1      19.866  45.130  45.609  1.00  0.00     0.022 C 
BRANCH  28  29
HETATM   29  C12 UNL     1      19.825  44.087  44.493  1.00  0.00     0.028 C 
BRANCH  29  30
HETATM   30  C13 UNL     1      18.379  43.908  44.123  1.00  0.00     0.176 C 
BRANCH  30  31
HETATM   31  O1  UNL     1      18.019  44.267  42.873  1.00  0.00    -0.346 OA
BRANCH  31  32
HETATM   32  C14 UNL     1      16.812  43.884  42.370  1.00  0.00     0.231 C 
BRANCH  32  33
HETATM   33  N8  UNL     1      16.166  44.829  41.511  1.00  0.00    -0.309 N 
HETATM   34  C15 UNL     1      14.743  45.087  41.752  1.00  0.00     0.133 C 
HETATM   35  C16 UNL     1      14.399  46.515  41.395  1.00  0.00     0.021 C 
HETATM   36  C17 UNL     1      14.992  46.978  40.110  1.00  0.00     0.011 C 
HETATM   37  C18 UNL     1      16.501  46.925  40.207  1.00  0.00     0.103 C 
HETATM   38  C19 UNL     1      16.862  45.496  40.491  1.00  0.00     0.225 C 
HETATM   39  O2  UNL     1      17.760  44.922  39.830  1.00  0.00    -0.273 OA
ENDBRANCH  32  33
ENDBRANCH  31  32
ENDBRANCH  30  31
ENDBRANCH  29  30
ENDBRANCH  28  29
ENDBRANCH  27  28
ENDBRANCH  12  27
TORSDOF 11
ENDMDL
MODEL 5
REMARK VINA RESULT: -8.431852417      2.746      3.500
REMARK  11 active torsions:
REMARK  status: ('A' for Active; 'I' for Inactive)
REMARK       I    between atoms: N2_7  and  C5_9 
REMARK       I    between atoms: C5_9  and  N7_22 
REMARK    1  A    between atoms: N3_10  and  C6_12 
REMARK    2  A    between atoms: C6_12  and  C7_13 
REMARK    3  A    between atoms: C7_13  and  C8_14 
REMARK    4  A    between atoms: C8_14  and  N4_15 
REMARK       I    between atoms: N4_15  and  C9_17 
REMARK    5  A    between atoms: N7_22  and  C10_24 
REMARK    6  A    between atoms: C10_24  and  C11_25 
REMARK    7  A    between atoms: C11_25  and  C12_26 
REMARK    8  A    between atoms: C12_26  and  C13_27 
REMARK    9  A    between atoms: C13_27  and  O1_28 
REMARK   10  A    between atoms: O1_28  and  C14_29 
REMARK   11  A    between atoms: C14_29  and  N8_30 
ROOT
HETATM    1  C1  UNL     1      23.302  51.109  46.826  1.00  0.00     0.051 C 
HETATM    2  C2  UNL     1      23.006  50.091  45.788  1.00  0.00    -0.029 A 
HETATM    3  C3  UNL     1      23.067  50.464  44.459  1.00  0.00     0.097 A 
HETATM    4  N1  UNL     1      22.804  49.569  43.489  1.00  0.00    -0.351 N 
ATOM      5  H1  UNL     1      22.853  49.857  42.512  1.00  0.00     0.166 HD
HETATM    6  C4  UNL     1      22.478  48.295  43.793  1.00  0.00     0.122 A 
HETATM    7  N2  UNL     1      22.241  47.489  42.821  1.00  0.00    -0.177 N 
ATOM      8  H2  UNL     1      22.310  47.844  41.867  1.00  0.00     0.185 HD
HETATM    9  C5  UNL     1      21.889  46.128  43.011  1.00  0.00     0.675 C 
HETATM   10  N3  UNL     1      22.756  45.213  43.267  1.00  0.00    -0.226 N 
ATOM     11  H3  UNL     1      22.434  44.253  43.391  1.00  0.00     0.177 HD
HETATM   12  N7  UNL     1      20.511  45.746  42.908  1.00  0.00    -0.226 N 
ATOM     13  H7  UNL     1      20.236  45.021  42.246  1.00  0.00     0.177 HD
HETATM   14  C20 UNL     1      22.409  47.890  45.101  1.00  0.00     0.068 A 
HETATM   15  C21 UNL     1      22.673  48.788  46.103  1.00  0.00     0.021 A 
HETATM   16 BR1  UNL     1      22.596  48.295  47.942  1.00  0.00    -0.050 Br
ENDROOT
BRANCH  10  17
HETATM   17  C6  UNL     1      24.154  45.492  43.382  1.00  0.00     0.139 C 
BRANCH  17  18
HETATM   18  C7  UNL     1      24.797  44.663  44.504  1.00  0.00     0.040 C 
BRANCH  18  19
HETATM   19  C8  UNL     1      23.840  43.556  44.801  1.00  0.00     0.123 C 
BRANCH  19  20
HETATM   20  N4  UNL     1      22.739  43.895  45.640  1.00  0.00    -0.365 N 
HETATM   21  C9  UNL     1      21.861  42.927  46.170  1.00  0.00     0.181 C 
HETATM   22  N5  UNL     1      21.865  41.684  45.849  1.00  0.00    -0.374 N 
HETATM   23  N6  UNL     1      20.865  43.307  47.144  1.00  0.00    -0.064 NA
ATOM     24  H52 UNL     1      22.569  41.416  45.161  1.00  0.00     0.158 HD
ATOM     25  H51 UNL     1      21.230  40.984  46.232  1.00  0.00     0.158 HD
ATOM     26  H4  UNL     1      22.580  44.876  45.867  1.00  0.00     0.162 HD
ENDBRANCH  19  20
ENDBRANCH  18  19
ENDBRANCH  17  18
ENDBRANCH  10  17
BRANCH  12  27
HETATM   27  C10 UNL     1      19.508  46.379  43.731  1.00  0.00     0.138 C 
BRANCH  27  28
HETATM   28  C11 UNL     1      19.187  45.477  44.903  1.00  0.00     0.022 C 
BRANCH  28  29
HETATM   29  C12 UNL     1      18.958  44.060  44.378  1.00  0.00     0.028 C 
BRANCH  29  30
HETATM   30  C13 UNL     1      17.614  44.061  43.706  1.00  0.00     0.176 C 
BRANCH  30  31
HETATM   31  O1  UNL     1      17.580  43.696  42.407  1.00  0.00    -0.346 OA
BRANCH  31  32
HETATM   32  C14 UNL     1      16.386  43.567  41.762  1.00  0.00     0.231 C 
BRANCH  32  33
HETATM   33  N8  UNL     1      15.885  44.754  41.137  1.00  0.00    -0.309 N 
HETATM   34  C15 UNL     1      14.491  45.113  41.408  1.00  0.00     0.133 C 
HETATM   35  C16 UNL     1      14.321  46.616  41.387  1.00  0.00     0.021 C 
HETATM   36  C17 UNL     1      15.017  47.289  40.255  1.00  0.00     0.011 C 
HETATM   37  C18 UNL     1      16.505  47.038  40.362  1.00  0.00     0.103 C 
HETATM   38  C19 UNL     1      16.694  45.551  40.311  1.00  0.00     0.225 C 
HETATM   39  O2  UNL     1      17.551  45.042  39.550  1.00  0.00    -0.273 OA
ENDBRANCH  32  33
ENDBRANCH  31  32
ENDBRANCH  30  31
ENDBRANCH  29  30
ENDBRANCH  28  29
ENDBRANCH  27  28
ENDBRANCH  12  27
TORSDOF 11
ENDMDL
