MODEL 1
REMARK VINA RESULT: -8.116311020      0.000      0.000
REMARK  14 active torsions:
REMARK  status: ('A' for Active; 'I' for Inactive)
REMARK    1  A    between atoms: C3_5  and  C4_6 
REMARK    2  A    between atoms: C11_14  and  N2_15 
REMARK    3  A    between atoms: N2_15  and  C12_17 
REMARK    4  A    between atoms: C12_17  and  C13_18 
REMARK    5  A    between atoms: N3_19  and  C14_21 
REMARK    6  A    between atoms: C15_24  and  N5_25 
REMARK    7  A    between atoms: N5_25  and  C16_26 
REMARK    8  A    between atoms: C16_26  and  C17_27 
REMARK    9  A    between atoms: C17_27  and  C18_28 
REMARK   10  A    between atoms: C18_28  and  N6_29 
REMARK   11  A    between atoms: C22_36  and  C23_37 
REMARK   12  A    between atoms: C23_37  and  C24_38 
REMARK   13  A    between atoms: C24_38  and  N7_39 
REMARK   14  A    between atoms: C28_48  and  C29_49 
ROOT
HETATM    1  C14 UNL     1      22.849  49.304  45.435  1.00  0.00     0.684 A 
HETATM    2  N4  UNL     1      23.261  50.543  45.253  1.00  0.00    -0.163 N 
ATOM      3  H4  UNL     1      23.323  50.933  44.312  1.00  0.00     0.187 HD
HETATM    4  C15 UNL     1      23.606  51.304  46.345  1.00  0.00     0.204 A 
HETATM    5  C19 UNL     1      23.522  50.766  47.612  1.00  0.00     0.050 A 
HETATM    6  C20 UNL     1      23.910  51.517  48.725  1.00  0.00     0.019 A 
HETATM    7  C21 UNL     1      23.856  50.929  49.969  1.00  0.00     0.008 A 
HETATM    8  C22 UNL     1      23.421  49.629  50.108  1.00  0.00    -0.054 A 
HETATM    9  C26 UNL     1      23.012  48.846  49.007  1.00  0.00     0.038 A 
HETATM   10  C27 UNL     1      23.103  49.492  47.780  1.00  0.00     0.064 A 
HETATM   11  N10 UNL     1      22.760  48.745  46.693  1.00  0.00    -0.191 N 
ATOM     12  H10 UNL     1      22.441  47.783  46.809  1.00  0.00     0.184 HD
ENDROOT
BRANCH   1  13
HETATM   13  N3  UNL     1      22.409  48.652  44.469  1.00  0.00    -0.204 N 
HETATM   14  C13 UNL     1      22.409  48.332  43.173  1.00  0.00     0.098 C 
ATOM     15  H3  UNL     1      21.679  48.065  44.874  1.00  0.00     0.183 HD
BRANCH  14  16
HETATM   16  C12 UNL     1      23.346  47.477  42.396  1.00  0.00     0.165 C 
BRANCH  16  17
HETATM   17  N2  UNL     1      22.954  46.116  42.397  1.00  0.00    -0.384 N 
ATOM     18  H2  UNL     1      23.588  45.460  41.940  1.00  0.00     0.160 HD
BRANCH  17  19
HETATM   19  C11 UNL     1      21.860  45.602  42.923  1.00  0.00     0.043 A 
HETATM   20  C10 UNL     1      20.662  45.725  42.287  1.00  0.00     0.060 A 
HETATM   21  C3  UNL     1      19.511  45.194  42.913  1.00  0.00     0.044 A 
HETATM   22  N1  UNL     1      19.717  44.623  44.096  1.00  0.00    -0.358 N 
HETATM   23  C2  UNL     1      20.886  44.496  44.743  1.00  0.00     0.018 A 
ATOM     24  H1  UNL     1      18.897  44.238  44.563  1.00  0.00     0.166 HD
HETATM   25  C1  UNL     1      20.917  43.961  46.106  1.00  0.00     0.069 C 
HETATM   26  C28 UNL     1      22.064  44.995  44.170  1.00  0.00     0.014 A 
BRANCH  21  27
HETATM   27  C4  UNL     1      18.166  45.305  42.350  1.00  0.00    -0.009 A 
HETATM   28  C5  UNL     1      17.174  44.405  42.599  1.00  0.00     0.017 A 
HETATM   29  C6  UNL     1      15.911  44.536  41.988  1.00  0.00     0.043 A 
HETATM   30  C7  UNL     1      15.647  45.561  41.128  1.00  0.00     0.116 A 
HETATM   31  F1  UNL     1      14.448  45.707  40.544  1.00  0.00    -0.206 F 
HETATM   32  C8  UNL     1      16.694  46.501  40.866  1.00  0.00     0.043 A 
HETATM   33  C9  UNL     1      17.907  46.350  41.476  1.00  0.00     0.017 A 
ENDBRANCH  21  27
BRANCH  26  34
HETATM   34  C29 UNL     1      23.364  44.679  44.746  1.00  0.00    -0.073 C 
HETATM   35  C30 UNL     1      23.974  43.350  44.554  1.00  0.00     0.044 C 
HETATM   36  C31 UNL     1      24.151  45.761  45.401  1.00  0.00     0.044 C 
ENDBRANCH  26  34
ENDBRANCH  17  19
ENDBRANCH  16  17
ENDBRANCH  14  16
ENDBRANCH   1  13
BRANCH   4  37
HETATM   37  N5  UNL     1      24.020  52.437  46.211  1.00  0.00    -0.403 NA
BRANCH  37  38
HETATM   38  C16 UNL     1      24.418  53.678  45.989  1.00  0.00     0.159 C 
BRANCH  38  39
HETATM   39  C17 UNL     1      25.688  54.104  46.762  1.00  0.00     0.087 C 
BRANCH  39  40
HETATM   40  C18 UNL     1      26.645  54.908  45.932  1.00  0.00     0.235 C 
BRANCH  40  41
HETATM   41  N6  UNL     1      27.906  55.068  46.650  1.00  0.00    -0.079 N 
ATOM     42  H63 UNL     1      27.785  55.564  47.533  1.00  0.00     0.274 HD
ATOM     43  H62 UNL     1      28.250  54.183  47.024  1.00  0.00     0.274 HD
ATOM     44  H61 UNL     1      28.591  55.521  46.046  1.00  0.00     0.274 HD
ENDBRANCH  40  41
ENDBRANCH  39  40
ENDBRANCH  38  39
ENDBRANCH  37  38
ENDBRANCH   4  37
BRANCH   8  45
HETATM   45  C23 UNL     1      23.563  48.986  51.405  1.00  0.00     0.058 C 
BRANCH  45  46
HETATM   46  C24 UNL     1      22.354  48.835  52.254  1.00  0.00     0.126 C 
BRANCH  46  47
HETATM   47  N7  UNL     1      21.312  48.108  51.528  1.00  0.00    -0.367 N 
HETATM   48  C25 UNL     1      20.317  47.611  52.105  1.00  0.00     0.196 C 
HETATM   49  N8  UNL     1      20.133  47.713  53.499  1.00  0.00    -0.067 NA
HETATM   50  N9  UNL     1      19.257  46.937  51.393  1.00  0.00    -0.067 NA
ATOM     51  H7  UNL     1      21.399  48.002  50.518  1.00  0.00     0.161 HD
ENDBRANCH  46  47
ENDBRANCH  45  46
ENDBRANCH   8  45
TORSDOF 14
ENDMDL
MODEL 2
REMARK VINA RESULT: -7.982770592      1.030      1.107
REMARK  14 active torsions:
REMARK  status: ('A' for Active; 'I' for Inactive)
REMARK    1  A    between atoms: C3_5  and  C4_6 
REMARK    2  A    between atoms: C11_14  and  N2_15 
REMARK    3  A    between atoms: N2_15  and  C12_17 
REMARK    4  A    between atoms: C12_17  and  C13_18 
REMARK    5  A    between atoms: N3_19  and  C14_21 
REMARK    6  A    between atoms: C15_24  and  N5_25 
REMARK    7  A    between atoms: N5_25  and  C16_26 
REMARK    8  A    between atoms: C16_26  and  C17_27 
REMARK    9  A    between atoms: C17_27  and  C18_28 
REMARK   10  A    between atoms: C18_28  and  N6_29 
REMARK   11  A    between atoms: C22_36  and  C23_37 
REMARK   12  A    between atoms: C23_37  and  C24_38 
REMARK   13  A    between atoms: C24_38  and  N7_39 
REMARK   14  A    between atoms: C28_48  and  C29_49 
ROOT
HETATM    1  C14 UNL     1      23.975  49.415  44.925  1.00  0.00     0.684 A 
HETATM    2  N4  UNL     1      23.629  50.681  44.801  1.00  0.00    -0.163 N 
ATOM      3  H4  UNL     1      23.628  51.128  43.883  1.00  0.00     0.187 HD
HETATM    4  C15 UNL     1      23.271  51.392  45.922  1.00  0.00     0.204 A 
HETATM    5  C19 UNL     1      23.281  50.780  47.157  1.00  0.00     0.050 A 
HETATM    6  C20 UNL     1      22.959  51.507  48.307  1.00  0.00     0.019 A 
HETATM    7  C21 UNL     1      23.025  50.872  49.527  1.00  0.00     0.008 A 
HETATM    8  C22 UNL     1      23.394  49.547  49.607  1.00  0.00    -0.054 A 
HETATM    9  C26 UNL     1      23.715  48.781  48.465  1.00  0.00     0.038 A 
HETATM   10  C27 UNL     1      23.643  49.482  47.267  1.00  0.00     0.064 A 
HETATM   11  N10 UNL     1      23.993  48.783  46.152  1.00  0.00    -0.191 N 
ATOM     12  H10 UNL     1      24.267  47.802  46.223  1.00  0.00     0.184 HD
ENDROOT
BRANCH   1  13
HETATM   13  N3  UNL     1      24.171  48.726  43.906  1.00  0.00    -0.204 N 
HETATM   14  C13 UNL     1      24.027  47.597  43.208  1.00  0.00     0.098 C 
ATOM     15  H3  UNL     1      24.719  49.332  43.295  1.00  0.00     0.183 HD
BRANCH  14  16
HETATM   16  C12 UNL     1      22.854  47.078  42.454  1.00  0.00     0.165 C 
BRANCH  16  17
HETATM   17  N2  UNL     1      22.490  45.771  42.863  1.00  0.00    -0.384 N 
ATOM     18  H2  UNL     1      23.234  45.074  42.870  1.00  0.00     0.160 HD
BRANCH  17  19
HETATM   19  C11 UNL     1      21.296  45.357  43.237  1.00  0.00     0.043 A 
HETATM   20  C10 UNL     1      20.202  45.613  42.468  1.00  0.00     0.060 A 
HETATM   21  C3  UNL     1      18.937  45.186  42.934  1.00  0.00     0.044 A 
HETATM   22  N1  UNL     1      18.942  44.569  44.111  1.00  0.00    -0.358 N 
HETATM   23  C2  UNL     1      20.006  44.312  44.888  1.00  0.00     0.018 A 
ATOM     24  H1  UNL     1      18.037  44.258  44.464  1.00  0.00     0.166 HD
HETATM   25  C1  UNL     1      19.818  43.745  46.226  1.00  0.00     0.069 C 
HETATM   26  C28 UNL     1      21.286  44.704  44.478  1.00  0.00     0.014 A 
BRANCH  21  27
HETATM   27  C4  UNL     1      17.688  45.443  42.218  1.00  0.00    -0.009 A 
HETATM   28  C5  UNL     1      16.580  44.661  42.342  1.00  0.00     0.017 A 
HETATM   29  C6  UNL     1      15.419  44.929  41.590  1.00  0.00     0.043 A 
HETATM   30  C7  UNL     1      15.374  45.973  40.712  1.00  0.00     0.116 A 
HETATM   31  F1  UNL     1      14.275  46.248  39.995  1.00  0.00    -0.206 F 
HETATM   32  C8  UNL     1      16.542  46.788  40.582  1.00  0.00     0.043 A 
HETATM   33  C9  UNL     1      17.651  46.506  41.329  1.00  0.00     0.017 A 
ENDBRANCH  21  27
BRANCH  26  34
HETATM   34  C29 UNL     1      22.470  44.246  45.192  1.00  0.00    -0.073 C 
HETATM   35  C30 UNL     1      22.684  42.813  45.465  1.00  0.00     0.044 C 
HETATM   36  C31 UNL     1      23.548  45.224  45.512  1.00  0.00     0.044 C 
ENDBRANCH  26  34
ENDBRANCH  17  19
ENDBRANCH  16  17
ENDBRANCH  14  16
ENDBRANCH   1  13
BRANCH   4  37
HETATM   37  N5  UNL     1      22.980  52.569  45.848  1.00  0.00    -0.403 NA
BRANCH  37  38
HETATM   38  C16 UNL     1      22.606  53.836  45.840  1.00  0.00     0.159 C 
BRANCH  38  39
HETATM   39  C17 UNL     1      23.626  54.814  45.210  1.00  0.00     0.087 C 
BRANCH  39  40
HETATM   40  C18 UNL     1      24.673  55.283  46.177  1.00  0.00     0.235 C 
BRANCH  40  41
HETATM   41  N6  UNL     1      25.286  54.134  46.835  1.00  0.00    -0.079 N 
ATOM     42  H63 UNL     1      24.601  53.418  47.075  1.00  0.00     0.274 HD
ATOM     43  H62 UNL     1      25.855  53.582  46.193  1.00  0.00     0.274 HD
ATOM     44  H61 UNL     1      25.817  54.446  47.648  1.00  0.00     0.274 HD
ENDBRANCH  40  41
ENDBRANCH  39  40
ENDBRANCH  38  39
ENDBRANCH  37  38
ENDBRANCH   4  37
BRANCH   8  45
HETATM   45  C23 UNL     1      23.639  48.973  50.920  1.00  0.00     0.058 C 
BRANCH  45  46
HETATM   46  C24 UNL     1      22.507  48.896  51.878  1.00  0.00     0.126 C 
BRANCH  46  47
HETATM   47  N7  UNL     1      21.387  48.168  51.282  1.00  0.00    -0.367 N 
HETATM   48  C25 UNL     1      20.476  47.657  51.974  1.00  0.00     0.196 C 
HETATM   49  N8  UNL     1      20.470  47.742  53.382  1.00  0.00    -0.067 NA
HETATM   50  N9  UNL     1      19.339  46.982  51.395  1.00  0.00    -0.067 NA
ATOM     51  H7  UNL     1      21.345  48.074  50.268  1.00  0.00     0.161 HD
ENDBRANCH  46  47
ENDBRANCH  45  46
ENDBRANCH   8  45
TORSDOF 14
ENDMDL
MODEL 3
REMARK VINA RESULT: -7.722301973      1.530      2.200
REMARK  14 active torsions:
REMARK  status: ('A' for Active; 'I' for Inactive)
REMARK    1  A    between atoms: C3_5  and  C4_6 
REMARK    2  A    between atoms: C11_14  and  N2_15 
REMARK    3  A    between atoms: N2_15  and  C12_17 
REMARK    4  A    between atoms: C12_17  and  C13_18 
REMARK    5  A    between atoms: N3_19  and  C14_21 
REMARK    6  A    between atoms: C15_24  and  N5_25 
REMARK    7  A    between atoms: N5_25  and  C16_26 
REMARK    8  A    between atoms: C16_26  and  C17_27 
REMARK    9  A    between atoms: C17_27  and  C18_28 
REMARK   10  A    between atoms: C18_28  and  N6_29 
REMARK   11  A    between atoms: C22_36  and  C23_37 
REMARK   12  A    between atoms: C23_37  and  C24_38 
REMARK   13  A    between atoms: C24_38  and  N7_39 
REMARK   14  A    between atoms: C28_48  and  C29_49 
ROOT
HETATM    1  C14 UNL     1      23.713  48.639  45.214  1.00  0.00     0.684 A 
HETATM    2  N4  UNL     1      23.684  49.926  44.932  1.00  0.00    -0.163 N 
ATOM      3  H4  UNL     1      23.749  50.244  43.965  1.00  0.00     0.187 HD
HETATM    4  C15 UNL     1      23.563  50.835  45.957  1.00  0.00     0.204 A 
HETATM    5  C19 UNL     1      23.480  50.395  47.261  1.00  0.00     0.050 A 
HETATM    6  C20 UNL     1      23.400  51.313  48.313  1.00  0.00     0.019 A 
HETATM    7  C21 UNL     1      23.365  50.835  49.603  1.00  0.00     0.008 A 
HETATM    8  C22 UNL     1      23.400  49.479  49.848  1.00  0.00    -0.054 A 
HETATM    9  C26 UNL     1      23.470  48.525  48.810  1.00  0.00     0.038 A 
HETATM   10  C27 UNL     1      23.517  49.071  47.532  1.00  0.00     0.064 A 
HETATM   11  N10 UNL     1      23.633  48.176  46.512  1.00  0.00    -0.191 N 
ATOM     12  H10 UNL     1      23.660  47.175  46.706  1.00  0.00     0.184 HD
ENDROOT
BRANCH   1  13
HETATM   13  N3  UNL     1      23.687  47.804  44.290  1.00  0.00    -0.204 N 
HETATM   14  C13 UNL     1      23.169  46.725  43.699  1.00  0.00     0.098 C 
ATOM     15  H3  UNL     1      24.445  48.091  43.671  1.00  0.00     0.183 HD
BRANCH  14  16
HETATM   16  C12 UNL     1      21.921  46.573  42.903  1.00  0.00     0.165 C 
BRANCH  16  17
HETATM   17  N2  UNL     1      20.760  46.610  43.715  1.00  0.00    -0.384 N 
ATOM     18  H2  UNL     1      20.836  47.127  44.592  1.00  0.00     0.160 HD
BRANCH  17  19
HETATM   19  C11 UNL     1      19.593  46.052  43.463  1.00  0.00     0.043 A 
HETATM   20  C10 UNL     1      18.771  46.566  42.506  1.00  0.00     0.060 A 
HETATM   21  C3  UNL     1      17.512  45.958  42.304  1.00  0.00     0.044 A 
HETATM   22  N1  UNL     1      17.244  44.924  43.096  1.00  0.00    -0.358 N 
HETATM   23  C2  UNL     1      18.035  44.405  44.048  1.00  0.00     0.018 A 
ATOM     24  H1  UNL     1      16.338  44.475  42.966  1.00  0.00     0.166 HD
HETATM   25  C1  UNL     1      17.530  43.348  44.928  1.00  0.00     0.069 C 
HETATM   26  C28 UNL     1      19.298  44.960  44.291  1.00  0.00     0.014 A 
BRANCH  21  27
HETATM   27  C4  UNL     1      16.528  46.447  41.339  1.00  0.00    -0.009 A 
HETATM   28  C5  UNL     1      16.801  47.407  40.413  1.00  0.00     0.017 A 
HETATM   29  C6  UNL     1      15.798  47.875  39.541  1.00  0.00     0.043 A 
HETATM   30  C7  UNL     1      14.526  47.385  39.602  1.00  0.00     0.116 A 
HETATM   31  F1  UNL     1      13.561  47.811  38.774  1.00  0.00    -0.206 F 
HETATM   32  C8  UNL     1      14.243  46.380  40.581  1.00  0.00     0.043 A 
HETATM   33  C9  UNL     1      15.237  45.943  41.410  1.00  0.00     0.017 A 
ENDBRANCH  21  27
BRANCH  26  34
HETATM   34  C29 UNL     1      20.254  44.285  45.159  1.00  0.00    -0.073 C 
HETATM   35  C30 UNL     1      21.307  43.419  44.598  1.00  0.00     0.044 C 
HETATM   36  C31 UNL     1      20.260  44.600  46.615  1.00  0.00     0.044 C 
ENDBRANCH  26  34
ENDBRANCH  17  19
ENDBRANCH  16  17
ENDBRANCH  14  16
ENDBRANCH   1  13
BRANCH   4  37
HETATM   37  N5  UNL     1      23.567  52.029  45.736  1.00  0.00    -0.403 NA
BRANCH  37  38
HETATM   38  C16 UNL     1      23.513  53.339  45.569  1.00  0.00     0.159 C 
BRANCH  38  39
HETATM   39  C17 UNL     1      24.726  54.119  46.130  1.00  0.00     0.087 C 
BRANCH  39  40
HETATM   40  C18 UNL     1      24.689  55.584  45.807  1.00  0.00     0.235 C 
BRANCH  40  41
HETATM   41  N6  UNL     1      23.335  55.970  45.424  1.00  0.00    -0.079 N 
ATOM     42  H63 UNL     1      22.759  55.163  45.183  1.00  0.00     0.274 HD
ATOM     43  H62 UNL     1      22.791  56.306  46.219  1.00  0.00     0.274 HD
ATOM     44  H61 UNL     1      23.373  56.654  44.668  1.00  0.00     0.274 HD
ENDBRANCH  40  41
ENDBRANCH  39  40
ENDBRANCH  38  39
ENDBRANCH  37  38
ENDBRANCH   4  37
BRANCH   8  45
HETATM   45  C23 UNL     1      23.558  49.027  51.221  1.00  0.00     0.058 C 
BRANCH  45  46
HETATM   46  C24 UNL     1      22.347  48.935  52.076  1.00  0.00     0.126 C 
BRANCH  46  47
HETATM   47  N7  UNL     1      21.311  48.148  51.406  1.00  0.00    -0.367 N 
HETATM   48  C25 UNL     1      20.367  47.612  52.031  1.00  0.00     0.196 C 
HETATM   49  N8  UNL     1      20.239  47.724  53.431  1.00  0.00    -0.067 NA
HETATM   50  N9  UNL     1      19.311  46.878  51.375  1.00  0.00    -0.067 NA
ATOM     51  H7  UNL     1      21.359  48.032  50.394  1.00  0.00     0.161 HD
ENDBRANCH  46  47
ENDBRANCH  45  46
ENDBRANCH   8  45
TORSDOF 14
ENDMDL
MODEL 4
REMARK VINA RESULT: -7.406648774      0.815      1.533
REMARK  14 active torsions:
REMARK  status: ('A' for Active; 'I' for Inactive)
REMARK    1  A    between atoms: C3_5  and  C4_6 
REMARK    2  A    between atoms: C11_14  and  N2_15 
REMARK    3  A    between atoms: N2_15  and  C12_17 
REMARK    4  A    between atoms: C12_17  and  C13_18 
REMARK    5  A    between atoms: N3_19  and  C14_21 
REMARK    6  A    between atoms: C15_24  and  N5_25 
REMARK    7  A    between atoms: N5_25  and  C16_26 
REMARK    8  A    between atoms: C16_26  and  C17_27 
REMARK    9  A    between atoms: C17_27  and  C18_28 
REMARK   10  A    between atoms: C18_28  and  N6_29 
REMARK   11  A    between atoms: C22_36  and  C23_37 
REMARK   12  A    between atoms: C23_37  and  C24_38 
REMARK   13  A    between atoms: C24_38  and  N7_39 
REMARK   14  A    between atoms: C28_48  and  C29_49 
ROOT
HETATM    1  C14 UNL     1      22.908  49.401  45.481  1.00  0.00     0.684 A 
HETATM    2  N4  UNL     1      23.390  50.617  45.317  1.00  0.00    -0.163 N 
ATOM      3  H4  UNL     1      23.490  51.011  44.381  1.00  0.00     0.187 HD
HETATM    4  C15 UNL     1      23.758  51.348  46.422  1.00  0.00     0.204 A 
HETATM    5  C19 UNL     1      23.623  50.804  47.683  1.00  0.00     0.050 A 
HETATM    6  C20 UNL     1      24.033  51.524  48.809  1.00  0.00     0.019 A 
HETATM    7  C21 UNL     1      23.926  50.929  50.046  1.00  0.00     0.008 A 
HETATM    8  C22 UNL     1      23.418  49.654  50.166  1.00  0.00    -0.054 A 
HETATM    9  C26 UNL     1      22.985  48.903  49.051  1.00  0.00     0.038 A 
HETATM   10  C27 UNL     1      23.132  49.554  47.832  1.00  0.00     0.064 A 
HETATM   11  N10 UNL     1      22.767  48.836  46.733  1.00  0.00    -0.191 N 
ATOM     12  H10 UNL     1      22.394  47.892  46.834  1.00  0.00     0.184 HD
ENDROOT
BRANCH   1  13
HETATM   13  N3  UNL     1      22.449  48.782  44.502  1.00  0.00    -0.204 N 
HETATM   14  C13 UNL     1      22.416  48.515  43.195  1.00  0.00     0.098 C 
ATOM     15  H3  UNL     1      21.738  48.169  44.903  1.00  0.00     0.183 HD
BRANCH  14  16
HETATM   16  C12 UNL     1      23.341  47.705  42.357  1.00  0.00     0.165 C 
BRANCH  16  17
HETATM   17  N2  UNL     1      23.054  46.319  42.429  1.00  0.00    -0.384 N 
ATOM     18  H2  UNL     1      23.765  45.688  42.058  1.00  0.00     0.160 HD
BRANCH  17  19
HETATM   19  C11 UNL     1      21.969  45.755  42.921  1.00  0.00     0.043 A 
HETATM   20  C10 UNL     1      20.778  45.858  42.270  1.00  0.00     0.060 A 
HETATM   21  C3  UNL     1      19.635  45.272  42.861  1.00  0.00     0.044 A 
HETATM   22  N1  UNL     1      19.842  44.673  44.030  1.00  0.00    -0.358 N 
HETATM   23  C2  UNL     1      21.004  44.565  44.692  1.00  0.00     0.018 A 
ATOM     24  H1  UNL     1      19.027  44.248  44.472  1.00  0.00     0.166 HD
HETATM   25  C1  UNL     1      21.031  43.991  46.040  1.00  0.00     0.069 C 
HETATM   26  C28 UNL     1      22.173  45.119  44.154  1.00  0.00     0.014 A 
BRANCH  21  27
HETATM   27  C4  UNL     1      18.296  45.355  42.279  1.00  0.00    -0.009 A 
HETATM   28  C5  UNL     1      17.903  46.360  41.448  1.00  0.00     0.017 A 
HETATM   29  C6  UNL     1      16.583  46.414  40.956  1.00  0.00     0.043 A 
HETATM   30  C7  UNL     1      15.662  45.469  41.303  1.00  0.00     0.116 A 
HETATM   31  F1  UNL     1      14.405  45.500  40.838  1.00  0.00    -0.206 F 
HETATM   32  C8  UNL     1      16.080  44.419  42.181  1.00  0.00     0.043 A 
HETATM   33  C9  UNL     1      17.367  44.390  42.638  1.00  0.00     0.017 A 
ENDBRANCH  21  27
BRANCH  26  34
HETATM   34  C29 UNL     1      23.474  44.828  44.742  1.00  0.00    -0.073 C 
HETATM   35  C30 UNL     1      24.209  45.855  45.502  1.00  0.00     0.044 C 
HETATM   36  C31 UNL     1      23.991  43.431  44.704  1.00  0.00     0.044 C 
ENDBRANCH  26  34
ENDBRANCH  17  19
ENDBRANCH  16  17
ENDBRANCH  14  16
ENDBRANCH   1  13
BRANCH   4  37
HETATM   37  N5  UNL     1      24.236  52.458  46.306  1.00  0.00    -0.403 NA
BRANCH  37  38
HETATM   38  C16 UNL     1      24.833  53.625  46.140  1.00  0.00     0.159 C 
BRANCH  38  39
HETATM   39  C17 UNL     1      23.877  54.839  46.049  1.00  0.00     0.087 C 
BRANCH  39  40
HETATM   40  C18 UNL     1      22.664  54.576  45.207  1.00  0.00     0.235 C 
BRANCH  40  41
HETATM   41  N6  UNL     1      21.619  53.969  46.024  1.00  0.00    -0.079 N 
ATOM     42  H63 UNL     1      20.825  54.595  46.159  1.00  0.00     0.274 HD
ATOM     43  H62 UNL     1      21.133  53.220  45.532  1.00  0.00     0.274 HD
ATOM     44  H61 UNL     1      22.014  53.653  46.910  1.00  0.00     0.274 HD
ENDBRANCH  40  41
ENDBRANCH  39  40
ENDBRANCH  38  39
ENDBRANCH  37  38
ENDBRANCH   4  37
BRANCH   8  45
HETATM   45  C23 UNL     1      23.503  48.993  51.458  1.00  0.00     0.058 C 
BRANCH  45  46
HETATM   46  C24 UNL     1      22.266  48.871  52.271  1.00  0.00     0.126 C 
BRANCH  46  47
HETATM   47  N7  UNL     1      21.260  48.091  51.549  1.00  0.00    -0.367 N 
HETATM   48  C25 UNL     1      20.274  47.574  52.123  1.00  0.00     0.196 C 
HETATM   49  N8  UNL     1      20.066  47.702  53.512  1.00  0.00    -0.067 NA
HETATM   50  N9  UNL     1      19.248  46.847  51.413  1.00  0.00    -0.067 NA
ATOM     51  H7  UNL     1      21.365  47.963  50.543  1.00  0.00     0.161 HD
ENDBRANCH  46  47
ENDBRANCH  45  46
ENDBRANCH   8  45
TORSDOF 14
ENDMDL
MODEL 5
REMARK VINA RESULT: -7.222575425      3.685      9.848
REMARK  14 active torsions:
REMARK  status: ('A' for Active; 'I' for Inactive)
REMARK    1  A    between atoms: C3_5  and  C4_6 
REMARK    2  A    between atoms: C11_14  and  N2_15 
REMARK    3  A    between atoms: N2_15  and  C12_17 
REMARK    4  A    between atoms: C12_17  and  C13_18 
REMARK    5  A    between atoms: N3_19  and  C14_21 
REMARK    6  A    between atoms: C15_24  and  N5_25 
REMARK    7  A    between atoms: N5_25  and  C16_26 
REMARK    8  A    between atoms: C16_26  and  C17_27 
REMARK    9  A    between atoms: C17_27  and  C18_28 
REMARK   10  A    between atoms: C18_28  and  N6_29 
REMARK   11  A    between atoms: C22_36  and  C23_37 
REMARK   12  A    between atoms: C23_37  and  C24_38 
REMARK   13  A    between atoms: C24_38  and  N7_39 
REMARK   14  A    between atoms: C28_48  and  C29_49 
ROOT
HETATM    1  C14 UNL     1      21.714  45.660  42.834  1.00  0.00     0.684 A 
HETATM    2  N4  UNL     1      21.783  44.940  43.936  1.00  0.00    -0.163 N 
ATOM      3  H4  UNL     1      22.675  44.812  44.414  1.00  0.00     0.187 HD
HETATM    4  C15 UNL     1      20.638  44.364  44.434  1.00  0.00     0.204 A 
HETATM    5  C19 UNL     1      19.438  44.540  43.779  1.00  0.00     0.050 A 
HETATM    6  C20 UNL     1      18.277  43.923  44.254  1.00  0.00     0.019 A 
HETATM    7  C21 UNL     1      17.108  44.085  43.545  1.00  0.00     0.008 A 
HETATM    8  C22 UNL     1      17.086  44.846  42.397  1.00  0.00    -0.054 A 
HETATM    9  C26 UNL     1      18.237  45.490  41.895  1.00  0.00     0.038 A 
HETATM   10  C27 UNL     1      19.386  45.277  42.647  1.00  0.00     0.064 A 
HETATM   11  N10 UNL     1      20.524  45.848  42.161  1.00  0.00    -0.191 N 
ATOM     12  H10 UNL     1      20.496  46.407  41.308  1.00  0.00     0.184 HD
ENDROOT
BRANCH   1  13
HETATM   13  N3  UNL     1      22.714  46.295  42.449  1.00  0.00    -0.204 N 
HETATM   14  C13 UNL     1      23.284  47.392  41.944  1.00  0.00     0.098 C 
ATOM     15  H3  UNL     1      23.492  45.650  42.590  1.00  0.00     0.183 HD
BRANCH  14  16
HETATM   16  C12 UNL     1      23.605  48.692  42.594  1.00  0.00     0.165 C 
BRANCH  16  17
HETATM   17  N2  UNL     1      22.687  49.017  43.624  1.00  0.00    -0.384 N 
ATOM     18  H2  UNL     1      21.733  48.675  43.506  1.00  0.00     0.160 HD
BRANCH  17  19
HETATM   19  C11 UNL     1      22.930  49.712  44.717  1.00  0.00     0.043 A 
HETATM   20  C10 UNL     1      23.220  51.040  44.643  1.00  0.00     0.060 A 
HETATM   21  C3  UNL     1      23.515  51.732  45.840  1.00  0.00     0.044 A 
HETATM   22  N1  UNL     1      23.489  50.994  46.946  1.00  0.00    -0.358 N 
HETATM   23  C2  UNL     1      23.212  49.685  47.041  1.00  0.00     0.018 A 
ATOM     24  H1  UNL     1      23.704  51.477  47.818  1.00  0.00     0.166 HD
HETATM   25  C1  UNL     1      23.364  48.993  48.324  1.00  0.00     0.069 C 
HETATM   26  C28 UNL     1      22.905  48.946  45.891  1.00  0.00     0.014 A 
BRANCH  21  27
HETATM   27  C4  UNL     1      23.885  53.146  45.881  1.00  0.00    -0.009 A 
HETATM   28  C5  UNL     1      23.068  54.146  45.449  1.00  0.00     0.017 A 
HETATM   29  C6  UNL     1      23.497  55.488  45.467  1.00  0.00     0.043 A 
HETATM   30  C7  UNL     1      24.743  55.823  45.912  1.00  0.00     0.116 A 
HETATM   31  F1  UNL     1      25.166  57.096  45.945  1.00  0.00    -0.206 F 
HETATM   32  C8  UNL     1      25.600  54.768  46.360  1.00  0.00     0.043 A 
HETATM   33  C9  UNL     1      25.153  53.477  46.335  1.00  0.00     0.017 A 
ENDBRANCH  21  27
BRANCH  26  34
HETATM   34  C29 UNL     1      22.391  47.587  45.994  1.00  0.00    -0.073 C 
HETATM   35  C30 UNL     1      23.306  46.431  46.016  1.00  0.00     0.044 C 
HETATM   36  C31 UNL     1      20.936  47.377  46.237  1.00  0.00     0.044 C 
ENDBRANCH  26  34
ENDBRANCH  17  19
ENDBRANCH  16  17
ENDBRANCH  14  16
ENDBRANCH   1  13
BRANCH   4  37
HETATM   37  N5  UNL     1      20.672  43.667  45.428  1.00  0.00    -0.403 NA
BRANCH  37  38
HETATM   38  C16 UNL     1      20.787  42.952  46.534  1.00  0.00     0.159 C 
BRANCH  38  39
HETATM   39  C17 UNL     1      22.078  42.104  46.630  1.00  0.00     0.087 C 
BRANCH  39  40
HETATM   40  C18 UNL     1      23.330  42.930  46.648  1.00  0.00     0.235 C 
BRANCH  40  41
HETATM   41  N6  UNL     1      23.774  43.179  45.280  1.00  0.00    -0.079 N 
ATOM     42  H63 UNL     1      23.392  42.500  44.622  1.00  0.00     0.274 HD
ATOM     43  H62 UNL     1      23.352  44.020  44.886  1.00  0.00     0.274 HD
ATOM     44  H61 UNL     1      24.793  43.212  45.250  1.00  0.00     0.274 HD
ENDBRANCH  40  41
ENDBRANCH  39  40
ENDBRANCH  38  39
ENDBRANCH  37  38
ENDBRANCH   4  37
BRANCH   8  45
HETATM   45  C23 UNL     1      15.885  44.831  41.578  1.00  0.00     0.058 C 
BRANCH  45  46
HETATM   46  C24 UNL     1      15.740  45.862  40.519  1.00  0.00     0.126 C 
BRANCH  46  47
HETATM   47  N7  UNL     1      15.033  47.031  41.042  1.00  0.00    -0.367 N 
HETATM   48  C25 UNL     1      14.233  47.697  40.346  1.00  0.00     0.196 C 
HETATM   49  N8  UNL     1      13.961  47.370  39.001  1.00  0.00    -0.067 NA
HETATM   50  N9  UNL     1      13.490  48.821  40.866  1.00  0.00    -0.067 NA
ATOM     51  H7  UNL     1      15.197  47.314  42.008  1.00  0.00     0.161 HD
ENDBRANCH  46  47
ENDBRANCH  45  46
ENDBRANCH   8  45
TORSDOF 14
ENDMDL
