MODEL 1
REMARK VINA RESULT: -7.761125441      0.000      0.000
REMARK  12 active torsions:
REMARK  status: ('A' for Active; 'I' for Inactive)
REMARK    1  A    between atoms: C2_2  and  C4_4 
REMARK    2  A    between atoms: C4_4  and  C5_5 
REMARK    3  A    between atoms: C7_10  and  C8_11 
REMARK    4  A    between atoms: C8_11  and  C9_12 
REMARK    5  A    between atoms: C9_12  and  C10_13 
REMARK    6  A    between atoms: C10_13  and  C11_14 
REMARK    7  A    between atoms: C11_14  and  C12_15 
REMARK    8  A    between atoms: C12_15  and  C13_16 
REMARK    9  A    between atoms: C13_16  and  O2_17 
REMARK   10  A    between atoms: C18_29  and  C19_30 
REMARK   11  A    between atoms: C19_30  and  C21_32 
REMARK   12  A    between atoms: C21_32  and  C22_33 
ROOT
HETATM    1  C5  UNL     1      23.298  44.682  44.375  1.00  0.00     0.177 C 
HETATM    2  N1  UNL     1      24.456  45.581  44.540  1.00  0.00    -0.346 N 
ATOM      3  H1  UNL     1      25.243  45.240  45.092  1.00  0.00     0.163 HD
HETATM    4  C6  UNL     1      24.558  46.866  43.998  1.00  0.00     0.241 C 
HETATM    5  O1  UNL     1      25.610  47.119  43.321  1.00  0.00    -0.271 OA
HETATM    6  C7  UNL     1      23.591  47.982  44.112  1.00  0.00     0.177 C 
HETATM    7  N2  UNL     1      23.000  48.068  45.435  1.00  0.00    -0.343 N 
ATOM      8  H2  UNL     1      23.597  47.746  46.195  1.00  0.00     0.163 HD
HETATM    9  C14 UNL     1      21.738  48.525  45.828  1.00  0.00     0.264 C 
HETATM   10  O3  UNL     1      21.746  49.535  46.632  1.00  0.00    -0.266 OA
HETATM   11  C15 UNL     1      20.403  47.999  45.441  1.00  0.00     0.076 C 
HETATM   12  C16 UNL     1      19.909  48.432  44.123  1.00  0.00     0.074 C 
HETATM   13  N3  UNL     1      20.233  46.622  45.816  1.00  0.00    -0.324 N 
ATOM     14  H3  UNL     1      20.579  46.436  46.757  1.00  0.00     0.169 HD
HETATM   15  C17 UNL     1      19.720  45.491  45.224  1.00  0.00     0.245 C 
HETATM   16  O4  UNL     1      18.736  44.968  45.869  1.00  0.00    -0.271 OA
HETATM   17  C18 UNL     1      20.061  44.751  44.007  1.00  0.00     0.181 C 
HETATM   18  N5  UNL     1      21.082  45.301  43.175  1.00  0.00    -0.346 N 
ATOM     19  H5  UNL     1      20.767  45.943  42.447  1.00  0.00     0.163 HD
HETATM   20  C30 UNL     1      22.471  45.070  43.233  1.00  0.00     0.241 C 
HETATM   21  O5  UNL     1      23.106  45.218  42.137  1.00  0.00    -0.271 OA
ENDROOT
BRANCH  17  22
HETATM   22  C19 UNL     1      18.880  44.314  43.162  1.00  0.00     0.018 C 
HETATM   23  C20 UNL     1      17.698  43.833  43.942  1.00  0.00     0.012 C 
BRANCH  22  24
HETATM   24  C21 UNL     1      18.511  45.233  42.062  1.00  0.00     0.047 C 
BRANCH  24  25
HETATM   25  C22 UNL     1      17.088  45.312  41.695  1.00  0.00    -0.030 A 
HETATM   26  C23 UNL     1      16.155  44.307  42.035  1.00  0.00     0.096 A 
HETATM   27  N4  UNL     1      14.935  44.665  41.611  1.00  0.00    -0.365 N 
HETATM   28  C24 UNL     1      14.985  45.860  41.000  1.00  0.00     0.043 A 
ATOM     29  H4  UNL     1      14.089  44.110  41.736  1.00  0.00     0.165 HD
HETATM   30  C25 UNL     1      14.096  46.690  40.380  1.00  0.00     0.033 A 
HETATM   31  C29 UNL     1      16.313  46.245  41.058  1.00  0.00     0.001 A 
HETATM   32  C26 UNL     1      14.456  47.893  39.806  1.00  0.00     0.044 A 
HETATM   33  C27 UNL     1      15.787  48.293  39.855  1.00  0.00     0.117 A 
HETATM   34  F1  UNL     1      16.219  49.456  39.317  1.00  0.00    -0.206 F 
HETATM   35  C28 UNL     1      16.662  47.456  40.477  1.00  0.00     0.056 A 
ENDBRANCH  24  25
ENDBRANCH  22  24
ENDBRANCH  17  22
BRANCH   1  36
HETATM   36  C4  UNL     1      23.621  43.277  44.568  1.00  0.00     0.038 C 
BRANCH  36  37
HETATM   37  C2  UNL     1      23.158  42.464  45.680  1.00  0.00    -0.020 C 
HETATM   38  C1  UNL     1      23.699  42.706  47.042  1.00  0.00     0.009 C 
HETATM   39  C3  UNL     1      21.651  42.330  45.813  1.00  0.00     0.009 C 
ENDBRANCH  36  37
ENDBRANCH   1  36
BRANCH   6  40
HETATM   40  C8  UNL     1      24.416  49.284  43.944  1.00  0.00     0.035 C 
BRANCH  40  41
HETATM   41  C9  UNL     1      23.579  50.489  44.112  1.00  0.00     0.002 C 
BRANCH  41  42
HETATM   42  C10 UNL     1      24.002  51.241  45.384  1.00  0.00     0.000 C 
BRANCH  42  43
HETATM   43  C11 UNL     1      23.207  52.496  45.536  1.00  0.00     0.002 C 
BRANCH  43  44
HETATM   44  C12 UNL     1      24.013  53.694  45.861  1.00  0.00     0.026 C 
BRANCH  44  45
HETATM   45  C13 UNL     1      23.442  55.008  45.450  1.00  0.00     0.164 C 
BRANCH  45  46
HETATM   46  O2  UNL     1      22.118  55.208  45.727  1.00  0.00    -0.401 OA
ATOM     47  H2  UNL     1      21.905  55.985  46.231  1.00  0.00     0.209 HD
ENDBRANCH  45  46
ENDBRANCH  44  45
ENDBRANCH  43  44
ENDBRANCH  42  43
ENDBRANCH  41  42
ENDBRANCH  40  41
ENDBRANCH   6  40
TORSDOF 12
ENDMDL
MODEL 2
REMARK VINA RESULT: -7.555863835      1.258      1.524
REMARK  12 active torsions:
REMARK  status: ('A' for Active; 'I' for Inactive)
REMARK    1  A    between atoms: C2_2  and  C4_4 
REMARK    2  A    between atoms: C4_4  and  C5_5 
REMARK    3  A    between atoms: C7_10  and  C8_11 
REMARK    4  A    between atoms: C8_11  and  C9_12 
REMARK    5  A    between atoms: C9_12  and  C10_13 
REMARK    6  A    between atoms: C10_13  and  C11_14 
REMARK    7  A    between atoms: C11_14  and  C12_15 
REMARK    8  A    between atoms: C12_15  and  C13_16 
REMARK    9  A    between atoms: C13_16  and  O2_17 
REMARK   10  A    between atoms: C18_29  and  C19_30 
REMARK   11  A    between atoms: C19_30  and  C21_32 
REMARK   12  A    between atoms: C21_32  and  C22_33 
ROOT
HETATM    1  C5  UNL     1      22.850  44.893  44.364  1.00  0.00     0.177 C 
HETATM    2  N1  UNL     1      23.933  45.879  44.540  1.00  0.00    -0.346 N 
ATOM      3  H1  UNL     1      24.677  45.649  45.199  1.00  0.00     0.163 HD
HETATM    4  C6  UNL     1      24.019  47.103  43.872  1.00  0.00     0.241 C 
HETATM    5  O1  UNL     1      25.120  47.353  43.275  1.00  0.00    -0.271 OA
HETATM    6  C7  UNL     1      22.986  48.159  43.768  1.00  0.00     0.177 C 
HETATM    7  N2  UNL     1      22.259  48.344  45.011  1.00  0.00    -0.343 N 
ATOM      8  H2  UNL     1      22.792  48.143  45.856  1.00  0.00     0.163 HD
HETATM    9  C14 UNL     1      20.940  48.756  45.228  1.00  0.00     0.264 C 
HETATM   10  O3  UNL     1      20.811  49.842  45.914  1.00  0.00    -0.266 OA
HETATM   11  C15 UNL     1      19.682  48.105  44.776  1.00  0.00     0.076 C 
HETATM   12  C16 UNL     1      19.303  48.365  43.377  1.00  0.00     0.074 C 
HETATM   13  N3  UNL     1      19.551  46.766  45.282  1.00  0.00    -0.324 N 
ATOM     14  H3  UNL     1      19.809  46.703  46.266  1.00  0.00     0.169 HD
HETATM   15  C17 UNL     1      19.164  45.549  44.771  1.00  0.00     0.245 C 
HETATM   16  O4  UNL     1      18.150  45.033  45.373  1.00  0.00    -0.271 OA
HETATM   17  C18 UNL     1      19.669  44.710  43.682  1.00  0.00     0.181 C 
HETATM   18  N5  UNL     1      20.738  45.237  42.896  1.00  0.00    -0.346 N 
ATOM     19  H5  UNL     1      20.464  45.777  42.075  1.00  0.00     0.163 HD
HETATM   20  C30 UNL     1      22.124  45.104  43.113  1.00  0.00     0.241 C 
HETATM   21  O5  UNL     1      22.859  45.179  42.073  1.00  0.00    -0.271 OA
ENDROOT
BRANCH  17  22
HETATM   22  C19 UNL     1      18.606  44.111  42.781  1.00  0.00     0.018 C 
HETATM   23  C20 UNL     1      17.428  43.538  43.502  1.00  0.00     0.012 C 
BRANCH  22  24
HETATM   24  C21 UNL     1      18.224  44.936  41.613  1.00  0.00     0.047 C 
BRANCH  24  25
HETATM   25  C22 UNL     1      16.792  45.219  41.423  1.00  0.00    -0.030 A 
HETATM   26  C23 UNL     1      15.777  44.334  41.852  1.00  0.00     0.096 A 
HETATM   27  N4  UNL     1      14.576  44.868  41.587  1.00  0.00    -0.365 N 
HETATM   28  C24 UNL     1      14.718  46.068  41.001  1.00  0.00     0.043 A 
ATOM     29  H4  UNL     1      13.682  44.426  41.801  1.00  0.00     0.165 HD
HETATM   30  C25 UNL     1      13.884  47.032  40.512  1.00  0.00     0.033 A 
HETATM   31  C29 UNL     1      16.083  46.270  40.906  1.00  0.00     0.001 A 
HETATM   32  C26 UNL     1      14.335  48.198  39.925  1.00  0.00     0.044 A 
HETATM   33  C27 UNL     1      15.705  48.414  39.821  1.00  0.00     0.117 A 
HETATM   34  F1  UNL     1      16.226  49.529  39.260  1.00  0.00    -0.206 F 
HETATM   35  C28 UNL     1      16.524  47.445  40.314  1.00  0.00     0.056 A 
ENDBRANCH  24  25
ENDBRANCH  22  24
ENDBRANCH  17  22
BRANCH   1  36
HETATM   36  C4  UNL     1      23.228  43.540  44.741  1.00  0.00     0.038 C 
BRANCH  36  37
HETATM   37  C2  UNL     1      22.599  42.766  45.798  1.00  0.00    -0.020 C 
HETATM   38  C1  UNL     1      23.368  42.440  47.026  1.00  0.00     0.009 C 
HETATM   39  C3  UNL     1      21.230  43.250  46.241  1.00  0.00     0.009 C 
ENDBRANCH  36  37
ENDBRANCH   1  36
BRANCH   6  40
HETATM   40  C8  UNL     1      23.751  49.488  43.538  1.00  0.00     0.035 C 
BRANCH  40  41
HETATM   41  C9  UNL     1      24.231  50.072  44.808  1.00  0.00     0.002 C 
BRANCH  41  42
HETATM   42  C10 UNL     1      23.435  51.348  45.125  1.00  0.00     0.000 C 
BRANCH  42  43
HETATM   43  C11 UNL     1      23.496  51.650  46.586  1.00  0.00     0.002 C 
BRANCH  43  44
HETATM   44  C12 UNL     1      23.593  50.455  47.453  1.00  0.00     0.026 C 
BRANCH  44  45
HETATM   45  C13 UNL     1      23.431  50.683  48.917  1.00  0.00     0.164 C 
BRANCH  45  46
HETATM   46  O2  UNL     1      24.383  51.457  49.520  1.00  0.00    -0.401 OA
ATOM     47  H2  UNL     1      25.209  51.546  49.058  1.00  0.00     0.209 HD
ENDBRANCH  45  46
ENDBRANCH  44  45
ENDBRANCH  43  44
ENDBRANCH  42  43
ENDBRANCH  41  42
ENDBRANCH  40  41
ENDBRANCH   6  40
TORSDOF 12
ENDMDL
MODEL 3
REMARK VINA RESULT: -7.289744654      3.401      9.100
REMARK  12 active torsions:
REMARK  status: ('A' for Active; 'I' for Inactive)
REMARK    1  A    between atoms: C2_2  and  C4_4 
REMARK    2  A    between atoms: C4_4  and  C5_5 
REMARK    3  A    between atoms: C7_10  and  C8_11 
REMARK    4  A    between atoms: C8_11  and  C9_12 
REMARK    5  A    between atoms: C9_12  and  C10_13 
REMARK    6  A    between atoms: C10_13  and  C11_14 
REMARK    7  A    between atoms: C11_14  and  C12_15 
REMARK    8  A    between atoms: C12_15  and  C13_16 
REMARK    9  A    between atoms: C13_16  and  O2_17 
REMARK   10  A    between atoms: C18_29  and  C19_30 
REMARK   11  A    between atoms: C19_30  and  C21_32 
REMARK   12  A    between atoms: C21_32  and  C22_33 
ROOT
HETATM    1  C5  UNL     1      24.618  46.925  44.848  1.00  0.00     0.177 C 
HETATM    2  N1  UNL     1      24.246  45.520  44.591  1.00  0.00    -0.346 N 
ATOM      3  H1  UNL     1      24.849  44.979  43.972  1.00  0.00     0.163 HD
HETATM    4  C6  UNL     1      23.130  44.875  45.132  1.00  0.00     0.241 C 
HETATM    5  O1  UNL     1      23.343  43.761  45.719  1.00  0.00    -0.271 OA
HETATM    6  C7  UNL     1      21.719  45.322  45.109  1.00  0.00     0.177 C 
HETATM    7  N2  UNL     1      21.351  45.927  43.841  1.00  0.00    -0.343 N 
ATOM      8  H2  UNL     1      21.853  45.566  43.031  1.00  0.00     0.163 HD
HETATM    9  C14 UNL     1      20.416  46.927  43.560  1.00  0.00     0.264 C 
HETATM   10  O3  UNL     1      19.461  46.577  42.765  1.00  0.00    -0.266 OA
HETATM   11  C15 UNL     1      20.384  48.328  44.055  1.00  0.00     0.076 C 
HETATM   12  C16 UNL     1      19.845  48.509  45.412  1.00  0.00     0.074 C 
HETATM   13  N3  UNL     1      21.565  49.061  43.686  1.00  0.00    -0.324 N 
ATOM     14  H3  UNL     1      21.835  48.889  42.717  1.00  0.00     0.169 HD
HETATM   15  C17 UNL     1      22.422  49.937  44.311  1.00  0.00     0.245 C 
HETATM   16  O4  UNL     1      22.485  51.092  43.747  1.00  0.00    -0.271 OA
HETATM   17  C18 UNL     1      23.285  49.828  45.489  1.00  0.00     0.181 C 
HETATM   18  N5  UNL     1      23.219  48.614  46.235  1.00  0.00    -0.346 N 
ATOM     19  H5  UNL     1      22.535  48.592  46.992  1.00  0.00     0.163 HD
HETATM   20  C30 UNL     1      23.980  47.441  46.058  1.00  0.00     0.241 C 
HETATM   21  O5  UNL     1      24.141  46.720  47.097  1.00  0.00    -0.271 OA
ENDROOT
BRANCH  17  22
HETATM   22  C19 UNL     1      23.251  51.019  46.428  1.00  0.00     0.018 C 
HETATM   23  C20 UNL     1      22.983  50.678  47.859  1.00  0.00     0.012 C 
BRANCH  22  24
HETATM   24  C21 UNL     1      24.355  51.991  46.262  1.00  0.00     0.047 C 
BRANCH  24  25
HETATM   25  C22 UNL     1      23.993  53.377  45.925  1.00  0.00    -0.030 A 
HETATM   26  C23 UNL     1      22.660  53.780  45.687  1.00  0.00     0.096 A 
HETATM   27  N4  UNL     1      22.626  55.099  45.447  1.00  0.00    -0.365 N 
HETATM   28  C24 UNL     1      23.863  55.616  45.508  1.00  0.00     0.043 A 
ATOM     29  H4  UNL     1      21.780  55.633  45.247  1.00  0.00     0.165 HD
HETATM   30  C25 UNL     1      24.427  56.848  45.344  1.00  0.00     0.033 A 
HETATM   31  C29 UNL     1      24.692  54.548  45.802  1.00  0.00     0.001 A 
HETATM   32  C26 UNL     1      25.784  57.082  45.454  1.00  0.00     0.044 A 
HETATM   33  C27 UNL     1      26.630  56.018  45.747  1.00  0.00     0.117 A 
HETATM   34  F1  UNL     1      27.968  56.164  45.871  1.00  0.00    -0.206 F 
HETATM   35  C28 UNL     1      26.054  54.795  45.909  1.00  0.00     0.056 A 
ENDBRANCH  24  25
ENDBRANCH  22  24
ENDBRANCH  17  22
BRANCH   1  36
HETATM   36  C4  UNL     1      26.026  47.205  44.618  1.00  0.00     0.038 C 
BRANCH  36  37
HETATM   37  C2  UNL     1      27.049  46.195  44.399  1.00  0.00    -0.020 C 
HETATM   38  C1  UNL     1      28.456  46.481  44.778  1.00  0.00     0.009 C 
HETATM   39  C3  UNL     1      26.719  44.805  44.912  1.00  0.00     0.009 C 
ENDBRANCH  36  37
ENDBRANCH   1  36
BRANCH   6  40
HETATM   40  C8  UNL     1      20.859  44.036  45.216  1.00  0.00     0.035 C 
BRANCH  40  41
HETATM   41  C9  UNL     1      19.413  44.340  45.205  1.00  0.00     0.002 C 
BRANCH  41  42
HETATM   42  C10 UNL     1      18.744  43.639  44.012  1.00  0.00     0.000 C 
BRANCH  42  43
HETATM   43  C11 UNL     1      17.489  44.349  43.628  1.00  0.00     0.002 C 
BRANCH  43  44
HETATM   44  C12 UNL     1      17.118  44.205  42.203  1.00  0.00     0.026 C 
BRANCH  44  45
HETATM   45  C13 UNL     1      15.918  44.965  41.750  1.00  0.00     0.164 C 
BRANCH  45  46
HETATM   46  O2  UNL     1      14.731  44.286  41.755  1.00  0.00    -0.401 OA
ATOM     47  H2  UNL     1      13.983  44.746  42.119  1.00  0.00     0.209 HD
ENDBRANCH  45  46
ENDBRANCH  44  45
ENDBRANCH  43  44
ENDBRANCH  42  43
ENDBRANCH  41  42
ENDBRANCH  40  41
ENDBRANCH   6  40
TORSDOF 12
ENDMDL
MODEL 4
REMARK VINA RESULT: -6.184711458      2.482      3.818
REMARK  12 active torsions:
REMARK  status: ('A' for Active; 'I' for Inactive)
REMARK    1  A    between atoms: C2_2  and  C4_4 
REMARK    2  A    between atoms: C4_4  and  C5_5 
REMARK    3  A    between atoms: C7_10  and  C8_11 
REMARK    4  A    between atoms: C8_11  and  C9_12 
REMARK    5  A    between atoms: C9_12  and  C10_13 
REMARK    6  A    between atoms: C10_13  and  C11_14 
REMARK    7  A    between atoms: C11_14  and  C12_15 
REMARK    8  A    between atoms: C12_15  and  C13_16 
REMARK    9  A    between atoms: C13_16  and  O2_17 
REMARK   10  A    between atoms: C18_29  and  C19_30 
REMARK   11  A    between atoms: C19_30  and  C21_32 
REMARK   12  A    between atoms: C21_32  and  C22_33 
ROOT
HETATM    1  C5  UNL     1      22.568  44.425  45.044  1.00  0.00     0.177 C 
HETATM    2  N1  UNL     1      24.027  44.350  45.245  1.00  0.00    -0.346 N 
ATOM      3  H1  UNL     1      24.372  43.702  45.953  1.00  0.00     0.163 HD
HETATM    4  C6  UNL     1      24.974  45.098  44.540  1.00  0.00     0.241 C 
HETATM    5  O1  UNL     1      25.929  44.447  43.997  1.00  0.00    -0.271 OA
HETATM    6  C7  UNL     1      25.010  46.566  44.340  1.00  0.00     0.177 C 
HETATM    7  N2  UNL     1      24.618  47.295  45.532  1.00  0.00    -0.343 N 
ATOM      8  H2  UNL     1      24.834  46.829  46.413  1.00  0.00     0.163 HD
HETATM    9  C14 UNL     1      23.989  48.538  45.660  1.00  0.00     0.264 C 
HETATM   10  O3  UNL     1      24.667  49.432  46.297  1.00  0.00    -0.266 OA
HETATM   11  C15 UNL     1      22.652  48.953  45.161  1.00  0.00     0.076 C 
HETATM   12  C16 UNL     1      22.592  49.313  43.734  1.00  0.00     0.074 C 
HETATM   13  N3  UNL     1      21.594  48.147  45.706  1.00  0.00    -0.324 N 
ATOM     14  H3  UNL     1      21.715  47.982  46.705  1.00  0.00     0.169 HD
HETATM   15  C17 UNL     1      20.460  47.541  45.219  1.00  0.00     0.245 C 
HETATM   16  O4  UNL     1      19.374  47.944  45.781  1.00  0.00    -0.271 OA
HETATM   17  C18 UNL     1      20.226  46.524  44.191  1.00  0.00     0.181 C 
HETATM   18  N5  UNL     1      21.360  46.077  43.448  1.00  0.00    -0.346 N 
ATOM     19  H5  UNL     1      21.567  46.595  42.594  1.00  0.00     0.163 HD
HETATM   20  C30 UNL     1      22.229  45.009  43.747  1.00  0.00     0.241 C 
HETATM   21  O5  UNL     1      22.810  44.468  42.748  1.00  0.00    -0.271 OA
ENDROOT
BRANCH  17  22
HETATM   22  C19 UNL     1      19.068  46.806  43.253  1.00  0.00     0.018 C 
HETATM   23  C20 UNL     1      19.030  48.199  42.710  1.00  0.00     0.012 C 
BRANCH  22  24
HETATM   24  C21 UNL     1      18.820  45.776  42.220  1.00  0.00     0.047 C 
BRANCH  24  25
HETATM   25  C22 UNL     1      17.420  45.414  41.945  1.00  0.00    -0.030 A 
HETATM   26  C23 UNL     1      16.830  44.227  42.434  1.00  0.00     0.096 A 
HETATM   27  N4  UNL     1      15.542  44.183  42.065  1.00  0.00    -0.365 N 
HETATM   28  C24 UNL     1      15.223  45.275  41.352  1.00  0.00     0.043 A 
ATOM     29  H4  UNL     1      14.896  43.427  42.294  1.00  0.00     0.165 HD
HETATM   30  C25 UNL     1      14.109  45.754  40.725  1.00  0.00     0.033 A 
HETATM   31  C29 UNL     1      16.385  46.021  41.286  1.00  0.00     0.001 A 
HETATM   32  C26 UNL     1      14.084  46.945  40.027  1.00  0.00     0.044 A 
HETATM   33  C27 UNL     1      15.246  47.705  39.950  1.00  0.00     0.117 A 
HETATM   34  F1  UNL     1      15.304  48.882  39.286  1.00  0.00    -0.206 F 
HETATM   35  C28 UNL     1      16.349  47.217  40.580  1.00  0.00     0.056 A 
ENDBRANCH  24  25
ENDBRANCH  22  24
ENDBRANCH  17  22
BRANCH   1  36
HETATM   36  C4  UNL     1      21.857  43.237  45.490  1.00  0.00     0.038 C 
BRANCH  36  37
HETATM   37  C2  UNL     1      20.517  43.233  46.054  1.00  0.00    -0.020 C 
HETATM   38  C1  UNL     1      20.204  44.114  47.207  1.00  0.00     0.009 C 
HETATM   39  C3  UNL     1      19.384  43.380  45.054  1.00  0.00     0.009 C 
ENDBRANCH  36  37
ENDBRANCH   1  36
BRANCH   6  40
HETATM   40  C8  UNL     1      26.499  46.930  44.106  1.00  0.00     0.035 C 
BRANCH  40  41
HETATM   41  C9  UNL     1      27.390  46.234  45.055  1.00  0.00     0.002 C 
BRANCH  41  42
HETATM   42  C10 UNL     1      28.719  45.891  44.364  1.00  0.00     0.000 C 
BRANCH  42  43
HETATM   43  C11 UNL     1      29.862  46.089  45.304  1.00  0.00     0.002 C 
BRANCH  43  44
HETATM   44  C12 UNL     1      30.207  47.506  45.557  1.00  0.00     0.026 C 
BRANCH  44  45
HETATM   45  C13 UNL     1      30.003  48.000  46.948  1.00  0.00     0.164 C 
BRANCH  45  46
HETATM   46  O2  UNL     1      30.338  49.305  47.184  1.00  0.00    -0.401 OA
ATOM     47  H2  UNL     1      29.940  49.711  47.946  1.00  0.00     0.209 HD
ENDBRANCH  45  46
ENDBRANCH  44  45
ENDBRANCH  43  44
ENDBRANCH  42  43
ENDBRANCH  41  42
ENDBRANCH  40  41
ENDBRANCH   6  40
TORSDOF 12
ENDMDL
MODEL 5
REMARK VINA RESULT: -5.668943347      3.793      8.856
REMARK  12 active torsions:
REMARK  status: ('A' for Active; 'I' for Inactive)
REMARK    1  A    between atoms: C2_2  and  C4_4 
REMARK    2  A    between atoms: C4_4  and  C5_5 
REMARK    3  A    between atoms: C7_10  and  C8_11 
REMARK    4  A    between atoms: C8_11  and  C9_12 
REMARK    5  A    between atoms: C9_12  and  C10_13 
REMARK    6  A    between atoms: C10_13  and  C11_14 
REMARK    7  A    between atoms: C11_14  and  C12_15 
REMARK    8  A    between atoms: C12_15  and  C13_16 
REMARK    9  A    between atoms: C13_16  and  O2_17 
REMARK   10  A    between atoms: C18_29  and  C19_30 
REMARK   11  A    between atoms: C19_30  and  C21_32 
REMARK   12  A    between atoms: C21_32  and  C22_33 
ROOT
HETATM    1  C5  UNL     1      25.297  46.448  44.529  1.00  0.00     0.177 C 
HETATM    2  N1  UNL     1      25.062  45.001  44.367  1.00  0.00    -0.346 N 
ATOM      3  H1  UNL     1      25.734  44.474  43.810  1.00  0.00     0.163 HD
HETATM    4  C6  UNL     1      23.987  44.296  44.917  1.00  0.00     0.241 C 
HETATM    5  O1  UNL     1      24.275  43.252  45.593  1.00  0.00    -0.271 OA
HETATM    6  C7  UNL     1      22.544  44.610  44.815  1.00  0.00     0.177 C 
HETATM    7  N2  UNL     1      22.174  45.086  43.494  1.00  0.00    -0.343 N 
ATOM      8  H2  UNL     1      22.738  44.715  42.729  1.00  0.00     0.163 HD
HETATM    9  C14 UNL     1      21.165  45.974  43.108  1.00  0.00     0.264 C 
HETATM   10  O3  UNL     1      20.277  45.481  42.311  1.00  0.00    -0.266 OA
HETATM   11  C15 UNL     1      20.990  47.398  43.495  1.00  0.00     0.076 C 
HETATM   12  C16 UNL     1      20.383  47.625  44.817  1.00  0.00     0.074 C 
HETATM   13  N3  UNL     1      22.114  48.207  43.111  1.00  0.00    -0.324 N 
ATOM     14  H3  UNL     1      22.436  47.992  42.168  1.00  0.00     0.169 HD
HETATM   15  C17 UNL     1      22.865  49.200  43.696  1.00  0.00     0.245 C 
HETATM   16  O4  UNL     1      22.847  50.313  43.050  1.00  0.00    -0.271 OA
HETATM   17  C18 UNL     1      23.688  49.256  44.906  1.00  0.00     0.181 C 
HETATM   18  N5  UNL     1      23.700  48.097  45.739  1.00  0.00    -0.346 N 
ATOM     19  H5  UNL     1      22.991  48.067  46.473  1.00  0.00     0.163 HD
HETATM   20  C30 UNL     1      24.569  46.989  45.676  1.00  0.00     0.241 C 
HETATM   21  O5  UNL     1      24.751  46.362  46.771  1.00  0.00    -0.271 OA
ENDROOT
BRANCH  17  22
HETATM   22  C19 UNL     1      23.511  50.503  45.752  1.00  0.00     0.018 C 
HETATM   23  C20 UNL     1      23.099  51.721  44.989  1.00  0.00     0.012 C 
BRANCH  22  24
HETATM   24  C21 UNL     1      22.744  50.319  47.004  1.00  0.00     0.047 C 
BRANCH  24  25
HETATM   25  C22 UNL     1      23.404  50.695  48.265  1.00  0.00    -0.030 A 
HETATM   26  C23 UNL     1      24.354  51.737  48.346  1.00  0.00     0.096 A 
HETATM   27  N4  UNL     1      24.752  51.883  49.618  1.00  0.00    -0.365 N 
HETATM   28  C24 UNL     1      24.125  50.996  50.407  1.00  0.00     0.043 A 
ATOM     29  H4  UNL     1      25.433  52.570  49.940  1.00  0.00     0.165 HD
HETATM   30  C25 UNL     1      24.136  50.675  51.734  1.00  0.00     0.033 A 
HETATM   31  C29 UNL     1      23.301  50.273  49.563  1.00  0.00     0.001 A 
HETATM   32  C26 UNL     1      23.368  49.663  52.276  1.00  0.00     0.044 A 
HETATM   33  C27 UNL     1      22.536  48.927  51.439  1.00  0.00     0.117 A 
HETATM   34  F1  UNL     1      21.753  47.921  51.892  1.00  0.00    -0.206 F 
HETATM   35  C28 UNL     1      22.534  49.258  50.119  1.00  0.00     0.056 A 
ENDBRANCH  24  25
ENDBRANCH  22  24
ENDBRANCH  17  22
BRANCH   1  36
HETATM   36  C4  UNL     1      26.683  46.838  44.325  1.00  0.00     0.038 C 
BRANCH  36  37
HETATM   37  C2  UNL     1      27.825  45.949  44.461  1.00  0.00    -0.020 C 
HETATM   38  C1  UNL     1      29.100  46.471  45.013  1.00  0.00     0.009 C 
HETATM   39  C3  UNL     1      27.547  44.624  45.148  1.00  0.00     0.009 C 
ENDBRANCH  36  37
ENDBRANCH   1  36
BRANCH   6  40
HETATM   40  C8  UNL     1      21.798  43.261  44.989  1.00  0.00     0.035 C 
BRANCH  40  41
HETATM   41  C9  UNL     1      20.925  43.267  46.181  1.00  0.00     0.002 C 
BRANCH  41  42
HETATM   42  C10 UNL     1      19.694  44.148  45.918  1.00  0.00     0.000 C 
BRANCH  42  43
HETATM   43  C11 UNL     1      18.963  43.674  44.705  1.00  0.00     0.002 C 
BRANCH  43  44
HETATM   44  C12 UNL     1      17.723  44.423  44.407  1.00  0.00     0.026 C 
BRANCH  44  45
HETATM   45  C13 UNL     1      17.207  44.324  43.012  1.00  0.00     0.164 C 
BRANCH  45  46
HETATM   46  O2  UNL     1      17.941  43.562  42.146  1.00  0.00    -0.401 OA
ATOM     47  H2  UNL     1      17.473  42.874  41.688  1.00  0.00     0.209 HD
ENDBRANCH  45  46
ENDBRANCH  44  45
ENDBRANCH  43  44
ENDBRANCH  42  43
ENDBRANCH  41  42
ENDBRANCH  40  41
ENDBRANCH   6  40
TORSDOF 12
ENDMDL
