MODEL 1
REMARK VINA RESULT: -1.656234449      0.000      0.000
REMARK  12 active torsions:
REMARK  status: ('A' for Active; 'I' for Inactive)
REMARK    1  A    between atoms: C2_2  and  C3_3 
REMARK    2  A    between atoms: C3_3  and  C4_4 
REMARK    3  A    between atoms: C4_4  and  C5_5 
REMARK    4  A    between atoms: C5_5  and  C6_6 
REMARK    5  A    between atoms: C6_6  and  C7_7 
REMARK    6  A    between atoms: C9_12  and  C10_13 
REMARK    7  A    between atoms: C19_27  and  C20_28 
REMARK    8  A    between atoms: C20_28  and  C21_29 
REMARK    9  A    between atoms: C21_29  and  C22_30 
REMARK   10  A    between atoms: C22_30  and  C23_31 
REMARK   11  A    between atoms: C23_31  and  N4_32 
REMARK   12  A    between atoms: C26_41  and  C27_42 
ROOT
HETATM    1  C7  UNL     1      19.256  45.884  44.219  1.00  0.00     0.176 C 
HETATM    2  N1  UNL     1      19.565  46.945  45.161  1.00  0.00    -0.346 N 
ATOM      3  H1  UNL     1      19.198  46.793  46.100  1.00  0.00     0.163 HD
HETATM    4  C8  UNL     1      20.270  48.125  45.008  1.00  0.00     0.245 C 
HETATM    5  O1  UNL     1      19.585  49.209  45.213  1.00  0.00    -0.271 OA
HETATM    6  C9  UNL     1      21.690  48.347  44.646  1.00  0.00     0.212 C 
HETATM    7  N3  UNL     1      22.592  47.669  45.568  1.00  0.00    -0.343 N 
ATOM      8  H3  UNL     1      22.263  47.524  46.523  1.00  0.00     0.163 HD
HETATM    9  C18 UNL     1      23.887  47.196  45.249  1.00  0.00     0.224 C 
HETATM   10  O2  UNL     1      24.885  47.493  45.996  1.00  0.00    -0.273 OA
HETATM   11  C19 UNL     1      24.211  46.348  44.075  1.00  0.00     0.095 C 
HETATM   12  C24 UNL     1      23.976  44.881  44.375  1.00  0.00     0.136 C 
HETATM   13  N5  UNL     1      23.365  44.689  45.669  1.00  0.00    -0.358 N 
ATOM     14  H5  UNL     1      23.924  44.937  46.485  1.00  0.00     0.162 HD
HETATM   15  C25 UNL     1      22.072  44.194  45.907  1.00  0.00     0.240 C 
HETATM   16  O3  UNL     1      21.467  44.587  46.937  1.00  0.00    -0.271 OA
HETATM   17  C26 UNL     1      21.382  43.239  45.028  1.00  0.00     0.180 C 
HETATM   18  N6  UNL     1      19.957  43.457  44.887  1.00  0.00    -0.346 N 
ATOM     19  H6  UNL     1      19.419  42.614  44.685  1.00  0.00     0.163 HD
HETATM   20  C30 UNL     1      19.202  44.607  44.979  1.00  0.00     0.241 C 
HETATM   21  O4  UNL     1      18.267  44.623  45.871  1.00  0.00    -0.271 OA
ENDROOT
BRANCH   6  22
HETATM   22  C10 UNL     1      22.012  49.813  44.870  1.00  0.00     0.002 A 
HETATM   23  C11 UNL     1      21.680  50.819  43.991  1.00  0.00     0.099 A 
HETATM   24  N2  UNL     1      22.111  52.003  44.510  1.00  0.00    -0.365 N 
HETATM   25  C12 UNL     1      22.697  51.733  45.691  1.00  0.00     0.043 A 
ATOM     26  H2  UNL     1      22.008  52.924  44.084  1.00  0.00     0.165 HD
HETATM   27  C13 UNL     1      23.299  52.522  46.635  1.00  0.00     0.030 A 
HETATM   28  C17 UNL     1      22.650  50.372  45.941  1.00  0.00     0.001 A 
HETATM   29  C14 UNL     1      23.843  52.014  47.794  1.00  0.00     0.002 A 
HETATM   30  C15 UNL     1      23.786  50.653  48.025  1.00  0.00     0.001 A 
HETATM   31  C16 UNL     1      23.180  49.827  47.082  1.00  0.00     0.014 A 
ENDBRANCH   6  22
BRANCH   1  32
HETATM   32  C6  UNL     1      20.126  45.890  43.036  1.00  0.00     0.035 C 
BRANCH  32  33
HETATM   33  C5  UNL     1      19.455  45.431  41.758  1.00  0.00     0.002 C 
BRANCH  33  34
HETATM   34  C4  UNL     1      17.990  45.777  41.840  1.00  0.00     0.000 C 
BRANCH  34  35
HETATM   35  C3  UNL     1      17.271  45.604  40.515  1.00  0.00    -0.000 C 
BRANCH  35  36
HETATM   36  C2  UNL     1      16.037  46.468  40.437  1.00  0.00    -0.005 C 
HETATM   37  C1  UNL     1      14.973  46.016  41.411  1.00  0.00     0.005 C 
ENDBRANCH  35  36
ENDBRANCH  34  35
ENDBRANCH  33  34
ENDBRANCH  32  33
ENDBRANCH   1  32
BRANCH  11  38
HETATM   38  C20 UNL     1      25.627  46.556  43.687  1.00  0.00     0.015 C 
BRANCH  38  39
HETATM   39  C21 UNL     1      26.588  45.650  44.427  1.00  0.00     0.002 C 
BRANCH  39  40
HETATM   40  C22 UNL     1      27.953  46.303  44.385  1.00  0.00     0.027 C 
BRANCH  40  41
HETATM   41  C23 UNL     1      28.961  45.441  45.118  1.00  0.00     0.229 C 
BRANCH  41  42
HETATM   42  N4  UNL     1      29.736  46.245  46.030  1.00  0.00    -0.079 N 
ATOM     43  H43 UNL     1      30.585  46.605  45.594  1.00  0.00     0.274 HD
ATOM     44  H42 UNL     1      29.283  47.136  46.232  1.00  0.00     0.274 HD
ATOM     45  H41 UNL     1      29.938  45.719  46.881  1.00  0.00     0.274 HD
ENDBRANCH  41  42
ENDBRANCH  40  41
ENDBRANCH  39  40
ENDBRANCH  38  39
ENDBRANCH  11  38
BRANCH  17  46
HETATM   46  C27 UNL     1      21.635  41.847  45.589  1.00  0.00     0.009 C 
HETATM   47  C28 UNL     1      22.146  40.951  44.499  1.00  0.00     0.012 C 
HETATM   48  C29 UNL     1      22.542  41.823  46.765  1.00  0.00     0.012 C 
ENDBRANCH  17  46
TORSDOF 12
ENDMDL
MODEL 2
REMARK VINA RESULT: -0.718325396      2.839      6.577
REMARK  12 active torsions:
REMARK  status: ('A' for Active; 'I' for Inactive)
REMARK    1  A    between atoms: C2_2  and  C3_3 
REMARK    2  A    between atoms: C3_3  and  C4_4 
REMARK    3  A    between atoms: C4_4  and  C5_5 
REMARK    4  A    between atoms: C5_5  and  C6_6 
REMARK    5  A    between atoms: C6_6  and  C7_7 
REMARK    6  A    between atoms: C9_12  and  C10_13 
REMARK    7  A    between atoms: C19_27  and  C20_28 
REMARK    8  A    between atoms: C20_28  and  C21_29 
REMARK    9  A    between atoms: C21_29  and  C22_30 
REMARK   10  A    between atoms: C22_30  and  C23_31 
REMARK   11  A    between atoms: C23_31  and  N4_32 
REMARK   12  A    between atoms: C26_41  and  C27_42 
ROOT
HETATM    1  C7  UNL     1      21.575  48.280  45.353  1.00  0.00     0.176 C 
HETATM    2  N1  UNL     1      22.619  47.405  45.853  1.00  0.00    -0.346 N 
ATOM      3  H1  UNL     1      22.327  46.796  46.618  1.00  0.00     0.163 HD
HETATM    4  C8  UNL     1      23.940  47.250  45.476  1.00  0.00     0.245 C 
HETATM    5  O1  UNL     1      24.815  47.526  46.395  1.00  0.00    -0.271 OA
HETATM    6  C9  UNL     1      24.517  46.817  44.181  1.00  0.00     0.212 C 
HETATM    7  N3  UNL     1      24.019  45.506  43.782  1.00  0.00    -0.343 N 
ATOM      8  H3  UNL     1      23.741  44.866  44.525  1.00  0.00     0.163 HD
HETATM    9  C18 UNL     1      23.890  45.050  42.449  1.00  0.00     0.224 C 
HETATM   10  O2  UNL     1      24.371  43.912  42.107  1.00  0.00    -0.273 OA
HETATM   11  C19 UNL     1      23.218  45.801  41.360  1.00  0.00     0.095 C 
HETATM   12  C24 UNL     1      21.721  45.559  41.368  1.00  0.00     0.136 C 
HETATM   13  N5  UNL     1      21.310  44.778  42.511  1.00  0.00    -0.358 N 
ATOM     14  H5  UNL     1      21.634  43.812  42.551  1.00  0.00     0.162 HD
HETATM   15  C25 UNL     1      20.506  45.227  43.572  1.00  0.00     0.240 C 
HETATM   16  O3  UNL     1      20.680  44.711  44.706  1.00  0.00    -0.271 OA
HETATM   17  C26 UNL     1      19.470  46.261  43.439  1.00  0.00     0.180 C 
HETATM   18  N6  UNL     1      19.350  47.155  44.573  1.00  0.00    -0.346 N 
ATOM     19  H6  UNL     1      18.417  47.546  44.704  1.00  0.00     0.163 HD
HETATM   20  C30 UNL     1      20.278  47.569  45.504  1.00  0.00     0.241 C 
HETATM   21  O4  UNL     1      20.015  47.316  46.744  1.00  0.00    -0.271 OA
ENDROOT
BRANCH   6  22
HETATM   22  C10 UNL     1      26.001  46.571  44.382  1.00  0.00     0.002 A 
HETATM   23  C11 UNL     1      26.978  47.512  44.146  1.00  0.00     0.099 A 
HETATM   24  N2  UNL     1      28.189  46.957  44.439  1.00  0.00    -0.365 N 
HETATM   25  C12 UNL     1      27.962  45.696  44.849  1.00  0.00     0.043 A 
ATOM     26  H2  UNL     1      29.097  47.413  44.362  1.00  0.00     0.165 HD
HETATM   27  C13 UNL     1      28.791  44.686  45.263  1.00  0.00     0.030 A 
HETATM   28  C17 UNL     1      26.604  45.427  44.824  1.00  0.00     0.001 A 
HETATM   29  C14 UNL     1      28.325  43.448  45.645  1.00  0.00     0.002 A 
HETATM   30  C15 UNL     1      26.967  43.200  45.612  1.00  0.00     0.001 A 
HETATM   31  C16 UNL     1      26.100  44.208  45.195  1.00  0.00     0.014 A 
ENDBRANCH   6  22
BRANCH   1  32
HETATM   32  C6  UNL     1      21.861  48.815  44.015  1.00  0.00     0.035 C 
BRANCH  32  33
HETATM   33  C5  UNL     1      22.554  50.162  44.011  1.00  0.00     0.002 C 
BRANCH  33  34
HETATM   34  C4  UNL     1      21.683  51.147  44.748  1.00  0.00     0.000 C 
BRANCH  34  35
HETATM   35  C3  UNL     1      22.480  52.089  45.631  1.00  0.00    -0.000 C 
BRANCH  35  36
HETATM   36  C2  UNL     1      23.682  51.403  46.231  1.00  0.00    -0.005 C 
HETATM   37  C1  UNL     1      23.362  50.776  47.568  1.00  0.00     0.005 C 
ENDBRANCH  35  36
ENDBRANCH  34  35
ENDBRANCH  33  34
ENDBRANCH  32  33
ENDBRANCH   1  32
BRANCH  11  38
HETATM   38  C20 UNL     1      23.781  45.390  40.052  1.00  0.00     0.015 C 
BRANCH  38  39
HETATM   39  C21 UNL     1      22.733  45.240  38.970  1.00  0.00     0.002 C 
BRANCH  39  40
HETATM   40  C22 UNL     1      23.453  45.223  37.638  1.00  0.00     0.027 C 
BRANCH  40  41
HETATM   41  C23 UNL     1      22.490  45.593  36.527  1.00  0.00     0.229 C 
BRANCH  41  42
HETATM   42  N4  UNL     1      23.219  46.031  35.362  1.00  0.00    -0.079 N 
ATOM     43  H43 UNL     1      22.989  45.476  34.538  1.00  0.00     0.274 HD
ATOM     44  H42 UNL     1      22.892  46.937  35.028  1.00  0.00     0.274 HD
ATOM     45  H41 UNL     1      24.221  46.034  35.553  1.00  0.00     0.274 HD
ENDBRANCH  41  42
ENDBRANCH  40  41
ENDBRANCH  39  40
ENDBRANCH  38  39
ENDBRANCH  11  38
BRANCH  17  46
HETATM   46  C27 UNL     1      18.148  45.545  43.208  1.00  0.00     0.009 C 
HETATM   47  C28 UNL     1      17.866  45.472  41.736  1.00  0.00     0.012 C 
HETATM   48  C29 UNL     1      18.071  44.199  43.831  1.00  0.00     0.012 C 
ENDBRANCH  17  46
TORSDOF 12
ENDMDL
MODEL 3
REMARK VINA RESULT: -0.706159044      3.056      6.057
REMARK  12 active torsions:
REMARK  status: ('A' for Active; 'I' for Inactive)
REMARK    1  A    between atoms: C2_2  and  C3_3 
REMARK    2  A    between atoms: C3_3  and  C4_4 
REMARK    3  A    between atoms: C4_4  and  C5_5 
REMARK    4  A    between atoms: C5_5  and  C6_6 
REMARK    5  A    between atoms: C6_6  and  C7_7 
REMARK    6  A    between atoms: C9_12  and  C10_13 
REMARK    7  A    between atoms: C19_27  and  C20_28 
REMARK    8  A    between atoms: C20_28  and  C21_29 
REMARK    9  A    between atoms: C21_29  and  C22_30 
REMARK   10  A    between atoms: C22_30  and  C23_31 
REMARK   11  A    between atoms: C23_31  and  N4_32 
REMARK   12  A    between atoms: C26_41  and  C27_42 
ROOT
HETATM    1  C7  UNL     1      23.405  48.309  43.126  1.00  0.00     0.176 C 
HETATM    2  N1  UNL     1      22.571  49.463  43.407  1.00  0.00    -0.346 N 
ATOM      3  H1  UNL     1      21.598  49.358  43.120  1.00  0.00     0.163 HD
HETATM    4  C8  UNL     1      22.863  50.679  43.996  1.00  0.00     0.245 C 
HETATM    5  O1  UNL     1      22.689  51.719  43.238  1.00  0.00    -0.271 OA
HETATM    6  C9  UNL     1      23.346  50.983  45.365  1.00  0.00     0.212 C 
HETATM    7  N3  UNL     1      22.446  50.455  46.382  1.00  0.00    -0.343 N 
ATOM      8  H3  UNL     1      21.461  50.361  46.133  1.00  0.00     0.163 HD
HETATM    9  C18 UNL     1      22.826  50.062  47.687  1.00  0.00     0.224 C 
HETATM   10  O2  UNL     1      22.180  50.497  48.706  1.00  0.00    -0.273 OA
HETATM   11  C19 UNL     1      23.954  49.151  48.002  1.00  0.00     0.095 C 
HETATM   12  C24 UNL     1      23.529  47.699  47.913  1.00  0.00     0.136 C 
HETATM   13  N5  UNL     1      22.182  47.564  47.410  1.00  0.00    -0.358 N 
ATOM     14  H5  UNL     1      21.431  47.920  48.001  1.00  0.00     0.162 HD
HETATM   15  C25 UNL     1      21.812  46.988  46.184  1.00  0.00     0.240 C 
HETATM   16  O3  UNL     1      20.772  47.414  45.619  1.00  0.00    -0.271 OA
HETATM   17  C26 UNL     1      22.564  45.914  45.519  1.00  0.00     0.180 C 
HETATM   18  N6  UNL     1      22.613  46.007  44.074  1.00  0.00    -0.346 N 
ATOM     19  H6  UNL     1      22.711  45.110  43.597  1.00  0.00     0.163 HD
HETATM   20  C30 UNL     1      22.551  47.096  43.232  1.00  0.00     0.241 C 
HETATM   21  O4  UNL     1      21.595  47.109  42.362  1.00  0.00    -0.271 OA
ENDROOT
BRANCH   6  22
HETATM   22  C10 UNL     1      23.256  52.483  45.575  1.00  0.00     0.002 A 
HETATM   23  C11 UNL     1      22.073  53.181  45.661  1.00  0.00     0.099 A 
HETATM   24  N2  UNL     1      22.363  54.498  45.860  1.00  0.00    -0.365 N 
HETATM   25  C12 UNL     1      23.703  54.611  45.897  1.00  0.00     0.043 A 
ATOM     26  H2  UNL     1      21.690  55.257  45.961  1.00  0.00     0.165 HD
HETATM   27  C13 UNL     1      24.545  55.679  46.066  1.00  0.00     0.030 A 
HETATM   28  C17 UNL     1      24.287  53.368  45.722  1.00  0.00     0.001 A 
HETATM   29  C14 UNL     1      25.916  55.554  46.068  1.00  0.00     0.002 A 
HETATM   30  C15 UNL     1      26.480  54.305  45.892  1.00  0.00     0.001 A 
HETATM   31  C16 UNL     1      25.648  53.201  45.717  1.00  0.00     0.014 A 
ENDBRANCH   6  22
BRANCH   1  32
HETATM   32  C6  UNL     1      24.647  48.289  43.909  1.00  0.00     0.035 C 
BRANCH  32  33
HETATM   33  C5  UNL     1      25.581  47.142  43.581  1.00  0.00     0.002 C 
BRANCH  33  34
HETATM   34  C4  UNL     1      26.155  46.612  44.870  1.00  0.00     0.000 C 
BRANCH  34  35
HETATM   35  C3  UNL     1      27.250  45.585  44.648  1.00  0.00    -0.000 C 
BRANCH  35  36
HETATM   36  C2  UNL     1      28.578  46.243  44.369  1.00  0.00    -0.005 C 
HETATM   37  C1  UNL     1      29.525  46.114  45.539  1.00  0.00     0.005 C 
ENDBRANCH  35  36
ENDBRANCH  34  35
ENDBRANCH  33  34
ENDBRANCH  32  33
ENDBRANCH   1  32
BRANCH  11  38
HETATM   38  C20 UNL     1      24.461  49.440  49.365  1.00  0.00     0.015 C 
BRANCH  38  39
HETATM   39  C21 UNL     1      24.109  50.828  49.852  1.00  0.00     0.002 C 
BRANCH  39  40
HETATM   40  C22 UNL     1      24.004  50.769  51.361  1.00  0.00     0.027 C 
BRANCH  40  41
HETATM   41  C23 UNL     1      23.738  49.344  51.804  1.00  0.00     0.229 C 
BRANCH  41  42
HETATM   42  N4  UNL     1      22.327  49.055  51.732  1.00  0.00    -0.079 N 
ATOM     43  H43 UNL     1      21.939  49.273  50.815  1.00  0.00     0.274 HD
ATOM     44  H42 UNL     1      22.143  48.052  51.737  1.00  0.00     0.274 HD
ATOM     45  H41 UNL     1      21.829  49.537  52.482  1.00  0.00     0.274 HD
ENDBRANCH  41  42
ENDBRANCH  40  41
ENDBRANCH  39  40
ENDBRANCH  38  39
ENDBRANCH  11  38
BRANCH  17  46
HETATM   46  C27 UNL     1      21.921  44.597  45.926  1.00  0.00     0.009 C 
HETATM   47  C28 UNL     1      20.671  44.379  45.126  1.00  0.00     0.012 C 
HETATM   48  C29 UNL     1      22.827  43.423  45.824  1.00  0.00     0.012 C 
ENDBRANCH  17  46
TORSDOF 12
ENDMDL
MODEL 4
REMARK VINA RESULT: 0.271263054      2.914      5.566
REMARK  12 active torsions:
REMARK  status: ('A' for Active; 'I' for Inactive)
REMARK    1  A    between atoms: C2_2  and  C3_3 
REMARK    2  A    between atoms: C3_3  and  C4_4 
REMARK    3  A    between atoms: C4_4  and  C5_5 
REMARK    4  A    between atoms: C5_5  and  C6_6 
REMARK    5  A    between atoms: C6_6  and  C7_7 
REMARK    6  A    between atoms: C9_12  and  C10_13 
REMARK    7  A    between atoms: C19_27  and  C20_28 
REMARK    8  A    between atoms: C20_28  and  C21_29 
REMARK    9  A    between atoms: C21_29  and  C22_30 
REMARK   10  A    between atoms: C22_30  and  C23_31 
REMARK   11  A    between atoms: C23_31  and  N4_32 
REMARK   12  A    between atoms: C26_41  and  C27_42 
ROOT
HETATM    1  C7  UNL     1      23.298  45.600  46.050  1.00  0.00     0.176 C 
HETATM    2  N1  UNL     1      24.242  46.598  46.519  1.00  0.00    -0.346 N 
ATOM      3  H1  UNL     1      25.200  46.452  46.202  1.00  0.00     0.163 HD
HETATM    4  C8  UNL     1      24.071  47.713  47.319  1.00  0.00     0.245 C 
HETATM    5  O1  UNL     1      24.730  47.698  48.438  1.00  0.00    -0.271 OA
HETATM    6  C9  UNL     1      23.248  48.926  47.099  1.00  0.00     0.212 C 
HETATM    7  N3  UNL     1      23.606  49.600  45.857  1.00  0.00    -0.343 N 
ATOM      8  H3  UNL     1      24.565  49.493  45.526  1.00  0.00     0.163 HD
HETATM    9  C18 UNL     1      22.733  50.390  45.073  1.00  0.00     0.224 C 
HETATM   10  O2  UNL     1      23.089  51.561  44.692  1.00  0.00    -0.273 OA
HETATM   11  C19 UNL     1      21.381  49.969  44.629  1.00  0.00     0.095 C 
HETATM   12  C24 UNL     1      21.452  49.152  43.353  1.00  0.00     0.136 C 
HETATM   13  N5  UNL     1      22.815  48.870  42.971  1.00  0.00    -0.358 N 
ATOM     14  H5  UNL     1      23.390  49.664  42.690  1.00  0.00     0.162 HD
HETATM   15  C25 UNL     1      23.422  47.603  42.951  1.00  0.00     0.240 C 
HETATM   16  O3  UNL     1      24.660  47.537  43.161  1.00  0.00    -0.271 OA
HETATM   17  C26 UNL     1      22.699  46.349  42.697  1.00  0.00     0.180 C 
HETATM   18  N6  UNL     1      23.156  45.212  43.471  1.00  0.00    -0.346 N 
ATOM     19  H6  UNL     1      23.010  44.309  43.020  1.00  0.00     0.163 HD
HETATM   20  C30 UNL     1      23.752  45.141  44.711  1.00  0.00     0.241 C 
HETATM   21  O4  UNL     1      24.917  44.582  44.769  1.00  0.00    -0.271 OA
ENDROOT
BRANCH   6  22
HETATM   22  C10 UNL     1      23.619  49.947  48.159  1.00  0.00     0.002 A 
HETATM   23  C11 UNL     1      24.217  51.158  47.889  1.00  0.00     0.099 A 
HETATM   24  N2  UNL     1      24.396  51.821  49.067  1.00  0.00    -0.365 N 
HETATM   25  C12 UNL     1      23.917  51.033  50.047  1.00  0.00     0.043 A 
ATOM     26  H2  UNL     1      24.816  52.743  49.184  1.00  0.00     0.165 HD
HETATM   27  C13 UNL     1      23.836  51.181  51.406  1.00  0.00     0.030 A 
HETATM   28  C17 UNL     1      23.426  49.856  49.509  1.00  0.00     0.001 A 
HETATM   29  C14 UNL     1      23.293  50.219  52.229  1.00  0.00     0.002 A 
HETATM   30  C15 UNL     1      22.808  49.052  51.674  1.00  0.00     0.001 A 
HETATM   31  C16 UNL     1      22.878  48.874  50.293  1.00  0.00     0.014 A 
ENDBRANCH   6  22
BRANCH   1  32
HETATM   32  C6  UNL     1      21.900  46.041  46.137  1.00  0.00     0.035 C 
BRANCH  32  33
HETATM   33  C5  UNL     1      20.879  44.957  45.859  1.00  0.00     0.002 C 
BRANCH  33  34
HETATM   34  C4  UNL     1      19.842  45.510  44.916  1.00  0.00     0.000 C 
BRANCH  34  35
HETATM   35  C3  UNL     1      19.398  44.501  43.872  1.00  0.00    -0.000 C 
BRANCH  35  36
HETATM   36  C2  UNL     1      17.898  44.352  43.849  1.00  0.00    -0.005 C 
HETATM   37  C1  UNL     1      17.351  44.394  42.440  1.00  0.00     0.005 C 
ENDBRANCH  35  36
ENDBRANCH  34  35
ENDBRANCH  33  34
ENDBRANCH  32  33
ENDBRANCH   1  32
BRANCH  11  38
HETATM   38  C20 UNL     1      20.536  51.167  44.407  1.00  0.00     0.015 C 
BRANCH  38  39
HETATM   39  C21 UNL     1      19.989  51.758  45.688  1.00  0.00     0.002 C 
BRANCH  39  40
HETATM   40  C22 UNL     1      20.296  53.240  45.673  1.00  0.00     0.027 C 
BRANCH  40  41
HETATM   41  C23 UNL     1      21.538  53.519  46.496  1.00  0.00     0.229 C 
BRANCH  41  42
HETATM   42  N4  UNL     1      22.502  54.250  45.712  1.00  0.00    -0.079 N 
ATOM     43  H43 UNL     1      22.164  55.180  45.464  1.00  0.00     0.274 HD
ATOM     44  H42 UNL     1      23.311  54.528  46.266  1.00  0.00     0.274 HD
ATOM     45  H41 UNL     1      22.771  53.710  44.889  1.00  0.00     0.274 HD
ENDBRANCH  41  42
ENDBRANCH  40  41
ENDBRANCH  39  40
ENDBRANCH  38  39
ENDBRANCH  11  38
BRANCH  17  46
HETATM   46  C27 UNL     1      22.836  46.045  41.212  1.00  0.00     0.009 C 
HETATM   47  C28 UNL     1      24.059  45.206  40.981  1.00  0.00     0.012 C 
HETATM   48  C29 UNL     1      21.636  45.410  40.610  1.00  0.00     0.012 C 
ENDBRANCH  17  46
TORSDOF 12
ENDMDL
MODEL 5
REMARK VINA RESULT: 0.502521143      2.535      7.409
REMARK  12 active torsions:
REMARK  status: ('A' for Active; 'I' for Inactive)
REMARK    1  A    between atoms: C2_2  and  C3_3 
REMARK    2  A    between atoms: C3_3  and  C4_4 
REMARK    3  A    between atoms: C4_4  and  C5_5 
REMARK    4  A    between atoms: C5_5  and  C6_6 
REMARK    5  A    between atoms: C6_6  and  C7_7 
REMARK    6  A    between atoms: C9_12  and  C10_13 
REMARK    7  A    between atoms: C19_27  and  C20_28 
REMARK    8  A    between atoms: C20_28  and  C21_29 
REMARK    9  A    between atoms: C21_29  and  C22_30 
REMARK   10  A    between atoms: C22_30  and  C23_31 
REMARK   11  A    between atoms: C23_31  and  N4_32 
REMARK   12  A    between atoms: C26_41  and  C27_42 
ROOT
HETATM    1  C7  UNL     1      21.519  50.010  43.792  1.00  0.00     0.176 C 
HETATM    2  N1  UNL     1      22.616  49.076  43.615  1.00  0.00    -0.346 N 
ATOM      3  H1  UNL     1      23.368  49.419  43.018  1.00  0.00     0.163 HD
HETATM    4  C8  UNL     1      22.821  47.803  44.114  1.00  0.00     0.245 C 
HETATM    5  O1  UNL     1      22.910  46.865  43.220  1.00  0.00    -0.271 OA
HETATM    6  C9  UNL     1      22.955  47.339  45.516  1.00  0.00     0.212 C 
HETATM    7  N3  UNL     1      24.040  48.024  46.207  1.00  0.00    -0.343 N 
ATOM      8  H3  UNL     1      24.819  48.358  45.639  1.00  0.00     0.163 HD
HETATM    9  C18 UNL     1      24.102  48.264  47.600  1.00  0.00     0.224 C 
HETATM   10  O2  UNL     1      25.155  47.954  48.262  1.00  0.00    -0.273 OA
HETATM   11  C19 UNL     1      23.010  48.868  48.403  1.00  0.00     0.095 C 
HETATM   12  C24 UNL     1      23.064  50.383  48.350  1.00  0.00     0.136 C 
HETATM   13  N5  UNL     1      24.068  50.852  47.426  1.00  0.00    -0.358 N 
ATOM     14  H5  UNL     1      25.041  50.661  47.664  1.00  0.00     0.162 HD
HETATM   15  C25 UNL     1      23.828  51.548  46.228  1.00  0.00     0.240 C 
HETATM   16  O3  UNL     1      24.647  51.403  45.285  1.00  0.00    -0.271 OA
HETATM   17  C26 UNL     1      22.680  52.439  46.011  1.00  0.00     0.180 C 
HETATM   18  N6  UNL     1      22.116  52.394  44.676  1.00  0.00    -0.346 N 
ATOM     19  H6  UNL     1      21.666  53.261  44.380  1.00  0.00     0.163 HD
HETATM   20  C30 UNL     1      22.083  51.385  43.739  1.00  0.00     0.241 C 
HETATM   21  O4  UNL     1      22.627  51.633  42.593  1.00  0.00    -0.271 OA
ENDROOT
BRANCH   6  22
HETATM   22  C10 UNL     1      23.423  45.895  45.493  1.00  0.00     0.002 A 
HETATM   23  C11 UNL     1      24.724  45.509  45.260  1.00  0.00     0.099 A 
HETATM   24  N2  UNL     1      24.786  44.149  45.322  1.00  0.00    -0.365 N 
HETATM   25  C12 UNL     1      23.545  43.703  45.590  1.00  0.00     0.043 A 
ATOM     26  H2  UNL     1      25.618  43.575  45.190  1.00  0.00     0.165 HD
HETATM   27  C13 UNL     1      23.021  42.449  45.760  1.00  0.00     0.030 A 
HETATM   28  C17 UNL     1      22.673  44.772  45.702  1.00  0.00     0.001 A 
HETATM   29  C14 UNL     1      21.689  42.228  46.032  1.00  0.00     0.002 A 
HETATM   30  C15 UNL     1      20.835  43.308  46.140  1.00  0.00     0.001 A 
HETATM   31  C16 UNL     1      21.341  44.595  45.971  1.00  0.00     0.014 A 
ENDBRANCH   6  22
BRANCH   1  32
HETATM   32  C6  UNL     1      20.682  49.704  44.959  1.00  0.00     0.035 C 
BRANCH  32  33
HETATM   33  C5  UNL     1      19.388  48.986  44.636  1.00  0.00     0.002 C 
BRANCH  33  34
HETATM   34  C4  UNL     1      19.597  47.509  44.853  1.00  0.00     0.000 C 
BRANCH  34  35
HETATM   35  C3  UNL     1      19.575  46.716  43.559  1.00  0.00    -0.000 C 
BRANCH  35  36
HETATM   36  C2  UNL     1      18.929  45.366  43.747  1.00  0.00    -0.005 C 
HETATM   37  C1  UNL     1      18.026  45.010  42.589  1.00  0.00     0.005 C 
ENDBRANCH  35  36
ENDBRANCH  34  35
ENDBRANCH  33  34
ENDBRANCH  32  33
ENDBRANCH   1  32
BRANCH  11  38
HETATM   38  C20 UNL     1      23.118  48.415  49.810  1.00  0.00     0.015 C 
BRANCH  38  39
HETATM   39  C21 UNL     1      23.286  49.553  50.793  1.00  0.00     0.002 C 
BRANCH  39  40
HETATM   40  C22 UNL     1      22.544  49.176  52.057  1.00  0.00     0.027 C 
BRANCH  40  41
HETATM   41  C23 UNL     1      21.532  48.088  51.757  1.00  0.00     0.229 C 
BRANCH  41  42
HETATM   42  N4  UNL     1      20.783  47.761  52.946  1.00  0.00    -0.079 N 
ATOM     43  H43 UNL     1      21.249  48.091  53.792  1.00  0.00     0.274 HD
ATOM     44  H42 UNL     1      19.928  48.311  53.021  1.00  0.00     0.274 HD
ATOM     45  H41 UNL     1      20.596  46.759  52.980  1.00  0.00     0.274 HD
ENDBRANCH  41  42
ENDBRANCH  40  41
ENDBRANCH  39  40
ENDBRANCH  38  39
ENDBRANCH  11  38
BRANCH  17  46
HETATM   46  C27 UNL     1      23.142  53.854  46.325  1.00  0.00     0.009 C 
HETATM   47  C28 UNL     1      24.642  53.902  46.331  1.00  0.00     0.012 C 
HETATM   48  C29 UNL     1      22.582  54.890  45.419  1.00  0.00     0.012 C 
ENDBRANCH  17  46
TORSDOF 12
ENDMDL
