MODEL 1
REMARK VINA RESULT: -6.022593446      0.000      0.000
REMARK  4 active torsions:
REMARK  status: ('A' for Active; 'I' for Inactive)
REMARK    1  A    between atoms: N1_1  and  S1_4 
REMARK    2  A    between atoms: S1_4  and  N2_7 
REMARK    3  A    between atoms: N2_7  and  C1_9 
REMARK    4  A    between atoms: C3_11  and  O3_12 
ROOT
HETATM    1  C1  UNL     1      31.869   3.030  16.800  1.00  0.00     0.123 C 
HETATM    2  C2  UNL     1      31.525   3.095  18.193  1.00  0.00     0.099 A 
HETATM    3  C3  UNL     1      31.243   4.295  18.812  1.00  0.00     0.161 A 
HETATM    4  N3  UNL     1      30.924   4.309  20.124  1.00  0.00    -0.288 N 
ATOM      5  H3  UNL     1      30.719   5.207  20.562  1.00  0.00     0.172 HD
HETATM    6  C4  UNL     1      30.863   3.202  20.884  1.00  0.00     0.329 A 
HETATM    7  O4  UNL     1      30.556   3.276  22.115  1.00  0.00    -0.247 OA
HETATM    8  N4  UNL     1      31.135   2.026  20.293  1.00  0.00    -0.275 N 
ATOM      9  H4  UNL     1      31.096   1.166  20.841  1.00  0.00     0.173 HD
HETATM   10  C5  UNL     1      31.459   1.965  18.979  1.00  0.00     0.265 A 
HETATM   11  O5  UNL     1      31.716   0.847  18.425  1.00  0.00    -0.267 OA
ENDROOT
BRANCH   1  12
HETATM   12  N2  UNL     1      31.936   4.074  16.046  1.00  0.00    -0.278 N 
ATOM     13  H2  UNL     1      31.922   4.997  16.481  1.00  0.00     0.179 HD
BRANCH  12  14
HETATM   14  S1  UNL     1      32.046   3.965  14.345  1.00  0.00     0.316 S 
HETATM   15  O1  UNL     1      32.752   2.715  13.889  1.00  0.00    -0.183 OA
HETATM   16  O2  UNL     1      32.881   5.135  13.845  1.00  0.00    -0.183 OA
BRANCH  14  17
HETATM   17  N1  UNL     1      30.508   4.107  13.573  1.00  0.00    -0.311 N 
ATOM     18  H12 UNL     1      30.255   4.869  12.944  1.00  0.00     0.170 HD
ATOM     19  H11 UNL     1      29.903   3.329  13.837  1.00  0.00     0.170 HD
ENDBRANCH  14  17
ENDBRANCH  12  14
ENDBRANCH   1  12
BRANCH   3  20
HETATM   20  O3  UNL     1      31.298   5.461  18.052  1.00  0.00    -0.345 OA
ATOM     21  H3  UNL     1      31.121   6.290  18.483  1.00  0.00     0.219 HD
ENDBRANCH   3  20
TORSDOF 4
ENDMDL
MODEL 2
REMARK VINA RESULT: -5.884079027      3.691      5.776
REMARK  4 active torsions:
REMARK  status: ('A' for Active; 'I' for Inactive)
REMARK    1  A    between atoms: N1_1  and  S1_4 
REMARK    2  A    between atoms: S1_4  and  N2_7 
REMARK    3  A    between atoms: N2_7  and  C1_9 
REMARK    4  A    between atoms: C3_11  and  O3_12 
ROOT
HETATM    1  C1  UNL     1      29.393   0.260  18.706  1.00  0.00     0.123 C 
HETATM    2  C2  UNL     1      29.937   1.579  18.871  1.00  0.00     0.099 A 
HETATM    3  C3  UNL     1      29.198   2.600  19.431  1.00  0.00     0.161 A 
HETATM    4  N3  UNL     1      29.750   3.825  19.567  1.00  0.00    -0.288 N 
ATOM      5  H3  UNL     1      29.186   4.565  19.984  1.00  0.00     0.172 HD
HETATM    6  C4  UNL     1      31.003   4.120  19.182  1.00  0.00     0.329 A 
HETATM    7  O4  UNL     1      31.470   5.292  19.335  1.00  0.00    -0.247 OA
HETATM    8  N4  UNL     1      31.735   3.134  18.635  1.00  0.00    -0.275 N 
ATOM      9  H4  UNL     1      32.691   3.324  18.333  1.00  0.00     0.173 HD
HETATM   10  C5  UNL     1      31.221   1.890  18.479  1.00  0.00     0.265 A 
HETATM   11  O5  UNL     1      31.920   0.960  17.960  1.00  0.00    -0.267 OA
ENDROOT
BRANCH   1  12
HETATM   12  N2  UNL     1      28.195  -0.053  19.065  1.00  0.00    -0.278 N 
ATOM     13  H2  UNL     1      27.423   0.138  18.426  1.00  0.00     0.179 HD
BRANCH  12  14
HETATM   14  S1  UNL     1      27.855  -0.776  20.576  1.00  0.00     0.316 S 
HETATM   15  O1  UNL     1      27.601   0.238  21.659  1.00  0.00    -0.183 OA
HETATM   16  O2  UNL     1      29.078  -1.570  21.011  1.00  0.00    -0.183 OA
BRANCH  14  17
HETATM   17  N1  UNL     1      26.553  -1.907  20.488  1.00  0.00    -0.311 N 
ATOM     18  H12 UNL     1      25.666  -1.793  20.978  1.00  0.00     0.170 HD
ATOM     19  H11 UNL     1      26.801  -2.690  19.883  1.00  0.00     0.170 HD
ENDBRANCH  14  17
ENDBRANCH  12  14
ENDBRANCH   1  12
BRANCH   3  20
HETATM   20  O3  UNL     1      27.895   2.327  19.841  1.00  0.00    -0.345 OA
ATOM     21  H3  UNL     1      27.752   2.046  20.737  1.00  0.00     0.219 HD
ENDBRANCH   3  20
TORSDOF 4
ENDMDL
MODEL 3
REMARK VINA RESULT: -5.822102022      1.761      1.820
REMARK  4 active torsions:
REMARK  status: ('A' for Active; 'I' for Inactive)
REMARK    1  A    between atoms: N1_1  and  S1_4 
REMARK    2  A    between atoms: S1_4  and  N2_7 
REMARK    3  A    between atoms: N2_7  and  C1_9 
REMARK    4  A    between atoms: C3_11  and  O3_12 
ROOT
HETATM    1  C1  UNL     1      31.538   1.458  17.853  1.00  0.00     0.123 C 
HETATM    2  C2  UNL     1      30.852   2.222  18.856  1.00  0.00     0.099 A 
HETATM    3  C3  UNL     1      31.152   3.548  19.085  1.00  0.00     0.161 A 
HETATM    4  N3  UNL     1      30.481   4.228  20.040  1.00  0.00    -0.288 N 
ATOM      5  H3  UNL     1      30.719   5.208  20.192  1.00  0.00     0.172 HD
HETATM    6  C4  UNL     1      29.516   3.683  20.799  1.00  0.00     0.329 A 
HETATM    7  O4  UNL     1      28.918   4.372  21.682  1.00  0.00    -0.247 OA
HETATM    8  N4  UNL     1      29.212   2.390  20.586  1.00  0.00    -0.275 N 
ATOM      9  H4  UNL     1      28.484   1.946  21.144  1.00  0.00     0.173 HD
HETATM   10  C5  UNL     1      29.861   1.670  19.639  1.00  0.00     0.265 A 
HETATM   11  O5  UNL     1      29.568   0.445  19.442  1.00  0.00    -0.267 OA
ENDROOT
BRANCH   1  12
HETATM   12  N2  UNL     1      32.468   1.954  17.109  1.00  0.00    -0.278 N 
ATOM     13  H2  UNL     1      33.384   2.134  17.521  1.00  0.00     0.179 HD
BRANCH  12  14
HETATM   14  S1  UNL     1      32.218   2.320  15.459  1.00  0.00     0.316 S 
HETATM   15  O1  UNL     1      33.202   1.625  14.556  1.00  0.00    -0.183 OA
HETATM   16  O2  UNL     1      32.436   3.813  15.263  1.00  0.00    -0.183 OA
BRANCH  14  17
HETATM   17  N1  UNL     1      30.599   1.999  14.950  1.00  0.00    -0.311 N 
ATOM     18  H12 UNL     1      29.981   2.701  14.542  1.00  0.00     0.170 HD
ATOM     19  H11 UNL     1      30.360   1.022  15.117  1.00  0.00     0.170 HD
ENDBRANCH  14  17
ENDBRANCH  12  14
ENDBRANCH   1  12
BRANCH   3  20
HETATM   20  O3  UNL     1      32.148   4.145  18.315  1.00  0.00    -0.345 OA
ATOM     21  H3  UNL     1      32.618   4.886  18.679  1.00  0.00     0.219 HD
ENDBRANCH   3  20
TORSDOF 4
ENDMDL
MODEL 4
REMARK VINA RESULT: -5.783932270      2.327      3.377
REMARK  4 active torsions:
REMARK  status: ('A' for Active; 'I' for Inactive)
REMARK    1  A    between atoms: N1_1  and  S1_4 
REMARK    2  A    between atoms: S1_4  and  N2_7 
REMARK    3  A    between atoms: N2_7  and  C1_9 
REMARK    4  A    between atoms: C3_11  and  O3_12 
ROOT
HETATM    1  C1  UNL     1      31.567   5.211  19.269  1.00  0.00     0.123 C 
HETATM    2  C2  UNL     1      30.922   3.943  19.464  1.00  0.00     0.099 A 
HETATM    3  C3  UNL     1      31.078   2.908  18.566  1.00  0.00     0.161 A 
HETATM    4  N3  UNL     1      30.452   1.732  18.790  1.00  0.00    -0.288 N 
ATOM      5  H3  UNL     1      30.582   0.980  18.113  1.00  0.00     0.172 HD
HETATM    6  C4  UNL     1      29.668   1.500  19.856  1.00  0.00     0.329 A 
HETATM    7  O4  UNL     1      29.105   0.373  20.014  1.00  0.00    -0.247 OA
HETATM    8  N4  UNL     1      29.508   2.500  20.740  1.00  0.00    -0.275 N 
ATOM      9  H4  UNL     1      28.920   2.357  21.561  1.00  0.00     0.173 HD
HETATM   10  C5  UNL     1      30.116   3.697  20.555  1.00  0.00     0.265 A 
HETATM   11  O5  UNL     1      29.960   4.641  21.397  1.00  0.00    -0.267 OA
ENDROOT
BRANCH   1  12
HETATM   12  N2  UNL     1      32.324   5.463  18.256  1.00  0.00    -0.278 N 
ATOM     13  H2  UNL     1      33.235   5.009  18.198  1.00  0.00     0.179 HD
BRANCH  12  14
HETATM   14  S1  UNL     1      31.854   6.532  17.009  1.00  0.00     0.316 S 
HETATM   15  O1  UNL     1      32.833   7.659  16.812  1.00  0.00    -0.183 OA
HETATM   16  O2  UNL     1      30.534   7.176  17.405  1.00  0.00    -0.183 OA
BRANCH  14  17
HETATM   17  N1  UNL     1      31.563   5.715  15.515  1.00  0.00    -0.311 N 
ATOM     18  H12 UNL     1      32.172   5.785  14.700  1.00  0.00     0.170 HD
ATOM     19  H11 UNL     1      30.706   5.164  15.571  1.00  0.00     0.170 HD
ENDBRANCH  14  17
ENDBRANCH  12  14
ENDBRANCH   1  12
BRANCH   3  20
HETATM   20  O3  UNL     1      31.884   3.115  17.449  1.00  0.00    -0.345 OA
ATOM     21  H3  UNL     1      31.648   2.687  16.635  1.00  0.00     0.219 HD
ENDBRANCH   3  20
TORSDOF 4
ENDMDL
MODEL 5
REMARK VINA RESULT: -5.749657607      1.989      2.795
REMARK  4 active torsions:
REMARK  status: ('A' for Active; 'I' for Inactive)
REMARK    1  A    between atoms: N1_1  and  S1_4 
REMARK    2  A    between atoms: S1_4  and  N2_7 
REMARK    3  A    between atoms: N2_7  and  C1_9 
REMARK    4  A    between atoms: C3_11  and  O3_12 
ROOT
HETATM    1  C1  UNL     1      32.017   3.042  18.029  1.00  0.00     0.123 C 
HETATM    2  C2  UNL     1      30.877   2.651  18.810  1.00  0.00     0.099 A 
HETATM    3  C3  UNL     1      30.309   1.400  18.683  1.00  0.00     0.161 A 
HETATM    4  N3  UNL     1      29.237   1.074  19.438  1.00  0.00    -0.288 N 
ATOM      5  H3  UNL     1      28.834   0.144  19.327  1.00  0.00     0.172 HD
HETATM    6  C4  UNL     1      28.675   1.911  20.326  1.00  0.00     0.329 A 
HETATM    7  O4  UNL     1      27.667   1.549  21.009  1.00  0.00    -0.247 OA
HETATM    8  N4  UNL     1      29.218   3.133  20.461  1.00  0.00    -0.275 N 
ATOM      9  H4  UNL     1      28.816   3.792  21.127  1.00  0.00     0.173 HD
HETATM   10  C5  UNL     1      30.294   3.502  19.723  1.00  0.00     0.265 A 
HETATM   11  O5  UNL     1      30.804   4.662  19.856  1.00  0.00    -0.267 OA
ENDROOT
BRANCH   1  12
HETATM   12  N2  UNL     1      32.578   2.261  17.169  1.00  0.00    -0.278 N 
ATOM     13  H2  UNL     1      33.211   1.535  17.504  1.00  0.00     0.179 HD
BRANCH  12  14
HETATM   14  S1  UNL     1      32.297   2.402  15.490  1.00  0.00     0.316 S 
HETATM   15  O1  UNL     1      33.271   1.598  14.670  1.00  0.00    -0.183 OA
HETATM   16  O2  UNL     1      32.500   3.856  15.092  1.00  0.00    -0.183 OA
BRANCH  14  17
HETATM   17  N1  UNL     1      30.672   2.008  15.058  1.00  0.00    -0.311 N 
ATOM     18  H12 UNL     1      29.965   1.696  15.724  1.00  0.00     0.170 HD
ATOM     19  H11 UNL     1      30.529   2.131  14.056  1.00  0.00     0.170 HD
ENDBRANCH  14  17
ENDBRANCH  12  14
ENDBRANCH   1  12
BRANCH   3  20
HETATM   20  O3  UNL     1      30.868   0.508  17.770  1.00  0.00    -0.345 OA
ATOM     21  H3  UNL     1      30.478  -0.354  17.683  1.00  0.00     0.219 HD
ENDBRANCH   3  20
TORSDOF 4
ENDMDL
