MODEL 1
REMARK VINA RESULT: -6.746318198      0.000      0.000
REMARK  4 active torsions:
REMARK  status: ('A' for Active; 'I' for Inactive)
REMARK    1  A    between atoms: O1_2  and  C2_3 
REMARK    2  A    between atoms: C2_3  and  N1_4 
REMARK    3  A    between atoms: C3_7  and  N3_8 
REMARK    4  A    between atoms: N3_8  and  N4_10 
ROOT
HETATM    1  N1  UNL     1      28.963   1.224  19.606  1.00  0.00    -0.250 N 
HETATM    2  N2  UNL     1      28.571   1.959  20.631  1.00  0.00    -0.278 N 
ATOM      3  H2  UNL     1      27.841   1.701  21.295  1.00  0.00     0.189 HD
HETATM    4  C3  UNL     1      29.271   3.083  20.663  1.00  0.00     0.154 A 
HETATM    5  C4  UNL     1      30.151   3.059  19.604  1.00  0.00     0.124 A 
HETATM    6  C5  UNL     1      31.123   3.894  19.094  1.00  0.00     0.267 A 
HETATM    7  O2  UNL     1      31.326   4.977  19.684  1.00  0.00    -0.267 OA
HETATM    8  N5  UNL     1      31.813   3.517  17.992  1.00  0.00    -0.275 N 
ATOM      9  H5  UNL     1      32.531   4.141  17.623  1.00  0.00     0.173 HD
HETATM   10  C6  UNL     1      31.584   2.348  17.369  1.00  0.00     0.328 A 
HETATM   11  O3  UNL     1      32.239   2.037  16.357  1.00  0.00    -0.247 OA
HETATM   12  N6  UNL     1      30.644   1.516  17.843  1.00  0.00    -0.292 N 
ATOM     13  H6  UNL     1      30.460   0.627  17.378  1.00  0.00     0.172 HD
HETATM   14  C7  UNL     1      29.948   1.866  18.934  1.00  0.00     0.148 A 
ENDROOT
BRANCH   4  15
HETATM   15  N3  UNL     1      29.205   4.068  21.494  1.00  0.00    -0.290 N 
ATOM     16  H3  UNL     1      28.484   4.782  21.385  1.00  0.00     0.188 HD
BRANCH  15  17
HETATM   17  N4  UNL     1      30.125   4.154  22.548  1.00  0.00    -0.344 N 
ATOM     18  H42 UNL     1      30.341   3.316  23.087  1.00  0.00     0.176 HD
ATOM     19  H41 UNL     1      30.566   5.048  22.763  1.00  0.00     0.176 HD
ENDBRANCH  15  17
ENDBRANCH   4  15
BRANCH   1  20
HETATM   20  C2  UNL     1      28.386  -0.067  19.302  1.00  0.00     0.317 C 
BRANCH  20  21
HETATM   21  O1  UNL     1      28.826  -1.061  20.169  1.00  0.00    -0.375 OA
HETATM   22  C1  UNL     1      27.679  -1.531  20.838  1.00  0.00     0.203 C 
ENDBRANCH  20  21
ENDBRANCH   1  20
TORSDOF 4
ENDMDL
MODEL 2
REMARK VINA RESULT: -6.128876515      1.387      3.508
REMARK  4 active torsions:
REMARK  status: ('A' for Active; 'I' for Inactive)
REMARK    1  A    between atoms: O1_2  and  C2_3 
REMARK    2  A    between atoms: C2_3  and  N1_4 
REMARK    3  A    between atoms: C3_7  and  N3_8 
REMARK    4  A    between atoms: N3_8  and  N4_10 
ROOT
HETATM    1  N1  UNL     1      29.435   0.897  18.988  1.00  0.00    -0.250 N 
HETATM    2  N2  UNL     1      30.235   0.695  17.957  1.00  0.00    -0.278 N 
ATOM      3  H2  UNL     1      30.219  -0.127  17.353  1.00  0.00     0.189 HD
HETATM    4  C3  UNL     1      31.059   1.723  17.827  1.00  0.00     0.154 A 
HETATM    5  C4  UNL     1      30.768   2.623  18.828  1.00  0.00     0.124 A 
HETATM    6  C5  UNL     1      31.242   3.852  19.236  1.00  0.00     0.267 A 
HETATM    7  O2  UNL     1      32.182   4.356  18.584  1.00  0.00    -0.267 OA
HETATM    8  N5  UNL     1      30.683   4.458  20.309  1.00  0.00    -0.275 N 
ATOM      9  H5  UNL     1      31.040   5.368  20.602  1.00  0.00     0.173 HD
HETATM   10  C6  UNL     1      29.673   3.904  21.000  1.00  0.00     0.328 A 
HETATM   11  O3  UNL     1      29.185   4.493  21.981  1.00  0.00    -0.247 OA
HETATM   12  N6  UNL     1      29.191   2.708  20.626  1.00  0.00    -0.292 N 
ATOM     13  H6  UNL     1      28.425   2.276  21.143  1.00  0.00     0.172 HD
HETATM   14  C7  UNL     1      29.728   2.087  19.565  1.00  0.00     0.148 A 
ENDROOT
BRANCH   4  15
HETATM   15  N3  UNL     1      31.990   1.924  16.956  1.00  0.00    -0.290 N 
ATOM     16  H3  UNL     1      32.893   1.458  17.055  1.00  0.00     0.188 HD
BRANCH  15  17
HETATM   17  N4  UNL     1      31.758   2.783  15.874  1.00  0.00    -0.344 N 
ATOM     18  H42 UNL     1      30.911   3.351  15.864  1.00  0.00     0.176 HD
ATOM     19  H41 UNL     1      32.434   2.832  15.112  1.00  0.00     0.176 HD
ENDBRANCH  15  17
ENDBRANCH   4  15
BRANCH   1  20
HETATM   20  C2  UNL     1      28.418  -0.050  19.389  1.00  0.00     0.317 C 
BRANCH  20  21
HETATM   21  O1  UNL     1      28.674  -0.605  20.637  1.00  0.00    -0.375 OA
HETATM   22  C1  UNL     1      27.696  -1.600  20.829  1.00  0.00     0.203 C 
ENDBRANCH  20  21
ENDBRANCH   1  20
TORSDOF 4
ENDMDL
MODEL 3
REMARK VINA RESULT: -6.124918057      1.875      4.732
REMARK  4 active torsions:
REMARK  status: ('A' for Active; 'I' for Inactive)
REMARK    1  A    between atoms: O1_2  and  C2_3 
REMARK    2  A    between atoms: C2_3  and  N1_4 
REMARK    3  A    between atoms: C3_7  and  N3_8 
REMARK    4  A    between atoms: N3_8  and  N4_10 
ROOT
HETATM    1  N1  UNL     1      31.209   1.842  17.800  1.00  0.00    -0.250 N 
HETATM    2  N2  UNL     1      30.223   1.163  17.243  1.00  0.00    -0.278 N 
ATOM      3  H2  UNL     1      30.251   0.737  16.316  1.00  0.00     0.189 HD
HETATM    4  C3  UNL     1      29.192   1.118  18.073  1.00  0.00     0.154 A 
HETATM    5  C4  UNL     1      29.542   1.805  19.214  1.00  0.00     0.124 A 
HETATM    6  C5  UNL     1      28.942   2.119  20.415  1.00  0.00     0.267 A 
HETATM    7  O2  UNL     1      27.775   1.714  20.604  1.00  0.00    -0.267 OA
HETATM    8  N5  UNL     1      29.626   2.841  21.332  1.00  0.00    -0.275 N 
ATOM      9  H5  UNL     1      29.174   3.067  22.219  1.00  0.00     0.173 HD
HETATM   10  C6  UNL     1      30.882   3.270  21.116  1.00  0.00     0.328 A 
HETATM   11  O3  UNL     1      31.478   3.932  21.984  1.00  0.00    -0.247 OA
HETATM   12  N6  UNL     1      31.491   2.980  19.955  1.00  0.00    -0.292 N 
ATOM     13  H6  UNL     1      32.443   3.300  19.778  1.00  0.00     0.172 HD
HETATM   14  C7  UNL     1      30.834   2.264  19.031  1.00  0.00     0.148 A 
ENDROOT
BRANCH   4  15
HETATM   15  N3  UNL     1      28.039   0.559  17.920  1.00  0.00    -0.290 N 
ATOM     16  H3  UNL     1      27.427   0.848  17.157  1.00  0.00     0.188 HD
BRANCH  15  17
HETATM   17  N4  UNL     1      27.630  -0.448  18.806  1.00  0.00    -0.344 N 
ATOM     18  H42 UNL     1      28.335  -1.045  19.237  1.00  0.00     0.176 HD
ATOM     19  H41 UNL     1      26.638  -0.572  19.009  1.00  0.00     0.176 HD
ENDBRANCH  15  17
ENDBRANCH   4  15
BRANCH   1  20
HETATM   20  C2  UNL     1      32.477   2.066  17.140  1.00  0.00     0.317 C 
BRANCH  20  21
HETATM   21  O1  UNL     1      32.323   2.412  15.802  1.00  0.00    -0.375 OA
HETATM   22  C1  UNL     1      33.325   1.712  15.101  1.00  0.00     0.203 C 
ENDBRANCH  20  21
ENDBRANCH   1  20
TORSDOF 4
ENDMDL
MODEL 4
REMARK VINA RESULT: -5.891644123      1.833      4.087
REMARK  4 active torsions:
REMARK  status: ('A' for Active; 'I' for Inactive)
REMARK    1  A    between atoms: O1_2  and  C2_3 
REMARK    2  A    between atoms: C2_3  and  N1_4 
REMARK    3  A    between atoms: C3_7  and  N3_8 
REMARK    4  A    between atoms: N3_8  and  N4_10 
ROOT
HETATM    1  N1  UNL     1      31.944   2.114  18.143  1.00  0.00    -0.250 N 
HETATM    2  N2  UNL     1      32.305   3.032  19.023  1.00  0.00    -0.278 N 
ATOM      3  H2  UNL     1      33.226   3.467  19.074  1.00  0.00     0.189 HD
HETATM    4  C3  UNL     1      31.286   3.299  19.827  1.00  0.00     0.154 A 
HETATM    5  C4  UNL     1      30.227   2.510  19.437  1.00  0.00     0.124 A 
HETATM    6  C5  UNL     1      28.925   2.313  19.847  1.00  0.00     0.267 A 
HETATM    7  O2  UNL     1      28.515   2.984  20.819  1.00  0.00    -0.267 OA
HETATM    8  N5  UNL     1      28.150   1.417  19.193  1.00  0.00    -0.275 N 
ATOM      9  H5  UNL     1      27.188   1.279  19.503  1.00  0.00     0.173 HD
HETATM   10  C6  UNL     1      28.605   0.702  18.149  1.00  0.00     0.328 A 
HETATM   11  O3  UNL     1      27.862  -0.113  17.574  1.00  0.00    -0.247 OA
HETATM   12  N6  UNL     1      29.869   0.873  17.729  1.00  0.00    -0.292 N 
ATOM     13  H6  UNL     1      30.226   0.337  16.939  1.00  0.00     0.172 HD
HETATM   14  C7  UNL     1      30.656   1.756  18.360  1.00  0.00     0.148 A 
ENDROOT
BRANCH   4  15
HETATM   15  N3  UNL     1      31.216   4.126  20.814  1.00  0.00    -0.290 N 
ATOM     16  H3  UNL     1      31.299   5.130  20.648  1.00  0.00     0.188 HD
BRANCH  15  17
HETATM   17  N4  UNL     1      31.025   3.643  22.115  1.00  0.00    -0.344 N 
ATOM     18  H42 UNL     1      31.624   3.986  22.866  1.00  0.00     0.176 HD
ATOM     19  H41 UNL     1      30.292   2.957  22.298  1.00  0.00     0.176 HD
ENDBRANCH  15  17
ENDBRANCH   4  15
BRANCH   1  20
HETATM   20  C2  UNL     1      32.839   1.611  17.125  1.00  0.00     0.317 C 
BRANCH  20  21
HETATM   21  O1  UNL     1      32.390   1.892  15.839  1.00  0.00    -0.375 OA
HETATM   22  C1  UNL     1      33.529   1.848  15.011  1.00  0.00     0.203 C 
ENDBRANCH  20  21
ENDBRANCH   1  20
TORSDOF 4
ENDMDL
MODEL 5
REMARK VINA RESULT: -5.877788639      6.677      8.971
REMARK  4 active torsions:
REMARK  status: ('A' for Active; 'I' for Inactive)
REMARK    1  A    between atoms: O1_2  and  C2_3 
REMARK    2  A    between atoms: C2_3  and  N1_4 
REMARK    3  A    between atoms: C3_7  and  N3_8 
REMARK    4  A    between atoms: N3_8  and  N4_10 
ROOT
HETATM    1  N1  UNL     1      31.458   7.994  16.294  1.00  0.00    -0.250 N 
HETATM    2  N2  UNL     1      32.367   7.800  15.355  1.00  0.00    -0.278 N 
ATOM      3  H2  UNL     1      32.907   6.944  15.228  1.00  0.00     0.189 HD
HETATM    4  C3  UNL     1      32.468   8.887  14.605  1.00  0.00     0.154 A 
HETATM    5  C4  UNL     1      31.578   9.818  15.094  1.00  0.00     0.124 A 
HETATM    6  C5  UNL     1      31.205  11.106  14.776  1.00  0.00     0.267 A 
HETATM    7  O2  UNL     1      31.771  11.651  13.803  1.00  0.00    -0.267 OA
HETATM    8  N5  UNL     1      30.256  11.726  15.514  1.00  0.00    -0.275 N 
ATOM      9  H5  UNL     1      29.986  12.680  15.270  1.00  0.00     0.173 HD
HETATM   10  C6  UNL     1      29.656  11.128  16.558  1.00  0.00     0.328 A 
HETATM   11  O3  UNL     1      28.787  11.731  17.213  1.00  0.00    -0.247 OA
HETATM   12  N6  UNL     1      29.999   9.874  16.891  1.00  0.00    -0.292 N 
ATOM     13  H6  UNL     1      29.551   9.409  17.681  1.00  0.00     0.172 HD
HETATM   14  C7  UNL     1      30.936   9.238  16.174  1.00  0.00     0.148 A 
ENDROOT
BRANCH   4  15
HETATM   15  N3  UNL     1      33.230   9.115  13.590  1.00  0.00    -0.290 N 
ATOM     16  H3  UNL     1      34.216   9.338  13.730  1.00  0.00     0.188 HD
BRANCH  15  17
HETATM   17  N4  UNL     1      32.700   9.056  12.294  1.00  0.00    -0.344 N 
ATOM     18  H42 UNL     1      31.719   8.808  12.169  1.00  0.00     0.176 HD
ATOM     19  H41 UNL     1      33.298   9.261  11.492  1.00  0.00     0.176 HD
ENDBRANCH  15  17
ENDBRANCH   4  15
BRANCH   1  20
HETATM   20  C2  UNL     1      31.117   6.987  17.274  1.00  0.00     0.317 C 
BRANCH  20  21
HETATM   21  O1  UNL     1      32.080   6.871  18.271  1.00  0.00    -0.375 OA
HETATM   22  C1  UNL     1      31.972   5.556  18.766  1.00  0.00     0.203 C 
ENDBRANCH  20  21
ENDBRANCH   1  20
TORSDOF 4
ENDMDL
