MODEL 1
REMARK VINA RESULT: -5.779349308      0.000      0.000
REMARK  5 active torsions:
REMARK  status: ('A' for Active; 'I' for Inactive)
REMARK    1  A    between atoms: N1_1  and  C1_4 
REMARK    2  A    between atoms: N5_14  and  C4_15 
REMARK    3  A    between atoms: C4_15  and  C5_16 
REMARK    4  A    between atoms: C5_16  and  N6_17 
REMARK    5  A    between atoms: C7_22  and  N7_23 
ROOT
HETATM    1  C1  UNL     1      30.053  10.762  16.089  1.00  0.00     0.680 C 
HETATM    2  N2  UNL     1      31.018  11.409  15.376  1.00  0.00    -0.154 N 
ATOM      3  H2  UNL     1      30.884  12.415  15.270  1.00  0.00     0.187 HD
HETATM    4  C2  UNL     1      32.106  10.917  14.799  1.00  0.00     0.290 C 
HETATM    5  O1  UNL     1      32.952  11.733  14.319  1.00  0.00    -0.265 OA
HETATM    6  C3  UNL     1      32.435   9.584  14.657  1.00  0.00     0.150 A 
HETATM    7  N3  UNL     1      33.285   9.080  13.789  1.00  0.00    -0.279 N 
ATOM      8  H3  UNL     1      33.818   9.613  13.101  1.00  0.00     0.189 HD
HETATM    9  N4  UNL     1      33.335   7.790  13.951  1.00  0.00    -0.239 N 
ATOM     10  H4  UNL     1      33.922   7.166  13.398  1.00  0.00     0.208 HD
HETATM   11  N5  UNL     1      32.512   7.376  14.943  1.00  0.00    -0.270 N 
HETATM   12  C6  UNL     1      31.942   8.495  15.393  1.00  0.00     0.130 A 
HETATM   13  C7  UNL     1      31.012   8.554  16.409  1.00  0.00     0.145 C 
HETATM   14  N8  UNL     1      30.066   9.508  16.581  1.00  0.00    -0.175 N 
ATOM     15  H8  UNL     1      29.264   9.243  17.153  1.00  0.00     0.186 HD
ENDROOT
BRANCH  11  16
HETATM   16  C4  UNL     1      32.356   6.006  15.366  1.00  0.00     0.178 C 
BRANCH  16  17
HETATM   17  C5  UNL     1      32.377   5.141  14.109  1.00  0.00     0.251 C 
BRANCH  17  18
HETATM   18  N6  UNL     1      31.101   4.510  13.883  1.00  0.00    -0.078 N 
ATOM     19  H63 UNL     1      31.210   3.537  13.602  1.00  0.00     0.274 HD
ATOM     20  H62 UNL     1      30.595   4.366  14.756  1.00  0.00     0.274 HD
ATOM     21  H61 UNL     1      30.542   5.034  13.209  1.00  0.00     0.274 HD
ENDBRANCH  17  18
ENDBRANCH  16  17
ENDBRANCH  11  16
BRANCH  13  22
HETATM   22  N7  UNL     1      31.075   7.612  17.251  1.00  0.00    -0.383 N 
ATOM     23  H72 UNL     1      30.950   7.836  18.238  1.00  0.00     0.157 HD
ATOM     24  H71 UNL     1      31.250   6.688  16.855  1.00  0.00     0.157 HD
ENDBRANCH  13  22
BRANCH   1  25
HETATM   25  N1  UNL     1      28.970  11.411  16.345  1.00  0.00    -0.234 N 
ATOM     26  H12 UNL     1      28.755  11.478  17.340  1.00  0.00     0.174 HD
ATOM     27  H11 UNL     1      28.448  11.784  15.553  1.00  0.00     0.174 HD
ENDBRANCH   1  25
TORSDOF 5
ENDMDL
MODEL 2
REMARK VINA RESULT: -5.580057510      6.807      8.972
REMARK  5 active torsions:
REMARK  status: ('A' for Active; 'I' for Inactive)
REMARK    1  A    between atoms: N1_1  and  C1_4 
REMARK    2  A    between atoms: N5_14  and  C4_15 
REMARK    3  A    between atoms: C4_15  and  C5_16 
REMARK    4  A    between atoms: C5_16  and  N6_17 
REMARK    5  A    between atoms: C7_22  and  N7_23 
ROOT
HETATM    1  C1  UNL     1      31.648   2.373  17.159  1.00  0.00     0.680 C 
HETATM    2  N2  UNL     1      31.727   3.455  17.985  1.00  0.00    -0.154 N 
ATOM      3  H2  UNL     1      32.401   4.168  17.708  1.00  0.00     0.187 HD
HETATM    4  C2  UNL     1      31.053   3.711  19.098  1.00  0.00     0.290 C 
HETATM    5  O1  UNL     1      31.175   4.861  19.622  1.00  0.00    -0.265 OA
HETATM    6  C3  UNL     1      30.209   2.850  19.769  1.00  0.00     0.150 A 
HETATM    7  N3  UNL     1      29.842   2.945  21.029  1.00  0.00    -0.279 N 
ATOM      8  H3  UNL     1      30.134   3.674  21.680  1.00  0.00     0.189 HD
HETATM    9  N4  UNL     1      29.045   1.955  21.309  1.00  0.00    -0.239 N 
ATOM     10  H4  UNL     1      28.622   1.804  22.224  1.00  0.00     0.208 HD
HETATM   11  N5  UNL     1      28.846   1.151  20.238  1.00  0.00    -0.270 N 
HETATM   12  C6  UNL     1      29.572   1.704  19.266  1.00  0.00     0.130 A 
HETATM   13  C7  UNL     1      29.681   1.212  17.983  1.00  0.00     0.145 C 
HETATM   14  N8  UNL     1      30.719   1.398  17.134  1.00  0.00    -0.175 N 
ATOM     15  H8  UNL     1      30.809   0.714  16.381  1.00  0.00     0.186 HD
ENDROOT
BRANCH  11  16
HETATM   16  C4  UNL     1      28.004  -0.019  20.232  1.00  0.00     0.178 C 
BRANCH  16  17
HETATM   17  C5  UNL     1      28.830  -1.171  20.799  1.00  0.00     0.251 C 
BRANCH  17  18
HETATM   18  N6  UNL     1      28.020  -2.343  21.015  1.00  0.00    -0.078 N 
ATOM     19  H63 UNL     1      27.051  -2.183  20.742  1.00  0.00     0.274 HD
ATOM     20  H62 UNL     1      28.250  -3.084  20.353  1.00  0.00     0.274 HD
ATOM     21  H61 UNL     1      28.088  -2.670  21.979  1.00  0.00     0.274 HD
ENDBRANCH  17  18
ENDBRANCH  16  17
ENDBRANCH  11  16
BRANCH  13  22
HETATM   22  N7  UNL     1      28.697   0.523  17.587  1.00  0.00    -0.383 N 
ATOM     23  H72 UNL     1      28.565  -0.406  17.984  1.00  0.00     0.157 HD
ATOM     24  H71 UNL     1      28.108   0.972  16.884  1.00  0.00     0.157 HD
ENDBRANCH  13  22
BRANCH   1  25
HETATM   25  N1  UNL     1      32.572   2.236  16.272  1.00  0.00    -0.234 N 
ATOM     26  H12 UNL     1      32.676   3.042  15.657  1.00  0.00     0.174 HD
ATOM     27  H11 UNL     1      33.095   1.360  16.269  1.00  0.00     0.174 HD
ENDBRANCH   1  25
TORSDOF 5
ENDMDL
MODEL 3
REMARK VINA RESULT: -5.577785310      5.715      7.552
REMARK  5 active torsions:
REMARK  status: ('A' for Active; 'I' for Inactive)
REMARK    1  A    between atoms: N1_1  and  C1_4 
REMARK    2  A    between atoms: N5_14  and  C4_15 
REMARK    3  A    between atoms: C4_15  and  C5_16 
REMARK    4  A    between atoms: C5_16  and  N6_17 
REMARK    5  A    between atoms: C7_22  and  N7_23 
ROOT
HETATM    1  C1  UNL     1      28.851   1.652  20.113  1.00  0.00     0.680 C 
HETATM    2  N2  UNL     1      29.158   2.829  20.729  1.00  0.00    -0.154 N 
ATOM      3  H2  UNL     1      28.648   3.017  21.592  1.00  0.00     0.187 HD
HETATM    4  C2  UNL     1      30.026   3.764  20.365  1.00  0.00     0.290 C 
HETATM    5  O1  UNL     1      30.265   4.709  21.179  1.00  0.00    -0.265 OA
HETATM    6  C3  UNL     1      30.718   3.831  19.174  1.00  0.00     0.150 A 
HETATM    7  N3  UNL     1      31.272   4.905  18.654  1.00  0.00    -0.279 N 
ATOM      8  H3  UNL     1      31.263   5.837  19.067  1.00  0.00     0.189 HD
HETATM    9  N4  UNL     1      31.832   4.582  17.524  1.00  0.00    -0.239 N 
ATOM     10  H4  UNL     1      32.330   5.240  16.925  1.00  0.00     0.208 HD
HETATM   11  N5  UNL     1      31.674   3.268  17.241  1.00  0.00    -0.270 N 
HETATM   12  C6  UNL     1      30.976   2.787  18.270  1.00  0.00     0.130 A 
HETATM   13  C7  UNL     1      30.569   1.476  18.405  1.00  0.00     0.145 C 
HETATM   14  N8  UNL     1      29.499   1.033  19.107  1.00  0.00    -0.175 N 
ATOM     15  H8  UNL     1      29.138   0.116  18.840  1.00  0.00     0.186 HD
ENDROOT
BRANCH  11  16
HETATM   16  C4  UNL     1      32.193   2.610  16.067  1.00  0.00     0.178 C 
BRANCH  16  17
HETATM   17  C5  UNL     1      32.249   3.653  14.954  1.00  0.00     0.251 C 
BRANCH  17  18
HETATM   18  N6  UNL     1      31.046   3.640  14.160  1.00  0.00    -0.078 N 
ATOM     19  H63 UNL     1      30.259   4.043  14.668  1.00  0.00     0.274 HD
ATOM     20  H62 UNL     1      31.097   4.311  13.394  1.00  0.00     0.274 HD
ATOM     21  H61 UNL     1      30.832   2.702  13.823  1.00  0.00     0.274 HD
ENDBRANCH  17  18
ENDBRANCH  16  17
ENDBRANCH  11  16
BRANCH  13  22
HETATM   22  N7  UNL     1      31.287   0.626  17.805  1.00  0.00    -0.383 N 
ATOM     23  H72 UNL     1      31.950   0.960  17.105  1.00  0.00     0.157 HD
ATOM     24  H71 UNL     1      31.134  -0.344  18.081  1.00  0.00     0.157 HD
ENDBRANCH  13  22
BRANCH   1  25
HETATM   25  N1  UNL     1      27.806   1.022  20.525  1.00  0.00    -0.234 N 
ATOM     26  H12 UNL     1      27.999   0.336  21.254  1.00  0.00     0.174 HD
ATOM     27  H11 UNL     1      26.912   1.263  20.096  1.00  0.00     0.174 HD
ENDBRANCH   1  25
TORSDOF 5
ENDMDL
MODEL 4
REMARK VINA RESULT: -5.524918073      1.154      1.396
REMARK  5 active torsions:
REMARK  status: ('A' for Active; 'I' for Inactive)
REMARK    1  A    between atoms: N1_1  and  C1_4 
REMARK    2  A    between atoms: N5_14  and  C4_15 
REMARK    3  A    between atoms: C4_15  and  C5_16 
REMARK    4  A    between atoms: C5_16  and  N6_17 
REMARK    5  A    between atoms: C7_22  and  N7_23 
ROOT
HETATM    1  C1  UNL     1      30.552   9.449  16.509  1.00  0.00     0.680 C 
HETATM    2  N2  UNL     1      31.412  10.089  15.667  1.00  0.00    -0.154 N 
ATOM      3  H2  UNL     1      31.346  11.107  15.664  1.00  0.00     0.187 HD
HETATM    4  C2  UNL     1      32.324   9.577  14.851  1.00  0.00     0.290 C 
HETATM    5  O1  UNL     1      33.128  10.373  14.274  1.00  0.00    -0.265 OA
HETATM    6  C3  UNL     1      32.506   8.243  14.549  1.00  0.00     0.150 A 
HETATM    7  N3  UNL     1      33.127   7.761  13.494  1.00  0.00    -0.279 N 
ATOM      8  H3  UNL     1      33.560   8.315  12.755  1.00  0.00     0.189 HD
HETATM    9  N4  UNL     1      33.097   6.461  13.548  1.00  0.00    -0.239 N 
ATOM     10  H4  UNL     1      33.512   5.851  12.844  1.00  0.00     0.208 HD
HETATM   11  N5  UNL     1      32.449   6.018  14.650  1.00  0.00    -0.270 N 
HETATM   12  C6  UNL     1      32.073   7.129  15.286  1.00  0.00     0.130 A 
HETATM   13  C7  UNL     1      31.365   7.161  16.468  1.00  0.00     0.145 C 
HETATM   14  N8  UNL     1      30.553   8.158  16.894  1.00  0.00    -0.175 N 
ATOM     15  H8  UNL     1      29.856   7.900  17.593  1.00  0.00     0.186 HD
ENDROOT
BRANCH  11  16
HETATM   16  C4  UNL     1      32.262   4.630  14.994  1.00  0.00     0.178 C 
BRANCH  16  17
HETATM   17  C5  UNL     1      31.800   3.911  13.730  1.00  0.00     0.251 C 
BRANCH  17  18
HETATM   18  N6  UNL     1      30.395   4.126  13.486  1.00  0.00    -0.078 N 
ATOM     19  H63 UNL     1      29.819   3.484  14.030  1.00  0.00     0.274 HD
ATOM     20  H62 UNL     1      30.076   5.006  13.892  1.00  0.00     0.274 HD
ATOM     21  H61 UNL     1      30.177   4.073  12.491  1.00  0.00     0.274 HD
ENDBRANCH  17  18
ENDBRANCH  16  17
ENDBRANCH  11  16
BRANCH  13  22
HETATM   22  N7  UNL     1      31.508   6.146  17.209  1.00  0.00    -0.383 N 
ATOM     23  H72 UNL     1      30.756   5.458  17.237  1.00  0.00     0.157 HD
ATOM     24  H71 UNL     1      32.386   6.107  17.727  1.00  0.00     0.157 HD
ENDBRANCH  13  22
BRANCH   1  25
HETATM   25  N1  UNL     1      29.598  10.145  17.022  1.00  0.00    -0.234 N 
ATOM     26  H12 UNL     1      28.973  10.562  16.332  1.00  0.00     0.174 HD
ATOM     27  H11 UNL     1      29.558  10.211  18.039  1.00  0.00     0.174 HD
ENDBRANCH   1  25
TORSDOF 5
ENDMDL
MODEL 5
REMARK VINA RESULT: -5.485646169      5.038      7.075
REMARK  5 active torsions:
REMARK  status: ('A' for Active; 'I' for Inactive)
REMARK    1  A    between atoms: N1_1  and  C1_4 
REMARK    2  A    between atoms: N5_14  and  C4_15 
REMARK    3  A    between atoms: C4_15  and  C5_16 
REMARK    4  A    between atoms: C5_16  and  N6_17 
REMARK    5  A    between atoms: C7_22  and  N7_23 
ROOT
HETATM    1  C1  UNL     1      32.135   4.143  14.353  1.00  0.00     0.680 C 
HETATM    2  N2  UNL     1      32.808   2.960  14.440  1.00  0.00    -0.154 N 
ATOM      3  H2  UNL     1      33.238   2.637  13.573  1.00  0.00     0.187 HD
HETATM    4  C2  UNL     1      32.982   2.169  15.491  1.00  0.00     0.290 C 
HETATM    5  O1  UNL     1      33.783   1.191  15.378  1.00  0.00    -0.265 OA
HETATM    6  C3  UNL     1      32.378   2.291  16.725  1.00  0.00     0.150 A 
HETATM    7  N3  UNL     1      32.246   1.340  17.625  1.00  0.00    -0.279 N 
ATOM      8  H3  UNL     1      32.577   0.380  17.527  1.00  0.00     0.189 HD
HETATM    9  N4  UNL     1      31.624   1.825  18.660  1.00  0.00    -0.239 N 
ATOM     10  H4  UNL     1      31.399   1.286  19.496  1.00  0.00     0.208 HD
HETATM   11  N5  UNL     1      31.312   3.132  18.492  1.00  0.00    -0.270 N 
HETATM   12  C6  UNL     1      31.781   3.434  17.281  1.00  0.00     0.130 A 
HETATM   13  C7  UNL     1      31.677   4.671  16.679  1.00  0.00     0.145 C 
HETATM   14  N8  UNL     1      31.666   4.921  15.349  1.00  0.00    -0.175 N 
ATOM     15  H8  UNL     1      31.252   5.809  15.064  1.00  0.00     0.186 HD
ENDROOT
BRANCH  11  16
HETATM   16  C4  UNL     1      30.632   3.948  19.467  1.00  0.00     0.178 C 
BRANCH  16  17
HETATM   17  C5  UNL     1      29.779   3.014  20.321  1.00  0.00     0.251 C 
BRANCH  17  18
HETATM   18  N6  UNL     1      28.430   2.930  19.821  1.00  0.00    -0.078 N 
ATOM     19  H63 UNL     1      27.803   3.551  20.332  1.00  0.00     0.274 HD
ATOM     20  H62 UNL     1      28.347   3.350  18.895  1.00  0.00     0.274 HD
ATOM     21  H61 UNL     1      28.089   1.968  19.826  1.00  0.00     0.274 HD
ENDBRANCH  17  18
ENDBRANCH  16  17
ENDBRANCH  11  16
BRANCH  13  22
HETATM   22  N7  UNL     1      31.586   5.649  17.475  1.00  0.00    -0.383 N 
ATOM     23  H72 UNL     1      30.792   5.682  18.114  1.00  0.00     0.157 HD
ATOM     24  H71 UNL     1      32.336   6.338  17.403  1.00  0.00     0.157 HD
ENDBRANCH  13  22
BRANCH   1  25
HETATM   25  N1  UNL     1      31.900   4.606  13.175  1.00  0.00    -0.234 N 
ATOM     26  H12 UNL     1      31.852   5.624  13.134  1.00  0.00     0.174 HD
ATOM     27  H11 UNL     1      31.788   3.932  12.418  1.00  0.00     0.174 HD
ENDBRANCH   1  25
TORSDOF 5
ENDMDL
