MODEL 1
REMARK VINA RESULT: -6.514845215      0.000      0.000
REMARK  3 active torsions:
REMARK  status: ('A' for Active; 'I' for Inactive)
REMARK    1  A    between atoms: C2_3  and  N2_4 
REMARK    2  A    between atoms: N2_4  and  S1_6 
REMARK    3  A    between atoms: S1_6  and  N3_7 
ROOT
HETATM    1  N1  UNL     1      30.472   4.140  20.922  1.00  0.00    -0.092 NA
HETATM    2  C1  UNL     1      30.942   3.714  19.659  1.00  0.00     0.159 A 
HETATM    3  C2  UNL     1      30.794   2.372  19.321  1.00  0.00     0.150 A 
HETATM    4  N4  UNL     1      31.251   2.022  18.122  1.00  0.00    -0.292 N 
ATOM      5  H4  UNL     1      31.161   1.047  17.835  1.00  0.00     0.172 HD
HETATM    6  C3  UNL     1      31.828   2.887  17.269  1.00  0.00     0.328 A 
HETATM    7  O3  UNL     1      32.248   2.503  16.138  1.00  0.00    -0.247 OA
HETATM    8  N5  UNL     1      31.968   4.185  17.605  1.00  0.00    -0.274 N 
ATOM      9  H5  UNL     1      32.406   4.834  16.951  1.00  0.00     0.173 HD
HETATM   10  C4  UNL     1      31.533   4.628  18.798  1.00  0.00     0.277 A 
HETATM   11  O4  UNL     1      31.669   5.840  19.102  1.00  0.00    -0.266 OA
ENDROOT
BRANCH   3  12
HETATM   12  N2  UNL     1      30.181   1.484  20.242  1.00  0.00    -0.251 N 
ATOM     13  H2  UNL     1      30.713   1.211  21.068  1.00  0.00     0.182 HD
BRANCH  12  14
HETATM   14  S1  UNL     1      28.605   0.843  20.056  1.00  0.00     0.318 S 
HETATM   15  O1  UNL     1      27.617   1.577  20.927  1.00  0.00    -0.183 OA
HETATM   16  O2  UNL     1      28.624  -0.578  20.524  1.00  0.00    -0.183 OA
BRANCH  14  17
HETATM   17  N3  UNL     1      28.144   0.988  18.398  1.00  0.00    -0.311 N 
ATOM     18  H32 UNL     1      27.285   1.428  18.068  1.00  0.00     0.170 HD
ATOM     19  H31 UNL     1      28.870   0.564  17.821  1.00  0.00     0.170 HD
ENDBRANCH  14  17
ENDBRANCH  12  14
ENDBRANCH   3  12
TORSDOF 3
ENDMDL
MODEL 2
REMARK VINA RESULT: -6.409802177      2.242      4.169
REMARK  3 active torsions:
REMARK  status: ('A' for Active; 'I' for Inactive)
REMARK    1  A    between atoms: C2_3  and  N2_4 
REMARK    2  A    between atoms: N2_4  and  S1_6 
REMARK    3  A    between atoms: S1_6  and  N3_7 
ROOT
HETATM    1  N1  UNL     1      31.526   5.262  19.417  1.00  0.00    -0.092 NA
HETATM    2  C1  UNL     1      30.932   3.996  19.622  1.00  0.00     0.159 A 
HETATM    3  C2  UNL     1      31.132   3.012  18.658  1.00  0.00     0.150 A 
HETATM    4  N4  UNL     1      30.553   1.839  18.897  1.00  0.00    -0.292 N 
ATOM      5  H4  UNL     1      30.676   1.090  18.215  1.00  0.00     0.172 HD
HETATM    6  C3  UNL     1      29.813   1.589  19.991  1.00  0.00     0.328 A 
HETATM    7  O3  UNL     1      29.282   0.454  20.173  1.00  0.00    -0.247 OA
HETATM    8  N5  UNL     1      29.624   2.548  20.920  1.00  0.00    -0.274 N 
ATOM      9  H5  UNL     1      29.061   2.349  21.748  1.00  0.00     0.173 HD
HETATM   10  C4  UNL     1      30.173   3.765  20.761  1.00  0.00     0.277 A 
HETATM   11  O4  UNL     1      29.990   4.652  21.632  1.00  0.00    -0.266 OA
ENDROOT
BRANCH   3  12
HETATM   12  N2  UNL     1      31.918   3.307  17.514  1.00  0.00    -0.251 N 
ATOM     13  H2  UNL     1      32.300   4.248  17.427  1.00  0.00     0.182 HD
BRANCH  12  14
HETATM   14  S1  UNL     1      32.266   2.183  16.272  1.00  0.00     0.318 S 
HETATM   15  O1  UNL     1      31.004   1.544  15.751  1.00  0.00    -0.183 OA
HETATM   16  O2  UNL     1      33.098   1.085  16.858  1.00  0.00    -0.183 OA
BRANCH  14  17
HETATM   17  N3  UNL     1      33.074   3.012  14.990  1.00  0.00    -0.311 N 
ATOM     18  H32 UNL     1      32.672   3.198  14.071  1.00  0.00     0.170 HD
ATOM     19  H31 UNL     1      34.005   3.277  15.311  1.00  0.00     0.170 HD
ENDBRANCH  14  17
ENDBRANCH  12  14
ENDBRANCH   3  12
TORSDOF 3
ENDMDL
MODEL 3
REMARK VINA RESULT: -6.405625234      2.231      4.327
REMARK  3 active torsions:
REMARK  status: ('A' for Active; 'I' for Inactive)
REMARK    1  A    between atoms: C2_3  and  N2_4 
REMARK    2  A    between atoms: N2_4  and  S1_6 
REMARK    3  A    between atoms: S1_6  and  N3_7 
ROOT
HETATM    1  N1  UNL     1      31.656   5.287  19.283  1.00  0.00    -0.092 NA
HETATM    2  C1  UNL     1      31.010   4.036  19.400  1.00  0.00     0.159 A 
HETATM    3  C2  UNL     1      31.130   3.133  18.347  1.00  0.00     0.150 A 
HETATM    4  N4  UNL     1      30.504   1.970  18.505  1.00  0.00    -0.292 N 
ATOM      5  H4  UNL     1      30.568   1.280  17.757  1.00  0.00     0.172 HD
HETATM    6  C3  UNL     1      29.790   1.659  19.602  1.00  0.00     0.328 A 
HETATM    7  O3  UNL     1      29.212   0.537  19.704  1.00  0.00    -0.247 OA
HETATM    8  N5  UNL     1      29.679   2.539  20.617  1.00  0.00    -0.274 N 
ATOM      9  H5  UNL     1      29.137   2.293  21.445  1.00  0.00     0.173 HD
HETATM   10  C4  UNL     1      30.281   3.739  20.543  1.00  0.00     0.277 A 
HETATM   11  O4  UNL     1      30.170   4.553  21.494  1.00  0.00    -0.266 OA
ENDROOT
BRANCH   3  12
HETATM   12  N2  UNL     1      31.889   3.492  17.204  1.00  0.00    -0.251 N 
ATOM     13  H2  UNL     1      32.242   4.448  17.146  1.00  0.00     0.182 HD
BRANCH  12  14
HETATM   14  S1  UNL     1      32.252   2.425  15.917  1.00  0.00     0.318 S 
HETATM   15  O1  UNL     1      32.829   3.172  14.741  1.00  0.00    -0.183 OA
HETATM   16  O2  UNL     1      30.971   1.807  15.450  1.00  0.00    -0.183 OA
BRANCH  14  17
HETATM   17  N3  UNL     1      33.387   1.251  16.478  1.00  0.00    -0.311 N 
ATOM     18  H32 UNL     1      34.056   1.401  17.235  1.00  0.00     0.170 HD
ATOM     19  H31 UNL     1      33.272   0.399  15.930  1.00  0.00     0.170 HD
ENDBRANCH  14  17
ENDBRANCH  12  14
ENDBRANCH   3  12
TORSDOF 3
ENDMDL
MODEL 4
REMARK VINA RESULT: -6.301180536      2.191      4.228
REMARK  3 active torsions:
REMARK  status: ('A' for Active; 'I' for Inactive)
REMARK    1  A    between atoms: C2_3  and  N2_4 
REMARK    2  A    between atoms: N2_4  and  S1_6 
REMARK    3  A    between atoms: S1_6  and  N3_7 
ROOT
HETATM    1  N1  UNL     1      31.532   5.291  19.434  1.00  0.00    -0.092 NA
HETATM    2  C1  UNL     1      30.955   4.020  19.650  1.00  0.00     0.159 A 
HETATM    3  C2  UNL     1      31.152   3.035  18.685  1.00  0.00     0.150 A 
HETATM    4  N4  UNL     1      30.590   1.856  18.935  1.00  0.00    -0.292 N 
ATOM      5  H4  UNL     1      30.712   1.107  18.253  1.00  0.00     0.172 HD
HETATM    6  C3  UNL     1      29.868   1.601  20.040  1.00  0.00     0.328 A 
HETATM    7  O3  UNL     1      29.352   0.461  20.232  1.00  0.00    -0.247 OA
HETATM    8  N5  UNL     1      29.681   2.560  20.969  1.00  0.00    -0.274 N 
ATOM      9  H5  UNL     1      29.132   2.357  21.805  1.00  0.00     0.173 HD
HETATM   10  C4  UNL     1      30.214   3.783  20.800  1.00  0.00     0.277 A 
HETATM   11  O4  UNL     1      30.033   4.670  21.671  1.00  0.00    -0.266 OA
ENDROOT
BRANCH   3  12
HETATM   12  N2  UNL     1      31.919   3.336  17.530  1.00  0.00    -0.251 N 
ATOM     13  H2  UNL     1      32.282   4.284  17.431  1.00  0.00     0.182 HD
BRANCH  12  14
HETATM   14  S1  UNL     1      32.274   2.209  16.292  1.00  0.00     0.318 S 
HETATM   15  O1  UNL     1      32.986   1.002  16.847  1.00  0.00    -0.183 OA
HETATM   16  O2  UNL     1      33.212   2.860  15.326  1.00  0.00    -0.183 OA
BRANCH  14  17
HETATM   17  N3  UNL     1      30.792   1.722  15.550  1.00  0.00    -0.311 N 
ATOM     18  H32 UNL     1      30.378   0.793  15.628  1.00  0.00     0.170 HD
ATOM     19  H31 UNL     1      30.414   2.514  15.030  1.00  0.00     0.170 HD
ENDBRANCH  14  17
ENDBRANCH  12  14
ENDBRANCH   3  12
TORSDOF 3
ENDMDL
MODEL 5
REMARK VINA RESULT: -6.233925762      1.059      1.320
REMARK  3 active torsions:
REMARK  status: ('A' for Active; 'I' for Inactive)
REMARK    1  A    between atoms: C2_3  and  N2_4 
REMARK    2  A    between atoms: N2_4  and  S1_6 
REMARK    3  A    between atoms: S1_6  and  N3_7 
ROOT
HETATM    1  N1  UNL     1      30.456   4.248  20.840  1.00  0.00    -0.092 NA
HETATM    2  C1  UNL     1      30.914   3.836  19.569  1.00  0.00     0.159 A 
HETATM    3  C2  UNL     1      30.677   2.520  19.179  1.00  0.00     0.150 A 
HETATM    4  N4  UNL     1      31.127   2.181  17.974  1.00  0.00    -0.292 N 
ATOM      5  H4  UNL     1      30.972   1.226  17.651  1.00  0.00     0.172 HD
HETATM    6  C3  UNL     1      31.776   3.033  17.161  1.00  0.00     0.328 A 
HETATM    7  O3  UNL     1      32.185   2.661  16.022  1.00  0.00    -0.247 OA
HETATM    8  N5  UNL     1      32.001   4.305  17.546  1.00  0.00    -0.274 N 
ATOM      9  H5  UNL     1      32.493   4.945  16.922  1.00  0.00     0.173 HD
HETATM   10  C4  UNL     1      31.580   4.735  18.749  1.00  0.00     0.277 A 
HETATM   11  O4  UNL     1      31.797   5.923  19.099  1.00  0.00    -0.266 OA
ENDROOT
BRANCH   3  12
HETATM   12  N2  UNL     1      29.990   1.645  20.060  1.00  0.00    -0.251 N 
ATOM     13  H2  UNL     1      30.491   1.303  20.880  1.00  0.00     0.182 HD
BRANCH  12  14
HETATM   14  S1  UNL     1      28.374   1.129  19.835  1.00  0.00     0.318 S 
HETATM   15  O1  UNL     1      28.089   0.864  18.379  1.00  0.00    -0.183 OA
HETATM   16  O2  UNL     1      27.468   2.242  20.259  1.00  0.00    -0.183 OA
BRANCH  14  17
HETATM   17  N3  UNL     1      28.125  -0.313  20.752  1.00  0.00    -0.311 N 
ATOM     18  H32 UNL     1      27.631  -1.141  20.415  1.00  0.00     0.170 HD
ATOM     19  H31 UNL     1      28.550  -0.191  21.671  1.00  0.00     0.170 HD
ENDBRANCH  14  17
ENDBRANCH  12  14
ENDBRANCH   3  12
TORSDOF 3
ENDMDL
