MODEL 1
REMARK VINA RESULT: -6.005753869      0.000      0.000
REMARK  3 active torsions:
REMARK  status: ('A' for Active; 'I' for Inactive)
REMARK    1  A    between atoms: N3_10  and  C4_12 
REMARK    2  A    between atoms: C8_21  and  C9_22 
REMARK    3  A    between atoms: C9_22  and  N6_23 
ROOT
HETATM    1  N1  UNL     1      88.911  80.879 113.250  1.00  0.00    -0.385 N 
ATOM      2  H11 UNL     1      88.994  81.259 112.307  1.00  0.00     0.157 HD
ATOM      3  H12 UNL     1      89.336  79.995 113.528  1.00  0.00     0.157 HD
HETATM    4  C1  UNL     1      88.247  81.513 114.166  1.00  0.00     0.109 A 
HETATM    5  N2  UNL     1      88.131  80.984 115.478  1.00  0.00    -0.308 N 
ATOM      6  H2  UNL     1      88.571  80.095 115.715  1.00  0.00     0.170 HD
HETATM    7  C2  UNL     1      87.392  81.706 116.463  1.00  0.00     0.273 A 
HETATM    8  O1  UNL     1      87.296  81.221 117.636  1.00  0.00    -0.266 OA
HETATM    9  C3  UNL     1      86.784  82.967 116.074  1.00  0.00     0.103 A 
HETATM   10  N3  UNL     1      86.112  83.659 116.906  1.00  0.00    -0.340 N 
ATOM     11  H3  UNL     1      85.718  84.529 116.549  1.00  0.00     0.167 HD
HETATM   12  C7  UNL     1      86.957  83.441 114.681  1.00  0.00     0.048 A 
HETATM   13  C8  UNL     1      87.639  82.775 113.771  1.00  0.00     0.013 A 
ENDROOT
BRANCH  10  14
HETATM   14  C4  UNL     1      85.846  83.372 118.249  1.00  0.00     0.105 C 
HETATM   15  N4  UNL     1      86.715  83.472 119.199  1.00  0.00    -0.355 N 
HETATM   16  C5  UNL     1      86.127  83.102 120.485  1.00  0.00     0.356 C 
ATOM     17  H4  UNL     1      87.682  83.769 119.070  1.00  0.00     0.162 HD
HETATM   18  N5  UNL     1      84.712  83.400 120.248  1.00  0.00    -0.053 N 
HETATM   19  C6  UNL     1      84.584  82.914 118.889  1.00  0.00     0.309 C 
ATOM     20  H52 UNL     1      84.055  83.013 120.924  1.00  0.00     0.279 HD
ATOM     21  H51 UNL     1      84.427  84.367 120.404  1.00  0.00     0.279 HD
ENDBRANCH  10  14
BRANCH  13  22
HETATM   22  C9  UNL     1      87.786  83.298 112.369  1.00  0.00     0.271 C 
BRANCH  22  23
HETATM   23  N6  UNL     1      86.986  84.484 112.161  1.00  0.00    -0.075 N 
ATOM     24  H63 UNL     1      87.076  84.833 111.206  1.00  0.00     0.274 HD
ATOM     25  H62 UNL     1      85.989  84.267 112.156  1.00  0.00     0.274 HD
ATOM     26  H61 UNL     1      87.208  85.207 112.845  1.00  0.00     0.274 HD
ENDBRANCH  22  23
ENDBRANCH  13  22
TORSDOF 3
ENDMDL
MODEL 2
REMARK VINA RESULT: -5.053208932      2.005      5.982
REMARK  3 active torsions:
REMARK  status: ('A' for Active; 'I' for Inactive)
REMARK    1  A    between atoms: N3_10  and  C4_12 
REMARK    2  A    between atoms: C8_21  and  C9_22 
REMARK    3  A    between atoms: C9_22  and  N6_23 
ROOT
HETATM    1  N1  UNL     1      84.872  82.962 120.060  1.00  0.00    -0.385 N 
ATOM      2  H11 UNL     1      84.189  82.445 120.614  1.00  0.00     0.157 HD
ATOM      3  H12 UNL     1      85.358  83.786 120.412  1.00  0.00     0.157 HD
HETATM    4  C1  UNL     1      85.167  82.589 118.853  1.00  0.00     0.109 A 
HETATM    5  N2  UNL     1      86.118  83.307 118.082  1.00  0.00    -0.308 N 
ATOM      6  H2  UNL     1      86.581  84.128 118.471  1.00  0.00     0.170 HD
HETATM    7  C2  UNL     1      86.420  82.872 116.757  1.00  0.00     0.273 A 
HETATM    8  O1  UNL     1      87.274  83.525 116.076  1.00  0.00    -0.266 OA
HETATM    9  C3  UNL     1      85.732  81.697 116.249  1.00  0.00     0.103 A 
HETATM   10  N3  UNL     1      85.957  81.257 115.075  1.00  0.00    -0.340 N 
ATOM     11  H3  UNL     1      85.430  80.429 114.799  1.00  0.00     0.167 HD
HETATM   12  C7  UNL     1      84.754  81.010 117.126  1.00  0.00     0.048 A 
HETATM   13  C8  UNL     1      84.475  81.411 118.350  1.00  0.00     0.013 A 
ENDROOT
BRANCH  10  14
HETATM   14  C4  UNL     1      86.837  81.771 114.117  1.00  0.00     0.105 C 
HETATM   15  N4  UNL     1      86.581  82.791 113.368  1.00  0.00    -0.355 N 
HETATM   16  C5  UNL     1      87.702  83.076 112.474  1.00  0.00     0.356 C 
ATOM     17  H4  UNL     1      85.714  83.327 113.398  1.00  0.00     0.162 HD
HETATM   18  N5  UNL     1      88.823  82.520 113.235  1.00  0.00    -0.053 N 
HETATM   19  C6  UNL     1      88.201  81.313 113.740  1.00  0.00     0.309 C 
ATOM     20  H52 UNL     1      89.693  82.391 112.719  1.00  0.00     0.279 HD
ATOM     21  H51 UNL     1      89.236  83.135 113.936  1.00  0.00     0.279 HD
ENDBRANCH  10  14
BRANCH  13  22
HETATM   22  C9  UNL     1      83.475  80.681 119.201  1.00  0.00     0.271 C 
BRANCH  22  23
HETATM   23  N6  UNL     1      83.082  79.427 118.596  1.00  0.00    -0.075 N 
ATOM     24  H63 UNL     1      83.493  79.315 117.669  1.00  0.00     0.274 HD
ATOM     25  H62 UNL     1      83.523  78.633 119.062  1.00  0.00     0.274 HD
ATOM     26  H61 UNL     1      82.067  79.329 118.570  1.00  0.00     0.274 HD
ENDBRANCH  22  23
ENDBRANCH  13  22
TORSDOF 3
ENDMDL
MODEL 3
REMARK VINA RESULT: -4.992876534      1.831      5.986
REMARK  3 active torsions:
REMARK  status: ('A' for Active; 'I' for Inactive)
REMARK    1  A    between atoms: N3_10  and  C4_12 
REMARK    2  A    between atoms: C8_21  and  C9_22 
REMARK    3  A    between atoms: C9_22  and  N6_23 
ROOT
HETATM    1  N1  UNL     1      84.571  83.343 120.095  1.00  0.00    -0.385 N 
ATOM      2  H11 UNL     1      83.835  82.872 120.621  1.00  0.00     0.157 HD
ATOM      3  H12 UNL     1      84.993  84.219 120.401  1.00  0.00     0.157 HD
HETATM    4  C1  UNL     1      85.019  82.842 118.986  1.00  0.00     0.109 A 
HETATM    5  N2  UNL     1      86.043  83.497 118.253  1.00  0.00    -0.308 N 
ATOM      6  H2  UNL     1      86.439  84.373 118.594  1.00  0.00     0.170 HD
HETATM    7  C2  UNL     1      86.514  82.921 117.035  1.00  0.00     0.273 A 
HETATM    8  O1  UNL     1      87.433  83.518 116.389  1.00  0.00    -0.266 OA
HETATM    9  C3  UNL     1      85.916  81.672 116.594  1.00  0.00     0.103 A 
HETATM   10  N3  UNL     1      86.292  81.107 115.516  1.00  0.00    -0.340 N 
ATOM     11  H3  UNL     1      85.819  80.235 115.280  1.00  0.00     0.167 HD
HETATM   12  C7  UNL     1      84.852  81.059 117.424  1.00  0.00     0.048 A 
HETATM   13  C8  UNL     1      84.416  81.591 118.548  1.00  0.00     0.013 A 
ENDROOT
BRANCH  10  14
HETATM   14  C4  UNL     1      87.273  81.534 114.616  1.00  0.00     0.105 C 
HETATM   15  N4  UNL     1      88.497  81.124 114.626  1.00  0.00    -0.355 N 
HETATM   16  C5  UNL     1      89.269  81.758 113.559  1.00  0.00     0.356 C 
ATOM     17  H4  UNL     1      88.875  80.447 115.289  1.00  0.00     0.162 HD
HETATM   18  N5  UNL     1      88.216  82.063 112.587  1.00  0.00    -0.053 N 
HETATM   19  C6  UNL     1      87.170  82.500 113.490  1.00  0.00     0.309 C 
ATOM     20  H52 UNL     1      88.467  82.716 111.846  1.00  0.00     0.279 HD
ATOM     21  H51 UNL     1      87.966  81.309 111.948  1.00  0.00     0.279 HD
ENDBRANCH  10  14
BRANCH  13  22
HETATM   22  C9  UNL     1      83.334  80.932 119.355  1.00  0.00     0.271 C 
BRANCH  22  23
HETATM   23  N6  UNL     1      83.016  79.619 118.838  1.00  0.00    -0.075 N 
ATOM     24  H63 UNL     1      82.056  79.576 118.494  1.00  0.00     0.274 HD
ATOM     25  H62 UNL     1      83.506  79.433 117.963  1.00  0.00     0.274 HD
ATOM     26  H61 UNL     1      83.197  78.893 119.531  1.00  0.00     0.274 HD
ENDBRANCH  22  23
ENDBRANCH  13  22
TORSDOF 3
ENDMDL
MODEL 4
REMARK VINA RESULT: -4.924805218      1.924      5.940
REMARK  3 active torsions:
REMARK  status: ('A' for Active; 'I' for Inactive)
REMARK    1  A    between atoms: N3_10  and  C4_12 
REMARK    2  A    between atoms: C8_21  and  C9_22 
REMARK    3  A    between atoms: C9_22  and  N6_23 
ROOT
HETATM    1  N1  UNL     1      82.972  80.975 119.181  1.00  0.00    -0.385 N 
ATOM      2  H11 UNL     1      82.899  81.307 120.143  1.00  0.00     0.157 HD
ATOM      3  H12 UNL     1      82.273  80.368 118.752  1.00  0.00     0.157 HD
HETATM    4  C1  UNL     1      83.976  81.316 118.435  1.00  0.00     0.109 A 
HETATM    5  N2  UNL     1      84.078  80.855 117.097  1.00  0.00    -0.308 N 
ATOM      6  H2  UNL     1      83.357  80.248 116.706  1.00  0.00     0.170 HD
HETATM    7  C2  UNL     1      85.196  81.247 116.301  1.00  0.00     0.273 A 
HETATM    8  O1  UNL     1      85.275  80.828 115.103  1.00  0.00    -0.266 OA
HETATM    9  C3  UNL     1      86.194  82.113 116.906  1.00  0.00     0.103 A 
HETATM   10  N3  UNL     1      87.216  82.499 116.250  1.00  0.00    -0.340 N 
ATOM     11  H3  UNL     1      87.867  83.103 116.751  1.00  0.00     0.167 HD
HETATM   12  C7  UNL     1      86.006  82.545 118.311  1.00  0.00     0.048 A 
HETATM   13  C8  UNL     1      84.973  82.183 119.046  1.00  0.00     0.013 A 
ENDROOT
BRANCH  10  14
HETATM   14  C4  UNL     1      87.556  82.196 114.928  1.00  0.00     0.105 C 
HETATM   15  N4  UNL     1      87.059  82.791 113.895  1.00  0.00    -0.355 N 
HETATM   16  C5  UNL     1      87.618  82.244 112.659  1.00  0.00     0.356 C 
ATOM     17  H4  UNL     1      86.370  83.541 113.936  1.00  0.00     0.162 HD
HETATM   18  N5  UNL     1      88.913  81.745 113.128  1.00  0.00    -0.053 N 
HETATM   19  C6  UNL     1      88.512  81.185 114.402  1.00  0.00     0.309 C 
ATOM     20  H52 UNL     1      89.402  81.112 112.496  1.00  0.00     0.279 HD
ATOM     21  H51 UNL     1      89.670  82.428 113.160  1.00  0.00     0.279 HD
ENDBRANCH  10  14
BRANCH  13  22
HETATM   22  C9  UNL     1      84.826  82.647 120.467  1.00  0.00     0.271 C 
BRANCH  22  23
HETATM   23  N6  UNL     1      84.866  84.090 120.558  1.00  0.00    -0.075 N 
ATOM     24  H63 UNL     1      85.555  84.486 119.918  1.00  0.00     0.274 HD
ATOM     25  H62 UNL     1      84.024  84.513 120.165  1.00  0.00     0.274 HD
ATOM     26  H61 UNL     1      85.026  84.398 121.517  1.00  0.00     0.274 HD
ENDBRANCH  22  23
ENDBRANCH  13  22
TORSDOF 3
ENDMDL
MODEL 5
REMARK VINA RESULT: -4.737696797      2.032      2.212
REMARK  3 active torsions:
REMARK  status: ('A' for Active; 'I' for Inactive)
REMARK    1  A    between atoms: N3_10  and  C4_12 
REMARK    2  A    between atoms: C8_21  and  C9_22 
REMARK    3  A    between atoms: C9_22  and  N6_23 
ROOT
HETATM    1  N1  UNL     1      89.758  81.574 113.745  1.00  0.00    -0.385 N 
ATOM      2  H11 UNL     1      89.865  81.853 112.769  1.00  0.00     0.157 HD
ATOM      3  H12 UNL     1      90.551  81.334 114.340  1.00  0.00     0.157 HD
HETATM    4  C1  UNL     1      88.585  81.509 114.294  1.00  0.00     0.109 A 
HETATM    5  N2  UNL     1      88.436  81.122 115.651  1.00  0.00    -0.308 N 
ATOM      6  H2  UNL     1      89.256  80.889 116.211  1.00  0.00     0.170 HD
HETATM    7  C2  UNL     1      87.131  81.060 116.225  1.00  0.00     0.273 A 
HETATM    8  O1  UNL     1      87.012  80.711 117.443  1.00  0.00    -0.266 OA
HETATM    9  C3  UNL     1      85.997  81.401 115.383  1.00  0.00     0.103 A 
HETATM   10  N3  UNL     1      84.806  81.365 115.835  1.00  0.00    -0.340 N 
ATOM     11  H3  UNL     1      84.070  81.618 115.176  1.00  0.00     0.167 HD
HETATM   12  C7  UNL     1      86.247  81.794 113.976  1.00  0.00     0.048 A 
HETATM   13  C8  UNL     1      87.452  81.851 113.445  1.00  0.00     0.013 A 
ENDROOT
BRANCH  10  14
HETATM   14  C4  UNL     1      84.384  81.021 117.123  1.00  0.00     0.105 C 
HETATM   15  N4  UNL     1      84.325  81.848 118.113  1.00  0.00    -0.355 N 
HETATM   16  C5  UNL     1      83.844  81.181 119.322  1.00  0.00     0.356 C 
ATOM     17  H4  UNL     1      84.579  82.834 118.059  1.00  0.00     0.162 HD
HETATM   18  N5  UNL     1      83.056  80.087 118.749  1.00  0.00    -0.053 N 
HETATM   19  C6  UNL     1      83.922  79.710 117.651  1.00  0.00     0.309 C 
ATOM     20  H52 UNL     1      82.798  79.338 119.392  1.00  0.00     0.279 HD
ATOM     21  H51 UNL     1      82.093  80.313 118.500  1.00  0.00     0.279 HD
ENDBRANCH  10  14
BRANCH  13  22
HETATM   22  C9  UNL     1      87.655  82.257 112.013  1.00  0.00     0.271 C 
BRANCH  22  23
HETATM   23  N6  UNL     1      86.983  83.503 111.716  1.00  0.00    -0.075 N 
ATOM     24  H63 UNL     1      86.495  83.868 112.534  1.00  0.00     0.274 HD
ATOM     25  H62 UNL     1      87.650  84.263 111.577  1.00  0.00     0.274 HD
ATOM     26  H61 UNL     1      86.355  83.406 110.918  1.00  0.00     0.274 HD
ENDBRANCH  22  23
ENDBRANCH  13  22
TORSDOF 3
ENDMDL
