MODEL 1
REMARK VINA RESULT: -6.601568939      0.000      0.000
REMARK  3 active torsions:
REMARK  status: ('A' for Active; 'I' for Inactive)
REMARK    1  A    between atoms: N1_1  and  C1_4 
REMARK    2  A    between atoms: N4_13  and  C4_14 
REMARK    3  A    between atoms: C4_14  and  C5_15 
ROOT
HETATM    1  C1  UNL     1      85.072  81.437 117.213  1.00  0.00     0.686 A 
HETATM    2  N2  UNL     1      84.242  82.152 118.027  1.00  0.00    -0.141 N 
ATOM      3  H2  UNL     1      83.266  81.867 118.104  1.00  0.00     0.189 HD
HETATM    4  C2  UNL     1      84.655  83.204 118.722  1.00  0.00     0.342 A 
HETATM    5  O1  UNL     1      83.891  83.879 119.483  1.00  0.00    -0.246 OA
HETATM    6  N3  UNL     1      85.941  83.550 118.599  1.00  0.00    -0.259 N 
ATOM      7  H3  UNL     1      86.291  84.353 119.121  1.00  0.00     0.175 HD
HETATM    8  C3  UNL     1      86.779  82.870 117.811  1.00  0.00     0.345 A 
HETATM    9  O2  UNL     1      87.979  83.245 117.736  1.00  0.00    -0.246 OA
HETATM   10  N4  UNL     1      86.358  81.798 117.103  1.00  0.00    -0.127 N 
ENDROOT
BRANCH  10  11
HETATM   11  C4  UNL     1      87.330  81.103 116.286  1.00  0.00     0.211 C 
BRANCH  11  12
HETATM   12  C5  UNL     1      87.516  81.685 114.952  1.00  0.00     0.048 A 
HETATM   13  C6  UNL     1      88.496  81.439 114.004  1.00  0.00     0.119 A 
HETATM   14  N5  UNL     1      88.241  82.211 112.957  1.00  0.00    -0.317 N 
HETATM   15  C7  UNL     1      87.153  82.938 113.181  1.00  0.00     0.324 A 
ATOM     16  H5  UNL     1      88.799  82.241 112.104  1.00  0.00     0.170 HD
HETATM   17  O3  UNL     1      86.614  83.789 112.394  1.00  0.00    -0.247 OA
HETATM   18  N6  UNL     1      86.724  82.607 114.398  1.00  0.00    -0.309 N 
ATOM     19  H6  UNL     1      85.899  83.006 114.848  1.00  0.00     0.170 HD
ENDBRANCH  11  12
ENDBRANCH  10  11
BRANCH   1  20
HETATM   20  N1  UNL     1      84.593  80.428 116.558  1.00  0.00    -0.234 N 
ATOM     21  H12 UNL     1      83.591  80.238 116.527  1.00  0.00     0.174 HD
ATOM     22  H11 UNL     1      85.236  79.806 116.068  1.00  0.00     0.174 HD
ENDBRANCH   1  20
TORSDOF 3
ENDMDL
MODEL 2
REMARK VINA RESULT: -6.541711229      1.239      1.987
REMARK  3 active torsions:
REMARK  status: ('A' for Active; 'I' for Inactive)
REMARK    1  A    between atoms: N1_1  and  C1_4 
REMARK    2  A    between atoms: N4_13  and  C4_14 
REMARK    3  A    between atoms: C4_14  and  C5_15 
ROOT
HETATM    1  C1  UNL     1      86.544  83.107 117.767  1.00  0.00     0.686 A 
HETATM    2  N2  UNL     1      85.441  83.573 118.422  1.00  0.00    -0.141 N 
ATOM      3  H2  UNL     1      85.495  84.478 118.890  1.00  0.00     0.189 HD
HETATM    4  C2  UNL     1      84.301  82.897 118.472  1.00  0.00     0.342 A 
HETATM    5  O1  UNL     1      83.266  83.321 119.080  1.00  0.00    -0.246 OA
HETATM    6  N3  UNL     1      84.264  81.716 117.846  1.00  0.00    -0.259 N 
ATOM      7  H3  UNL     1      83.402  81.170 117.865  1.00  0.00     0.175 HD
HETATM    8  C3  UNL     1      85.326  81.232 117.197  1.00  0.00     0.345 A 
HETATM    9  O2  UNL     1      85.231  80.113 116.627  1.00  0.00    -0.246 OA
HETATM   10  N4  UNL     1      86.488  81.921 117.145  1.00  0.00    -0.127 N 
ENDROOT
BRANCH  10  11
HETATM   11  C4  UNL     1      87.589  81.339 116.406  1.00  0.00     0.211 C 
BRANCH  11  12
HETATM   12  C5  UNL     1      87.633  81.728 114.993  1.00  0.00     0.048 A 
HETATM   13  C6  UNL     1      88.511  81.344 113.992  1.00  0.00     0.119 A 
HETATM   14  N5  UNL     1      88.145  81.964 112.880  1.00  0.00    -0.317 N 
HETATM   15  C7  UNL     1      87.082  82.725 113.110  1.00  0.00     0.324 A 
ATOM     16  H5  UNL     1      88.612  81.871 111.978  1.00  0.00     0.170 HD
HETATM   17  O3  UNL     1      86.459  83.463 112.272  1.00  0.00    -0.247 OA
HETATM   18  N6  UNL     1      86.782  82.571 114.400  1.00  0.00    -0.309 N 
ATOM     19  H6  UNL     1      86.006  83.035 114.872  1.00  0.00     0.170 HD
ENDBRANCH  11  12
ENDBRANCH  10  11
BRANCH   1  20
HETATM   20  N1  UNL     1      87.624  83.821 117.770  1.00  0.00    -0.234 N 
ATOM     21  H12 UNL     1      87.657  84.739 118.214  1.00  0.00     0.174 HD
ATOM     22  H11 UNL     1      88.460  83.456 117.312  1.00  0.00     0.174 HD
ENDBRANCH   1  20
TORSDOF 3
ENDMDL
MODEL 3
REMARK VINA RESULT: -6.442058003      3.103      5.679
REMARK  3 active torsions:
REMARK  status: ('A' for Active; 'I' for Inactive)
REMARK    1  A    between atoms: N1_1  and  C1_4 
REMARK    2  A    between atoms: N4_13  and  C4_14 
REMARK    3  A    between atoms: C4_14  and  C5_15 
ROOT
HETATM    1  C1  UNL     1      86.996  85.998 114.049  1.00  0.00     0.686 A 
HETATM    2  N2  UNL     1      87.632  87.205 114.045  1.00  0.00    -0.141 N 
ATOM      3  H2  UNL     1      87.493  87.835 114.835  1.00  0.00     0.189 HD
HETATM    4  C2  UNL     1      88.425  87.591 113.054  1.00  0.00     0.342 A 
HETATM    5  O1  UNL     1      89.023  88.715 113.038  1.00  0.00    -0.246 OA
HETATM    6  N3  UNL     1      88.587  86.741 112.035  1.00  0.00    -0.259 N 
ATOM      7  H3  UNL     1      89.191  87.007 111.257  1.00  0.00     0.175 HD
HETATM    8  C3  UNL     1      87.978  85.552 112.010  1.00  0.00     0.345 A 
HETATM    9  O2  UNL     1      88.169  84.794 111.022  1.00  0.00    -0.246 OA
HETATM   10  N4  UNL     1      87.170  85.158 113.019  1.00  0.00    -0.127 N 
ENDROOT
BRANCH  10  11
HETATM   11  C4  UNL     1      86.561  83.848 112.928  1.00  0.00     0.211 C 
BRANCH  11  12
HETATM   12  C5  UNL     1      87.266  82.806 113.682  1.00  0.00     0.048 A 
HETATM   13  C6  UNL     1      88.372  82.049 113.330  1.00  0.00     0.119 A 
HETATM   14  N5  UNL     1      88.638  81.237 114.343  1.00  0.00    -0.317 N 
HETATM   15  C7  UNL     1      87.765  81.430 115.324  1.00  0.00     0.324 A 
ATOM     16  H5  UNL     1      89.402  80.562 114.366  1.00  0.00     0.170 HD
HETATM   17  O3  UNL     1      87.716  80.826 116.450  1.00  0.00    -0.247 OA
HETATM   18  N6  UNL     1      86.937  82.387 114.907  1.00  0.00    -0.309 N 
ATOM     19  H6  UNL     1      86.154  82.752 115.451  1.00  0.00     0.170 HD
ENDBRANCH  11  12
ENDBRANCH  10  11
BRANCH   1  20
HETATM   20  N1  UNL     1      86.229  85.696 115.048  1.00  0.00    -0.234 N 
ATOM     21  H12 UNL     1      85.404  86.250 115.275  1.00  0.00     0.174 HD
ATOM     22  H11 UNL     1      86.463  84.887 115.625  1.00  0.00     0.174 HD
ENDBRANCH   1  20
TORSDOF 3
ENDMDL
MODEL 4
REMARK VINA RESULT: -6.359828850      3.334      5.630
REMARK  3 active torsions:
REMARK  status: ('A' for Active; 'I' for Inactive)
REMARK    1  A    between atoms: N1_1  and  C1_4 
REMARK    2  A    between atoms: N4_13  and  C4_14 
REMARK    3  A    between atoms: C4_14  and  C5_15 
ROOT
HETATM    1  C1  UNL     1      88.080  85.917 112.155  1.00  0.00     0.686 A 
HETATM    2  N2  UNL     1      88.628  87.146 112.383  1.00  0.00    -0.141 N 
ATOM      3  H2  UNL     1      89.224  87.557 111.664  1.00  0.00     0.189 HD
HETATM    4  C2  UNL     1      88.417  87.825 113.502  1.00  0.00     0.342 A 
HETATM    5  O1  UNL     1      88.924  88.972 113.727  1.00  0.00    -0.246 OA
HETATM    6  N3  UNL     1      87.631  87.257 114.423  1.00  0.00    -0.259 N 
ATOM      7  H3  UNL     1      87.448  87.754 115.294  1.00  0.00     0.175 HD
HETATM    8  C3  UNL     1      87.080  86.056 114.230  1.00  0.00     0.345 A 
HETATM    9  O2  UNL     1      86.348  85.572 115.134  1.00  0.00    -0.246 OA
HETATM   10  N4  UNL     1      87.294  85.363 113.089  1.00  0.00    -0.127 N 
ENDROOT
BRANCH  10  11
HETATM   11  C4  UNL     1      86.647  84.076 112.946  1.00  0.00     0.211 C 
BRANCH  11  12
HETATM   12  C5  UNL     1      87.408  82.957 113.512  1.00  0.00     0.048 A 
HETATM   13  C6  UNL     1      88.459  82.234 112.971  1.00  0.00     0.119 A 
HETATM   14  N5  UNL     1      88.815  81.319 113.861  1.00  0.00    -0.317 N 
HETATM   15  C7  UNL     1      88.052  81.415 114.943  1.00  0.00     0.324 A 
ATOM     16  H5  UNL     1      89.566  80.641 113.734  1.00  0.00     0.170 HD
HETATM   17  O3  UNL     1      88.110  80.698 116.000  1.00  0.00    -0.247 OA
HETATM   18  N6  UNL     1      87.201  82.415 114.716  1.00  0.00    -0.309 N 
ATOM     19  H6  UNL     1      86.486  82.726 115.373  1.00  0.00     0.170 HD
ENDBRANCH  11  12
ENDBRANCH  10  11
BRANCH   1  20
HETATM   20  N1  UNL     1      88.341  85.310 111.041  1.00  0.00    -0.234 N 
ATOM     21  H12 UNL     1      87.662  84.691 110.598  1.00  0.00     0.174 HD
ATOM     22  H11 UNL     1      89.252  85.450 110.603  1.00  0.00     0.174 HD
ENDBRANCH   1  20
TORSDOF 3
ENDMDL
MODEL 5
REMARK VINA RESULT: -6.201267753      5.742      7.310
REMARK  3 active torsions:
REMARK  status: ('A' for Active; 'I' for Inactive)
REMARK    1  A    between atoms: N1_1  and  C1_4 
REMARK    2  A    between atoms: N4_13  and  C4_14 
REMARK    3  A    between atoms: C4_14  and  C5_15 
ROOT
HETATM    1  C1  UNL     1      86.012  88.983 114.161  1.00  0.00     0.686 A 
HETATM    2  N2  UNL     1      85.081  89.933 113.852  1.00  0.00    -0.141 N 
ATOM      3  H2  UNL     1      84.272  90.043 114.463  1.00  0.00     0.189 HD
HETATM    4  C2  UNL     1      85.188  90.718 112.788  1.00  0.00     0.342 A 
HETATM    5  O1  UNL     1      84.327  91.606 112.489  1.00  0.00    -0.246 OA
HETATM    6  N3  UNL     1      86.262  90.548 112.009  1.00  0.00    -0.259 N 
ATOM      7  H3  UNL     1      86.375  91.136 111.184  1.00  0.00     0.175 HD
HETATM    8  C3  UNL     1      87.190  89.628 112.285  1.00  0.00     0.345 A 
HETATM    9  O2  UNL     1      88.180  89.514 111.513  1.00  0.00    -0.246 OA
HETATM   10  N4  UNL     1      87.082  88.827 113.369  1.00  0.00    -0.127 N 
ENDROOT
BRANCH  10  11
HETATM   11  C4  UNL     1      88.138  87.866 113.610  1.00  0.00     0.211 C 
BRANCH  11  12
HETATM   12  C5  UNL     1      87.967  86.598 112.895  1.00  0.00     0.048 A 
HETATM   13  C6  UNL     1      88.531  86.164 111.707  1.00  0.00     0.119 A 
HETATM   14  N5  UNL     1      88.069  84.945 111.467  1.00  0.00    -0.317 N 
HETATM   15  C7  UNL     1      87.240  84.572 112.434  1.00  0.00     0.324 A 
ATOM     16  H5  UNL     1      88.315  84.376 110.657  1.00  0.00     0.170 HD
HETATM   17  O3  UNL     1      86.611  83.464 112.533  1.00  0.00    -0.247 OA
HETATM   18  N6  UNL     1      87.188  85.588 113.295  1.00  0.00    -0.309 N 
ATOM     19  H6  UNL     1      86.627  85.594 114.148  1.00  0.00     0.170 HD
ENDBRANCH  11  12
ENDBRANCH  10  11
BRANCH   1  20
HETATM   20  N1  UNL     1      85.833  88.247 115.211  1.00  0.00    -0.234 N 
ATOM     21  H12 UNL     1      85.493  88.641 116.089  1.00  0.00     0.174 HD
ATOM     22  H11 UNL     1      86.044  87.250 115.159  1.00  0.00     0.174 HD
ENDBRANCH   1  20
TORSDOF 3
ENDMDL
