MODEL 1
REMARK VINA RESULT: -6.856633092      0.000      0.000
REMARK  3 active torsions:
REMARK  status: ('A' for Active; 'I' for Inactive)
REMARK    1  A    between atoms: N3_4  and  N4_6 
REMARK    2  A    between atoms: C2_8  and  C3_9 
REMARK    3  A    between atoms: N6_17  and  N7_18 
ROOT
HETATM    1  C3  UNL     1      86.155  81.938 116.519  1.00  0.00     0.083 A 
HETATM    2  C4  UNL     1      85.263  80.894 116.583  1.00  0.00     0.107 A 
HETATM    3  C5  UNL     1      84.222  80.858 117.528  1.00  0.00     0.251 A 
HETATM    4  O1  UNL     1      83.443  79.872 117.531  1.00  0.00    -0.268 OA
HETATM    5  N5  UNL     1      84.115  81.888 118.384  1.00  0.00    -0.274 N 
ATOM      6  H5  UNL     1      83.374  81.897 119.084  1.00  0.00     0.173 HD
HETATM    7  C6  UNL     1      84.992  82.904 118.313  1.00  0.00     0.348 A 
HETATM    8  O2  UNL     1      84.890  83.867 119.115  1.00  0.00    -0.245 OA
HETATM    9  N6  UNL     1      85.986  82.955 117.422  1.00  0.00    -0.210 N 
ENDROOT
BRANCH   1  10
HETATM   10  C2  UNL     1      87.238  82.019 115.567  1.00  0.00     0.139 C 
HETATM   11  N4  UNL     1      87.200  82.233 114.349  1.00  0.00    -0.308 N 
ATOM     12  H4  UNL     1      88.134  82.231 113.940  1.00  0.00     0.186 HD
BRANCH  11  13
HETATM   13  N3  UNL     1      86.244  82.470 113.414  1.00  0.00    -0.276 N 
HETATM   14  C1  UNL     1      86.447  83.292 112.432  1.00  0.00     0.215 C 
HETATM   15  N1  UNL     1      85.381  83.483 111.487  1.00  0.00    -0.065 NA
HETATM   16  N2  UNL     1      87.685  83.964 112.322  1.00  0.00    -0.065 NA
ATOM     17  H3  UNL     1      85.346  81.990 113.485  1.00  0.00     0.189 HD
ENDBRANCH  11  13
ENDBRANCH   1  10
BRANCH   9  18
HETATM   18  N7  UNL     1      86.873  84.034 117.388  1.00  0.00    -0.334 N 
ATOM     19  H72 UNL     1      87.881  83.888 117.337  1.00  0.00     0.177 HD
ATOM     20  H71 UNL     1      86.492  84.980 117.416  1.00  0.00     0.177 HD
ENDBRANCH   9  18
TORSDOF 3
ENDMDL
MODEL 2
REMARK VINA RESULT: -6.572653891      3.041      5.748
REMARK  3 active torsions:
REMARK  status: ('A' for Active; 'I' for Inactive)
REMARK    1  A    between atoms: N3_4  and  N4_6 
REMARK    2  A    between atoms: C2_8  and  C3_9 
REMARK    3  A    between atoms: N6_17  and  N7_18 
ROOT
HETATM    1  C3  UNL     1      84.827  81.726 117.721  1.00  0.00     0.083 A 
HETATM    2  C4  UNL     1      85.713  81.097 116.879  1.00  0.00     0.107 A 
HETATM    3  C5  UNL     1      86.957  81.664 116.547  1.00  0.00     0.251 A 
HETATM    4  O1  UNL     1      87.719  81.034 115.771  1.00  0.00    -0.268 OA
HETATM    5  N5  UNL     1      87.267  82.856 117.081  1.00  0.00    -0.274 N 
ATOM      6  H5  UNL     1      88.160  83.299 116.864  1.00  0.00     0.173 HD
HETATM    7  C6  UNL     1      86.394  83.462 117.904  1.00  0.00     0.348 A 
HETATM    8  O2  UNL     1      86.687  84.579 118.403  1.00  0.00    -0.245 OA
HETATM    9  N6  UNL     1      85.208  82.940 118.230  1.00  0.00    -0.210 N 
ENDROOT
BRANCH   1  10
HETATM   10  C2  UNL     1      83.540  81.185 118.091  1.00  0.00     0.139 C 
HETATM   11  N4  UNL     1      83.263  80.089 118.592  1.00  0.00    -0.308 N 
ATOM     12  H4  UNL     1      82.259  79.988 118.742  1.00  0.00     0.186 HD
BRANCH  11  13
HETATM   13  N3  UNL     1      83.942  78.984 118.997  1.00  0.00    -0.276 N 
HETATM   14  C1  UNL     1      83.322  77.912 119.380  1.00  0.00     0.215 C 
HETATM   15  N1  UNL     1      84.118  76.788 119.792  1.00  0.00    -0.065 NA
HETATM   16  N2  UNL     1      81.909  77.880 119.384  1.00  0.00    -0.065 NA
ATOM     17  H3  UNL     1      84.962  78.997 118.998  1.00  0.00     0.189 HD
ENDBRANCH  11  13
ENDBRANCH   1  10
BRANCH   9  18
HETATM   18  N7  UNL     1      84.335  83.610 119.090  1.00  0.00    -0.334 N 
ATOM     19  H72 UNL     1      84.685  84.237 119.814  1.00  0.00     0.177 HD
ATOM     20  H71 UNL     1      83.331  83.463 118.980  1.00  0.00     0.177 HD
ENDBRANCH   9  18
TORSDOF 3
ENDMDL
MODEL 3
REMARK VINA RESULT: -6.570296283      3.754      5.849
REMARK  3 active torsions:
REMARK  status: ('A' for Active; 'I' for Inactive)
REMARK    1  A    between atoms: N3_4  and  N4_6 
REMARK    2  A    between atoms: C2_8  and  C3_9 
REMARK    3  A    between atoms: N6_17  and  N7_18 
ROOT
HETATM    1  C3  UNL     1      87.232  85.318 113.340  1.00  0.00     0.083 A 
HETATM    2  C4  UNL     1      86.855  85.609 114.629  1.00  0.00     0.107 A 
HETATM    3  C5  UNL     1      87.162  86.840 115.237  1.00  0.00     0.251 A 
HETATM    4  O1  UNL     1      86.786  87.039 116.419  1.00  0.00    -0.268 OA
HETATM    5  N5  UNL     1      87.845  87.743 114.516  1.00  0.00    -0.274 N 
ATOM      6  H5  UNL     1      88.087  88.647 114.923  1.00  0.00     0.173 HD
HETATM    7  C6  UNL     1      88.209  87.450 113.256  1.00  0.00     0.348 A 
HETATM    8  O2  UNL     1      88.849  88.297 112.583  1.00  0.00    -0.245 OA
HETATM    9  N6  UNL     1      87.927  86.286 112.663  1.00  0.00    -0.210 N 
ENDROOT
BRANCH   1  10
HETATM   10  C2  UNL     1      86.941  84.070 112.674  1.00  0.00     0.139 C 
HETATM   11  N4  UNL     1      86.898  82.924 113.136  1.00  0.00    -0.308 N 
ATOM     12  H4  UNL     1      86.665  82.239 112.417  1.00  0.00     0.186 HD
BRANCH  11  13
HETATM   13  N3  UNL     1      87.081  82.335 114.346  1.00  0.00    -0.276 N 
HETATM   14  C1  UNL     1      88.071  81.527 114.563  1.00  0.00     0.215 C 
HETATM   15  N1  UNL     1      88.189  80.948 115.874  1.00  0.00    -0.065 NA
HETATM   16  N2  UNL     1      88.986  81.242 113.525  1.00  0.00    -0.065 NA
ATOM     17  H3  UNL     1      86.425  82.534 115.102  1.00  0.00     0.189 HD
ENDBRANCH  11  13
ENDBRANCH   1  10
BRANCH   9  18
HETATM   18  N7  UNL     1      88.328  86.028 111.350  1.00  0.00    -0.334 N 
ATOM     19  H72 UNL     1      88.038  85.178 110.866  1.00  0.00     0.177 HD
ATOM     20  H71 UNL     1      88.922  86.709 110.877  1.00  0.00     0.177 HD
ENDBRANCH   9  18
TORSDOF 3
ENDMDL
MODEL 4
REMARK VINA RESULT: -6.254574592      1.554      2.649
REMARK  3 active torsions:
REMARK  status: ('A' for Active; 'I' for Inactive)
REMARK    1  A    between atoms: N3_4  and  N4_6 
REMARK    2  A    between atoms: C2_8  and  C3_9 
REMARK    3  A    between atoms: N6_17  and  N7_18 
ROOT
HETATM    1  C3  UNL     1      85.922  81.717 117.153  1.00  0.00     0.083 A 
HETATM    2  C4  UNL     1      86.312  82.864 117.801  1.00  0.00     0.107 A 
HETATM    3  C5  UNL     1      85.536  83.445 118.821  1.00  0.00     0.251 A 
HETATM    4  O1  UNL     1      85.953  84.495 119.372  1.00  0.00    -0.268 OA
HETATM    5  N5  UNL     1      84.384  82.842 119.155  1.00  0.00    -0.274 N 
ATOM      6  H5  UNL     1      83.794  83.234 119.889  1.00  0.00     0.173 HD
HETATM    7  C6  UNL     1      84.012  81.720 118.515  1.00  0.00     0.348 A 
HETATM    8  O2  UNL     1      82.932  81.158 118.829  1.00  0.00    -0.245 OA
HETATM    9  N6  UNL     1      84.735  81.155 117.544  1.00  0.00    -0.210 N 
ENDROOT
BRANCH   1  10
HETATM   10  C2  UNL     1      86.683  81.084 116.101  1.00  0.00     0.139 C 
HETATM   11  N4  UNL     1      86.951  81.497 114.967  1.00  0.00    -0.308 N 
ATOM     12  H4  UNL     1      87.511  80.822 114.445  1.00  0.00     0.186 HD
BRANCH  11  13
HETATM   13  N3  UNL     1      86.698  82.611 114.232  1.00  0.00    -0.276 N 
HETATM   14  C1  UNL     1      87.443  82.941 113.224  1.00  0.00     0.215 C 
HETATM   15  N1  UNL     1      87.102  84.136 112.501  1.00  0.00    -0.065 NA
HETATM   16  N2  UNL     1      88.548  82.133 112.873  1.00  0.00    -0.065 NA
ATOM     17  H3  UNL     1      85.903  83.201 114.478  1.00  0.00     0.189 HD
ENDBRANCH  11  13
ENDBRANCH   1  10
BRANCH   9  18
HETATM   18  N7  UNL     1      84.305  79.988 116.908  1.00  0.00    -0.334 N 
ATOM     19  H72 UNL     1      84.322  79.903 115.892  1.00  0.00     0.177 HD
ATOM     20  H71 UNL     1      83.970  79.213 117.481  1.00  0.00     0.177 HD
ENDBRANCH   9  18
TORSDOF 3
ENDMDL
MODEL 5
REMARK VINA RESULT: -6.088966009      5.717      7.389
REMARK  3 active torsions:
REMARK  status: ('A' for Active; 'I' for Inactive)
REMARK    1  A    between atoms: N3_4  and  N4_6 
REMARK    2  A    between atoms: C2_8  and  C3_9 
REMARK    3  A    between atoms: N6_17  and  N7_18 
ROOT
HETATM    1  C3  UNL     1      87.217  88.209 114.237  1.00  0.00     0.083 A 
HETATM    2  C4  UNL     1      88.353  88.676 113.620  1.00  0.00     0.107 A 
HETATM    3  C5  UNL     1      88.425  89.969 113.070  1.00  0.00     0.251 A 
HETATM    4  O1  UNL     1      89.495  90.332 112.520  1.00  0.00    -0.268 OA
HETATM    5  N5  UNL     1      87.339  90.753 113.163  1.00  0.00    -0.274 N 
ATOM      6  H5  UNL     1      87.353  91.697 112.776  1.00  0.00     0.173 HD
HETATM    7  C6  UNL     1      86.234  90.287 113.769  1.00  0.00     0.348 A 
HETATM    8  O2  UNL     1      85.218  91.023 113.854  1.00  0.00    -0.245 OA
HETATM    9  N6  UNL     1      86.147  89.062 114.296  1.00  0.00    -0.210 N 
ENDROOT
BRANCH   1  10
HETATM   10  C2  UNL     1      87.095  86.891 114.815  1.00  0.00     0.139 C 
HETATM   11  N4  UNL     1      87.012  85.792 114.256  1.00  0.00    -0.308 N 
ATOM     12  H4  UNL     1      86.935  85.032 114.933  1.00  0.00     0.186 HD
BRANCH  11  13
HETATM   13  N3  UNL     1      86.994  85.327 112.979  1.00  0.00    -0.276 N 
HETATM   14  C1  UNL     1      87.070  84.060 112.719  1.00  0.00     0.215 C 
HETATM   15  N1  UNL     1      87.044  83.656 111.340  1.00  0.00    -0.065 NA
HETATM   16  N2  UNL     1      87.174  83.130 113.778  1.00  0.00    -0.065 NA
ATOM     17  H3  UNL     1      86.921  85.991 112.208  1.00  0.00     0.189 HD
ENDBRANCH  11  13
ENDBRANCH   1  10
BRANCH   9  18
HETATM   18  N7  UNL     1      84.974  88.623 114.915  1.00  0.00    -0.334 N 
ATOM     19  H72 UNL     1      84.641  87.667 114.797  1.00  0.00     0.177 HD
ATOM     20  H71 UNL     1      84.450  89.281 115.494  1.00  0.00     0.177 HD
ENDBRANCH   9  18
TORSDOF 3
ENDMDL
