MODEL 1
REMARK VINA RESULT: -4.635261469      0.000      0.000
REMARK  4 active torsions:
REMARK  status: ('A' for Active; 'I' for Inactive)
REMARK    1  A    between atoms: C2_2  and  C3_3 
REMARK    2  A    between atoms: C3_3  and  O1_4 
REMARK    3  A    between atoms: O1_4  and  N1_5 
REMARK    4  A    between atoms: C4_7  and  C5_8 
ROOT
HETATM    1  N1  UNL     1      11.757   3.390   4.076  1.00  0.00    -0.280 N 
ATOM      2  H1  UNL     1      10.906   2.841   4.206  1.00  0.00     0.193 HD
HETATM    3  C4  UNL     1      11.576   4.460   3.505  1.00  0.00     0.119 C 
ENDROOT
BRANCH   3   4
HETATM    4  C5  UNL     1      12.695   5.392   3.255  1.00  0.00     0.227 C 
HETATM    5  C6  UNL     1      13.484   4.951   1.972  1.00  0.00     0.066 C 
HETATM    6  C7  UNL     1      14.754   5.303   2.761  1.00  0.00     0.235 C 
HETATM    7  N2  UNL     1      13.949   5.249   3.908  1.00  0.00    -0.066 N 
ATOM      8  H22 UNL     1      14.161   5.912   4.653  1.00  0.00     0.278 HD
ATOM      9  H21 UNL     1      14.064   4.437   4.515  1.00  0.00     0.278 HD
ENDBRANCH   3   4
BRANCH   1  10
HETATM   10  O1  UNL     1      12.871   2.799   4.568  1.00  0.00    -0.277 OA
BRANCH  10  11
HETATM   11  C3  UNL     1      13.277   1.620   3.749  1.00  0.00     0.228 C 
BRANCH  11  12
HETATM   12  C2  UNL     1      14.645   1.314   4.142  1.00  0.00    -0.009 C 
HETATM   13  C1  UNL     1      15.540   2.106   4.616  1.00  0.00     0.009 C 
ENDBRANCH  11  12
ENDBRANCH  10  11
ENDBRANCH   1  10
TORSDOF 4
ENDMDL
MODEL 2
REMARK VINA RESULT: -4.603342405      1.888      3.580
REMARK  4 active torsions:
REMARK  status: ('A' for Active; 'I' for Inactive)
REMARK    1  A    between atoms: C2_2  and  C3_3 
REMARK    2  A    between atoms: C3_3  and  O1_4 
REMARK    3  A    between atoms: O1_4  and  N1_5 
REMARK    4  A    between atoms: C4_7  and  C5_8 
ROOT
HETATM    1  N1  UNL     1      15.144   2.839   3.887  1.00  0.00    -0.280 N 
ATOM      2  H1  UNL     1      15.928   2.676   4.520  1.00  0.00     0.193 HD
HETATM    3  C4  UNL     1      14.072   3.008   4.456  1.00  0.00     0.119 C 
ENDROOT
BRANCH   3   4
HETATM    4  C5  UNL     1      12.836   3.281   3.693  1.00  0.00     0.227 C 
HETATM    5  C6  UNL     1      12.489   4.810   3.764  1.00  0.00     0.066 C 
HETATM    6  C7  UNL     1      11.029   4.363   3.933  1.00  0.00     0.235 C 
HETATM    7  N2  UNL     1      11.547   3.103   4.265  1.00  0.00    -0.066 N 
ATOM      8  H22 UNL     1      11.014   2.289   3.959  1.00  0.00     0.278 HD
ATOM      9  H21 UNL     1      11.512   2.833   5.248  1.00  0.00     0.278 HD
ENDBRANCH   3   4
BRANCH   1  10
HETATM   10  O1  UNL     1      15.487   2.828   2.577  1.00  0.00    -0.277 OA
BRANCH  10  11
HETATM   11  C3  UNL     1      16.320   4.011   2.215  1.00  0.00     0.228 C 
BRANCH  11  12
HETATM   12  C2  UNL     1      15.508   4.807   1.305  1.00  0.00    -0.009 C 
HETATM   13  C1  UNL     1      14.468   4.452   0.638  1.00  0.00     0.009 C 
ENDBRANCH  11  12
ENDBRANCH  10  11
ENDBRANCH   1  10
TORSDOF 4
ENDMDL
MODEL 3
REMARK VINA RESULT: -4.437112928      1.659      2.743
REMARK  4 active torsions:
REMARK  status: ('A' for Active; 'I' for Inactive)
REMARK    1  A    between atoms: C2_2  and  C3_3 
REMARK    2  A    between atoms: C3_3  and  O1_4 
REMARK    3  A    between atoms: O1_4  and  N1_5 
REMARK    4  A    between atoms: C4_7  and  C5_8 
ROOT
HETATM    1  N1  UNL     1      15.934   3.658   2.513  1.00  0.00    -0.280 N 
ATOM      2  H1  UNL     1      16.952   3.671   2.587  1.00  0.00     0.193 HD
HETATM    3  C4  UNL     1      15.459   4.674   2.018  1.00  0.00     0.119 C 
ENDROOT
BRANCH   3   4
HETATM    4  C5  UNL     1      14.002   4.816   1.814  1.00  0.00     0.227 C 
HETATM    5  C6  UNL     1      13.479   6.096   2.559  1.00  0.00     0.066 C 
HETATM    6  C7  UNL     1      12.272   5.236   2.964  1.00  0.00     0.235 C 
HETATM    7  N2  UNL     1      13.061   4.128   2.626  1.00  0.00    -0.066 N 
ATOM      8  H22 UNL     1      12.583   3.332   2.204  1.00  0.00     0.278 HD
ATOM      9  H21 UNL     1      13.434   3.573   3.397  1.00  0.00     0.278 HD
ENDBRANCH   3   4
BRANCH   1  10
HETATM   10  O1  UNL     1      15.364   2.523   2.981  1.00  0.00    -0.277 OA
BRANCH  10  11
HETATM   11  C3  UNL     1      15.741   2.260   4.399  1.00  0.00     0.228 C 
BRANCH  11  12
HETATM   12  C2  UNL     1      14.487   2.155   5.132  1.00  0.00    -0.009 C 
HETATM   13  C1  UNL     1      13.495   1.367   4.918  1.00  0.00     0.009 C 
ENDBRANCH  11  12
ENDBRANCH  10  11
ENDBRANCH   1  10
TORSDOF 4
ENDMDL
MODEL 4
REMARK VINA RESULT: -4.386827151      1.614      3.992
REMARK  4 active torsions:
REMARK  status: ('A' for Active; 'I' for Inactive)
REMARK    1  A    between atoms: C2_2  and  C3_3 
REMARK    2  A    between atoms: C3_3  and  O1_4 
REMARK    3  A    between atoms: O1_4  and  N1_5 
REMARK    4  A    between atoms: C4_7  and  C5_8 
ROOT
HETATM    1  N1  UNL     1      14.588   4.385   3.129  1.00  0.00    -0.280 N 
ATOM      2  H1  UNL     1      14.789   5.081   2.410  1.00  0.00     0.193 HD
HETATM    3  C4  UNL     1      15.161   3.315   2.958  1.00  0.00     0.119 C 
ENDROOT
BRANCH   3   4
HETATM    4  C5  UNL     1      15.003   2.202   3.917  1.00  0.00     0.227 C 
HETATM    5  C6  UNL     1      13.694   1.398   3.594  1.00  0.00     0.066 C 
HETATM    6  C7  UNL     1      13.479   1.343   5.114  1.00  0.00     0.235 C 
HETATM    7  N2  UNL     1      14.407   2.391   5.193  1.00  0.00    -0.066 N 
ATOM      8  H22 UNL     1      15.032   2.395   5.999  1.00  0.00     0.278 HD
ATOM      9  H21 UNL     1      14.039   3.320   5.398  1.00  0.00     0.278 HD
ENDBRANCH   3   4
BRANCH   1  10
HETATM   10  O1  UNL     1      13.739   4.819   4.090  1.00  0.00    -0.277 OA
BRANCH  10  11
HETATM   11  C3  UNL     1      12.452   5.301   3.512  1.00  0.00     0.228 C 
BRANCH  11  12
HETATM   12  C2  UNL     1      11.494   4.223   3.718  1.00  0.00    -0.009 C 
HETATM   13  C1  UNL     1      10.262   4.301   4.074  1.00  0.00     0.009 C 
ENDBRANCH  11  12
ENDBRANCH  10  11
ENDBRANCH   1  10
TORSDOF 4
ENDMDL
MODEL 5
REMARK VINA RESULT: -4.385818458      1.019      1.179
REMARK  4 active torsions:
REMARK  status: ('A' for Active; 'I' for Inactive)
REMARK    1  A    between atoms: C2_2  and  C3_3 
REMARK    2  A    between atoms: C3_3  and  O1_4 
REMARK    3  A    between atoms: O1_4  and  N1_5 
REMARK    4  A    between atoms: C4_7  and  C5_8 
ROOT
HETATM    1  N1  UNL     1      12.411   4.488   3.701  1.00  0.00    -0.280 N 
ATOM      2  H1  UNL     1      11.465   4.345   4.058  1.00  0.00     0.193 HD
HETATM    3  C4  UNL     1      12.487   5.339   2.822  1.00  0.00     0.119 C 
ENDROOT
BRANCH   3   4
HETATM    4  C5  UNL     1      13.785   5.691   2.209  1.00  0.00     0.227 C 
HETATM    5  C6  UNL     1      14.163   4.636   1.110  1.00  0.00     0.066 C 
HETATM    6  C7  UNL     1      15.594   4.732   1.661  1.00  0.00     0.235 C 
HETATM    7  N2  UNL     1      15.020   5.313   2.801  1.00  0.00    -0.066 N 
ATOM      8  H22 UNL     1      15.555   6.048   3.263  1.00  0.00     0.278 HD
ATOM      9  H21 UNL     1      14.972   4.735   3.640  1.00  0.00     0.278 HD
ENDBRANCH   3   4
BRANCH   1  10
HETATM   10  O1  UNL     1      13.344   3.702   4.289  1.00  0.00    -0.277 OA
BRANCH  10  11
HETATM   11  C3  UNL     1      13.153   2.265   3.939  1.00  0.00     0.228 C 
BRANCH  11  12
HETATM   12  C2  UNL     1      14.476   1.659   4.011  1.00  0.00    -0.009 C 
HETATM   13  C1  UNL     1      15.546   2.129   4.544  1.00  0.00     0.009 C 
ENDBRANCH  11  12
ENDBRANCH  10  11
ENDBRANCH   1  10
TORSDOF 4
ENDMDL
