MODEL 1
REMARK VINA RESULT: -4.482713176      0.000      0.000
REMARK  5 active torsions:
REMARK  status: ('A' for Active; 'I' for Inactive)
REMARK    1  A    between atoms: N1_2  and  N2_3 
REMARK    2  A    between atoms: N1_2  and  C2_6 
REMARK    3  A    between atoms: N3_7  and  N4_9 
REMARK    4  A    between atoms: N4_9  and  C3_11 
REMARK    5  A    between atoms: C3_11  and  C4_12 
ROOT
HETATM    1  C2  UNL     1      17.805   4.279   2.067  1.00  0.00     0.215 C 
HETATM    2  N3  UNL     1      16.523   4.223   2.051  1.00  0.00    -0.299 N 
ATOM      3  H3  UNL     1      16.053   3.508   2.605  1.00  0.00     0.187 HD
ENDROOT
BRANCH   2   4
HETATM    4  N4  UNL     1      15.752   5.111   1.297  1.00  0.00    -0.335 N 
ATOM      5  H4  UNL     1      16.227   5.834   0.757  1.00  0.00     0.180 HD
BRANCH   4   6
HETATM    6  C3  UNL     1      14.313   5.047   1.252  1.00  0.00     0.144 C 
BRANCH   6   7
HETATM    7  C4  UNL     1      13.720   5.736   2.433  1.00  0.00     0.005 A 
HETATM    8  C5  UNL     1      13.474   5.034   3.714  1.00  0.00     0.007 A 
HETATM    9  C6  UNL     1      12.337   5.312   2.807  1.00  0.00     0.007 A 
ENDBRANCH   6   7
ENDBRANCH   4   6
ENDBRANCH   2   4
BRANCH   1  10
HETATM   10  N1  UNL     1      18.583   3.382   2.828  1.00  0.00    -0.297 N 
HETATM   11  C1  UNL     1      19.960   3.114   2.457  1.00  0.00     0.178 C 
BRANCH  10  12
HETATM   12  N2  UNL     1      18.042   2.752   3.932  1.00  0.00    -0.342 N 
ATOM     13  H22 UNL     1      18.489   2.839   4.845  1.00  0.00     0.177 HD
ATOM     14  H21 UNL     1      17.193   2.198   3.828  1.00  0.00     0.177 HD
ENDBRANCH  10  12
ENDBRANCH   1  10
TORSDOF 5
ENDMDL
MODEL 2
REMARK VINA RESULT: -4.391194221      1.192      1.323
REMARK  5 active torsions:
REMARK  status: ('A' for Active; 'I' for Inactive)
REMARK    1  A    between atoms: N1_2  and  N2_3 
REMARK    2  A    between atoms: N1_2  and  C2_6 
REMARK    3  A    between atoms: N3_7  and  N4_9 
REMARK    4  A    between atoms: N4_9  and  C3_11 
REMARK    5  A    between atoms: C3_11  and  C4_12 
ROOT
HETATM    1  C2  UNL     1      18.333   3.550   2.731  1.00  0.00     0.215 C 
HETATM    2  N3  UNL     1      17.477   4.232   2.060  1.00  0.00    -0.299 N 
ATOM      3  H3  UNL     1      17.808   4.992   1.466  1.00  0.00     0.187 HD
ENDROOT
BRANCH   2   4
HETATM    4  N4  UNL     1      16.108   3.964   2.117  1.00  0.00    -0.335 N 
ATOM      5  H4  UNL     1      15.799   3.077   2.515  1.00  0.00     0.180 HD
BRANCH   4   6
HETATM    6  C3  UNL     1      15.113   4.891   1.638  1.00  0.00     0.144 C 
BRANCH   6   7
HETATM    7  C4  UNL     1      14.502   5.637   2.773  1.00  0.00     0.005 A 
HETATM    8  C5  UNL     1      13.662   4.969   3.795  1.00  0.00     0.007 A 
HETATM    9  C6  UNL     1      13.014   5.775   2.736  1.00  0.00     0.007 A 
ENDBRANCH   6   7
ENDBRANCH   4   6
ENDBRANCH   2   4
BRANCH   1  10
HETATM   10  N1  UNL     1      19.716   3.822   2.672  1.00  0.00    -0.297 N 
HETATM   11  C1  UNL     1      20.464   3.540   1.461  1.00  0.00     0.178 C 
BRANCH  10  12
HETATM   12  N2  UNL     1      20.368   4.359   3.765  1.00  0.00    -0.342 N 
ATOM     13  H22 UNL     1      20.524   5.365   3.829  1.00  0.00     0.177 HD
ATOM     14  H21 UNL     1      20.695   3.741   4.508  1.00  0.00     0.177 HD
ENDBRANCH  10  12
ENDBRANCH   1  10
TORSDOF 5
ENDMDL
MODEL 3
REMARK VINA RESULT: -4.373824570      3.232      3.850
REMARK  5 active torsions:
REMARK  status: ('A' for Active; 'I' for Inactive)
REMARK    1  A    between atoms: N1_2  and  N2_3 
REMARK    2  A    between atoms: N1_2  and  C2_6 
REMARK    3  A    between atoms: N3_7  and  N4_9 
REMARK    4  A    between atoms: N4_9  and  C3_11 
REMARK    5  A    between atoms: C3_11  and  C4_12 
ROOT
HETATM    1  C2  UNL     1      14.089   2.619   4.550  1.00  0.00     0.215 C 
HETATM    2  N3  UNL     1      12.938   2.400   4.027  1.00  0.00    -0.299 N 
ATOM      3  H3  UNL     1      12.769   1.508   3.561  1.00  0.00     0.187 HD
ENDROOT
BRANCH   2   4
HETATM    4  N4  UNL     1      11.910   3.344   4.076  1.00  0.00    -0.335 N 
ATOM      5  H4  UNL     1      10.946   3.016   4.122  1.00  0.00     0.180 HD
BRANCH   4   6
HETATM    6  C3  UNL     1      12.158   4.764   4.065  1.00  0.00     0.144 C 
BRANCH   6   7
HETATM    7  C4  UNL     1      12.340   5.254   2.669  1.00  0.00     0.005 A 
HETATM    8  C5  UNL     1      13.575   4.983   1.895  1.00  0.00     0.007 A 
HETATM    9  C6  UNL     1      13.366   6.325   2.485  1.00  0.00     0.007 A 
ENDBRANCH   6   7
ENDBRANCH   4   6
ENDBRANCH   2   4
BRANCH   1  10
HETATM   10  N1  UNL     1      15.126   1.665   4.500  1.00  0.00    -0.297 N 
HETATM   11  C1  UNL     1      14.815   0.254   4.364  1.00  0.00     0.178 C 
BRANCH  10  12
HETATM   12  N2  UNL     1      16.447   2.065   4.577  1.00  0.00    -0.342 N 
ATOM     13  H22 UNL     1      16.700   2.907   5.094  1.00  0.00     0.177 HD
ATOM     14  H21 UNL     1      17.166   1.513   4.111  1.00  0.00     0.177 HD
ENDBRANCH  10  12
ENDBRANCH   1  10
TORSDOF 5
ENDMDL
MODEL 4
REMARK VINA RESULT: -4.283588432      3.475      4.332
REMARK  5 active torsions:
REMARK  status: ('A' for Active; 'I' for Inactive)
REMARK    1  A    between atoms: N1_2  and  N2_3 
REMARK    2  A    between atoms: N1_2  and  C2_6 
REMARK    3  A    between atoms: N3_7  and  N4_9 
REMARK    4  A    between atoms: N4_9  and  C3_11 
REMARK    5  A    between atoms: C3_11  and  C4_12 
ROOT
HETATM    1  C2  UNL     1      13.686   2.712   4.303  1.00  0.00     0.215 C 
HETATM    2  N3  UNL     1      12.653   3.208   3.726  1.00  0.00    -0.299 N 
ATOM      3  H3  UNL     1      11.833   2.617   3.588  1.00  0.00     0.187 HD
ENDROOT
BRANCH   2   4
HETATM    4  N4  UNL     1      12.617   4.531   3.279  1.00  0.00    -0.335 N 
ATOM      5  H4  UNL     1      11.712   4.954   3.076  1.00  0.00     0.180 HD
BRANCH   4   6
HETATM    6  C3  UNL     1      13.808   5.323   3.096  1.00  0.00     0.144 C 
BRANCH   6   7
HETATM    7  C4  UNL     1      14.218   5.328   1.663  1.00  0.00     0.005 A 
HETATM    8  C5  UNL     1      14.549   4.082   0.933  1.00  0.00     0.007 A 
HETATM    9  C6  UNL     1      15.643   4.968   1.392  1.00  0.00     0.007 A 
ENDBRANCH   6   7
ENDBRANCH   4   6
ENDBRANCH   2   4
BRANCH   1  10
HETATM   10  N1  UNL     1      13.722   1.376   4.753  1.00  0.00    -0.297 N 
HETATM   11  C1  UNL     1      14.799   0.496   4.340  1.00  0.00     0.178 C 
BRANCH  10  12
HETATM   12  N2  UNL     1      12.735   0.895   5.592  1.00  0.00    -0.342 N 
ATOM     13  H22 UNL     1      11.854   0.555   5.208  1.00  0.00     0.177 HD
ATOM     14  H21 UNL     1      12.894   0.886   6.599  1.00  0.00     0.177 HD
ENDBRANCH  10  12
ENDBRANCH   1  10
TORSDOF 5
ENDMDL
MODEL 5
REMARK VINA RESULT: -4.219203577      2.861      3.474
REMARK  5 active torsions:
REMARK  status: ('A' for Active; 'I' for Inactive)
REMARK    1  A    between atoms: N1_2  and  N2_3 
REMARK    2  A    between atoms: N1_2  and  C2_6 
REMARK    3  A    between atoms: N3_7  and  N4_9 
REMARK    4  A    between atoms: N4_9  and  C3_11 
REMARK    5  A    between atoms: C3_11  and  C4_12 
ROOT
HETATM    1  C2  UNL     1      14.798   3.066   3.354  1.00  0.00     0.215 C 
HETATM    2  N3  UNL     1      14.214   4.066   3.908  1.00  0.00    -0.299 N 
ATOM      3  H3  UNL     1      14.063   4.054   4.916  1.00  0.00     0.187 HD
ENDROOT
BRANCH   2   4
HETATM    4  N4  UNL     1      13.779   5.171   3.172  1.00  0.00    -0.335 N 
ATOM      5  H4  UNL     1      14.442   5.638   2.553  1.00  0.00     0.180 HD
BRANCH   4   6
HETATM    6  C3  UNL     1      12.431   5.676   3.250  1.00  0.00     0.144 C 
BRANCH   6   7
HETATM    7  C4  UNL     1      11.447   4.560   3.158  1.00  0.00     0.005 A 
HETATM    8  C5  UNL     1      10.009   4.798   2.890  1.00  0.00     0.007 A 
HETATM    9  C6  UNL     1      10.449   4.481   4.268  1.00  0.00     0.007 A 
ENDBRANCH   6   7
ENDBRANCH   4   6
ENDBRANCH   2   4
BRANCH   1  10
HETATM   10  N1  UNL     1      15.236   1.951   4.098  1.00  0.00    -0.297 N 
HETATM   11  C1  UNL     1      14.390   0.779   4.223  1.00  0.00     0.178 C 
BRANCH  10  12
HETATM   12  N2  UNL     1      16.474   1.964   4.711  1.00  0.00    -0.342 N 
ATOM     13  H22 UNL     1      17.159   2.682   4.473  1.00  0.00     0.177 HD
ATOM     14  H21 UNL     1      16.699   1.250   5.402  1.00  0.00     0.177 HD
ENDBRANCH  10  12
ENDBRANCH   1  10
TORSDOF 5
ENDMDL
