MODEL 1
REMARK VINA RESULT: -4.628377224      0.000      0.000
REMARK  4 active torsions:
REMARK  status: ('A' for Active; 'I' for Inactive)
REMARK    1  A    between atoms: N1_2  and  C2_5 
REMARK    2  A    between atoms: C2_5  and  C3_6 
REMARK    3  A    between atoms: C3_6  and  C4_7 
REMARK    4  A    between atoms: C4_7  and  C5_8 
ROOT
HETATM    1  C5  UNL     1      13.402   3.678   4.206  1.00  0.00     0.096 A 
HETATM    2  N2  UNL     1      12.287   2.914   4.180  1.00  0.00    -0.288 N 
ATOM      3  H2  UNL     1      11.361   3.229   3.893  1.00  0.00     0.188 HD
HETATM    4  N3  UNL     1      12.588   1.693   4.586  1.00  0.00    -0.295 N 
ATOM      5  H3  UNL     1      11.929   0.917   4.662  1.00  0.00     0.187 HD
HETATM    6  C6  UNL     1      13.897   1.633   4.885  1.00  0.00     0.198 A 
HETATM    7  N4  UNL     1      14.382   2.864   4.645  1.00  0.00    -0.340 N 
ATOM      8  H4  UNL     1      15.354   3.142   4.777  1.00  0.00     0.168 HD
ENDROOT
BRANCH   1   9
HETATM    9  C4  UNL     1      13.539   5.114   3.835  1.00  0.00     0.079 C 
BRANCH   9  10
HETATM   10  C3  UNL     1      13.119   5.305   2.372  1.00  0.00     0.035 C 
BRANCH  10  11
HETATM   11  C2  UNL     1      14.115   4.696   1.438  1.00  0.00     0.232 C 
BRANCH  11  12
HETATM   12  N1  UNL     1      15.370   5.382   1.371  1.00  0.00    -0.079 N 
HETATM   13  C1  UNL     1      16.407   4.400   1.709  1.00  0.00     0.266 C 
ATOM     14  H12 UNL     1      15.403   6.218   1.955  1.00  0.00     0.276 HD
ATOM     15  H11 UNL     1      15.529   5.844   0.476  1.00  0.00     0.276 HD
ENDBRANCH  11  12
ENDBRANCH  10  11
ENDBRANCH   9  10
ENDBRANCH   1   9
TORSDOF 4
ENDMDL
MODEL 2
REMARK VINA RESULT: -4.592794231      0.865      1.292
REMARK  4 active torsions:
REMARK  status: ('A' for Active; 'I' for Inactive)
REMARK    1  A    between atoms: N1_2  and  C2_5 
REMARK    2  A    between atoms: C2_5  and  C3_6 
REMARK    3  A    between atoms: C3_6  and  C4_7 
REMARK    4  A    between atoms: C4_7  and  C5_8 
ROOT
HETATM    1  C5  UNL     1      13.235   3.311   3.839  1.00  0.00     0.096 A 
HETATM    2  N2  UNL     1      14.218   3.407   4.763  1.00  0.00    -0.288 N 
ATOM      3  H2  UNL     1      14.477   4.257   5.263  1.00  0.00     0.188 HD
HETATM    4  N3  UNL     1      14.790   2.226   4.915  1.00  0.00    -0.295 N 
ATOM      5  H3  UNL     1      15.561   2.021   5.551  1.00  0.00     0.187 HD
HETATM    6  C6  UNL     1      14.198   1.337   4.099  1.00  0.00     0.198 A 
HETATM    7  N4  UNL     1      13.244   2.022   3.445  1.00  0.00    -0.340 N 
ATOM      8  H4  UNL     1      12.615   1.623   2.748  1.00  0.00     0.168 HD
ENDROOT
BRANCH   1   9
HETATM    9  C4  UNL     1      12.329   4.384   3.349  1.00  0.00     0.079 C 
BRANCH   9  10
HETATM   10  C3  UNL     1      13.160   5.497   2.697  1.00  0.00     0.035 C 
BRANCH  10  11
HETATM   11  C2  UNL     1      13.921   4.984   1.517  1.00  0.00     0.232 C 
BRANCH  11  12
HETATM   12  N1  UNL     1      15.273   5.445   1.430  1.00  0.00    -0.079 N 
HETATM   13  C1  UNL     1      16.133   4.301   1.756  1.00  0.00     0.266 C 
ATOM     14  H12 UNL     1      15.457   6.264   2.010  1.00  0.00     0.276 HD
ATOM     15  H11 UNL     1      15.496   5.872   0.531  1.00  0.00     0.276 HD
ENDBRANCH  11  12
ENDBRANCH  10  11
ENDBRANCH   9  10
ENDBRANCH   1   9
TORSDOF 4
ENDMDL
MODEL 3
REMARK VINA RESULT: -4.531411135      1.986      4.562
REMARK  4 active torsions:
REMARK  status: ('A' for Active; 'I' for Inactive)
REMARK    1  A    between atoms: N1_2  and  C2_5 
REMARK    2  A    between atoms: C2_5  and  C3_6 
REMARK    3  A    between atoms: C3_6  and  C4_7 
REMARK    4  A    between atoms: C4_7  and  C5_8 
ROOT
HETATM    1  C5  UNL     1      14.439   4.736   3.034  1.00  0.00     0.096 A 
HETATM    2  N2  UNL     1      14.374   5.729   2.118  1.00  0.00    -0.288 N 
ATOM      3  H2  UNL     1      13.689   6.484   2.113  1.00  0.00     0.188 HD
HETATM    4  N3  UNL     1      15.340   5.566   1.232  1.00  0.00    -0.295 N 
ATOM      5  H3  UNL     1      15.518   6.177   0.433  1.00  0.00     0.187 HD
HETATM    6  C6  UNL     1      16.053   4.471   1.545  1.00  0.00     0.198 A 
HETATM    7  N4  UNL     1      15.484   3.972   2.657  1.00  0.00    -0.340 N 
ATOM      8  H4  UNL     1      15.798   3.134   3.147  1.00  0.00     0.168 HD
ENDROOT
BRANCH   1   9
HETATM    9  C4  UNL     1      13.555   4.514   4.211  1.00  0.00     0.079 C 
BRANCH   9  10
HETATM   10  C3  UNL     1      12.371   3.628   3.801  1.00  0.00     0.035 C 
BRANCH  10  11
HETATM   11  C2  UNL     1      11.092   4.403   3.793  1.00  0.00     0.232 C 
BRANCH  11  12
HETATM   12  N1  UNL     1      10.018   3.793   4.517  1.00  0.00    -0.079 N 
HETATM   13  C1  UNL     1       9.425   4.842   5.356  1.00  0.00     0.266 C 
ATOM     14  H12 UNL     1      10.306   2.970   5.046  1.00  0.00     0.276 HD
ATOM     15  H11 UNL     1       9.340   3.329   3.914  1.00  0.00     0.276 HD
ENDBRANCH  11  12
ENDBRANCH  10  11
ENDBRANCH   9  10
ENDBRANCH   1   9
TORSDOF 4
ENDMDL
MODEL 4
REMARK VINA RESULT: -4.443659744      1.391      3.950
REMARK  4 active torsions:
REMARK  status: ('A' for Active; 'I' for Inactive)
REMARK    1  A    between atoms: N1_2  and  C2_5 
REMARK    2  A    between atoms: C2_5  and  C3_6 
REMARK    3  A    between atoms: C3_6  and  C4_7 
REMARK    4  A    between atoms: C4_7  and  C5_8 
ROOT
HETATM    1  C5  UNL     1      14.493   4.736   2.961  1.00  0.00     0.096 A 
HETATM    2  N2  UNL     1      14.453   5.705   2.019  1.00  0.00    -0.288 N 
ATOM      3  H2  UNL     1      13.752   6.443   1.961  1.00  0.00     0.188 HD
HETATM    4  N3  UNL     1      15.466   5.544   1.187  1.00  0.00    -0.295 N 
ATOM      5  H3  UNL     1      15.670   6.139   0.384  1.00  0.00     0.187 HD
HETATM    6  C6  UNL     1      16.187   4.473   1.563  1.00  0.00     0.198 A 
HETATM    7  N4  UNL     1      15.573   3.988   2.657  1.00  0.00    -0.340 N 
ATOM      8  H4  UNL     1      15.880   3.170   3.183  1.00  0.00     0.168 HD
ENDROOT
BRANCH   1   9
HETATM    9  C4  UNL     1      13.556   4.522   4.098  1.00  0.00     0.079 C 
BRANCH   9  10
HETATM   10  C3  UNL     1      12.466   3.526   3.681  1.00  0.00     0.035 C 
BRANCH  10  11
HETATM   11  C2  UNL     1      12.695   2.183   4.298  1.00  0.00     0.232 C 
BRANCH  11  12
HETATM   12  N1  UNL     1      13.417   1.261   3.475  1.00  0.00    -0.079 N 
HETATM   13  C1  UNL     1      14.622   0.881   4.222  1.00  0.00     0.266 C 
ATOM     14  H12 UNL     1      13.619   1.626   2.544  1.00  0.00     0.276 HD
ATOM     15  H11 UNL     1      12.857   0.461   3.181  1.00  0.00     0.276 HD
ENDBRANCH  11  12
ENDBRANCH  10  11
ENDBRANCH   9  10
ENDBRANCH   1   9
TORSDOF 4
ENDMDL
MODEL 5
REMARK VINA RESULT: -4.346693242      1.864      3.297
REMARK  4 active torsions:
REMARK  status: ('A' for Active; 'I' for Inactive)
REMARK    1  A    between atoms: N1_2  and  C2_5 
REMARK    2  A    between atoms: C2_5  and  C3_6 
REMARK    3  A    between atoms: C3_6  and  C4_7 
REMARK    4  A    between atoms: C4_7  and  C5_8 
ROOT
HETATM    1  C5  UNL     1      14.618   2.934   3.223  1.00  0.00     0.096 A 
HETATM    2  N2  UNL     1      15.763   2.594   3.857  1.00  0.00    -0.288 N 
ATOM      3  H2  UNL     1      16.611   3.159   3.888  1.00  0.00     0.188 HD
HETATM    4  N3  UNL     1      15.608   1.414   4.430  1.00  0.00    -0.295 N 
ATOM      5  H3  UNL     1      16.319   0.924   4.974  1.00  0.00     0.187 HD
HETATM    6  C6  UNL     1      14.367   0.959   4.186  1.00  0.00     0.198 A 
HETATM    7  N4  UNL     1      13.772   1.908   3.441  1.00  0.00    -0.340 N 
ATOM      8  H4  UNL     1      12.816   1.858   3.090  1.00  0.00     0.168 HD
ENDROOT
BRANCH   1   9
HETATM    9  C4  UNL     1      14.333   4.171   2.445  1.00  0.00     0.079 C 
BRANCH   9  10
HETATM   10  C3  UNL     1      13.677   5.211   3.362  1.00  0.00     0.035 C 
BRANCH  10  11
HETATM   11  C2  UNL     1      12.186   5.165   3.254  1.00  0.00     0.232 C 
BRANCH  11  12
HETATM   12  N1  UNL     1      11.524   4.556   4.367  1.00  0.00    -0.079 N 
HETATM   13  C1  UNL     1      10.166   4.224   3.921  1.00  0.00     0.266 C 
ATOM     14  H12 UNL     1      11.542   5.130   5.210  1.00  0.00     0.276 HD
ATOM     15  H11 UNL     1      12.030   3.755   4.746  1.00  0.00     0.276 HD
ENDBRANCH  11  12
ENDBRANCH  10  11
ENDBRANCH   9  10
ENDBRANCH   1   9
TORSDOF 4
ENDMDL
