MODEL 1
REMARK VINA RESULT: -4.371597393      0.000      0.000
REMARK  5 active torsions:
REMARK  status: ('A' for Active; 'I' for Inactive)
REMARK    1  A    between atoms: N1_1  and  C1_5 
REMARK    2  A    between atoms: C1_5  and  C2_6 
REMARK    3  A    between atoms: C2_6  and  O1_7 
REMARK    4  A    between atoms: O1_7  and  C3_8 
REMARK    5  A    between atoms: C3_8  and  C4_9 
ROOT
HETATM    1  C3  UNL     1      19.149   3.367   3.094  1.00  0.00     0.244 C 
ENDROOT
BRANCH   1   2
HETATM    2  O1  UNL     1      17.966   3.191   2.446  1.00  0.00    -0.382 OA
BRANCH   2   3
HETATM    3  C2  UNL     1      17.333   4.323   2.055  1.00  0.00     0.195 C 
BRANCH   3   4
HETATM    4  C1  UNL     1      15.869   4.096   1.824  1.00  0.00     0.255 C 
BRANCH   4   5
HETATM    5  N1  UNL     1      15.236   5.298   1.279  1.00  0.00    -0.077 N 
ATOM      6  H13 UNL     1      15.848   6.111   1.347  1.00  0.00     0.274 HD
ATOM      7  H12 UNL     1      15.152   5.253   0.264  1.00  0.00     0.274 HD
ATOM      8  H11 UNL     1      14.334   5.467   1.726  1.00  0.00     0.274 HD
ENDBRANCH   4   5
ENDBRANCH   3   4
ENDBRANCH   2   3
ENDBRANCH   1   2
BRANCH   1   9
HETATM    9  C4  UNL     1      20.228   2.827   2.196  1.00  0.00     0.105 A 
HETATM   10  N2  UNL     1      20.715   3.398   1.089  1.00  0.00    -0.353 N 
HETATM   11  C5  UNL     1      21.654   2.598   0.587  1.00  0.00     0.106 A 
ATOM     12  H2  UNL     1      20.417   4.292   0.695  1.00  0.00     0.166 HD
HETATM   13  C6  UNL     1      21.757   1.485   1.415  1.00  0.00     0.106 A 
HETATM   14  N3  UNL     1      20.853   1.664   2.405  1.00  0.00    -0.353 N 
ATOM     15  H3  UNL     1      20.679   1.023   3.179  1.00  0.00     0.166 HD
ENDBRANCH   1   9
TORSDOF 5
ENDMDL
MODEL 2
REMARK VINA RESULT: -4.308214033      2.214      6.165
REMARK  5 active torsions:
REMARK  status: ('A' for Active; 'I' for Inactive)
REMARK    1  A    between atoms: N1_1  and  C1_5 
REMARK    2  A    between atoms: C1_5  and  C2_6 
REMARK    3  A    between atoms: C2_6  and  O1_7 
REMARK    4  A    between atoms: O1_7  and  C3_8 
REMARK    5  A    between atoms: C3_8  and  C4_9 
ROOT
HETATM    1  C3  UNL     1      16.060   4.482   1.377  1.00  0.00     0.244 C 
ENDROOT
BRANCH   1   2
HETATM    2  O1  UNL     1      16.903   3.717   2.121  1.00  0.00    -0.382 OA
BRANCH   2   3
HETATM    3  C2  UNL     1      18.195   4.123   2.153  1.00  0.00     0.195 C 
BRANCH   3   4
HETATM    4  C1  UNL     1      19.022   3.288   3.084  1.00  0.00     0.255 C 
BRANCH   4   5
HETATM    5  N1  UNL     1      20.170   4.046   3.583  1.00  0.00    -0.077 N 
ATOM      6  H13 UNL     1      19.878   4.859   4.125  1.00  0.00     0.274 HD
ATOM      7  H12 UNL     1      20.665   3.541   4.318  1.00  0.00     0.274 HD
ATOM      8  H11 UNL     1      20.793   4.307   2.818  1.00  0.00     0.274 HD
ENDBRANCH   4   5
ENDBRANCH   3   4
ENDBRANCH   2   3
ENDBRANCH   1   2
BRANCH   1   9
HETATM    9  C4  UNL     1      14.876   4.807   2.246  1.00  0.00     0.105 A 
HETATM   10  N2  UNL     1      14.510   4.187   3.373  1.00  0.00    -0.353 N 
HETATM   11  C5  UNL     1      13.408   4.778   3.834  1.00  0.00     0.106 A 
ATOM     12  H2  UNL     1      14.991   3.397   3.805  1.00  0.00     0.166 HD
HETATM   13  C6  UNL     1      13.075   5.807   2.959  1.00  0.00     0.106 A 
HETATM   14  N3  UNL     1      14.013   5.793   1.984  1.00  0.00    -0.353 N 
ATOM     15  H3  UNL     1      14.054   6.427   1.185  1.00  0.00     0.166 HD
ENDBRANCH   1   9
TORSDOF 5
ENDMDL
MODEL 3
REMARK VINA RESULT: -4.307268956      1.283      5.677
REMARK  5 active torsions:
REMARK  status: ('A' for Active; 'I' for Inactive)
REMARK    1  A    between atoms: N1_1  and  C1_5 
REMARK    2  A    between atoms: C1_5  and  C2_6 
REMARK    3  A    between atoms: C2_6  and  O1_7 
REMARK    4  A    between atoms: O1_7  and  C3_8 
REMARK    5  A    between atoms: C3_8  and  C4_9 
ROOT
HETATM    1  C3  UNL     1      17.330   4.349   1.935  1.00  0.00     0.244 C 
ENDROOT
BRANCH   1   2
HETATM    2  O1  UNL     1      17.781   3.204   2.514  1.00  0.00    -0.382 OA
BRANCH   2   3
HETATM    3  C2  UNL     1      18.973   3.294   3.151  1.00  0.00     0.195 C 
BRANCH   3   4
HETATM    4  C1  UNL     1      20.125   3.073   2.218  1.00  0.00     0.255 C 
BRANCH   4   5
HETATM    5  N1  UNL     1      20.761   1.779   2.472  1.00  0.00    -0.077 N 
ATOM      6  H13 UNL     1      21.542   1.864   3.122  1.00  0.00     0.274 HD
ATOM      7  H12 UNL     1      20.163   1.169   3.030  1.00  0.00     0.274 HD
ATOM      8  H11 UNL     1      21.043   1.336   1.598  1.00  0.00     0.274 HD
ENDBRANCH   4   5
ENDBRANCH   3   4
ENDBRANCH   2   3
ENDBRANCH   1   2
BRANCH   1   9
HETATM    9  C4  UNL     1      15.836   4.376   2.117  1.00  0.00     0.105 A 
HETATM   10  N2  UNL     1      15.057   3.369   2.527  1.00  0.00    -0.353 N 
HETATM   11  C5  UNL     1      13.797   3.803   2.551  1.00  0.00     0.106 A 
ATOM     12  H2  UNL     1      15.372   2.431   2.777  1.00  0.00     0.166 HD
HETATM   13  C6  UNL     1      13.793   5.132   2.141  1.00  0.00     0.106 A 
HETATM   14  N3  UNL     1      15.081   5.453   1.880  1.00  0.00    -0.353 N 
ATOM     15  H3  UNL     1      15.417   6.359   1.557  1.00  0.00     0.166 HD
ENDBRANCH   1   9
TORSDOF 5
ENDMDL
MODEL 4
REMARK VINA RESULT: -4.296467928      1.371      5.608
REMARK  5 active torsions:
REMARK  status: ('A' for Active; 'I' for Inactive)
REMARK    1  A    between atoms: N1_1  and  C1_5 
REMARK    2  A    between atoms: C1_5  and  C2_6 
REMARK    3  A    between atoms: C2_6  and  O1_7 
REMARK    4  A    between atoms: O1_7  and  C3_8 
REMARK    5  A    between atoms: C3_8  and  C4_9 
ROOT
HETATM    1  C3  UNL     1      17.228   4.366   1.929  1.00  0.00     0.244 C 
ENDROOT
BRANCH   1   2
HETATM    2  O1  UNL     1      17.718   3.212   2.456  1.00  0.00    -0.382 OA
BRANCH   2   3
HETATM    3  C2  UNL     1      18.895   3.317   3.117  1.00  0.00     0.195 C 
BRANCH   3   4
HETATM    4  C1  UNL     1      20.069   3.083   2.213  1.00  0.00     0.255 C 
BRANCH   4   5
HETATM    5  N1  UNL     1      20.730   1.818   2.536  1.00  0.00    -0.077 N 
ATOM      6  H13 UNL     1      21.745   1.915   2.545  1.00  0.00     0.274 HD
ATOM      7  H12 UNL     1      20.592   1.559   3.513  1.00  0.00     0.274 HD
ATOM      8  H11 UNL     1      20.427   1.078   1.902  1.00  0.00     0.274 HD
ENDBRANCH   4   5
ENDBRANCH   3   4
ENDBRANCH   2   3
ENDBRANCH   1   2
BRANCH   1   9
HETATM    9  C4  UNL     1      15.755   4.401   2.236  1.00  0.00     0.105 A 
HETATM   10  N2  UNL     1      14.938   5.456   2.143  1.00  0.00    -0.353 N 
HETATM   11  C5  UNL     1      13.716   5.067   2.505  1.00  0.00     0.106 A 
ATOM     12  H2  UNL     1      15.204   6.395   1.846  1.00  0.00     0.166 HD
HETATM   13  C6  UNL     1      13.775   3.717   2.837  1.00  0.00     0.106 A 
HETATM   14  N3  UNL     1      15.061   3.339   2.656  1.00  0.00    -0.353 N 
ATOM     15  H3  UNL     1      15.437   2.404   2.814  1.00  0.00     0.166 HD
ENDBRANCH   1   9
TORSDOF 5
ENDMDL
MODEL 5
REMARK VINA RESULT: -4.294472120      2.217      6.037
REMARK  5 active torsions:
REMARK  status: ('A' for Active; 'I' for Inactive)
REMARK    1  A    between atoms: N1_1  and  C1_5 
REMARK    2  A    between atoms: C1_5  and  C2_6 
REMARK    3  A    between atoms: C2_6  and  O1_7 
REMARK    4  A    between atoms: O1_7  and  C3_8 
REMARK    5  A    between atoms: C3_8  and  C4_9 
ROOT
HETATM    1  C3  UNL     1      16.107   4.497   1.367  1.00  0.00     0.244 C 
ENDROOT
BRANCH   1   2
HETATM    2  O1  UNL     1      16.931   3.741   2.141  1.00  0.00    -0.382 OA
BRANCH   2   3
HETATM    3  C2  UNL     1      18.235   4.107   2.148  1.00  0.00     0.195 C 
BRANCH   3   4
HETATM    4  C1  UNL     1      19.042   3.289   3.111  1.00  0.00     0.255 C 
BRANCH   4   5
HETATM    5  N1  UNL     1      20.197   4.047   3.597  1.00  0.00    -0.077 N 
ATOM      6  H13 UNL     1      20.812   4.327   2.833  1.00  0.00     0.274 HD
ATOM      7  H12 UNL     1      19.928   4.974   3.926  1.00  0.00     0.274 HD
ATOM      8  H11 UNL     1      20.699   3.522   4.313  1.00  0.00     0.274 HD
ENDBRANCH   4   5
ENDBRANCH   3   4
ENDBRANCH   2   3
ENDBRANCH   1   2
BRANCH   1   9
HETATM    9  C4  UNL     1      14.907   4.843   2.207  1.00  0.00     0.105 A 
HETATM   10  N2  UNL     1      14.025   5.823   1.985  1.00  0.00    -0.353 N 
HETATM   11  C5  UNL     1      13.118   5.793   2.961  1.00  0.00     0.106 A 
ATOM     12  H2  UNL     1      14.042   6.479   1.204  1.00  0.00     0.166 HD
HETATM   13  C6  UNL     1      13.449   4.754   3.824  1.00  0.00     0.106 A 
HETATM   14  N3  UNL     1      14.569   4.186   3.321  1.00  0.00    -0.353 N 
ATOM     15  H3  UNL     1      15.069   3.393   3.722  1.00  0.00     0.166 HD
ENDBRANCH   1   9
TORSDOF 5
ENDMDL
