MODEL 1
REMARK VINA RESULT: -8.635267889      0.000      0.000
REMARK  16 active torsions:
REMARK  status: ('A' for Active; 'I' for Inactive)
REMARK    1  A    between atoms: C2_2  and  C3_3 
REMARK    2  A    between atoms: C3_3  and  C4_4 
REMARK    3  A    between atoms: C4_4  and  C5_5 
REMARK    4  A    between atoms: C5_5  and  C6_6 
REMARK    5  A    between atoms: C6_6  and  C7_7 
REMARK    6  A    between atoms: C8_9  and  C9_10 
REMARK    7  A    between atoms: C10_11  and  C11_12 
REMARK    8  A    between atoms: C11_12  and  O2_13 
REMARK    9  A    between atoms: O2_13  and  C12_14 
REMARK   10  A    between atoms: C13_16  and  C14_17 
REMARK   11  A    between atoms: C14_17  and  O4_18 
REMARK   12  A    between atoms: C15_20  and  O5_21 
REMARK   13  A    between atoms: C16_23  and  O6_24 
REMARK   14  A    between atoms: C17_26  and  N1_27 
REMARK   15  A    between atoms: C22_32  and  O7_33 
REMARK   16  A    between atoms: C23_35  and  O8_36 
ROOT
HETATM    1  O2  UNL     1      37.590  51.417  12.226  1.00  0.00    -0.347 OA
ENDROOT
BRANCH   1   2
HETATM    2  C11 UNL     1      38.901  51.730  11.895  1.00  0.00     0.264 C 
BRANCH   2   3
HETATM    3  C10 UNL     1      39.601  50.707  11.156  1.00  0.00    -0.078 C 
HETATM    4  C9  UNL     1      40.195  49.867  10.559  1.00  0.00    -0.070 C 
BRANCH   4   5
HETATM    5  C8  UNL     1      40.949  48.837   9.839  1.00  0.00     0.232 C 
HETATM    6  O1  UNL     1      41.144  47.707  10.580  1.00  0.00    -0.363 OA
HETATM    7  C7  UNL     1      40.530  46.626   9.944  1.00  0.00     0.154 C 
HETATM    8  C23 UNL     1      40.583  46.962   8.488  1.00  0.00     0.179 C 
HETATM    9  C22 UNL     1      40.339  48.476   8.528  1.00  0.00     0.190 C 
BRANCH   7  10
HETATM   10  C6  UNL     1      41.277  45.395  10.309  1.00  0.00     0.035 C 
BRANCH  10  11
HETATM   11  C5  UNL     1      41.038  44.209   9.370  1.00  0.00     0.002 C 
BRANCH  11  12
HETATM   12  C4  UNL     1      39.980  43.303   9.894  1.00  0.00     0.000 C 
BRANCH  12  13
HETATM   13  C3  UNL     1      39.512  42.283   8.934  1.00  0.00    -0.000 C 
BRANCH  13  14
HETATM   14  C2  UNL     1      39.136  40.940   9.429  1.00  0.00    -0.005 C 
HETATM   15  C1  UNL     1      39.382  39.781   8.541  1.00  0.00     0.005 C 
ENDBRANCH  13  14
ENDBRANCH  12  13
ENDBRANCH  11  12
ENDBRANCH  10  11
ENDBRANCH   7  10
BRANCH   8  16
HETATM   16  O8  UNL     1      39.578  46.420   7.728  1.00  0.00    -0.390 OA
ATOM     17  H8  UNL     1      39.867  45.874   7.007  1.00  0.00     0.210 HD
ENDBRANCH   8  16
BRANCH   9  18
HETATM   18  O7  UNL     1      40.978  49.067   7.441  1.00  0.00    -0.389 OA
ATOM     19  H7  UNL     1      40.516  49.822   7.098  1.00  0.00     0.210 HD
ENDBRANCH   9  18
ENDBRANCH   4   5
ENDBRANCH   2   3
ENDBRANCH   1   2
BRANCH   1  20
HETATM   20  C12 UNL     1      37.581  50.532  13.269  1.00  0.00     0.297 C 
HETATM   21  O3  UNL     1      38.605  50.844  14.121  1.00  0.00    -0.349 OA
HETATM   22  C13 UNL     1      38.312  51.468  15.291  1.00  0.00     0.179 C 
HETATM   23  C15 UNL     1      37.110  50.985  16.031  1.00  0.00     0.180 C 
HETATM   24  C16 UNL     1      36.509  49.771  15.306  1.00  0.00     0.187 C 
HETATM   25  C17 UNL     1      36.243  50.304  13.889  1.00  0.00     0.308 C 
BRANCH  22  26
HETATM   26  C14 UNL     1      38.353  52.996  15.170  1.00  0.00     0.198 C 
BRANCH  26  27
HETATM   27  O4  UNL     1      39.671  53.442  15.105  1.00  0.00    -0.398 OA
ATOM     28  H4  UNL     1      39.830  53.886  14.280  1.00  0.00     0.209 HD
ENDBRANCH  26  27
ENDBRANCH  22  26
BRANCH  23  29
HETATM   29  O5  UNL     1      37.393  50.535  17.326  1.00  0.00    -0.390 OA
ATOM     30  H5  UNL     1      37.454  49.589  17.396  1.00  0.00     0.210 HD
ENDBRANCH  23  29
BRANCH  24  31
HETATM   31  O6  UNL     1      37.447  48.747  15.226  1.00  0.00    -0.391 OA
ATOM     32  H6  UNL     1      37.051  47.919  15.474  1.00  0.00     0.210 HD
ENDBRANCH  24  31
BRANCH  25  33
HETATM   33  N1  UNL     1      35.398  51.430  14.038  1.00  0.00     0.100 N 
HETATM   34  C18 UNL     1      34.188  50.994  14.711  1.00  0.00     0.273 C 
HETATM   35  C19 UNL     1      33.093  51.941  14.349  1.00  0.00     0.032 C 
HETATM   36  C20 UNL     1      33.619  52.737  13.188  1.00  0.00     0.032 C 
HETATM   37  C21 UNL     1      34.974  52.096  12.853  1.00  0.00     0.273 C 
ENDBRANCH  25  33
ENDBRANCH   1  20
TORSDOF 16
ENDMDL
MODEL 2
REMARK VINA RESULT: -8.551203865      0.829      1.397
REMARK  16 active torsions:
REMARK  status: ('A' for Active; 'I' for Inactive)
REMARK    1  A    between atoms: C2_2  and  C3_3 
REMARK    2  A    between atoms: C3_3  and  C4_4 
REMARK    3  A    between atoms: C4_4  and  C5_5 
REMARK    4  A    between atoms: C5_5  and  C6_6 
REMARK    5  A    between atoms: C6_6  and  C7_7 
REMARK    6  A    between atoms: C8_9  and  C9_10 
REMARK    7  A    between atoms: C10_11  and  C11_12 
REMARK    8  A    between atoms: C11_12  and  O2_13 
REMARK    9  A    between atoms: O2_13  and  C12_14 
REMARK   10  A    between atoms: C13_16  and  C14_17 
REMARK   11  A    between atoms: C14_17  and  O4_18 
REMARK   12  A    between atoms: C15_20  and  O5_21 
REMARK   13  A    between atoms: C16_23  and  O6_24 
REMARK   14  A    between atoms: C17_26  and  N1_27 
REMARK   15  A    between atoms: C22_32  and  O7_33 
REMARK   16  A    between atoms: C23_35  and  O8_36 
ROOT
HETATM    1  O2  UNL     1      37.434  51.472  12.326  1.00  0.00    -0.347 OA
ENDROOT
BRANCH   1   2
HETATM    2  C11 UNL     1      38.731  51.848  12.006  1.00  0.00     0.264 C 
BRANCH   2   3
HETATM    3  C10 UNL     1      39.488  50.856  11.283  1.00  0.00    -0.078 C 
HETATM    4  C9  UNL     1      40.111  50.024  10.703  1.00  0.00    -0.070 C 
BRANCH   4   5
HETATM    5  C8  UNL     1      40.877  48.983  10.010  1.00  0.00     0.232 C 
HETATM    6  O1  UNL     1      40.086  47.986   9.515  1.00  0.00    -0.363 OA
HETATM    7  C7  UNL     1      40.216  47.942   8.125  1.00  0.00     0.154 C 
HETATM    8  C23 UNL     1      41.605  48.427   7.858  1.00  0.00     0.179 C 
HETATM    9  C22 UNL     1      41.743  49.522   8.924  1.00  0.00     0.190 C 
BRANCH   7  10
HETATM   10  C6  UNL     1      39.967  46.544   7.686  1.00  0.00     0.035 C 
BRANCH  10  11
HETATM   11  C5  UNL     1      39.538  45.597   8.811  1.00  0.00     0.002 C 
BRANCH  11  12
HETATM   12  C4  UNL     1      40.687  44.800   9.319  1.00  0.00     0.000 C 
BRANCH  12  13
HETATM   13  C3  UNL     1      40.331  43.454   9.814  1.00  0.00    -0.000 C 
BRANCH  13  14
HETATM   14  C2  UNL     1      39.495  42.569   8.972  1.00  0.00    -0.005 C 
HETATM   15  C1  UNL     1      39.131  41.240   9.514  1.00  0.00     0.005 C 
ENDBRANCH  13  14
ENDBRANCH  12  13
ENDBRANCH  11  12
ENDBRANCH  10  11
ENDBRANCH   7  10
BRANCH   8  16
HETATM   16  O8  UNL     1      41.786  49.035   6.641  1.00  0.00    -0.390 OA
ATOM     17  H8  UNL     1      42.419  49.743   6.635  1.00  0.00     0.210 HD
ENDBRANCH   8  16
BRANCH   9  18
HETATM   18  O7  UNL     1      43.082  49.630   9.290  1.00  0.00    -0.389 OA
ATOM     19  H7  UNL     1      43.667  49.735   8.549  1.00  0.00     0.210 HD
ENDBRANCH   9  18
ENDBRANCH   4   5
ENDBRANCH   2   3
ENDBRANCH   1   2
BRANCH   1  20
HETATM   20  C12 UNL     1      37.457  50.593  13.373  1.00  0.00     0.297 C 
HETATM   21  O3  UNL     1      38.508  50.909  14.190  1.00  0.00    -0.349 OA
HETATM   22  C13 UNL     1      38.253  51.539  15.366  1.00  0.00     0.179 C 
HETATM   23  C15 UNL     1      37.075  51.062  16.146  1.00  0.00     0.180 C 
HETATM   24  C16 UNL     1      36.450  49.845  15.448  1.00  0.00     0.187 C 
HETATM   25  C17 UNL     1      36.139  50.370  14.037  1.00  0.00     0.308 C 
BRANCH  22  26
HETATM   26  C14 UNL     1      38.292  53.066  15.235  1.00  0.00     0.198 C 
BRANCH  26  27
HETATM   27  O4  UNL     1      39.609  53.513  15.152  1.00  0.00    -0.398 OA
ATOM     28  H4  UNL     1      39.660  54.435  15.376  1.00  0.00     0.209 HD
ENDBRANCH  26  27
ENDBRANCH  22  26
BRANCH  23  29
HETATM   29  O5  UNL     1      37.399  50.619  17.435  1.00  0.00    -0.390 OA
ATOM     30  H5  UNL     1      36.801  49.963  17.773  1.00  0.00     0.210 HD
ENDBRANCH  23  29
BRANCH  24  31
HETATM   31  O6  UNL     1      37.384  48.819  15.344  1.00  0.00    -0.391 OA
ATOM     32  H6  UNL     1      37.132  48.089  15.897  1.00  0.00     0.210 HD
ENDBRANCH  24  31
BRANCH  25  33
HETATM   33  N1  UNL     1      35.301  51.498  14.207  1.00  0.00     0.100 N 
HETATM   34  C18 UNL     1      34.072  51.049  14.836  1.00  0.00     0.273 C 
HETATM   35  C19 UNL     1      32.994  52.019  14.484  1.00  0.00     0.032 C 
HETATM   36  C20 UNL     1      33.553  52.851  13.364  1.00  0.00     0.032 C 
HETATM   37  C21 UNL     1      34.909  52.210  13.037  1.00  0.00     0.273 C 
ENDBRANCH  25  33
ENDBRANCH   1  20
TORSDOF 16
ENDMDL
MODEL 3
REMARK VINA RESULT: -8.522464715      1.329      1.991
REMARK  16 active torsions:
REMARK  status: ('A' for Active; 'I' for Inactive)
REMARK    1  A    between atoms: C2_2  and  C3_3 
REMARK    2  A    between atoms: C3_3  and  C4_4 
REMARK    3  A    between atoms: C4_4  and  C5_5 
REMARK    4  A    between atoms: C5_5  and  C6_6 
REMARK    5  A    between atoms: C6_6  and  C7_7 
REMARK    6  A    between atoms: C8_9  and  C9_10 
REMARK    7  A    between atoms: C10_11  and  C11_12 
REMARK    8  A    between atoms: C11_12  and  O2_13 
REMARK    9  A    between atoms: O2_13  and  C12_14 
REMARK   10  A    between atoms: C13_16  and  C14_17 
REMARK   11  A    between atoms: C14_17  and  O4_18 
REMARK   12  A    between atoms: C15_20  and  O5_21 
REMARK   13  A    between atoms: C16_23  and  O6_24 
REMARK   14  A    between atoms: C17_26  and  N1_27 
REMARK   15  A    between atoms: C22_32  and  O7_33 
REMARK   16  A    between atoms: C23_35  and  O8_36 
ROOT
HETATM    1  O2  UNL     1      37.422  51.490  12.310  1.00  0.00    -0.347 OA
ENDROOT
BRANCH   1   2
HETATM    2  C11 UNL     1      38.717  51.884  12.001  1.00  0.00     0.264 C 
BRANCH   2   3
HETATM    3  C10 UNL     1      39.491  50.906  11.276  1.00  0.00    -0.078 C 
HETATM    4  C9  UNL     1      40.145  50.102  10.692  1.00  0.00    -0.070 C 
BRANCH   4   5
HETATM    5  C8  UNL     1      40.971  49.114   9.991  1.00  0.00     0.232 C 
HETATM    6  O1  UNL     1      40.234  48.115   9.423  1.00  0.00    -0.363 OA
HETATM    7  C7  UNL     1      40.422  48.132   8.040  1.00  0.00     0.154 C 
HETATM    8  C23 UNL     1      41.805  48.669   7.851  1.00  0.00     0.179 C 
HETATM    9  C22 UNL     1      41.864  49.723   8.965  1.00  0.00     0.190 C 
BRANCH   7  10
HETATM   10  C6  UNL     1      40.236  46.746   7.535  1.00  0.00     0.035 C 
BRANCH  10  11
HETATM   11  C5  UNL     1      38.989  46.040   8.076  1.00  0.00     0.002 C 
BRANCH  11  12
HETATM   12  C4  UNL     1      39.210  44.575   8.212  1.00  0.00     0.000 C 
BRANCH  12  13
HETATM   13  C3  UNL     1      40.506  44.201   8.816  1.00  0.00    -0.000 C 
BRANCH  13  14
HETATM   14  C2  UNL     1      40.656  44.231  10.287  1.00  0.00    -0.005 C 
HETATM   15  C1  UNL     1      41.386  45.372  10.885  1.00  0.00     0.005 C 
ENDBRANCH  13  14
ENDBRANCH  12  13
ENDBRANCH  11  12
ENDBRANCH  10  11
ENDBRANCH   7  10
BRANCH   8  16
HETATM   16  O8  UNL     1      42.015  49.332   6.668  1.00  0.00    -0.390 OA
ATOM     17  H8  UNL     1      42.393  48.806   5.973  1.00  0.00     0.210 HD
ENDBRANCH   8  16
BRANCH   9  18
HETATM   18  O7  UNL     1      43.182  49.857   9.391  1.00  0.00    -0.389 OA
ATOM     19  H7  UNL     1      43.735  50.312   8.766  1.00  0.00     0.210 HD
ENDBRANCH   9  18
ENDBRANCH   4   5
ENDBRANCH   2   3
ENDBRANCH   1   2
BRANCH   1  20
HETATM   20  C12 UNL     1      37.450  50.603  13.350  1.00  0.00     0.297 C 
HETATM   21  O3  UNL     1      38.509  50.906  14.161  1.00  0.00    -0.349 OA
HETATM   22  C13 UNL     1      38.269  51.529  15.343  1.00  0.00     0.179 C 
HETATM   23  C15 UNL     1      37.095  51.052  16.131  1.00  0.00     0.180 C 
HETATM   24  C16 UNL     1      36.457  49.844  15.428  1.00  0.00     0.187 C 
HETATM   25  C17 UNL     1      36.137  50.381  14.024  1.00  0.00     0.308 C 
BRANCH  22  26
HETATM   26  C14 UNL     1      38.315  53.057  15.223  1.00  0.00     0.198 C 
BRANCH  26  27
HETATM   27  O4  UNL     1      39.630  53.493  15.083  1.00  0.00    -0.398 OA
ATOM     28  H4  UNL     1      39.886  53.485  14.168  1.00  0.00     0.209 HD
ENDBRANCH  26  27
ENDBRANCH  22  26
BRANCH  23  29
HETATM   29  O5  UNL     1      37.428  50.597  17.412  1.00  0.00    -0.390 OA
ATOM     30  H5  UNL     1      36.690  50.244  17.895  1.00  0.00     0.210 HD
ENDBRANCH  23  29
BRANCH  24  31
HETATM   31  O6  UNL     1      37.384  48.814  15.308  1.00  0.00    -0.391 OA
ATOM     32  H6  UNL     1      37.013  48.095  14.810  1.00  0.00     0.210 HD
ENDBRANCH  24  31
BRANCH  25  33
HETATM   33  N1  UNL     1      35.306  51.513  14.210  1.00  0.00     0.100 N 
HETATM   34  C18 UNL     1      34.057  51.058  14.794  1.00  0.00     0.273 C 
HETATM   35  C19 UNL     1      32.998  52.051  14.447  1.00  0.00     0.032 C 
HETATM   36  C20 UNL     1      33.594  52.912  13.370  1.00  0.00     0.032 C 
HETATM   37  C21 UNL     1      34.952  52.266  13.055  1.00  0.00     0.273 C 
ENDBRANCH  25  33
ENDBRANCH   1  20
TORSDOF 16
ENDMDL
MODEL 4
REMARK VINA RESULT: -8.179276350      1.316      2.666
REMARK  16 active torsions:
REMARK  status: ('A' for Active; 'I' for Inactive)
REMARK    1  A    between atoms: C2_2  and  C3_3 
REMARK    2  A    between atoms: C3_3  and  C4_4 
REMARK    3  A    between atoms: C4_4  and  C5_5 
REMARK    4  A    between atoms: C5_5  and  C6_6 
REMARK    5  A    between atoms: C6_6  and  C7_7 
REMARK    6  A    between atoms: C8_9  and  C9_10 
REMARK    7  A    between atoms: C10_11  and  C11_12 
REMARK    8  A    between atoms: C11_12  and  O2_13 
REMARK    9  A    between atoms: O2_13  and  C12_14 
REMARK   10  A    between atoms: C13_16  and  C14_17 
REMARK   11  A    between atoms: C14_17  and  O4_18 
REMARK   12  A    between atoms: C15_20  and  O5_21 
REMARK   13  A    between atoms: C16_23  and  O6_24 
REMARK   14  A    between atoms: C17_26  and  N1_27 
REMARK   15  A    between atoms: C22_32  and  O7_33 
REMARK   16  A    between atoms: C23_35  and  O8_36 
ROOT
HETATM    1  O2  UNL     1      38.737  51.721  12.820  1.00  0.00    -0.347 OA
ENDROOT
BRANCH   1   2
HETATM    2  C11 UNL     1      39.319  52.012  11.594  1.00  0.00     0.264 C 
BRANCH   2   3
HETATM    3  C10 UNL     1      39.952  50.892  10.942  1.00  0.00    -0.078 C 
HETATM    4  C9  UNL     1      40.490  49.980  10.399  1.00  0.00    -0.070 C 
BRANCH   4   5
HETATM    5  C8  UNL     1      41.173  48.873   9.722  1.00  0.00     0.232 C 
HETATM    6  O1  UNL     1      41.314  47.772  10.518  1.00  0.00    -0.363 OA
HETATM    7  C7  UNL     1      40.630  46.698   9.944  1.00  0.00     0.154 C 
HETATM    8  C23 UNL     1      40.681  46.958   8.473  1.00  0.00     0.179 C 
HETATM    9  C22 UNL     1      40.524  48.484   8.438  1.00  0.00     0.190 C 
BRANCH   7  10
HETATM   10  C6  UNL     1      41.310  45.446  10.362  1.00  0.00     0.035 C 
BRANCH  10  11
HETATM   11  C5  UNL     1      41.086  44.260   9.419  1.00  0.00     0.002 C 
BRANCH  11  12
HETATM   12  C4  UNL     1      39.991  43.378   9.904  1.00  0.00     0.000 C 
BRANCH  12  13
HETATM   13  C3  UNL     1      39.542  42.361   8.930  1.00  0.00    -0.000 C 
BRANCH  13  14
HETATM   14  C2  UNL     1      39.176  41.010   9.409  1.00  0.00    -0.005 C 
HETATM   15  C1  UNL     1      39.445  39.862   8.513  1.00  0.00     0.005 C 
ENDBRANCH  13  14
ENDBRANCH  12  13
ENDBRANCH  11  12
ENDBRANCH  10  11
ENDBRANCH   7  10
BRANCH   8  16
HETATM   16  O8  UNL     1      39.635  46.438   7.753  1.00  0.00    -0.390 OA
ATOM     17  H8  UNL     1      39.554  46.765   6.865  1.00  0.00     0.210 HD
ENDBRANCH   8  16
BRANCH   9  18
HETATM   18  O7  UNL     1      41.180  48.982   7.316  1.00  0.00    -0.389 OA
ATOM     19  H7  UNL     1      40.666  48.917   6.520  1.00  0.00     0.210 HD
ENDBRANCH   9  18
ENDBRANCH   4   5
ENDBRANCH   2   3
ENDBRANCH   1   2
BRANCH   1  20
HETATM   20  C12 UNL     1      37.376  51.725  12.693  1.00  0.00     0.297 C 
HETATM   21  O3  UNL     1      36.946  50.438  12.516  1.00  0.00    -0.349 OA
HETATM   22  C13 UNL     1      36.355  49.798  13.557  1.00  0.00     0.179 C 
HETATM   23  C15 UNL     1      35.392  50.590  14.377  1.00  0.00     0.180 C 
HETATM   24  C16 UNL     1      35.215  51.987  13.763  1.00  0.00     0.187 C 
HETATM   25  C17 UNL     1      36.651  52.535  13.716  1.00  0.00     0.308 C 
BRANCH  22  26
HETATM   26  C14 UNL     1      37.359  49.021  14.416  1.00  0.00     0.198 C 
BRANCH  26  27
HETATM   27  O4  UNL     1      36.889  48.900  15.722  1.00  0.00    -0.398 OA
ATOM     28  H4  UNL     1      37.300  48.161  16.154  1.00  0.00     0.209 HD
ENDBRANCH  26  27
ENDBRANCH  22  26
BRANCH  23  29
HETATM   29  O5  UNL     1      34.105  50.040  14.415  1.00  0.00    -0.390 OA
ATOM     30  H5  UNL     1      33.639  50.104  13.589  1.00  0.00     0.210 HD
ENDBRANCH  23  29
BRANCH  24  31
HETATM   31  O6  UNL     1      34.738  51.881  12.460  1.00  0.00    -0.391 OA
ATOM     32  H6  UNL     1      33.987  52.451  12.339  1.00  0.00     0.210 HD
ENDBRANCH  24  31
BRANCH  25  33
HETATM   33  N1  UNL     1      37.139  52.489  15.044  1.00  0.00     0.100 N 
HETATM   34  C18 UNL     1      36.249  53.279  15.874  1.00  0.00     0.273 C 
HETATM   35  C19 UNL     1      37.019  53.739  17.066  1.00  0.00     0.032 C 
HETATM   36  C20 UNL     1      38.462  53.478  16.738  1.00  0.00     0.032 C 
HETATM   37  C21 UNL     1      38.451  52.990  15.281  1.00  0.00     0.273 C 
ENDBRANCH  25  33
ENDBRANCH   1  20
TORSDOF 16
ENDMDL
MODEL 5
REMARK VINA RESULT: -8.085952896      1.810      3.344
REMARK  16 active torsions:
REMARK  status: ('A' for Active; 'I' for Inactive)
REMARK    1  A    between atoms: C2_2  and  C3_3 
REMARK    2  A    between atoms: C3_3  and  C4_4 
REMARK    3  A    between atoms: C4_4  and  C5_5 
REMARK    4  A    between atoms: C5_5  and  C6_6 
REMARK    5  A    between atoms: C6_6  and  C7_7 
REMARK    6  A    between atoms: C8_9  and  C9_10 
REMARK    7  A    between atoms: C10_11  and  C11_12 
REMARK    8  A    between atoms: C11_12  and  O2_13 
REMARK    9  A    between atoms: O2_13  and  C12_14 
REMARK   10  A    between atoms: C13_16  and  C14_17 
REMARK   11  A    between atoms: C14_17  and  O4_18 
REMARK   12  A    between atoms: C15_20  and  O5_21 
REMARK   13  A    between atoms: C16_23  and  O6_24 
REMARK   14  A    between atoms: C17_26  and  N1_27 
REMARK   15  A    between atoms: C22_32  and  O7_33 
REMARK   16  A    between atoms: C23_35  and  O8_36 
ROOT
HETATM    1  O2  UNL     1      38.625  52.005  12.935  1.00  0.00    -0.347 OA
ENDROOT
BRANCH   1   2
HETATM    2  C11 UNL     1      39.192  52.329  11.710  1.00  0.00     0.264 C 
BRANCH   2   3
HETATM    3  C10 UNL     1      39.926  51.259  11.081  1.00  0.00    -0.078 C 
HETATM    4  C9  UNL     1      40.524  50.382  10.543  1.00  0.00    -0.070 C 
BRANCH   4   5
HETATM    5  C8  UNL     1      41.250  49.308   9.857  1.00  0.00     0.232 C 
HETATM    6  O1  UNL     1      40.424  48.331   9.380  1.00  0.00    -0.363 OA
HETATM    7  C7  UNL     1      40.542  48.265   7.990  1.00  0.00     0.154 C 
HETATM    8  C23 UNL     1      41.943  48.703   7.706  1.00  0.00     0.179 C 
HETATM    9  C22 UNL     1      42.124  49.806   8.757  1.00  0.00     0.190 C 
BRANCH   7  10
HETATM   10  C6  UNL     1      40.245  46.871   7.570  1.00  0.00     0.035 C 
BRANCH  10  11
HETATM   11  C5  UNL     1      38.990  46.272   8.214  1.00  0.00     0.002 C 
BRANCH  11  12
HETATM   12  C4  UNL     1      39.052  44.786   8.247  1.00  0.00     0.000 C 
BRANCH  12  13
HETATM   13  C3  UNL     1      40.334  44.234   8.733  1.00  0.00    -0.000 C 
BRANCH  13  14
HETATM   14  C2  UNL     1      40.602  44.195  10.188  1.00  0.00    -0.005 C 
HETATM   15  C1  UNL     1      41.361  45.319  10.782  1.00  0.00     0.005 C 
ENDBRANCH  13  14
ENDBRANCH  12  13
ENDBRANCH  11  12
ENDBRANCH  10  11
ENDBRANCH   7  10
BRANCH   8  16
HETATM   16  O8  UNL     1      42.133  49.290   6.481  1.00  0.00    -0.390 OA
ATOM     17  H8  UNL     1      42.304  50.224   6.504  1.00  0.00     0.210 HD
ENDBRANCH   8  16
BRANCH   9  18
HETATM   18  O7  UNL     1      43.469  49.876   9.111  1.00  0.00    -0.389 OA
ATOM     19  H7  UNL     1      43.630  49.661  10.022  1.00  0.00     0.210 HD
ENDBRANCH   9  18
ENDBRANCH   4   5
ENDBRANCH   2   3
ENDBRANCH   1   2
BRANCH   1  20
HETATM   20  C12 UNL     1      37.267  51.923  12.804  1.00  0.00     0.297 C 
HETATM   21  O3  UNL     1      36.930  50.632  12.505  1.00  0.00    -0.349 OA
HETATM   22  C13 UNL     1      36.389  49.856  13.479  1.00  0.00     0.179 C 
HETATM   23  C15 UNL     1      35.374  50.496  14.365  1.00  0.00     0.180 C 
HETATM   24  C16 UNL     1      35.096  51.928  13.884  1.00  0.00     0.187 C 
HETATM   25  C17 UNL     1      36.488  52.580  13.895  1.00  0.00     0.308 C 
BRANCH  22  26
HETATM   26  C14 UNL     1      37.449  49.075  14.265  1.00  0.00     0.198 C 
BRANCH  26  27
HETATM   27  O4  UNL     1      36.963  48.731  15.524  1.00  0.00    -0.398 OA
ATOM     28  H4  UNL     1      37.168  47.824  15.721  1.00  0.00     0.209 HD
ENDBRANCH  26  27
ENDBRANCH  22  26
BRANCH  23  29
HETATM   29  O5  UNL     1      34.130  49.854  14.346  1.00  0.00    -0.390 OA
ATOM     30  H5  UNL     1      33.902  49.490  13.499  1.00  0.00     0.210 HD
ENDBRANCH  23  29
BRANCH  24  31
HETATM   31  O6  UNL     1      34.624  51.911  12.576  1.00  0.00    -0.391 OA
ATOM     32  H6  UNL     1      33.912  51.288  12.492  1.00  0.00     0.210 HD
ENDBRANCH  24  31
BRANCH  25  33
HETATM   33  N1  UNL     1      36.982  52.444  15.215  1.00  0.00     0.100 N 
HETATM   34  C18 UNL     1      36.099  53.181  16.100  1.00  0.00     0.273 C 
HETATM   35  C19 UNL     1      36.877  53.559  17.316  1.00  0.00     0.032 C 
HETATM   36  C20 UNL     1      38.317  53.314  16.964  1.00  0.00     0.032 C 
HETATM   37  C21 UNL     1      38.297  52.923  15.478  1.00  0.00     0.273 C 
ENDBRANCH  25  33
ENDBRANCH   1  20
TORSDOF 16
ENDMDL
