MODEL 1
REMARK VINA RESULT: -6.177052265      0.000      0.000
REMARK  9 active torsions:
REMARK  status: ('A' for Active; 'I' for Inactive)
REMARK    1  A    between atoms: C2_2  and  C3_3 
REMARK    2  A    between atoms: C3_3  and  C4_4 
REMARK    3  A    between atoms: C4_4  and  N1_5 
REMARK    4  A    between atoms: N1_5  and  C5_6 
REMARK    5  A    between atoms: N1_5  and  S1_28 
REMARK    6  A    between atoms: C5_6  and  C6_7 
REMARK    7  A    between atoms: C5_6  and  C17_20 
REMARK    8  A    between atoms: C6_7  and  C7_8 
REMARK       I    between atoms: C17_20  and  N3_22 
REMARK    9  A    between atoms: N3_22  and  C18_24 
ROOT
HETATM    1  C5  UNL     1     -18.449  10.040  -7.899  1.00  0.00     0.170 C 
ENDROOT
BRANCH   1   2
HETATM    2  N1  UNL     1     -18.849  11.146  -7.012  1.00  0.00    -0.197 NA
BRANCH   2   3
HETATM    3  C4  UNL     1     -18.236  12.341  -7.379  1.00  0.00     0.112 C 
BRANCH   3   4
HETATM    4  C3  UNL     1     -17.139  12.814  -6.426  1.00  0.00     0.041 C 
BRANCH   4   5
HETATM    5  C2  UNL     1     -17.241  12.182  -5.100  1.00  0.00    -0.036 C 
HETATM    6  C1  UNL     1     -16.159  11.674  -4.530  1.00  0.00     0.007 C 
ENDBRANCH   4   5
ENDBRANCH   3   4
ENDBRANCH   2   3
BRANCH   2   7
HETATM    7  S1  UNL     1     -20.506  11.065  -6.766  1.00  0.00     0.208 S 
HETATM    8  C22 UNL     1     -21.022  11.669  -5.169  1.00  0.00     0.180 C 
HETATM    9  O2  UNL     1     -21.174  11.986  -7.784  1.00  0.00    -0.212 OA
HETATM   10  O3  UNL     1     -21.126   9.727  -6.977  1.00  0.00    -0.212 OA
ENDBRANCH   2   7
ENDBRANCH   1   2
BRANCH   1  11
HETATM   11  C6  UNL     1     -18.275  10.517  -9.283  1.00  0.00     0.072 C 
BRANCH  11  12
HETATM   12  C7  UNL     1     -18.541   9.562 -10.360  1.00  0.00    -0.021 A 
HETATM   13  C8  UNL     1     -19.758   9.284 -10.922  1.00  0.00     0.013 A 
HETATM   14  C9  UNL     1     -21.132   9.773 -10.548  1.00  0.00     0.068 C 
HETATM   15  N2  UNL     1     -19.544   8.376 -11.915  1.00  0.00    -0.359 N 
HETATM   16  C10 UNL     1     -18.254   8.069 -12.004  1.00  0.00     0.043 A 
ATOM     17  H2  UNL     1     -20.274   7.985 -12.509  1.00  0.00     0.166 HD
HETATM   18  C11 UNL     1     -17.528   7.222 -12.824  1.00  0.00     0.031 A 
HETATM   19  C16 UNL     1     -17.589   8.796 -11.038  1.00  0.00    -0.001 A 
HETATM   20  C12 UNL     1     -16.147   7.096 -12.689  1.00  0.00     0.009 A 
HETATM   21  C13 UNL     1     -15.478   7.821 -11.725  1.00  0.00    -0.061 A 
HETATM   22  C14 UNL     1     -14.005   7.658 -11.616  1.00  0.00     0.048 C 
HETATM   23  C15 UNL     1     -16.211   8.654 -10.923  1.00  0.00     0.021 A 
ENDBRANCH  11  12
ENDBRANCH   1  11
BRANCH   1  24
HETATM   24  C17 UNL     1     -17.439   9.207  -7.326  1.00  0.00     0.237 C 
HETATM   25  O1  UNL     1     -17.829   8.159  -6.691  1.00  0.00    -0.272 OA
HETATM   26  N3  UNL     1     -16.020   9.415  -7.399  1.00  0.00    -0.352 N 
ATOM     27  H3  UNL     1     -15.680  10.248  -7.880  1.00  0.00     0.163 HD
BRANCH  26  28
HETATM   28  C18 UNL     1     -15.059   8.525  -6.837  1.00  0.00     0.022 C 
HETATM   29  C19 UNL     1     -14.908   7.255  -7.703  1.00  0.00     0.037 C 
HETATM   30  C20 UNL     1     -15.315   8.153  -5.418  1.00  0.00     0.037 C 
HETATM   31  C21 UNL     1     -13.661   9.157  -6.875  1.00  0.00     0.037 C 
ENDBRANCH  26  28
ENDBRANCH   1  24
TORSDOF 9
ENDMDL
MODEL 2
REMARK VINA RESULT: -6.085312254      2.922      6.590
REMARK  9 active torsions:
REMARK  status: ('A' for Active; 'I' for Inactive)
REMARK    1  A    between atoms: C2_2  and  C3_3 
REMARK    2  A    between atoms: C3_3  and  C4_4 
REMARK    3  A    between atoms: C4_4  and  N1_5 
REMARK    4  A    between atoms: N1_5  and  C5_6 
REMARK    5  A    between atoms: N1_5  and  S1_28 
REMARK    6  A    between atoms: C5_6  and  C6_7 
REMARK    7  A    between atoms: C5_6  and  C17_20 
REMARK    8  A    between atoms: C6_7  and  C7_8 
REMARK       I    between atoms: C17_20  and  N3_22 
REMARK    9  A    between atoms: N3_22  and  C18_24 
ROOT
HETATM    1  C5  UNL     1     -16.383   9.207 -10.248  1.00  0.00     0.170 C 
ENDROOT
BRANCH   1   2
HETATM    2  N1  UNL     1     -17.353   8.798 -11.280  1.00  0.00    -0.197 NA
BRANCH   2   3
HETATM    3  C4  UNL     1     -17.169   7.471 -11.655  1.00  0.00     0.112 C 
BRANCH   3   4
HETATM    4  C3  UNL     1     -16.615   7.278 -13.067  1.00  0.00     0.041 C 
BRANCH   4   5
HETATM    5  C2  UNL     1     -15.247   6.734 -13.060  1.00  0.00    -0.036 C 
HETATM    6  C1  UNL     1     -14.389   7.105 -13.998  1.00  0.00     0.007 C 
ENDBRANCH   4   5
ENDBRANCH   3   4
ENDBRANCH   2   3
BRANCH   2   7
HETATM    7  S1  UNL     1     -18.868   9.371 -10.847  1.00  0.00     0.208 S 
HETATM    8  C22 UNL     1     -19.121  11.093 -11.242  1.00  0.00     0.180 C 
HETATM    9  O2  UNL     1     -19.907   8.611 -11.668  1.00  0.00    -0.212 OA
HETATM   10  O3  UNL     1     -19.257   9.161  -9.425  1.00  0.00    -0.212 OA
ENDBRANCH   2   7
ENDBRANCH   1   2
BRANCH   1  11
HETATM   11  C6  UNL     1     -15.798   8.029  -9.585  1.00  0.00     0.072 C 
BRANCH  11  12
HETATM   12  C7  UNL     1     -14.626   8.249  -8.736  1.00  0.00    -0.021 A 
HETATM   13  C8  UNL     1     -13.319   8.024  -9.076  1.00  0.00     0.013 A 
HETATM   14  C9  UNL     1     -12.734   7.414 -10.322  1.00  0.00     0.068 C 
HETATM   15  N2  UNL     1     -12.556   8.406  -8.014  1.00  0.00    -0.359 N 
HETATM   16  C10 UNL     1     -13.319   8.858  -7.023  1.00  0.00     0.043 A 
ATOM     17  H2  UNL     1     -11.538   8.352  -7.982  1.00  0.00     0.166 HD
HETATM   18  C11 UNL     1     -13.047   9.354  -5.760  1.00  0.00     0.031 A 
HETATM   19  C16 UNL     1     -14.631   8.774  -7.441  1.00  0.00    -0.001 A 
HETATM   20  C12 UNL     1     -14.073   9.766  -4.911  1.00  0.00     0.009 A 
HETATM   21  C13 UNL     1     -15.387   9.684  -5.325  1.00  0.00    -0.061 A 
HETATM   22  C14 UNL     1     -16.450  10.136  -4.390  1.00  0.00     0.048 C 
HETATM   23  C15 UNL     1     -15.637   9.192  -6.577  1.00  0.00     0.021 A 
ENDBRANCH  11  12
ENDBRANCH   1  11
BRANCH   1  24
HETATM   24  C17 UNL     1     -15.512  10.251 -10.690  1.00  0.00     0.237 C 
HETATM   25  O1  UNL     1     -14.804  10.024 -11.739  1.00  0.00    -0.272 OA
HETATM   26  N3  UNL     1     -15.356  11.544 -10.086  1.00  0.00    -0.352 N 
ATOM     27  H3  UNL     1     -15.891  11.748  -9.242  1.00  0.00     0.163 HD
BRANCH  26  28
HETATM   28  C18 UNL     1     -14.496  12.560 -10.598  1.00  0.00     0.022 C 
HETATM   29  C19 UNL     1     -14.920  12.976 -12.024  1.00  0.00     0.037 C 
HETATM   30  C20 UNL     1     -13.048  12.216 -10.571  1.00  0.00     0.037 C 
HETATM   31  C21 UNL     1     -14.653  13.851  -9.782  1.00  0.00     0.037 C 
ENDBRANCH  26  28
ENDBRANCH   1  24
TORSDOF 9
ENDMDL
MODEL 3
REMARK VINA RESULT: -6.045846527      2.473      4.971
REMARK  9 active torsions:
REMARK  status: ('A' for Active; 'I' for Inactive)
REMARK    1  A    between atoms: C2_2  and  C3_3 
REMARK    2  A    between atoms: C3_3  and  C4_4 
REMARK    3  A    between atoms: C4_4  and  N1_5 
REMARK    4  A    between atoms: N1_5  and  C5_6 
REMARK    5  A    between atoms: N1_5  and  S1_28 
REMARK    6  A    between atoms: C5_6  and  C6_7 
REMARK    7  A    between atoms: C5_6  and  C17_20 
REMARK    8  A    between atoms: C6_7  and  C7_8 
REMARK       I    between atoms: C17_20  and  N3_22 
REMARK    9  A    between atoms: N3_22  and  C18_24 
ROOT
HETATM    1  C5  UNL     1     -16.062   9.496  -7.323  1.00  0.00     0.170 C 
ENDROOT
BRANCH   1   2
HETATM    2  N1  UNL     1     -15.474   9.839  -6.016  1.00  0.00    -0.197 NA
BRANCH   2   3
HETATM    3  C4  UNL     1     -14.879   8.732  -5.419  1.00  0.00     0.112 C 
BRANCH   3   4
HETATM    4  C3  UNL     1     -15.528   8.289  -4.108  1.00  0.00     0.041 C 
BRANCH   4   5
HETATM    5  C2  UNL     1     -15.208   9.195  -2.992  1.00  0.00    -0.036 C 
HETATM    6  C1  UNL     1     -16.071   9.343  -1.999  1.00  0.00     0.007 C 
ENDBRANCH   4   5
ENDBRANCH   3   4
ENDBRANCH   2   3
BRANCH   2   7
HETATM    7  S1  UNL     1     -14.646  11.290  -6.165  1.00  0.00     0.208 S 
HETATM    8  C22 UNL     1     -13.014  11.258  -5.446  1.00  0.00     0.180 C 
HETATM    9  O2  UNL     1     -14.428  11.552  -7.653  1.00  0.00    -0.212 OA
HETATM   10  O3  UNL     1     -15.355  12.494  -5.651  1.00  0.00    -0.212 OA
ENDBRANCH   2   7
ENDBRANCH   1   2
BRANCH   1  11
HETATM   11  C6  UNL     1     -15.582   8.181  -7.783  1.00  0.00     0.072 C 
BRANCH  11  12
HETATM   12  C7  UNL     1     -14.836   8.142  -9.041  1.00  0.00    -0.021 A 
HETATM   13  C8  UNL     1     -13.487   8.325  -9.195  1.00  0.00     0.013 A 
HETATM   14  C9  UNL     1     -12.440   8.707  -8.184  1.00  0.00     0.068 C 
HETATM   15  N2  UNL     1     -13.208   8.159 -10.519  1.00  0.00    -0.359 N 
HETATM   16  C10 UNL     1     -14.313   7.882 -11.203  1.00  0.00     0.043 A 
ATOM     17  H2  UNL     1     -12.278   8.237 -10.928  1.00  0.00     0.166 HD
HETATM   18  C11 UNL     1     -14.571   7.632 -12.540  1.00  0.00     0.031 A 
HETATM   19  C16 UNL     1     -15.362   7.864 -10.305  1.00  0.00    -0.001 A 
HETATM   20  C12 UNL     1     -15.863   7.363 -12.987  1.00  0.00     0.009 A 
HETATM   21  C13 UNL     1     -16.914   7.343 -12.093  1.00  0.00    -0.061 A 
HETATM   22  C14 UNL     1     -18.275   7.051 -12.612  1.00  0.00     0.048 C 
HETATM   23  C15 UNL     1     -16.641   7.593 -10.776  1.00  0.00     0.021 A 
ENDBRANCH  11  12
ENDBRANCH   1  11
BRANCH   1  24
HETATM   24  C17 UNL     1     -17.462   9.781  -7.393  1.00  0.00     0.237 C 
HETATM   25  O1  UNL     1     -18.018  10.262  -6.339  1.00  0.00    -0.272 OA
HETATM   26  N3  UNL     1     -18.313   9.597  -8.534  1.00  0.00    -0.352 N 
ATOM     27  H3  UNL     1     -17.904   9.200  -9.380  1.00  0.00     0.163 HD
BRANCH  26  28
HETATM   28  C18 UNL     1     -19.697   9.937  -8.553  1.00  0.00     0.022 C 
HETATM   29  C19 UNL     1     -19.890  11.469  -8.602  1.00  0.00     0.037 C 
HETATM   30  C20 UNL     1     -20.493   9.354  -7.438  1.00  0.00     0.037 C 
HETATM   31  C21 UNL     1     -20.348   9.449  -9.854  1.00  0.00     0.037 C 
ENDBRANCH  26  28
ENDBRANCH   1  24
TORSDOF 9
ENDMDL
MODEL 4
REMARK VINA RESULT: -6.027656757      3.061      6.152
REMARK  9 active torsions:
REMARK  status: ('A' for Active; 'I' for Inactive)
REMARK    1  A    between atoms: C2_2  and  C3_3 
REMARK    2  A    between atoms: C3_3  and  C4_4 
REMARK    3  A    between atoms: C4_4  and  N1_5 
REMARK    4  A    between atoms: N1_5  and  C5_6 
REMARK    5  A    between atoms: N1_5  and  S1_28 
REMARK    6  A    between atoms: C5_6  and  C6_7 
REMARK    7  A    between atoms: C5_6  and  C17_20 
REMARK    8  A    between atoms: C6_7  and  C7_8 
REMARK       I    between atoms: C17_20  and  N3_22 
REMARK    9  A    between atoms: N3_22  and  C18_24 
ROOT
HETATM    1  C5  UNL     1     -15.116   9.225 -10.214  1.00  0.00     0.170 C 
ENDROOT
BRANCH   1   2
HETATM    2  N1  UNL     1     -14.541   8.046 -10.885  1.00  0.00    -0.197 NA
BRANCH   2   3
HETATM    3  C4  UNL     1     -14.717   8.107 -12.265  1.00  0.00     0.112 C 
BRANCH   3   4
HETATM    4  C3  UNL     1     -15.508   6.943 -12.860  1.00  0.00     0.041 C 
BRANCH   4   5
HETATM    5  C2  UNL     1     -16.904   7.308 -13.151  1.00  0.00    -0.036 C 
HETATM    6  C1  UNL     1     -17.883   6.788 -12.428  1.00  0.00     0.007 C 
ENDBRANCH   4   5
ENDBRANCH   3   4
ENDBRANCH   2   3
BRANCH   2   7
HETATM    7  S1  UNL     1     -13.034   7.733 -10.220  1.00  0.00     0.208 S 
HETATM    8  C22 UNL     1     -12.173   9.199  -9.678  1.00  0.00     0.180 C 
HETATM    9  O2  UNL     1     -13.244   6.897  -8.960  1.00  0.00    -0.212 OA
HETATM   10  O3  UNL     1     -12.104   6.939 -11.071  1.00  0.00    -0.212 OA
ENDBRANCH   2   7
ENDBRANCH   1   2
BRANCH   1  11
HETATM   11  C6  UNL     1     -15.672  10.168 -11.200  1.00  0.00     0.072 C 
BRANCH  11  12
HETATM   12  C7  UNL     1     -16.678  11.119 -10.726  1.00  0.00    -0.021 A 
HETATM   13  C8  UNL     1     -16.448  12.389 -10.268  1.00  0.00     0.013 A 
HETATM   14  C9  UNL     1     -15.149  13.111 -10.028  1.00  0.00     0.068 C 
HETATM   15  N2  UNL     1     -17.661  12.936  -9.976  1.00  0.00    -0.359 N 
HETATM   16  C10 UNL     1     -18.641  12.073 -10.227  1.00  0.00     0.043 A 
ATOM     17  H2  UNL     1     -17.799  13.880  -9.614  1.00  0.00     0.166 HD
HETATM   18  C11 UNL     1     -20.019  12.132 -10.105  1.00  0.00     0.031 A 
HETATM   19  C16 UNL     1     -18.060  10.915 -10.700  1.00  0.00    -0.001 A 
HETATM   20  C12 UNL     1     -20.820  11.046 -10.452  1.00  0.00     0.009 A 
HETATM   21  C13 UNL     1     -20.243   9.885 -10.927  1.00  0.00    -0.061 A 
HETATM   22  C14 UNL     1     -21.134   8.752 -11.287  1.00  0.00     0.048 C 
HETATM   23  C15 UNL     1     -18.880   9.845 -11.040  1.00  0.00     0.021 A 
ENDBRANCH  11  12
ENDBRANCH   1  11
BRANCH   1  24
HETATM   24  C17 UNL     1     -15.903   8.882  -9.070  1.00  0.00     0.237 C 
HETATM   25  O1  UNL     1     -16.694   7.875  -9.180  1.00  0.00    -0.272 OA
HETATM   26  N3  UNL     1     -15.889   9.544  -7.796  1.00  0.00    -0.352 N 
ATOM     27  H3  UNL     1     -15.284  10.358  -7.685  1.00  0.00     0.163 HD
BRANCH  26  28
HETATM   28  C18 UNL     1     -16.672   9.130  -6.680  1.00  0.00     0.022 C 
HETATM   29  C19 UNL     1     -16.360   7.665  -6.299  1.00  0.00     0.037 C 
HETATM   30  C20 UNL     1     -18.139   9.317  -6.849  1.00  0.00     0.037 C 
HETATM   31  C21 UNL     1     -16.273   9.922  -5.427  1.00  0.00     0.037 C 
ENDBRANCH  26  28
ENDBRANCH   1  24
TORSDOF 9
ENDMDL
MODEL 5
REMARK VINA RESULT: -6.027595662      1.229      1.763
REMARK  9 active torsions:
REMARK  status: ('A' for Active; 'I' for Inactive)
REMARK    1  A    between atoms: C2_2  and  C3_3 
REMARK    2  A    between atoms: C3_3  and  C4_4 
REMARK    3  A    between atoms: C4_4  and  N1_5 
REMARK    4  A    between atoms: N1_5  and  C5_6 
REMARK    5  A    between atoms: N1_5  and  S1_28 
REMARK    6  A    between atoms: C5_6  and  C6_7 
REMARK    7  A    between atoms: C5_6  and  C17_20 
REMARK    8  A    between atoms: C6_7  and  C7_8 
REMARK       I    between atoms: C17_20  and  N3_22 
REMARK    9  A    between atoms: N3_22  and  C18_24 
ROOT
HETATM    1  C5  UNL     1     -18.362   9.764  -7.824  1.00  0.00     0.170 C 
ENDROOT
BRANCH   1   2
HETATM    2  N1  UNL     1     -19.277  10.654  -7.087  1.00  0.00    -0.197 NA
BRANCH   2   3
HETATM    3  C4  UNL     1     -18.890  11.987  -7.196  1.00  0.00     0.112 C 
BRANCH   3   4
HETATM    4  C3  UNL     1     -18.718  12.713  -5.862  1.00  0.00     0.041 C 
BRANCH   4   5
HETATM    5  C2  UNL     1     -18.773  11.792  -4.715  1.00  0.00    -0.036 C 
HETATM    6  C1  UNL     1     -19.737  11.920  -3.817  1.00  0.00     0.007 C 
ENDBRANCH   4   5
ENDBRANCH   3   4
ENDBRANCH   2   3
BRANCH   2   7
HETATM    7  S1  UNL     1     -20.854  10.185  -7.406  1.00  0.00     0.208 S 
HETATM    8  C22 UNL     1     -21.591  11.044  -8.785  1.00  0.00     0.180 C 
HETATM    9  O2  UNL     1     -20.830   8.713  -7.811  1.00  0.00    -0.212 OA
HETATM   10  O3  UNL     1     -21.797  10.263  -6.256  1.00  0.00    -0.212 OA
ENDBRANCH   2   7
ENDBRANCH   1   2
BRANCH   1  11
HETATM   11  C6  UNL     1     -17.988  10.357  -9.120  1.00  0.00     0.072 C 
BRANCH  11  12
HETATM   12  C7  UNL     1     -17.731   9.437 -10.229  1.00  0.00    -0.021 A 
HETATM   13  C8  UNL     1     -18.646   8.981 -11.140  1.00  0.00     0.013 A 
HETATM   14  C9  UNL     1     -20.134   9.195 -11.207  1.00  0.00     0.068 C 
HETATM   15  N2  UNL     1     -17.974   8.187 -12.020  1.00  0.00    -0.359 N 
HETATM   16  C10 UNL     1     -16.684   8.120 -11.707  1.00  0.00     0.043 A 
ATOM     17  H2  UNL     1     -18.403   7.708 -12.812  1.00  0.00     0.166 HD
HETATM   18  C11 UNL     1     -15.599   7.466 -12.265  1.00  0.00     0.031 A 
HETATM   19  C16 UNL     1     -16.492   8.895 -10.581  1.00  0.00    -0.001 A 
HETATM   20  C12 UNL     1     -14.326   7.579 -11.710  1.00  0.00     0.009 A 
HETATM   21  C13 UNL     1     -14.129   8.353 -10.585  1.00  0.00    -0.061 A 
HETATM   22  C14 UNL     1     -12.755   8.448 -10.026  1.00  0.00     0.048 C 
HETATM   23  C15 UNL     1     -15.212   8.992 -10.047  1.00  0.00     0.021 A 
ENDBRANCH  11  12
ENDBRANCH   1  11
BRANCH   1  24
HETATM   24  C17 UNL     1     -17.334   9.218  -6.994  1.00  0.00     0.237 C 
HETATM   25  O1  UNL     1     -17.392   7.960  -6.735  1.00  0.00    -0.272 OA
HETATM   26  N3  UNL     1     -16.225   9.933  -6.428  1.00  0.00    -0.352 N 
ATOM     27  H3  UNL     1     -16.161  10.936  -6.601  1.00  0.00     0.163 HD
BRANCH  26  28
HETATM   28  C18 UNL     1     -15.208   9.321  -5.638  1.00  0.00     0.022 C 
HETATM   29  C19 UNL     1     -14.204   8.554  -6.526  1.00  0.00     0.037 C 
HETATM   30  C20 UNL     1     -15.716   8.437  -4.552  1.00  0.00     0.037 C 
HETATM   31  C21 UNL     1     -14.345  10.393  -4.958  1.00  0.00     0.037 C 
ENDBRANCH  26  28
ENDBRANCH   1  24
TORSDOF 9
ENDMDL
