MODEL 1
REMARK VINA RESULT: -7.879652183      0.000      0.000
REMARK  8 active torsions:
REMARK  status: ('A' for Active; 'I' for Inactive)
REMARK       I    between atoms: N1_2  and  C2_3 
REMARK    1  A    between atoms: C2_3  and  C3_5 
REMARK    2  A    between atoms: C3_5  and  C4_6 
REMARK    3  A    between atoms: C7_9  and  C8_10 
REMARK    4  A    between atoms: C10_12  and  S1_13 
REMARK    5  A    between atoms: S1_13  and  N2_16 
REMARK    6  A    between atoms: N2_16  and  C11_18 
REMARK    7  A    between atoms: C11_18  and  C12_19 
REMARK    8  A    between atoms: C12_19  and  C13_20 
ROOT
HETATM    1  C8  UNL     1     -10.046  16.675 -12.182  1.00  0.00    -0.036 C 
HETATM    2  C9  UNL     1      -9.871  17.814 -13.066  1.00  0.00     0.092 C 
HETATM    3  C10 UNL     1      -8.703  18.612 -12.774  1.00  0.00     0.062 C 
HETATM    4  C16 UNL     1      -7.821  18.339 -11.763  1.00  0.00     0.028 C 
HETATM    5  C17 UNL     1      -8.149  17.288 -10.827  1.00  0.00    -0.054 C 
HETATM    6  C18 UNL     1      -7.279  17.022  -9.691  1.00  0.00     0.049 C 
HETATM    7  C19 UNL     1      -9.217  16.557 -11.138  1.00  0.00    -0.049 C 
HETATM    8  C20 UNL     1      -9.773  15.700  -9.961  1.00  0.00     0.049 C 
ENDROOT
BRANCH   1   9
HETATM    9  C7  UNL     1     -10.976  15.666 -12.409  1.00  0.00    -0.023 A 
HETATM   10  C6  UNL     1     -10.819  14.422 -12.933  1.00  0.00     0.013 A 
HETATM   11  C5  UNL     1     -11.814  13.519 -12.878  1.00  0.00     0.008 A 
HETATM   12  C4  UNL     1     -13.002  13.780 -12.393  1.00  0.00    -0.048 A 
HETATM   13  C23 UNL     1     -13.303  14.969 -11.861  1.00  0.00     0.015 A 
HETATM   14  C21 UNL     1     -12.295  15.893 -11.844  1.00  0.00    -0.051 A 
HETATM   15  C22 UNL     1     -12.659  17.320 -11.431  1.00  0.00     0.049 C 
BRANCH  12  16
HETATM   16  C3  UNL     1     -14.025  12.796 -12.383  1.00  0.00     0.157 C 
BRANCH  16  17
HETATM   17  C2  UNL     1     -13.911  12.292 -10.710  1.00  0.00     0.290 C 
HETATM   18  N1  UNL     1     -15.106  12.688 -10.461  1.00  0.00    -0.420 NA
HETATM   19  C1  UNL     1     -16.339  12.879  -9.833  1.00  0.00     0.263 C 
HETATM   20  O1  UNL     1     -12.754  11.759 -10.511  1.00  0.00    -0.257 OA
ENDBRANCH  16  17
ENDBRANCH  12  16
ENDBRANCH   1   9
BRANCH   3  21
HETATM   21  S1  UNL     1      -8.828  20.077 -13.404  1.00  0.00     0.255 S 
HETATM   22  O2  UNL     1     -10.322  20.041 -14.215  1.00  0.00    -0.201 OA
HETATM   23  O3  UNL     1      -9.461  21.069 -12.202  1.00  0.00    -0.201 OA
BRANCH  21  24
HETATM   24  N2  UNL     1      -8.184  21.102 -14.437  1.00  0.00    -0.316 N 
ATOM     25  H2  UNL     1      -7.390  20.895 -15.043  1.00  0.00     0.172 HD
BRANCH  24  26
HETATM   26  C11 UNL     1      -8.878  22.360 -14.398  1.00  0.00     0.132 C 
BRANCH  26  27
HETATM   27  C12 UNL     1      -7.591  23.166 -14.241  1.00  0.00     0.024 C 
BRANCH  27  28
HETATM   28  C13 UNL     1      -7.978  24.364 -13.545  1.00  0.00    -0.021 C 
HETATM   29  C14 UNL     1      -7.339  24.820 -12.234  1.00  0.00     0.009 C 
HETATM   30  C15 UNL     1      -9.437  24.354 -13.370  1.00  0.00     0.009 C 
ENDBRANCH  27  28
ENDBRANCH  26  27
ENDBRANCH  24  26
ENDBRANCH  21  24
ENDBRANCH   3  21
TORSDOF 8
ENDMDL
MODEL 2
REMARK VINA RESULT: -7.642841933      1.228      1.527
REMARK  8 active torsions:
REMARK  status: ('A' for Active; 'I' for Inactive)
REMARK       I    between atoms: N1_2  and  C2_3 
REMARK    1  A    between atoms: C2_3  and  C3_5 
REMARK    2  A    between atoms: C3_5  and  C4_6 
REMARK    3  A    between atoms: C7_9  and  C8_10 
REMARK    4  A    between atoms: C10_12  and  S1_13 
REMARK    5  A    between atoms: S1_13  and  N2_16 
REMARK    6  A    between atoms: N2_16  and  C11_18 
REMARK    7  A    between atoms: C11_18  and  C12_19 
REMARK    8  A    between atoms: C12_19  and  C13_20 
ROOT
HETATM    1  C8  UNL     1      -9.346  17.712 -12.476  1.00  0.00    -0.036 C 
HETATM    2  C9  UNL     1      -9.499  18.944 -13.230  1.00  0.00     0.092 C 
HETATM    3  C10 UNL     1      -8.351  19.818 -13.168  1.00  0.00     0.062 C 
HETATM    4  C16 UNL     1      -7.206  19.533 -12.472  1.00  0.00     0.028 C 
HETATM    5  C17 UNL     1      -7.192  18.369 -11.617  1.00  0.00    -0.054 C 
HETATM    6  C18 UNL     1      -6.025  18.077 -10.797  1.00  0.00     0.049 C 
HETATM    7  C19 UNL     1      -8.254  17.572 -11.716  1.00  0.00    -0.049 C 
HETATM    8  C20 UNL     1      -8.403  16.553 -10.545  1.00  0.00     0.049 C 
ENDROOT
BRANCH   1   9
HETATM    9  C7  UNL     1     -10.234  16.645 -12.566  1.00  0.00    -0.023 A 
HETATM   10  C6  UNL     1     -10.074  15.405 -13.097  1.00  0.00     0.013 A 
HETATM   11  C5  UNL     1     -10.994  14.444 -12.898  1.00  0.00     0.008 A 
HETATM   12  C4  UNL     1     -12.118  14.642 -12.257  1.00  0.00    -0.048 A 
HETATM   13  C23 UNL     1     -12.417  15.818 -11.698  1.00  0.00     0.015 A 
HETATM   14  C21 UNL     1     -11.475  16.802 -11.827  1.00  0.00    -0.051 A 
HETATM   15  C22 UNL     1     -11.867  18.210 -11.379  1.00  0.00     0.049 C 
BRANCH  12  16
HETATM   16  C3  UNL     1     -13.068  13.598 -12.100  1.00  0.00     0.157 C 
BRANCH  16  17
HETATM   17  C2  UNL     1     -12.463  12.891 -10.616  1.00  0.00     0.290 C 
HETATM   18  N1  UNL     1     -13.509  13.248  -9.965  1.00  0.00    -0.420 NA
HETATM   19  C1  UNL     1     -14.482  13.354  -8.969  1.00  0.00     0.263 C 
HETATM   20  O1  UNL     1     -11.318  12.344 -10.849  1.00  0.00    -0.257 OA
ENDBRANCH  16  17
ENDBRANCH  12  16
ENDBRANCH   1   9
BRANCH   3  21
HETATM   21  S1  UNL     1      -8.742  21.319 -13.558  1.00  0.00     0.255 S 
HETATM   22  O2  UNL     1     -10.280  21.164 -14.268  1.00  0.00    -0.201 OA
HETATM   23  O3  UNL     1      -9.407  22.021 -12.182  1.00  0.00    -0.201 OA
BRANCH  21  24
HETATM   24  N2  UNL     1      -8.346  22.568 -14.462  1.00  0.00    -0.316 N 
ATOM     25  H2  UNL     1      -8.074  22.512 -15.444  1.00  0.00     0.172 HD
BRANCH  24  26
HETATM   26  C11 UNL     1      -8.424  23.785 -13.703  1.00  0.00     0.132 C 
BRANCH  26  27
HETATM   27  C12 UNL     1      -6.907  23.927 -13.606  1.00  0.00     0.024 C 
BRANCH  27  28
HETATM   28  C13 UNL     1      -6.652  24.332 -12.249  1.00  0.00    -0.021 C 
HETATM   29  C14 UNL     1      -6.227  23.361 -11.148  1.00  0.00     0.009 C 
HETATM   30  C15 UNL     1      -7.804  25.106 -11.766  1.00  0.00     0.009 C 
ENDBRANCH  27  28
ENDBRANCH  26  27
ENDBRANCH  24  26
ENDBRANCH  21  24
ENDBRANCH   3  21
TORSDOF 8
ENDMDL
MODEL 3
REMARK VINA RESULT: -7.616682055      3.855      6.281
REMARK  8 active torsions:
REMARK  status: ('A' for Active; 'I' for Inactive)
REMARK       I    between atoms: N1_2  and  C2_3 
REMARK    1  A    between atoms: C2_3  and  C3_5 
REMARK    2  A    between atoms: C3_5  and  C4_6 
REMARK    3  A    between atoms: C7_9  and  C8_10 
REMARK    4  A    between atoms: C10_12  and  S1_13 
REMARK    5  A    between atoms: S1_13  and  N2_16 
REMARK    6  A    between atoms: N2_16  and  C11_18 
REMARK    7  A    between atoms: C11_18  and  C12_19 
REMARK    8  A    between atoms: C12_19  and  C13_20 
ROOT
HETATM    1  C8  UNL     1     -10.022  15.791 -11.299  1.00  0.00    -0.036 C 
HETATM    2  C9  UNL     1      -9.581  15.707  -9.917  1.00  0.00     0.092 C 
HETATM    3  C10 UNL     1      -8.484  16.589  -9.595  1.00  0.00     0.062 C 
HETATM    4  C16 UNL     1      -7.896  17.442 -10.490  1.00  0.00     0.028 C 
HETATM    5  C17 UNL     1      -8.279  17.351 -11.881  1.00  0.00    -0.054 C 
HETATM    6  C18 UNL     1      -7.618  18.181 -12.877  1.00  0.00     0.049 C 
HETATM    7  C19 UNL     1      -9.309  16.547 -12.140  1.00  0.00    -0.049 C 
HETATM    8  C20 UNL     1      -9.463  16.168 -13.645  1.00  0.00     0.049 C 
ENDROOT
BRANCH   1   9
HETATM    9  C7  UNL     1     -11.185  15.190 -11.768  1.00  0.00    -0.023 A 
HETATM   10  C6  UNL     1     -11.390  13.959 -12.303  1.00  0.00     0.013 A 
HETATM   11  C5  UNL     1     -12.634  13.491 -12.506  1.00  0.00     0.008 A 
HETATM   12  C4  UNL     1     -13.716  14.193 -12.278  1.00  0.00    -0.048 A 
HETATM   13  C23 UNL     1     -13.664  15.427 -11.769  1.00  0.00     0.015 A 
HETATM   14  C21 UNL     1     -12.416  15.912 -11.492  1.00  0.00    -0.051 A 
HETATM   15  C22 UNL     1     -12.307  17.386 -11.101  1.00  0.00     0.049 C 
BRANCH  12  16
HETATM   16  C3  UNL     1     -15.007  13.659 -12.536  1.00  0.00     0.157 C 
BRANCH  16  17
HETATM   17  C2  UNL     1     -15.159  12.613 -11.140  1.00  0.00     0.290 C 
HETATM   18  N1  UNL     1     -15.291  11.572 -11.877  1.00  0.00    -0.420 NA
HETATM   19  C1  UNL     1     -15.360  10.242 -12.299  1.00  0.00     0.263 C 
HETATM   20  O1  UNL     1     -15.048  13.323 -10.069  1.00  0.00    -0.257 OA
ENDBRANCH  16  17
ENDBRANCH  12  16
ENDBRANCH   1   9
BRANCH   3  21
HETATM   21  S1  UNL     1      -7.724  16.111  -8.271  1.00  0.00     0.255 S 
HETATM   22  O2  UNL     1      -6.608  17.360  -7.974  1.00  0.00    -0.201 OA
HETATM   23  O3  UNL     1      -8.669  16.595  -6.966  1.00  0.00    -0.201 OA
BRANCH  21  24
HETATM   24  N2  UNL     1      -6.778  14.990  -7.654  1.00  0.00    -0.316 N 
ATOM     25  H2  UNL     1      -5.758  15.025  -7.654  1.00  0.00     0.172 HD
BRANCH  24  26
HETATM   26  C11 UNL     1      -7.560  13.921  -7.096  1.00  0.00     0.132 C 
BRANCH  26  27
HETATM   27  C12 UNL     1      -7.574  13.131  -8.402  1.00  0.00     0.024 C 
BRANCH  27  28
HETATM   28  C13 UNL     1      -8.603  12.140  -8.233  1.00  0.00    -0.021 C 
HETATM   29  C14 UNL     1      -9.983  12.240  -8.884  1.00  0.00     0.009 C 
HETATM   30  C15 UNL     1      -8.786  11.894  -6.796  1.00  0.00     0.009 C 
ENDBRANCH  27  28
ENDBRANCH  26  27
ENDBRANCH  24  26
ENDBRANCH  21  24
ENDBRANCH   3  21
TORSDOF 8
ENDMDL
MODEL 4
REMARK VINA RESULT: -7.595600640      3.574      8.845
REMARK  8 active torsions:
REMARK  status: ('A' for Active; 'I' for Inactive)
REMARK       I    between atoms: N1_2  and  C2_3 
REMARK    1  A    between atoms: C2_3  and  C3_5 
REMARK    2  A    between atoms: C3_5  and  C4_6 
REMARK    3  A    between atoms: C7_9  and  C8_10 
REMARK    4  A    between atoms: C10_12  and  S1_13 
REMARK    5  A    between atoms: S1_13  and  N2_16 
REMARK    6  A    between atoms: N2_16  and  C11_18 
REMARK    7  A    between atoms: C11_18  and  C12_19 
REMARK    8  A    between atoms: C12_19  and  C13_20 
ROOT
HETATM    1  C8  UNL     1     -11.083  14.177  -9.938  1.00  0.00    -0.036 C 
HETATM    2  C9  UNL     1     -10.467  12.904  -9.605  1.00  0.00     0.092 C 
HETATM    3  C10 UNL     1     -11.366  11.958  -8.988  1.00  0.00     0.062 C 
HETATM    4  C16 UNL     1     -12.688  12.210  -8.733  1.00  0.00     0.028 C 
HETATM    5  C17 UNL     1     -13.186  13.550  -8.941  1.00  0.00    -0.054 C 
HETATM    6  C18 UNL     1     -14.563  13.880  -8.603  1.00  0.00     0.049 C 
HETATM    7  C19 UNL     1     -12.340  14.391  -9.534  1.00  0.00    -0.049 C 
HETATM    8  C20 UNL     1     -12.736  15.893  -9.409  1.00  0.00     0.049 C 
ENDROOT
BRANCH   1   9
HETATM    9  C7  UNL     1     -10.463  15.146 -10.719  1.00  0.00    -0.023 A 
HETATM   10  C6  UNL     1      -9.581  16.122 -10.380  1.00  0.00     0.013 A 
HETATM   11  C5  UNL     1      -8.938  16.831 -11.325  1.00  0.00     0.008 A 
HETATM   12  C4  UNL     1      -9.156  16.689 -12.608  1.00  0.00    -0.048 A 
HETATM   13  C23 UNL     1     -10.011  15.779 -13.085  1.00  0.00     0.015 A 
HETATM   14  C21 UNL     1     -10.637  14.998 -12.154  1.00  0.00    -0.051 A 
HETATM   15  C22 UNL     1     -11.765  14.090 -12.646  1.00  0.00     0.049 C 
BRANCH  12  16
HETATM   16  C3  UNL     1      -8.467  17.484 -13.563  1.00  0.00     0.157 C 
BRANCH  16  17
HETATM   17  C2  UNL     1      -9.385  18.967 -13.406  1.00  0.00     0.290 C 
HETATM   18  N1  UNL     1      -8.357  19.613 -12.993  1.00  0.00    -0.420 NA
HETATM   19  C1  UNL     1      -7.500  20.655 -12.631  1.00  0.00     0.263 C 
HETATM   20  O1  UNL     1     -10.600  18.750 -13.780  1.00  0.00    -0.257 OA
ENDBRANCH  16  17
ENDBRANCH  12  16
ENDBRANCH   1   9
BRANCH   3  21
HETATM   21  S1  UNL     1     -10.563  10.821  -8.200  1.00  0.00     0.255 S 
HETATM   22  O2  UNL     1     -11.563   9.452  -8.337  1.00  0.00    -0.201 OA
HETATM   23  O3  UNL     1      -9.456  10.168  -9.284  1.00  0.00    -0.201 OA
BRANCH  21  24
HETATM   24  N2  UNL     1      -9.999  10.384  -6.777  1.00  0.00    -0.316 N 
ATOM     25  H2  UNL     1      -9.581   9.476  -6.571  1.00  0.00     0.172 HD
BRANCH  24  26
HETATM   26  C11 UNL     1     -10.160  11.446  -5.823  1.00  0.00     0.132 C 
BRANCH  26  27
HETATM   27  C12 UNL     1      -8.905  12.178  -6.292  1.00  0.00     0.024 C 
BRANCH  27  28
HETATM   28  C13 UNL     1      -9.187  13.575  -6.098  1.00  0.00    -0.021 C 
HETATM   29  C14 UNL     1     -10.602  14.154  -6.087  1.00  0.00     0.009 C 
HETATM   30  C15 UNL     1      -8.375  14.354  -7.043  1.00  0.00     0.009 C 
ENDBRANCH  27  28
ENDBRANCH  26  27
ENDBRANCH  24  26
ENDBRANCH  21  24
ENDBRANCH   3  21
TORSDOF 8
ENDMDL
MODEL 5
REMARK VINA RESULT: -7.583106909     11.782     13.334
REMARK  8 active torsions:
REMARK  status: ('A' for Active; 'I' for Inactive)
REMARK       I    between atoms: N1_2  and  C2_3 
REMARK    1  A    between atoms: C2_3  and  C3_5 
REMARK    2  A    between atoms: C3_5  and  C4_6 
REMARK    3  A    between atoms: C7_9  and  C8_10 
REMARK    4  A    between atoms: C10_12  and  S1_13 
REMARK    5  A    between atoms: S1_13  and  N2_16 
REMARK    6  A    between atoms: N2_16  and  C11_18 
REMARK    7  A    between atoms: C11_18  and  C12_19 
REMARK    8  A    between atoms: C12_19  and  C13_20 
ROOT
HETATM    1  C8  UNL     1     -18.225   9.746  -9.520  1.00  0.00    -0.036 C 
HETATM    2  C9  UNL     1     -17.201   9.555  -8.508  1.00  0.00     0.092 C 
HETATM    3  C10 UNL     1     -16.127   8.680  -8.916  1.00  0.00     0.062 C 
HETATM    4  C16 UNL     1     -16.053   8.074 -10.142  1.00  0.00     0.028 C 
HETATM    5  C17 UNL     1     -17.187   8.181 -11.032  1.00  0.00    -0.054 C 
HETATM    6  C18 UNL     1     -17.182   7.484 -12.309  1.00  0.00     0.049 C 
HETATM    7  C19 UNL     1     -18.148   9.015 -10.638  1.00  0.00    -0.049 C 
HETATM    8  C20 UNL     1     -19.501   8.836 -11.392  1.00  0.00     0.049 C 
ENDROOT
BRANCH   1   9
HETATM    9  C7  UNL     1     -19.231  10.702  -9.420  1.00  0.00    -0.023 A 
HETATM   10  C6  UNL     1     -19.434  11.847 -10.123  1.00  0.00     0.013 A 
HETATM   11  C5  UNL     1     -20.586  12.531 -10.011  1.00  0.00     0.008 A 
HETATM   12  C4  UNL     1     -21.547  12.197  -9.186  1.00  0.00    -0.048 A 
HETATM   13  C23 UNL     1     -21.475  11.105  -8.419  1.00  0.00     0.015 A 
HETATM   14  C21 UNL     1     -20.343  10.350  -8.554  1.00  0.00    -0.051 A 
HETATM   15  C22 UNL     1     -20.136   9.212  -7.553  1.00  0.00     0.049 C 
BRANCH  12  16
HETATM   16  C3  UNL     1     -22.734  12.972  -9.087  1.00  0.00     0.157 C 
BRANCH  16  17
HETATM   17  C2  UNL     1     -23.531  12.448 -10.556  1.00  0.00     0.290 C 
HETATM   18  N1  UNL     1     -23.467  13.624 -11.065  1.00  0.00    -0.420 NA
HETATM   19  C1  UNL     1     -23.500  14.681 -11.978  1.00  0.00     0.263 C 
HETATM   20  O1  UNL     1     -23.779  11.186 -10.471  1.00  0.00    -0.257 OA
ENDBRANCH  16  17
ENDBRANCH  12  16
ENDBRANCH   1   9
BRANCH   3  21
HETATM   21  S1  UNL     1     -15.332   8.108  -7.651  1.00  0.00     0.255 S 
HETATM   22  O2  UNL     1     -16.264   6.773  -7.159  1.00  0.00    -0.201 OA
HETATM   23  O3  UNL     1     -14.130   7.096  -8.250  1.00  0.00    -0.201 OA
BRANCH  21  24
HETATM   24  N2  UNL     1     -14.846   8.434  -6.171  1.00  0.00    -0.316 N 
ATOM     25  H2  UNL     1     -13.959   8.879  -5.935  1.00  0.00     0.172 HD
BRANCH  24  26
HETATM   26  C11 UNL     1     -15.830   8.014  -5.213  1.00  0.00     0.132 C 
BRANCH  26  27
HETATM   27  C12 UNL     1     -16.282   9.442  -4.917  1.00  0.00     0.024 C 
BRANCH  27  28
HETATM   28  C13 UNL     1     -15.632   9.796  -3.683  1.00  0.00    -0.021 C 
HETATM   29  C14 UNL     1     -15.806   9.009  -2.384  1.00  0.00     0.009 C 
HETATM   30  C15 UNL     1     -15.896  11.214  -3.404  1.00  0.00     0.009 C 
ENDBRANCH  27  28
ENDBRANCH  26  27
ENDBRANCH  24  26
ENDBRANCH  21  24
ENDBRANCH   3  21
TORSDOF 8
ENDMDL
