MODEL 1
REMARK VINA RESULT: -7.521819065      0.000      0.000
REMARK  8 active torsions:
REMARK  status: ('A' for Active; 'I' for Inactive)
REMARK    1  A    between atoms: C3_3  and  N1_4 
REMARK    2  A    between atoms: N1_4  and  C4_5 
REMARK    3  A    between atoms: N1_4  and  C7_8 
REMARK    4  A    between atoms: C4_5  and  C5_6 
REMARK    5  A    between atoms: C7_8  and  C8_9 
REMARK    6  A    between atoms: C7_8  and  C18_22 
REMARK    7  A    between atoms: C8_9  and  N2_10 
REMARK       I    between atoms: N2_10  and  C9_12 
REMARK    8  A    between atoms: C9_12  and  C10_14 
ROOT
HETATM    1  C1  UNL     1     -20.352   9.726  -7.140  1.00  0.00     0.013 C 
HETATM    2  C2  UNL     1     -19.839  10.581  -7.829  1.00  0.00    -0.103 C 
HETATM    3  C3  UNL     1     -19.205  11.617  -8.699  1.00  0.00     0.189 C 
ENDROOT
BRANCH   3   4
HETATM    4  N1  UNL     1     -19.398  11.110 -10.050  1.00  0.00    -0.265 NA
BRANCH   4   5
HETATM    5  C4  UNL     1     -20.757  11.197 -10.431  1.00  0.00     0.061 C 
BRANCH   5   6
HETATM    6  C5  UNL     1     -21.475  10.029 -10.892  1.00  0.00     0.001 C 
HETATM    7  C6  UNL     1     -21.117   8.842 -11.220  1.00  0.00     0.012 C 
ENDBRANCH   5   6
ENDBRANCH   4   5
BRANCH   4   8
HETATM    8  C7  UNL     1     -18.469  11.611 -11.022  1.00  0.00     0.169 C 
BRANCH   8   9
HETATM    9  C8  UNL     1     -17.984  12.983 -10.699  1.00  0.00     0.092 C 
BRANCH   9  10
HETATM   10  N2  UNL     1     -16.680  13.418 -10.886  1.00  0.00    -0.335 N 
HETATM   11  C9  UNL     1     -16.008  13.954 -11.981  1.00  0.00     0.255 C 
HETATM   12  O1  UNL     1     -16.630  14.179 -13.059  1.00  0.00    -0.267 OA
ATOM     13  H2  UNL     1     -16.097  13.328 -10.054  1.00  0.00     0.168 HD
BRANCH  11  14
HETATM   14  C10 UNL     1     -14.583  14.309 -12.035  1.00  0.00     0.038 A 
HETATM   15  C11 UNL     1     -13.739  13.385 -12.585  1.00  0.00     0.018 A 
HETATM   16  C12 UNL     1     -12.396  13.631 -12.733  1.00  0.00     0.008 A 
HETATM   17  C13 UNL     1     -11.919  14.855 -12.305  1.00  0.00    -0.061 A 
HETATM   18  C14 UNL     1     -10.466  15.141 -12.450  1.00  0.00     0.048 C 
HETATM   19  C15 UNL     1     -12.770  15.762 -11.761  1.00  0.00     0.014 A 
HETATM   20  C16 UNL     1     -14.151  15.535 -11.597  1.00  0.00    -0.046 A 
HETATM   21  C17 UNL     1     -14.947  16.578 -10.951  1.00  0.00     0.049 C 
ENDBRANCH  11  14
ENDBRANCH   9  10
ENDBRANCH   8   9
BRANCH   8  22
HETATM   22  C18 UNL     1     -17.412  10.601 -11.285  1.00  0.00     0.106 A 
HETATM   23  N3  UNL     1     -16.413  10.253 -10.447  1.00  0.00    -0.342 N 
HETATM   24  C19 UNL     1     -15.644   9.320 -11.002  1.00  0.00     0.061 A 
ATOM     25  H3  UNL     1     -16.267  10.650  -9.519  1.00  0.00     0.167 HD
HETATM   26  C20 UNL     1     -14.520   8.657 -10.570  1.00  0.00     0.039 A 
HETATM   27  C26 UNL     1     -16.147   9.038 -12.243  1.00  0.00     0.061 A 
HETATM   28  C21 UNL     1     -13.868   7.712 -11.330  1.00  0.00    -0.054 A 
HETATM   29  C22 UNL     1     -12.640   7.031 -10.797  1.00  0.00     0.049 C 
HETATM   30  C23 UNL     1     -14.375   7.425 -12.580  1.00  0.00    -0.054 A 
HETATM   31  C24 UNL     1     -13.673   6.403 -13.406  1.00  0.00     0.049 C 
HETATM   32  C25 UNL     1     -15.499   8.093 -13.007  1.00  0.00     0.039 A 
HETATM   33  N4  UNL     1     -17.225   9.826 -12.400  1.00  0.00    -0.342 N 
ATOM     34  H4  UNL     1     -17.819   9.844 -13.229  1.00  0.00     0.167 HD
ENDBRANCH   8  22
ENDBRANCH   4   8
ENDBRANCH   3   4
TORSDOF 8
ENDMDL
MODEL 2
REMARK VINA RESULT: -7.481823363      4.038      6.240
REMARK  8 active torsions:
REMARK  status: ('A' for Active; 'I' for Inactive)
REMARK    1  A    between atoms: C3_3  and  N1_4 
REMARK    2  A    between atoms: N1_4  and  C4_5 
REMARK    3  A    between atoms: N1_4  and  C7_8 
REMARK    4  A    between atoms: C4_5  and  C5_6 
REMARK    5  A    between atoms: C7_8  and  C8_9 
REMARK    6  A    between atoms: C7_8  and  C18_22 
REMARK    7  A    between atoms: C8_9  and  N2_10 
REMARK       I    between atoms: N2_10  and  C9_12 
REMARK    8  A    between atoms: C9_12  and  C10_14 
ROOT
HETATM    1  C1  UNL     1     -20.715  14.634  -9.778  1.00  0.00     0.013 C 
HETATM    2  C2  UNL     1     -21.046  13.493 -10.012  1.00  0.00    -0.103 C 
HETATM    3  C3  UNL     1     -21.447  12.078 -10.274  1.00  0.00     0.189 C 
ENDROOT
BRANCH   3   4
HETATM    4  N1  UNL     1     -21.585  11.497  -8.946  1.00  0.00    -0.265 NA
BRANCH   4   5
HETATM    5  C4  UNL     1     -22.902  11.664  -8.459  1.00  0.00     0.061 C 
BRANCH   5   6
HETATM    6  C5  UNL     1     -23.169  11.695  -7.037  1.00  0.00     0.001 C 
HETATM    7  C6  UNL     1     -24.125  11.255  -6.306  1.00  0.00     0.012 C 
ENDBRANCH   5   6
ENDBRANCH   4   5
BRANCH   4   8
HETATM    8  C7  UNL     1     -21.058  10.170  -8.809  1.00  0.00     0.169 C 
BRANCH   8   9
HETATM    9  C8  UNL     1     -20.851   9.495 -10.121  1.00  0.00     0.092 C 
BRANCH   9  10
HETATM   10  N2  UNL     1     -19.649   8.943 -10.539  1.00  0.00    -0.335 N 
HETATM   11  C9  UNL     1     -18.567   9.456 -11.251  1.00  0.00     0.255 C 
HETATM   12  O1  UNL     1     -18.552  10.675 -11.589  1.00  0.00    -0.267 OA
ATOM     13  H2  UNL     1     -19.534   7.966 -10.272  1.00  0.00     0.168 HD
BRANCH  11  14
HETATM   14  C10 UNL     1     -17.377   8.708 -11.677  1.00  0.00     0.038 A 
HETATM   15  C11 UNL     1     -17.467   8.030 -12.860  1.00  0.00     0.018 A 
HETATM   16  C12 UNL     1     -16.399   7.340 -13.380  1.00  0.00     0.008 A 
HETATM   17  C13 UNL     1     -15.219   7.352 -12.663  1.00  0.00    -0.061 A 
HETATM   18  C14 UNL     1     -14.051   6.605 -13.205  1.00  0.00     0.048 C 
HETATM   19  C15 UNL     1     -15.145   8.030 -11.490  1.00  0.00     0.014 A 
HETATM   20  C16 UNL     1     -16.225   8.745 -10.933  1.00  0.00    -0.046 A 
HETATM   21  C17 UNL     1     -16.026   9.391  -9.637  1.00  0.00     0.049 C 
ENDBRANCH  11  14
ENDBRANCH   9  10
ENDBRANCH   8   9
BRANCH   8  22
HETATM   22  C18 UNL     1     -19.883  10.180  -7.899  1.00  0.00     0.106 A 
HETATM   23  N3  UNL     1     -19.136   9.113  -7.547  1.00  0.00    -0.342 N 
HETATM   24  C19 UNL     1     -18.165   9.479  -6.715  1.00  0.00     0.061 A 
ATOM     25  H3  UNL     1     -19.293   8.159  -7.874  1.00  0.00     0.167 HD
HETATM   26  C20 UNL     1     -17.166   8.781  -6.079  1.00  0.00     0.039 A 
HETATM   27  C26 UNL     1     -18.268  10.828  -6.509  1.00  0.00     0.061 A 
HETATM   28  C21 UNL     1     -16.253   9.376  -5.237  1.00  0.00    -0.054 A 
HETATM   29  C22 UNL     1     -15.192   8.549  -4.570  1.00  0.00     0.049 C 
HETATM   30  C23 UNL     1     -16.355  10.735  -5.029  1.00  0.00    -0.054 A 
HETATM   31  C24 UNL     1     -15.369  11.383  -4.120  1.00  0.00     0.049 C 
HETATM   32  C25 UNL     1     -17.357  11.428  -5.668  1.00  0.00     0.039 A 
HETATM   33  N4  UNL     1     -19.320  11.241  -7.238  1.00  0.00    -0.342 N 
ATOM     34  H4  UNL     1     -19.650  12.204  -7.292  1.00  0.00     0.167 HD
ENDBRANCH   8  22
ENDBRANCH   4   8
ENDBRANCH   3   4
TORSDOF 8
ENDMDL
MODEL 3
REMARK VINA RESULT: -7.400674500      5.660      7.986
REMARK  8 active torsions:
REMARK  status: ('A' for Active; 'I' for Inactive)
REMARK    1  A    between atoms: C3_3  and  N1_4 
REMARK    2  A    between atoms: N1_4  and  C4_5 
REMARK    3  A    between atoms: N1_4  and  C7_8 
REMARK    4  A    between atoms: C4_5  and  C5_6 
REMARK    5  A    between atoms: C7_8  and  C8_9 
REMARK    6  A    between atoms: C7_8  and  C18_22 
REMARK    7  A    between atoms: C8_9  and  N2_10 
REMARK       I    between atoms: N2_10  and  C9_12 
REMARK    8  A    between atoms: C9_12  and  C10_14 
ROOT
HETATM    1  C1  UNL     1     -12.952   9.708  -4.724  1.00  0.00     0.013 C 
HETATM    2  C2  UNL     1     -13.027   9.996  -5.898  1.00  0.00    -0.103 C 
HETATM    3  C3  UNL     1     -13.092  10.344  -7.349  1.00  0.00     0.189 C 
ENDROOT
BRANCH   3   4
HETATM    4  N1  UNL     1     -11.905   9.720  -7.917  1.00  0.00    -0.265 NA
BRANCH   4   5
HETATM    5  C4  UNL     1     -12.246   8.549  -8.632  1.00  0.00     0.061 C 
BRANCH   5   6
HETATM    6  C5  UNL     1     -13.561   8.392  -9.216  1.00  0.00     0.001 C 
HETATM    7  C6  UNL     1     -13.990   8.313 -10.421  1.00  0.00     0.012 C 
ENDBRANCH   5   6
ENDBRANCH   4   5
BRANCH   4   8
HETATM    8  C7  UNL     1     -11.026  10.614  -8.613  1.00  0.00     0.169 C 
BRANCH   8   9
HETATM    9  C8  UNL     1     -11.759  11.685  -9.346  1.00  0.00     0.092 C 
BRANCH   9  10
HETATM   10  N2  UNL     1     -11.149  12.677 -10.100  1.00  0.00    -0.335 N 
HETATM   11  C9  UNL     1     -11.180  14.067 -10.040  1.00  0.00     0.255 C 
HETATM   12  O1  UNL     1     -11.823  14.647  -9.117  1.00  0.00    -0.267 OA
ATOM     13  H2  UNL     1     -10.560  12.315 -10.850  1.00  0.00     0.168 HD
BRANCH  11  14
HETATM   14  C10 UNL     1     -10.518  14.991 -10.971  1.00  0.00     0.038 A 
HETATM   15  C11 UNL     1      -9.687  15.927 -10.422  1.00  0.00     0.018 A 
HETATM   16  C12 UNL     1      -8.978  16.809 -11.202  1.00  0.00     0.008 A 
HETATM   17  C13 UNL     1      -9.131  16.718 -12.571  1.00  0.00    -0.061 A 
HETATM   18  C14 UNL     1      -8.378  17.667 -13.435  1.00  0.00     0.048 C 
HETATM   19  C15 UNL     1      -9.961  15.783 -13.101  1.00  0.00     0.014 A 
HETATM   20  C16 UNL     1     -10.701  14.868 -12.325  1.00  0.00    -0.046 A 
HETATM   21  C17 UNL     1     -11.596  13.945 -13.020  1.00  0.00     0.049 C 
ENDBRANCH  11  14
ENDBRANCH   9  10
ENDBRANCH   8   9
BRANCH   8  22
HETATM   22  C18 UNL     1      -9.948  11.080  -7.703  1.00  0.00     0.106 A 
HETATM   23  N3  UNL     1      -9.025  12.026  -7.976  1.00  0.00    -0.342 N 
HETATM   24  C19 UNL     1      -8.209  12.192  -6.939  1.00  0.00     0.061 A 
ATOM     25  H3  UNL     1      -8.963  12.541  -8.853  1.00  0.00     0.167 HD
HETATM   26  C20 UNL     1      -7.126  13.010  -6.724  1.00  0.00     0.039 A 
HETATM   27  C26 UNL     1      -8.601  11.333  -5.948  1.00  0.00     0.061 A 
HETATM   28  C21 UNL     1      -6.407  13.012  -5.549  1.00  0.00    -0.054 A 
HETATM   29  C22 UNL     1      -5.230  13.929  -5.386  1.00  0.00     0.049 C 
HETATM   30  C23 UNL     1      -6.802  12.148  -4.549  1.00  0.00    -0.054 A 
HETATM   31  C24 UNL     1      -6.028  12.147  -3.276  1.00  0.00     0.049 C 
HETATM   32  C25 UNL     1      -7.885  11.331  -4.770  1.00  0.00     0.039 A 
HETATM   33  N4  UNL     1      -9.662  10.663  -6.428  1.00  0.00    -0.342 N 
ATOM     34  H4  UNL     1     -10.180   9.948  -5.918  1.00  0.00     0.167 HD
ENDBRANCH   8  22
ENDBRANCH   4   8
ENDBRANCH   3   4
TORSDOF 8
ENDMDL
MODEL 4
REMARK VINA RESULT: -7.400624374      2.107      7.330
REMARK  8 active torsions:
REMARK  status: ('A' for Active; 'I' for Inactive)
REMARK    1  A    between atoms: C3_3  and  N1_4 
REMARK    2  A    between atoms: N1_4  and  C4_5 
REMARK    3  A    between atoms: N1_4  and  C7_8 
REMARK    4  A    between atoms: C4_5  and  C5_6 
REMARK    5  A    between atoms: C7_8  and  C8_9 
REMARK    6  A    between atoms: C7_8  and  C18_22 
REMARK    7  A    between atoms: C8_9  and  N2_10 
REMARK       I    between atoms: N2_10  and  C9_12 
REMARK    8  A    between atoms: C9_12  and  C10_14 
ROOT
HETATM    1  C1  UNL     1     -14.453   8.299  -9.398  1.00  0.00     0.013 C 
HETATM    2  C2  UNL     1     -15.422   7.956 -10.039  1.00  0.00    -0.103 C 
HETATM    3  C3  UNL     1     -16.612   7.553 -10.849  1.00  0.00     0.189 C 
ENDROOT
BRANCH   3   4
HETATM    4  N1  UNL     1     -16.360   8.133 -12.161  1.00  0.00    -0.265 NA
BRANCH   4   5
HETATM    5  C4  UNL     1     -16.062   7.125 -13.107  1.00  0.00     0.061 C 
BRANCH   5   6
HETATM    6  C5  UNL     1     -14.713   6.940 -13.595  1.00  0.00     0.001 C 
HETATM    7  C6  UNL     1     -13.603   6.630 -13.033  1.00  0.00     0.012 C 
ENDBRANCH   5   6
ENDBRANCH   4   5
BRANCH   4   8
HETATM    8  C7  UNL     1     -17.332   9.095 -12.593  1.00  0.00     0.169 C 
BRANCH   8   9
HETATM    9  C8  UNL     1     -18.689   8.829 -12.037  1.00  0.00     0.092 C 
BRANCH   9  10
HETATM   10  N2  UNL     1     -19.204   9.437 -10.901  1.00  0.00    -0.335 N 
HETATM   11  C9  UNL     1     -20.431   9.342 -10.249  1.00  0.00     0.255 C 
HETATM   12  O1  UNL     1     -21.307   8.529 -10.663  1.00  0.00    -0.267 OA
ATOM     13  H2  UNL     1     -18.554  10.082 -10.454  1.00  0.00     0.168 HD
BRANCH  11  14
HETATM   14  C10 UNL     1     -20.850  10.117  -9.073  1.00  0.00     0.038 A 
HETATM   15  C11 UNL     1     -20.488   9.624  -7.851  1.00  0.00     0.018 A 
HETATM   16  C12 UNL     1     -20.783  10.293  -6.687  1.00  0.00     0.008 A 
HETATM   17  C13 UNL     1     -21.462  11.490  -6.792  1.00  0.00    -0.061 A 
HETATM   18  C14 UNL     1     -21.797  12.228  -5.543  1.00  0.00     0.048 C 
HETATM   19  C15 UNL     1     -21.815  11.966  -8.013  1.00  0.00     0.014 A 
HETATM   20  C16 UNL     1     -21.526  11.301  -9.222  1.00  0.00    -0.046 A 
HETATM   21  C17 UNL     1     -22.007  11.899 -10.466  1.00  0.00     0.049 C 
ENDBRANCH  11  14
ENDBRANCH   9  10
ENDBRANCH   8   9
BRANCH   8  22
HETATM   22  C18 UNL     1     -16.812  10.472 -12.390  1.00  0.00     0.106 A 
HETATM   23  N3  UNL     1     -15.516  10.845 -12.399  1.00  0.00    -0.342 N 
HETATM   24  C19 UNL     1     -15.407  12.153 -12.181  1.00  0.00     0.061 A 
ATOM     25  H3  UNL     1     -14.729  10.214 -12.551  1.00  0.00     0.167 HD
HETATM   26  C20 UNL     1     -14.327  12.999 -12.089  1.00  0.00     0.039 A 
HETATM   27  C26 UNL     1     -16.667  12.663 -12.025  1.00  0.00     0.061 A 
HETATM   28  C21 UNL     1     -14.450  14.349 -11.847  1.00  0.00    -0.054 A 
HETATM   29  C22 UNL     1     -13.225  15.212 -11.751  1.00  0.00     0.049 C 
HETATM   30  C23 UNL     1     -15.719  14.865 -11.691  1.00  0.00    -0.054 A 
HETATM   31  C24 UNL     1     -15.856  16.325 -11.429  1.00  0.00     0.049 C 
HETATM   32  C25 UNL     1     -16.795  14.014 -11.783  1.00  0.00     0.039 A 
HETATM   33  N4  UNL     1     -17.513  11.627 -12.156  1.00  0.00    -0.342 N 
ATOM     34  H4  UNL     1     -18.528  11.690 -12.092  1.00  0.00     0.167 HD
ENDBRANCH   8  22
ENDBRANCH   4   8
ENDBRANCH   3   4
TORSDOF 8
ENDMDL
MODEL 5
REMARK VINA RESULT: -7.372883309      5.853      8.329
REMARK  8 active torsions:
REMARK  status: ('A' for Active; 'I' for Inactive)
REMARK    1  A    between atoms: C3_3  and  N1_4 
REMARK    2  A    between atoms: N1_4  and  C4_5 
REMARK    3  A    between atoms: N1_4  and  C7_8 
REMARK    4  A    between atoms: C4_5  and  C5_6 
REMARK    5  A    between atoms: C7_8  and  C8_9 
REMARK    6  A    between atoms: C7_8  and  C18_22 
REMARK    7  A    between atoms: C8_9  and  N2_10 
REMARK       I    between atoms: N2_10  and  C9_12 
REMARK    8  A    between atoms: C9_12  and  C10_14 
ROOT
HETATM    1  C1  UNL     1     -12.588   9.834  -5.000  1.00  0.00     0.013 C 
HETATM    2  C2  UNL     1     -12.645  10.137  -6.172  1.00  0.00    -0.103 C 
HETATM    3  C3  UNL     1     -12.690  10.507  -7.619  1.00  0.00     0.189 C 
ENDROOT
BRANCH   3   4
HETATM    4  N1  UNL     1     -11.429  10.009  -8.150  1.00  0.00    -0.265 NA
BRANCH   4   5
HETATM    5  C4  UNL     1     -11.628   8.817  -8.884  1.00  0.00     0.061 C 
BRANCH   5   6
HETATM    6  C5  UNL     1     -12.933   8.195  -8.951  1.00  0.00     0.001 C 
HETATM    7  C6  UNL     1     -13.382   7.043  -8.613  1.00  0.00     0.012 C 
ENDBRANCH   5   6
ENDBRANCH   4   5
BRANCH   4   8
HETATM    8  C7  UNL     1     -10.620  10.992  -8.810  1.00  0.00     0.169 C 
BRANCH   8   9
HETATM    9  C8  UNL     1     -11.431  12.064  -9.455  1.00  0.00     0.092 C 
BRANCH   9  10
HETATM   10  N2  UNL     1     -10.905  13.083 -10.235  1.00  0.00    -0.335 N 
HETATM   11  C9  UNL     1     -10.468  14.372  -9.943  1.00  0.00     0.255 C 
HETATM   12  O1  UNL     1     -10.459  14.781  -8.745  1.00  0.00    -0.267 OA
ATOM     13  H2  UNL     1     -10.820  12.838 -11.222  1.00  0.00     0.168 HD
BRANCH  11  14
HETATM   14  C10 UNL     1      -9.991  15.368 -10.912  1.00  0.00     0.038 A 
HETATM   15  C11 UNL     1      -9.149  16.334 -10.438  1.00  0.00     0.018 A 
HETATM   16  C12 UNL     1      -8.603  17.285 -11.265  1.00  0.00     0.008 A 
HETATM   17  C13 UNL     1      -8.933  17.233 -12.605  1.00  0.00    -0.061 A 
HETATM   18  C14 UNL     1      -8.357  18.257 -13.519  1.00  0.00     0.048 C 
HETATM   19  C15 UNL     1      -9.771  16.267 -13.061  1.00  0.00     0.014 A 
HETATM   20  C16 UNL     1     -10.346  15.281 -12.234  1.00  0.00    -0.046 A 
HETATM   21  C17 UNL     1     -11.271  14.327 -12.845  1.00  0.00     0.049 C 
ENDBRANCH  11  14
ENDBRANCH   9  10
ENDBRANCH   8   9
BRANCH   8  22
HETATM   22  C18 UNL     1      -9.543  11.461  -7.900  1.00  0.00     0.106 A 
HETATM   23  N3  UNL     1      -9.387  11.118  -6.604  1.00  0.00    -0.342 N 
HETATM   24  C19 UNL     1      -8.321  11.723  -6.088  1.00  0.00     0.061 A 
ATOM     25  H3  UNL     1     -10.001  10.485  -6.091  1.00  0.00     0.167 HD
HETATM   26  C20 UNL     1      -7.753  11.710  -4.836  1.00  0.00     0.039 A 
HETATM   27  C26 UNL     1      -7.750  12.488  -7.069  1.00  0.00     0.061 A 
HETATM   28  C21 UNL     1      -6.626  12.434  -4.516  1.00  0.00    -0.054 A 
HETATM   29  C22 UNL     1      -6.064  12.378  -3.124  1.00  0.00     0.049 C 
HETATM   30  C23 UNL     1      -6.049  13.204  -5.503  1.00  0.00    -0.054 A 
HETATM   31  C24 UNL     1      -4.830  13.988  -5.161  1.00  0.00     0.049 C 
HETATM   32  C25 UNL     1      -6.622  13.214  -6.754  1.00  0.00     0.039 A 
HETATM   33  N4  UNL     1      -8.506  12.317  -8.168  1.00  0.00    -0.342 N 
ATOM     34  H4  UNL     1      -8.333  12.759  -9.070  1.00  0.00     0.167 HD
ENDBRANCH   8  22
ENDBRANCH   4   8
ENDBRANCH   3   4
TORSDOF 8
ENDMDL
