MODEL 1
REMARK VINA RESULT: -5.947535663      0.000      0.000
REMARK  12 active torsions:
REMARK  status: ('A' for Active; 'I' for Inactive)
REMARK    1  A    between atoms: C2_2  and  C3_3 
REMARK    2  A    between atoms: C3_3  and  C4_4 
REMARK    3  A    between atoms: C4_4  and  N1_5 
REMARK    4  A    between atoms: N1_5  and  C5_7 
REMARK    5  A    between atoms: C5_7  and  N2_9 
REMARK    6  A    between atoms: N2_9  and  C6_11 
REMARK    7  A    between atoms: N3_14  and  C9_15 
REMARK    8  A    between atoms: C9_15  and  C10_16 
REMARK    9  A    between atoms: C10_16  and  C11_17 
REMARK   10  A    between atoms: C11_17  and  N4_18 
REMARK       I    between atoms: N4_18  and  C13_20 
REMARK   11  A    between atoms: C13_20  and  C14_22 
REMARK   12  A    between atoms: C14_22  and  C17_25 
ROOT
HETATM    1  C6  UNL     1      14.116   8.158  11.527  1.00  0.00     0.087 C 
HETATM    2  C7  UNL     1      14.684   7.098  12.493  1.00  0.00     0.055 C 
HETATM    3  C8  UNL     1      16.072   7.560  12.965  1.00  0.00     0.274 C 
HETATM    4  N3  UNL     1      16.921   7.364  11.791  1.00  0.00     0.088 N 
HETATM    5  C21 UNL     1      16.440   8.179  10.694  1.00  0.00     0.274 C 
HETATM    6  C22 UNL     1      15.264   9.032  11.038  1.00  0.00     0.055 C 
ENDROOT
BRANCH   4   7
HETATM    7  C9  UNL     1      18.308   7.537  12.098  1.00  0.00     0.274 C 
BRANCH   7   8
HETATM    8  C10 UNL     1      18.724   8.939  11.751  1.00  0.00     0.050 C 
BRANCH   8   9
HETATM    9  C11 UNL     1      20.095   8.964  11.088  1.00  0.00     0.127 C 
BRANCH   9  10
HETATM   10  N4  UNL     1      20.055  10.105  10.182  1.00  0.00    -0.356 N 
HETATM   11  C12 UNL     1      19.720  11.387  10.743  1.00  0.00     0.152 C 
HETATM   12  C13 UNL     1      20.340   9.875   8.813  1.00  0.00     0.228 C 
HETATM   13  O1  UNL     1      20.610   8.667   8.467  1.00  0.00    -0.273 OA
BRANCH  12  14
HETATM   14  C14 UNL     1      20.350  10.917   7.767  1.00  0.00     0.040 C 
HETATM   15  C15 UNL     1      21.348  10.560   6.719  1.00  0.00     0.026 C 
HETATM   16  C16 UNL     1      20.692  12.246   8.420  1.00  0.00     0.026 C 
BRANCH  14  17
HETATM   17  C17 UNL     1      18.964  11.059   7.172  1.00  0.00    -0.036 C 
HETATM   18  C18 UNL     1      18.434  12.455   7.421  1.00  0.00     0.015 C 
HETATM   19  C19 UNL     1      17.977  10.096   7.784  1.00  0.00     0.015 C 
HETATM   20  C20 UNL     1      18.995  10.820   5.681  1.00  0.00     0.015 C 
ENDBRANCH  14  17
ENDBRANCH  12  14
ENDBRANCH   9  10
ENDBRANCH   8   9
ENDBRANCH   7   8
ENDBRANCH   4   7
BRANCH   1  21
HETATM   21  N2  UNL     1      13.534   7.442  10.446  1.00  0.00    -0.362 N 
ATOM     22  H2  UNL     1      13.468   6.433  10.581  1.00  0.00     0.162 HD
BRANCH  21  23
HETATM   23  C5  UNL     1      13.044   7.904   9.244  1.00  0.00     0.171 C 
HETATM   24  S1  UNL     1      11.615   8.888   9.446  1.00  0.00    -0.041 SA
BRANCH  23  25
HETATM   25  N1  UNL     1      13.430   7.759   7.940  1.00  0.00    -0.347 N 
ATOM     26  H1  UNL     1      12.719   7.311   7.362  1.00  0.00     0.167 HD
BRANCH  25  27
HETATM   27  C4  UNL     1      14.594   8.092   7.217  1.00  0.00     0.063 C 
BRANCH  27  28
HETATM   28  C3  UNL     1      15.665   7.002   7.252  1.00  0.00     0.044 C 
BRANCH  28  29
HETATM   29  C2  UNL     1      16.465   7.102   5.981  1.00  0.00     0.001 C 
HETATM   30  C1  UNL     1      15.729   7.952   4.982  1.00  0.00     0.005 C 
ENDBRANCH  28  29
ENDBRANCH  27  28
ENDBRANCH  25  27
ENDBRANCH  23  25
ENDBRANCH  21  23
ENDBRANCH   1  21
TORSDOF 12
ENDMDL
MODEL 2
REMARK VINA RESULT: -5.791655626      2.597      5.774
REMARK  12 active torsions:
REMARK  status: ('A' for Active; 'I' for Inactive)
REMARK    1  A    between atoms: C2_2  and  C3_3 
REMARK    2  A    between atoms: C3_3  and  C4_4 
REMARK    3  A    between atoms: C4_4  and  N1_5 
REMARK    4  A    between atoms: N1_5  and  C5_7 
REMARK    5  A    between atoms: C5_7  and  N2_9 
REMARK    6  A    between atoms: N2_9  and  C6_11 
REMARK    7  A    between atoms: N3_14  and  C9_15 
REMARK    8  A    between atoms: C9_15  and  C10_16 
REMARK    9  A    between atoms: C10_16  and  C11_17 
REMARK   10  A    between atoms: C11_17  and  N4_18 
REMARK       I    between atoms: N4_18  and  C13_20 
REMARK   11  A    between atoms: C13_20  and  C14_22 
REMARK   12  A    between atoms: C14_22  and  C17_25 
ROOT
HETATM    1  C6  UNL     1      17.922   8.623  12.368  1.00  0.00     0.087 C 
HETATM    2  C7  UNL     1      16.757   9.633  12.422  1.00  0.00     0.055 C 
HETATM    3  C8  UNL     1      15.468   8.874  12.774  1.00  0.00     0.274 C 
HETATM    4  N3  UNL     1      15.153   8.137  11.550  1.00  0.00     0.088 N 
HETATM    5  C21 UNL     1      16.233   7.224  11.235  1.00  0.00     0.274 C 
HETATM    6  C22 UNL     1      17.341   7.222  12.235  1.00  0.00     0.055 C 
ENDROOT
BRANCH   4   7
HETATM    7  C9  UNL     1      13.858   7.532  11.607  1.00  0.00     0.274 C 
BRANCH   7   8
HETATM    8  C10 UNL     1      13.004   8.078  10.497  1.00  0.00     0.050 C 
BRANCH   8   9
HETATM    9  C11 UNL     1      13.078   7.200   9.255  1.00  0.00     0.127 C 
BRANCH   9  10
HETATM   10  N4  UNL     1      13.429   8.109   8.170  1.00  0.00    -0.356 N 
HETATM   11  C12 UNL     1      12.590   9.261   7.971  1.00  0.00     0.152 C 
HETATM   12  C13 UNL     1      14.564   7.795   7.383  1.00  0.00     0.228 C 
HETATM   13  O1  UNL     1      15.204   6.720   7.682  1.00  0.00    -0.273 OA
BRANCH  12  14
HETATM   14  C14 UNL     1      15.060   8.609   6.255  1.00  0.00     0.040 C 
HETATM   15  C15 UNL     1      13.903   9.182   5.511  1.00  0.00     0.026 C 
HETATM   16  C16 UNL     1      15.901   7.718   5.357  1.00  0.00     0.026 C 
BRANCH  14  17
HETATM   17  C17 UNL     1      15.970   9.703   6.773  1.00  0.00    -0.036 C 
HETATM   18  C18 UNL     1      17.252   9.735   5.968  1.00  0.00     0.015 C 
HETATM   19  C19 UNL     1      16.357   9.490   8.215  1.00  0.00     0.015 C 
HETATM   20  C20 UNL     1      15.302  11.053   6.658  1.00  0.00     0.015 C 
ENDBRANCH  14  17
ENDBRANCH  12  14
ENDBRANCH   9  10
ENDBRANCH   8   9
ENDBRANCH   7   8
ENDBRANCH   4   7
BRANCH   1  21
HETATM   21  N2  UNL     1      18.689   8.961  11.220  1.00  0.00    -0.362 N 
ATOM     22  H2  UNL     1      18.303   8.640  10.332  1.00  0.00     0.162 HD
BRANCH  21  23
HETATM   23  C5  UNL     1      19.876   9.655  11.126  1.00  0.00     0.171 C 
HETATM   24  S1  UNL     1      21.265   8.596  11.150  1.00  0.00    -0.041 SA
BRANCH  23  25
HETATM   25  N1  UNL     1      20.199  10.980  11.020  1.00  0.00    -0.347 N 
ATOM     26  H1  UNL     1      20.357  11.424  11.925  1.00  0.00     0.167 HD
BRANCH  25  27
HETATM   27  C4  UNL     1      20.361  11.868   9.937  1.00  0.00     0.063 C 
BRANCH  27  28
HETATM   28  C3  UNL     1      19.696  11.384   8.649  1.00  0.00     0.044 C 
BRANCH  28  29
HETATM   29  C2  UNL     1      20.783  10.917   7.718  1.00  0.00     0.001 C 
HETATM   30  C1  UNL     1      20.614   9.450   7.434  1.00  0.00     0.005 C 
ENDBRANCH  28  29
ENDBRANCH  27  28
ENDBRANCH  25  27
ENDBRANCH  23  25
ENDBRANCH  21  23
ENDBRANCH   1  21
TORSDOF 12
ENDMDL
MODEL 3
REMARK VINA RESULT: -5.703194585      1.639      4.529
REMARK  12 active torsions:
REMARK  status: ('A' for Active; 'I' for Inactive)
REMARK    1  A    between atoms: C2_2  and  C3_3 
REMARK    2  A    between atoms: C3_3  and  C4_4 
REMARK    3  A    between atoms: C4_4  and  N1_5 
REMARK    4  A    between atoms: N1_5  and  C5_7 
REMARK    5  A    between atoms: C5_7  and  N2_9 
REMARK    6  A    between atoms: N2_9  and  C6_11 
REMARK    7  A    between atoms: N3_14  and  C9_15 
REMARK    8  A    between atoms: C9_15  and  C10_16 
REMARK    9  A    between atoms: C10_16  and  C11_17 
REMARK   10  A    between atoms: C11_17  and  N4_18 
REMARK       I    between atoms: N4_18  and  C13_20 
REMARK   11  A    between atoms: C13_20  and  C14_22 
REMARK   12  A    between atoms: C14_22  and  C17_25 
ROOT
HETATM    1  C6  UNL     1      15.579   7.564   8.525  1.00  0.00     0.087 C 
HETATM    2  C7  UNL     1      15.627   7.029   7.079  1.00  0.00     0.055 C 
HETATM    3  C8  UNL     1      16.747   7.760   6.323  1.00  0.00     0.274 C 
HETATM    4  N3  UNL     1      16.207   9.104   6.116  1.00  0.00     0.088 N 
HETATM    5  C21 UNL     1      15.939   9.729   7.395  1.00  0.00     0.274 C 
HETATM    6  C22 UNL     1      16.319   8.894   8.573  1.00  0.00     0.055 C 
ENDROOT
BRANCH   4   7
HETATM    7  C9  UNL     1      17.023   9.879   5.233  1.00  0.00     0.274 C 
BRANCH   7   8
HETATM    8  C10 UNL     1      17.814  10.877   6.032  1.00  0.00     0.050 C 
BRANCH   8   9
HETATM    9  C11 UNL     1      19.223  10.372   6.314  1.00  0.00     0.127 C 
BRANCH   9  10
HETATM   10  N4  UNL     1      19.500  10.773   7.688  1.00  0.00    -0.356 N 
HETATM   11  C12 UNL     1      18.911  12.001   8.152  1.00  0.00     0.152 C 
HETATM   12  C13 UNL     1      20.333   9.934   8.468  1.00  0.00     0.228 C 
HETATM   13  O1  UNL     1      20.792   8.875   7.902  1.00  0.00    -0.273 OA
BRANCH  12  14
HETATM   14  C14 UNL     1      20.707  10.189   9.874  1.00  0.00     0.040 C 
HETATM   15  C15 UNL     1      21.044   8.899  10.540  1.00  0.00     0.026 C 
HETATM   16  C16 UNL     1      19.537  10.872  10.563  1.00  0.00     0.026 C 
BRANCH  14  17
HETATM   17  C17 UNL     1      21.876  11.150   9.927  1.00  0.00    -0.036 C 
HETATM   18  C18 UNL     1      21.421  12.490  10.468  1.00  0.00     0.015 C 
HETATM   19  C19 UNL     1      22.472  11.403   8.565  1.00  0.00     0.015 C 
HETATM   20  C20 UNL     1      22.965  10.618  10.828  1.00  0.00     0.015 C 
ENDBRANCH  14  17
ENDBRANCH  12  14
ENDBRANCH   9  10
ENDBRANCH   8   9
ENDBRANCH   7   8
ENDBRANCH   4   7
BRANCH   1  21
HETATM   21  N2  UNL     1      14.205   7.741   8.840  1.00  0.00    -0.362 N 
ATOM     22  H2  UNL     1      13.561   7.598   8.062  1.00  0.00     0.162 HD
BRANCH  21  23
HETATM   23  C5  UNL     1      13.611   8.075  10.038  1.00  0.00     0.171 C 
HETATM   24  S1  UNL     1      12.179   9.050   9.816  1.00  0.00    -0.041 SA
BRANCH  23  25
HETATM   25  N1  UNL     1      13.898   7.813  11.349  1.00  0.00    -0.347 N 
ATOM     26  H1  UNL     1      13.224   7.184  11.786  1.00  0.00     0.167 HD
BRANCH  25  27
HETATM   27  C4  UNL     1      14.919   8.221  12.231  1.00  0.00     0.063 C 
BRANCH  27  28
HETATM   28  C3  UNL     1      15.746   7.060  12.783  1.00  0.00     0.044 C 
BRANCH  28  29
HETATM   29  C2  UNL     1      17.039   7.010  12.013  1.00  0.00     0.001 C 
HETATM   30  C1  UNL     1      17.933   8.139  12.445  1.00  0.00     0.005 C 
ENDBRANCH  28  29
ENDBRANCH  27  28
ENDBRANCH  25  27
ENDBRANCH  23  25
ENDBRANCH  21  23
ENDBRANCH   1  21
TORSDOF 12
ENDMDL
MODEL 4
REMARK VINA RESULT: -5.653876286      2.293      4.177
REMARK  12 active torsions:
REMARK  status: ('A' for Active; 'I' for Inactive)
REMARK    1  A    between atoms: C2_2  and  C3_3 
REMARK    2  A    between atoms: C3_3  and  C4_4 
REMARK    3  A    between atoms: C4_4  and  N1_5 
REMARK    4  A    between atoms: N1_5  and  C5_7 
REMARK    5  A    between atoms: C5_7  and  N2_9 
REMARK    6  A    between atoms: N2_9  and  C6_11 
REMARK    7  A    between atoms: N3_14  and  C9_15 
REMARK    8  A    between atoms: C9_15  and  C10_16 
REMARK    9  A    between atoms: C10_16  and  C11_17 
REMARK   10  A    between atoms: C11_17  and  N4_18 
REMARK       I    between atoms: N4_18  and  C13_20 
REMARK   11  A    between atoms: C13_20  and  C14_22 
REMARK   12  A    between atoms: C14_22  and  C17_25 
ROOT
HETATM    1  C6  UNL     1      15.621   8.915  12.321  1.00  0.00     0.087 C 
HETATM    2  C7  UNL     1      17.047   8.971  12.907  1.00  0.00     0.055 C 
HETATM    3  C8  UNL     1      17.918   9.845  11.991  1.00  0.00     0.274 C 
HETATM    4  N3  UNL     1      18.126   9.010  10.808  1.00  0.00     0.088 N 
HETATM    5  C21 UNL     1      16.851   8.707  10.191  1.00  0.00     0.274 C 
HETATM    6  C22 UNL     1      15.681   9.347  10.861  1.00  0.00     0.055 C 
ENDROOT
BRANCH   4   7
HETATM    7  C9  UNL     1      19.100   9.568   9.922  1.00  0.00     0.274 C 
BRANCH   7   8
HETATM    8  C10 UNL     1      18.406  10.154   8.724  1.00  0.00     0.050 C 
BRANCH   8   9
HETATM    9  C11 UNL     1      19.049   9.686   7.425  1.00  0.00     0.127 C 
BRANCH   9  10
HETATM   10  N4  UNL     1      18.105  10.061   6.380  1.00  0.00    -0.356 N 
HETATM   11  C12 UNL     1      18.284  11.343   5.752  1.00  0.00     0.152 C 
HETATM   12  C13 UNL     1      17.073   9.145   6.058  1.00  0.00     0.228 C 
HETATM   13  O1  UNL     1      17.042   8.043   6.720  1.00  0.00    -0.273 OA
BRANCH  12  14
HETATM   14  C14 UNL     1      16.042   9.364   5.024  1.00  0.00     0.040 C 
HETATM   15  C15 UNL     1      15.559   8.048   4.517  1.00  0.00     0.026 C 
HETATM   16  C16 UNL     1      16.655  10.190   3.906  1.00  0.00     0.026 C 
BRANCH  14  17
HETATM   17  C17 UNL     1      14.902  10.176   5.602  1.00  0.00    -0.036 C 
HETATM   18  C18 UNL     1      14.850  11.539   4.944  1.00  0.00     0.015 C 
HETATM   19  C19 UNL     1      15.057  10.407   7.085  1.00  0.00     0.015 C 
HETATM   20  C20 UNL     1      13.580   9.484   5.368  1.00  0.00     0.015 C 
ENDBRANCH  14  17
ENDBRANCH  12  14
ENDBRANCH   9  10
ENDBRANCH   8   9
ENDBRANCH   7   8
ENDBRANCH   4   7
BRANCH   1  21
HETATM   21  N2  UNL     1      15.198   7.563  12.429  1.00  0.00    -0.362 N 
ATOM     22  H2  UNL     1      15.922   6.868  12.245  1.00  0.00     0.162 HD
BRANCH  21  23
HETATM   23  C5  UNL     1      13.959   7.049  12.743  1.00  0.00     0.171 C 
HETATM   24  S1  UNL     1      13.778   6.757  14.455  1.00  0.00    -0.041 SA
BRANCH  23  25
HETATM   25  N1  UNL     1      12.851   6.719  12.011  1.00  0.00    -0.347 N 
ATOM     26  H1  UNL     1      12.084   6.370  12.586  1.00  0.00     0.167 HD
BRANCH  25  27
HETATM   27  C4  UNL     1      12.534   6.757  10.638  1.00  0.00     0.063 C 
BRANCH  27  28
HETATM   28  C3  UNL     1      12.281   8.168  10.109  1.00  0.00     0.044 C 
BRANCH  28  29
HETATM   29  C2  UNL     1      12.659   8.188   8.652  1.00  0.00     0.001 C 
HETATM   30  C1  UNL     1      13.712   7.148   8.385  1.00  0.00     0.005 C 
ENDBRANCH  28  29
ENDBRANCH  27  28
ENDBRANCH  25  27
ENDBRANCH  23  25
ENDBRANCH  21  23
ENDBRANCH   1  21
TORSDOF 12
ENDMDL
MODEL 5
REMARK VINA RESULT: -5.616946406      2.577      5.952
REMARK  12 active torsions:
REMARK  status: ('A' for Active; 'I' for Inactive)
REMARK    1  A    between atoms: C2_2  and  C3_3 
REMARK    2  A    between atoms: C3_3  and  C4_4 
REMARK    3  A    between atoms: C4_4  and  N1_5 
REMARK    4  A    between atoms: N1_5  and  C5_7 
REMARK    5  A    between atoms: C5_7  and  N2_9 
REMARK    6  A    between atoms: N2_9  and  C6_11 
REMARK    7  A    between atoms: N3_14  and  C9_15 
REMARK    8  A    between atoms: C9_15  and  C10_16 
REMARK    9  A    between atoms: C10_16  and  C11_17 
REMARK   10  A    between atoms: C11_17  and  N4_18 
REMARK       I    between atoms: N4_18  and  C13_20 
REMARK   11  A    between atoms: C13_20  and  C14_22 
REMARK   12  A    between atoms: C14_22  and  C17_25 
ROOT
HETATM    1  C6  UNL     1      19.131  10.724   5.804  1.00  0.00     0.087 C 
HETATM    2  C7  UNL     1      20.521  11.112   6.348  1.00  0.00     0.055 C 
HETATM    3  C8  UNL     1      21.021   9.982   7.262  1.00  0.00     0.274 C 
HETATM    4  N3  UNL     1      20.195  10.113   8.462  1.00  0.00     0.088 N 
HETATM    5  C21 UNL     1      18.799   9.933   8.118  1.00  0.00     0.274 C 
HETATM    6  C22 UNL     1      18.560   9.616   6.680  1.00  0.00     0.055 C 
ENDROOT
BRANCH   4   7
HETATM    7  C9  UNL     1      20.659   9.277   9.526  1.00  0.00     0.274 C 
BRANCH   7   8
HETATM    8  C10 UNL     1      20.031   9.719  10.817  1.00  0.00     0.050 C 
BRANCH   8   9
HETATM    9  C11 UNL     1      19.409   8.545  11.564  1.00  0.00     0.127 C 
BRANCH   9  10
HETATM   10  N4  UNL     1      18.029   8.943  11.811  1.00  0.00    -0.356 N 
HETATM   11  C12 UNL     1      17.739  10.353  11.837  1.00  0.00     0.152 C 
HETATM   12  C13 UNL     1      17.070   7.921  12.016  1.00  0.00     0.228 C 
HETATM   13  O1  UNL     1      17.492   6.707  11.974  1.00  0.00    -0.273 OA
BRANCH  12  14
HETATM   14  C14 UNL     1      15.634   8.150  12.272  1.00  0.00     0.040 C 
HETATM   15  C15 UNL     1      15.471   9.327  13.172  1.00  0.00     0.026 C 
HETATM   16  C16 UNL     1      15.055   6.894  12.902  1.00  0.00     0.026 C 
BRANCH  14  17
HETATM   17  C17 UNL     1      14.908   8.364  10.961  1.00  0.00    -0.036 C 
HETATM   18  C18 UNL     1      13.684   7.474  10.895  1.00  0.00     0.015 C 
HETATM   19  C19 UNL     1      15.767   8.024   9.768  1.00  0.00     0.015 C 
HETATM   20  C20 UNL     1      14.460   9.800  10.826  1.00  0.00     0.015 C 
ENDBRANCH  14  17
ENDBRANCH  12  14
ENDBRANCH   9  10
ENDBRANCH   8   9
ENDBRANCH   7   8
ENDBRANCH   4   7
BRANCH   1  21
HETATM   21  N2  UNL     1      18.328  11.893   5.886  1.00  0.00    -0.362 N 
ATOM     22  H2  UNL     1      18.801  12.716   6.261  1.00  0.00     0.162 HD
BRANCH  21  23
HETATM   23  C5  UNL     1      17.009  12.085   5.536  1.00  0.00     0.171 C 
HETATM   24  S1  UNL     1      16.012  12.489   6.912  1.00  0.00    -0.041 SA
BRANCH  23  25
HETATM   25  N1  UNL     1      16.318  12.025   4.357  1.00  0.00    -0.347 N 
ATOM     26  H1  UNL     1      16.431  12.863   3.787  1.00  0.00     0.167 HD
BRANCH  25  27
HETATM   27  C4  UNL     1      15.484  11.060   3.755  1.00  0.00     0.063 C 
BRANCH  27  28
HETATM   28  C3  UNL     1      16.246  10.029   2.925  1.00  0.00     0.044 C 
BRANCH  28  29
HETATM   29  C2  UNL     1      15.570   8.697   3.112  1.00  0.00     0.001 C 
HETATM   30  C1  UNL     1      15.499   8.363   4.577  1.00  0.00     0.005 C 
ENDBRANCH  28  29
ENDBRANCH  27  28
ENDBRANCH  25  27
ENDBRANCH  23  25
ENDBRANCH  21  23
ENDBRANCH   1  21
TORSDOF 12
ENDMDL
