MODEL 1
REMARK VINA RESULT: -7.414734089      0.000      0.000
REMARK  12 active torsions:
REMARK  status: ('A' for Active; 'I' for Inactive)
REMARK    1  A    between atoms: C2_2  and  C3_3 
REMARK    2  A    between atoms: C3_3  and  N1_4 
REMARK    3  A    between atoms: N1_4  and  C4_7 
REMARK    4  A    between atoms: C4_7  and  C5_8 
REMARK    5  A    between atoms: C5_8  and  C7_10 
REMARK    6  A    between atoms: C8_11  and  O1_12 
REMARK    7  A    between atoms: C14_19  and  C15_20 
REMARK    8  A    between atoms: C15_20  and  C16_21 
REMARK    9  A    between atoms: C16_21  and  C17_22 
REMARK   10  A    between atoms: C19_24  and  O2_25 
REMARK   11  A    between atoms: O2_25  and  S1_26 
REMARK   12  A    between atoms: C24_35  and  O7_36 
ROOT
HETATM    1  C7  UNL     1      21.770  38.796  19.398  1.00  0.00     0.028 C 
HETATM    2  C8  UNL     1      21.224  40.129  18.997  1.00  0.00     0.123 C 
HETATM    3  C9  UNL     1      19.776  40.150  19.578  1.00  0.00     0.037 C 
HETATM    4  C10 UNL     1      20.041  39.308  20.804  1.00  0.00    -0.003 C 
HETATM    5  C11 UNL     1      18.897  39.111  21.688  1.00  0.00     0.015 C 
HETATM    6  C12 UNL     1      19.365  39.263  23.113  1.00  0.00    -0.033 A 
HETATM    7  C13 UNL     1      19.855  40.687  23.404  1.00  0.00     0.016 C 
HETATM    8  C14 UNL     1      19.046  38.404  24.222  1.00  0.00     0.001 A 
HETATM    9  C23 UNL     1      20.278  38.149  23.419  1.00  0.00     0.028 A 
HETATM   10  C24 UNL     1      20.350  37.027  22.440  1.00  0.00     0.124 C 
HETATM   11  C25 UNL     1      21.256  37.274  21.275  1.00  0.00     0.042 C 
HETATM   12  C26 UNL     1      20.664  38.086  20.155  1.00  0.00    -0.032 C 
HETATM   13  C27 UNL     1      19.715  37.354  19.282  1.00  0.00     0.016 C 
ENDROOT
BRANCH   8  14
HETATM   14  C15 UNL     1      17.912  37.450  24.298  1.00  0.00     0.008 C 
BRANCH  14  15
HETATM   15  C16 UNL     1      17.635  36.863  25.640  1.00  0.00     0.032 C 
BRANCH  15  16
HETATM   16  C17 UNL     1      17.576  35.383  25.705  1.00  0.00     0.124 C 
HETATM   17  C18 UNL     1      17.707  34.875  24.266  1.00  0.00     0.065 C 
HETATM   18  C19 UNL     1      18.106  33.417  24.232  1.00  0.00     0.150 C 
HETATM   19  C20 UNL     1      17.583  32.771  25.495  1.00  0.00     0.065 C 
HETATM   20  C21 UNL     1      18.111  33.456  26.733  1.00  0.00     0.120 C 
HETATM   21  C22 UNL     1      19.136  32.656  27.469  1.00  0.00     0.039 C 
HETATM   22  O6  UNL     1      18.557  34.764  26.430  1.00  0.00    -0.381 OA
BRANCH  18  23
HETATM   23  O2  UNL     1      19.471  33.256  24.135  1.00  0.00    -0.251 OA
BRANCH  23  24
HETATM   24  S1  UNL     1      19.835  32.446  22.729  1.00  0.00     0.251 S 
HETATM   25  O3  UNL     1      20.580  33.266  21.745  1.00  0.00    -0.572 OA
HETATM   26  O4  UNL     1      20.662  31.243  23.097  1.00  0.00    -0.572 OA
HETATM   27  O5  UNL     1      18.392  31.948  22.017  1.00  0.00    -0.572 OA
ENDBRANCH  23  24
ENDBRANCH  18  23
ENDBRANCH  15  16
ENDBRANCH  14  15
ENDBRANCH   8  14
BRANCH  10  28
HETATM   28  O7  UNL     1      20.924  35.943  23.160  1.00  0.00    -0.395 OA
ATOM     29  H7  UNL     1      20.628  35.162  22.708  1.00  0.00     0.210 HD
ENDBRANCH  10  28
BRANCH   2  30
HETATM   30  O1  UNL     1      21.837  41.210  19.635  1.00  0.00    -0.395 OA
ATOM     31  H1  UNL     1      21.292  41.985  19.694  1.00  0.00     0.210 HD
ENDBRANCH   2  30
BRANCH   1  32
HETATM   32  C5  UNL     1      22.443  38.108  18.335  1.00  0.00     0.014 C 
HETATM   33  C6  UNL     1      23.604  37.213  18.711  1.00  0.00     0.012 C 
BRANCH  32  34
HETATM   34  C4  UNL     1      22.987  39.036  17.295  1.00  0.00     0.237 C 
BRANCH  34  35
HETATM   35  N1  UNL     1      23.022  38.618  15.946  1.00  0.00    -0.075 N 
ATOM     36  H12 UNL     1      22.544  39.250  15.304  1.00  0.00     0.277 HD
ATOM     37  H11 UNL     1      22.449  37.799  15.751  1.00  0.00     0.277 HD
BRANCH  35  38
HETATM   38  C3  UNL     1      24.462  38.431  15.645  1.00  0.00     0.231 C 
BRANCH  38  39
HETATM   39  C2  UNL     1      24.660  37.249  14.745  1.00  0.00     0.023 C 
HETATM   40  C1  UNL     1      24.521  35.941  15.471  1.00  0.00     0.007 C 
ENDBRANCH  38  39
ENDBRANCH  35  38
ENDBRANCH  34  35
ENDBRANCH  32  34
ENDBRANCH   1  32
TORSDOF 12
ENDMDL
MODEL 2
REMARK VINA RESULT: -7.199654406      0.761      1.048
REMARK  12 active torsions:
REMARK  status: ('A' for Active; 'I' for Inactive)
REMARK    1  A    between atoms: C2_2  and  C3_3 
REMARK    2  A    between atoms: C3_3  and  N1_4 
REMARK    3  A    between atoms: N1_4  and  C4_7 
REMARK    4  A    between atoms: C4_7  and  C5_8 
REMARK    5  A    between atoms: C5_8  and  C7_10 
REMARK    6  A    between atoms: C8_11  and  O1_12 
REMARK    7  A    between atoms: C14_19  and  C15_20 
REMARK    8  A    between atoms: C15_20  and  C16_21 
REMARK    9  A    between atoms: C16_21  and  C17_22 
REMARK   10  A    between atoms: C19_24  and  O2_25 
REMARK   11  A    between atoms: O2_25  and  S1_26 
REMARK   12  A    between atoms: C24_35  and  O7_36 
ROOT
HETATM    1  C7  UNL     1      21.734  38.884  19.223  1.00  0.00     0.028 C 
HETATM    2  C8  UNL     1      21.025  40.017  18.553  1.00  0.00     0.123 C 
HETATM    3  C9  UNL     1      19.604  40.026  19.196  1.00  0.00     0.037 C 
HETATM    4  C10 UNL     1      20.003  39.536  20.568  1.00  0.00    -0.003 C 
HETATM    5  C11 UNL     1      18.918  39.439  21.539  1.00  0.00     0.015 C 
HETATM    6  C12 UNL     1      19.411  39.978  22.858  1.00  0.00    -0.033 A 
HETATM    7  C13 UNL     1      19.742  41.473  22.776  1.00  0.00     0.016 C 
HETATM    8  C14 UNL     1      19.229  39.382  24.155  1.00  0.00     0.001 A 
HETATM    9  C23 UNL     1      20.456  39.071  23.364  1.00  0.00     0.028 A 
HETATM   10  C24 UNL     1      20.625  37.761  22.674  1.00  0.00     0.124 C 
HETATM   11  C25 UNL     1      21.459  37.813  21.433  1.00  0.00     0.042 C 
HETATM   12  C26 UNL     1      20.741  38.265  20.190  1.00  0.00    -0.032 C 
HETATM   13  C27 UNL     1      19.856  37.250  19.572  1.00  0.00     0.016 C 
ENDROOT
BRANCH   8  14
HETATM   14  C15 UNL     1      18.215  38.362  24.520  1.00  0.00     0.008 C 
BRANCH  14  15
HETATM   15  C16 UNL     1      18.439  37.643  25.807  1.00  0.00     0.032 C 
BRANCH  15  16
HETATM   16  C17 UNL     1      17.975  36.235  25.857  1.00  0.00     0.124 C 
HETATM   17  C18 UNL     1      18.041  35.700  24.423  1.00  0.00     0.065 C 
HETATM   18  C19 UNL     1      18.029  34.189  24.400  1.00  0.00     0.150 C 
HETATM   19  C20 UNL     1      17.283  33.719  25.628  1.00  0.00     0.065 C 
HETATM   20  C21 UNL     1      17.910  34.243  26.897  1.00  0.00     0.120 C 
HETATM   21  C22 UNL     1      18.638  33.200  27.681  1.00  0.00     0.039 C 
HETATM   22  O6  UNL     1      18.711  35.378  26.630  1.00  0.00    -0.381 OA
BRANCH  18  23
HETATM   23  O2  UNL     1      19.302  33.662  24.375  1.00  0.00    -0.251 OA
BRANCH  23  24
HETATM   24  S1  UNL     1      19.689  33.219  22.819  1.00  0.00     0.251 S 
HETATM   25  O3  UNL     1      18.509  32.915  21.976  1.00  0.00    -0.572 OA
HETATM   26  O4  UNL     1      20.460  34.353  22.201  1.00  0.00    -0.572 OA
HETATM   27  O5  UNL     1      20.658  31.842  22.887  1.00  0.00    -0.572 OA
ENDBRANCH  23  24
ENDBRANCH  18  23
ENDBRANCH  15  16
ENDBRANCH  14  15
ENDBRANCH   8  14
BRANCH  10  28
HETATM   28  O7  UNL     1      21.342  36.948  23.595  1.00  0.00    -0.395 OA
ATOM     29  H7  UNL     1      22.234  37.276  23.572  1.00  0.00     0.210 HD
ENDBRANCH  10  28
BRANCH   2  30
HETATM   30  O1  UNL     1      21.530  41.278  18.881  1.00  0.00    -0.395 OA
ATOM     31  H1  UNL     1      21.585  41.441  19.815  1.00  0.00     0.210 HD
ENDBRANCH   2  30
BRANCH   1  32
HETATM   32  C5  UNL     1      22.447  38.035  18.315  1.00  0.00     0.014 C 
HETATM   33  C6  UNL     1      23.714  37.380  18.824  1.00  0.00     0.012 C 
BRANCH  32  34
HETATM   34  C4  UNL     1      22.849  38.737  17.057  1.00  0.00     0.237 C 
BRANCH  34  35
HETATM   35  N1  UNL     1      24.215  38.792  16.701  1.00  0.00    -0.075 N 
ATOM     36  H12 UNL     1      24.833  38.309  17.353  1.00  0.00     0.277 HD
ATOM     37  H11 UNL     1      24.634  39.715  16.807  1.00  0.00     0.277 HD
BRANCH  35  38
HETATM   38  C3  UNL     1      24.268  38.262  15.317  1.00  0.00     0.231 C 
BRANCH  38  39
HETATM   39  C2  UNL     1      25.111  37.023  15.261  1.00  0.00     0.023 C 
HETATM   40  C1  UNL     1      24.325  35.776  15.550  1.00  0.00     0.007 C 
ENDBRANCH  38  39
ENDBRANCH  35  38
ENDBRANCH  34  35
ENDBRANCH  32  34
ENDBRANCH   1  32
TORSDOF 12
ENDMDL
MODEL 3
REMARK VINA RESULT: -7.158743665      1.690      2.272
REMARK  12 active torsions:
REMARK  status: ('A' for Active; 'I' for Inactive)
REMARK    1  A    between atoms: C2_2  and  C3_3 
REMARK    2  A    between atoms: C3_3  and  N1_4 
REMARK    3  A    between atoms: N1_4  and  C4_7 
REMARK    4  A    between atoms: C4_7  and  C5_8 
REMARK    5  A    between atoms: C5_8  and  C7_10 
REMARK    6  A    between atoms: C8_11  and  O1_12 
REMARK    7  A    between atoms: C14_19  and  C15_20 
REMARK    8  A    between atoms: C15_20  and  C16_21 
REMARK    9  A    between atoms: C16_21  and  C17_22 
REMARK   10  A    between atoms: C19_24  and  O2_25 
REMARK   11  A    between atoms: O2_25  and  S1_26 
REMARK   12  A    between atoms: C24_35  and  O7_36 
ROOT
HETATM    1  C7  UNL     1      21.484  38.367  19.888  1.00  0.00     0.028 C 
HETATM    2  C8  UNL     1      20.926  39.750  19.999  1.00  0.00     0.123 C 
HETATM    3  C9  UNL     1      19.515  39.554  20.635  1.00  0.00     0.037 C 
HETATM    4  C10 UNL     1      19.844  38.349  21.483  1.00  0.00    -0.003 C 
HETATM    5  C11 UNL     1      18.751  37.849  22.312  1.00  0.00     0.015 C 
HETATM    6  C12 UNL     1      19.303  37.512  23.673  1.00  0.00    -0.033 A 
HETATM    7  C13 UNL     1      19.822  38.757  24.403  1.00  0.00     0.016 C 
HETATM    8  C14 UNL     1      19.043  36.322  24.439  1.00  0.00     0.001 A 
HETATM    9  C23 UNL     1      20.223  36.371  23.528  1.00  0.00     0.028 A 
HETATM   10  C24 UNL     1      20.228  35.651  22.222  1.00  0.00     0.124 C 
HETATM   11  C25 UNL     1      21.067  36.290  21.161  1.00  0.00     0.042 C 
HETATM   12  C26 UNL     1      20.417  37.428  20.421  1.00  0.00    -0.032 C 
HETATM   13  C27 UNL     1      19.412  37.026  19.408  1.00  0.00     0.016 C 
ENDROOT
BRANCH   8  14
HETATM   14  C15 UNL     1      17.906  35.386  24.251  1.00  0.00     0.008 C 
BRANCH  14  15
HETATM   15  C16 UNL     1      17.850  34.224  25.183  1.00  0.00     0.032 C 
BRANCH  15  16
HETATM   16  C17 UNL     1      18.100  32.892  24.581  1.00  0.00     0.124 C 
HETATM   17  C18 UNL     1      17.374  32.877  23.232  1.00  0.00     0.065 C 
HETATM   18  C19 UNL     1      17.904  31.781  22.335  1.00  0.00     0.150 C 
HETATM   19  C20 UNL     1      18.421  30.673  23.225  1.00  0.00     0.065 C 
HETATM   20  C21 UNL     1      19.486  31.169  24.172  1.00  0.00     0.120 C 
HETATM   21  C22 UNL     1      20.863  30.708  23.820  1.00  0.00     0.039 C 
HETATM   22  O6  UNL     1      19.407  32.573  24.326  1.00  0.00    -0.381 OA
BRANCH  18  23
HETATM   23  O2  UNL     1      18.899  32.234  21.496  1.00  0.00    -0.251 OA
BRANCH  23  24
HETATM   24  S1  UNL     1      18.369  32.170  19.922  1.00  0.00     0.251 S 
HETATM   25  O3  UNL     1      17.216  33.060  19.645  1.00  0.00    -0.572 OA
HETATM   26  O4  UNL     1      19.521  32.563  19.037  1.00  0.00    -0.572 OA
HETATM   27  O5  UNL     1      17.906  30.586  19.585  1.00  0.00    -0.572 OA
ENDBRANCH  23  24
ENDBRANCH  18  23
ENDBRANCH  15  16
ENDBRANCH  14  15
ENDBRANCH   8  14
BRANCH  10  28
HETATM   28  O7  UNL     1      20.833  34.393  22.496  1.00  0.00    -0.395 OA
ATOM     29  H7  UNL     1      20.907  33.965  21.651  1.00  0.00     0.210 HD
ENDBRANCH  10  28
BRANCH   2  30
HETATM   30  O1  UNL     1      21.585  40.556  20.930  1.00  0.00    -0.395 OA
ATOM     31  H1  UNL     1      21.558  41.483  20.727  1.00  0.00     0.210 HD
ENDBRANCH   2  30
BRANCH   1  32
HETATM   32  C5  UNL     1      22.087  38.091  18.618  1.00  0.00     0.014 C 
HETATM   33  C6  UNL     1      23.349  37.254  18.615  1.00  0.00     0.012 C 
BRANCH  32  34
HETATM   34  C4  UNL     1      22.439  39.331  17.859  1.00  0.00     0.237 C 
BRANCH  34  35
HETATM   35  N1  UNL     1      23.721  39.447  17.279  1.00  0.00    -0.075 N 
ATOM     36  H12 UNL     1      24.423  38.839  17.701  1.00  0.00     0.277 HD
ATOM     37  H11 UNL     1      24.192  40.327  17.486  1.00  0.00     0.277 HD
BRANCH  35  38
HETATM   38  C3  UNL     1      23.507  39.204  15.832  1.00  0.00     0.231 C 
BRANCH  38  39
HETATM   39  C2  UNL     1      24.620  38.374  15.268  1.00  0.00     0.023 C 
HETATM   40  C1  UNL     1      24.234  36.933  15.091  1.00  0.00     0.007 C 
ENDBRANCH  38  39
ENDBRANCH  35  38
ENDBRANCH  34  35
ENDBRANCH  32  34
ENDBRANCH   1  32
TORSDOF 12
ENDMDL
MODEL 4
REMARK VINA RESULT: -7.115989289      1.851      2.484
REMARK  12 active torsions:
REMARK  status: ('A' for Active; 'I' for Inactive)
REMARK    1  A    between atoms: C2_2  and  C3_3 
REMARK    2  A    between atoms: C3_3  and  N1_4 
REMARK    3  A    between atoms: N1_4  and  C4_7 
REMARK    4  A    between atoms: C4_7  and  C5_8 
REMARK    5  A    between atoms: C5_8  and  C7_10 
REMARK    6  A    between atoms: C8_11  and  O1_12 
REMARK    7  A    between atoms: C14_19  and  C15_20 
REMARK    8  A    between atoms: C15_20  and  C16_21 
REMARK    9  A    between atoms: C16_21  and  C17_22 
REMARK   10  A    between atoms: C19_24  and  O2_25 
REMARK   11  A    between atoms: O2_25  and  S1_26 
REMARK   12  A    between atoms: C24_35  and  O7_36 
ROOT
HETATM    1  C7  UNL     1      21.748  38.807  19.210  1.00  0.00     0.028 C 
HETATM    2  C8  UNL     1      21.069  39.985  18.588  1.00  0.00     0.123 C 
HETATM    3  C9  UNL     1      19.602  39.915  19.114  1.00  0.00     0.037 C 
HETATM    4  C10 UNL     1      19.903  39.311  20.465  1.00  0.00    -0.003 C 
HETATM    5  C11 UNL     1      18.748  39.112  21.335  1.00  0.00     0.015 C 
HETATM    6  C12 UNL     1      19.125  39.538  22.730  1.00  0.00    -0.033 A 
HETATM    7  C13 UNL     1      19.430  41.040  22.807  1.00  0.00     0.016 C 
HETATM    8  C14 UNL     1      18.855  38.827  23.952  1.00  0.00     0.001 A 
HETATM    9  C23 UNL     1      20.147  38.605  23.237  1.00  0.00     0.028 A 
HETATM   10  C24 UNL     1      20.397  37.365  22.450  1.00  0.00     0.124 C 
HETATM   11  C25 UNL     1      21.325  37.539  21.289  1.00  0.00     0.042 C 
HETATM   12  C26 UNL     1      20.696  38.090  20.037  1.00  0.00    -0.032 C 
HETATM   13  C27 UNL     1      19.884  37.121  19.263  1.00  0.00     0.016 C 
ENDROOT
BRANCH   8  14
HETATM   14  C15 UNL     1      17.838  37.763  24.144  1.00  0.00     0.008 C 
BRANCH  14  15
HETATM   15  C16 UNL     1      17.973  36.940  25.379  1.00  0.00     0.032 C 
BRANCH  15  16
HETATM   16  C17 UNL     1      18.356  35.521  25.178  1.00  0.00     0.124 C 
HETATM   17  C18 UNL     1      17.490  34.693  26.132  1.00  0.00     0.065 C 
HETATM   18  C19 UNL     1      17.455  33.239  25.720  1.00  0.00     0.150 C 
HETATM   19  C20 UNL     1      18.751  32.937  25.001  1.00  0.00     0.065 C 
HETATM   20  C21 UNL     1      18.951  33.840  23.808  1.00  0.00     0.120 C 
HETATM   21  C22 UNL     1      18.764  33.150  22.496  1.00  0.00     0.039 C 
HETATM   22  O6  UNL     1      18.160  35.008  23.925  1.00  0.00    -0.381 OA
BRANCH  18  23
HETATM   23  O2  UNL     1      16.375  32.955  24.913  1.00  0.00    -0.251 OA
BRANCH  23  24
HETATM   24  S1  UNL     1      15.348  31.915  25.706  1.00  0.00     0.251 S 
HETATM   25  O3  UNL     1      15.428  32.010  27.183  1.00  0.00    -0.572 OA
HETATM   26  O4  UNL     1      13.945  32.234  25.265  1.00  0.00    -0.572 OA
HETATM   27  O5  UNL     1      15.741  30.340  25.257  1.00  0.00    -0.572 OA
ENDBRANCH  23  24
ENDBRANCH  18  23
ENDBRANCH  15  16
ENDBRANCH  14  15
ENDBRANCH   8  14
BRANCH  10  28
HETATM   28  O7  UNL     1      21.058  36.483  23.350  1.00  0.00    -0.395 OA
ATOM     29  H7  UNL     1      21.608  37.044  23.885  1.00  0.00     0.210 HD
ENDBRANCH  10  28
BRANCH   2  30
HETATM   30  O1  UNL     1      21.519  41.218  19.065  1.00  0.00    -0.395 OA
ATOM     31  H1  UNL     1      20.989  41.956  18.789  1.00  0.00     0.210 HD
ENDBRANCH   2  30
BRANCH   1  32
HETATM   32  C5  UNL     1      22.548  38.053  18.290  1.00  0.00     0.014 C 
HETATM   33  C6  UNL     1      23.642  37.182  18.872  1.00  0.00     0.012 C 
BRANCH  32  34
HETATM   34  C4  UNL     1      23.231  38.911  17.274  1.00  0.00     0.237 C 
BRANCH  34  35
HETATM   35  N1  UNL     1      23.240  38.508  15.921  1.00  0.00    -0.075 N 
ATOM     36  H12 UNL     1      22.839  39.193  15.281  1.00  0.00     0.277 HD
ATOM     37  H11 UNL     1      22.586  37.755  15.709  1.00  0.00     0.277 HD
BRANCH  35  38
HETATM   38  C3  UNL     1      24.657  38.174  15.634  1.00  0.00     0.231 C 
BRANCH  38  39
HETATM   39  C2  UNL     1      24.744  36.925  14.810  1.00  0.00     0.023 C 
HETATM   40  C1  UNL     1      24.280  35.707  15.558  1.00  0.00     0.007 C 
ENDBRANCH  38  39
ENDBRANCH  35  38
ENDBRANCH  34  35
ENDBRANCH  32  34
ENDBRANCH   1  32
TORSDOF 12
ENDMDL
MODEL 5
REMARK VINA RESULT: -6.959235757      4.290      7.676
REMARK  12 active torsions:
REMARK  status: ('A' for Active; 'I' for Inactive)
REMARK    1  A    between atoms: C2_2  and  C3_3 
REMARK    2  A    between atoms: C3_3  and  N1_4 
REMARK    3  A    between atoms: N1_4  and  C4_7 
REMARK    4  A    between atoms: C4_7  and  C5_8 
REMARK    5  A    between atoms: C5_8  and  C7_10 
REMARK    6  A    between atoms: C8_11  and  O1_12 
REMARK    7  A    between atoms: C14_19  and  C15_20 
REMARK    8  A    between atoms: C15_20  and  C16_21 
REMARK    9  A    between atoms: C16_21  and  C17_22 
REMARK   10  A    between atoms: C19_24  and  O2_25 
REMARK   11  A    between atoms: O2_25  and  S1_26 
REMARK   12  A    between atoms: C24_35  and  O7_36 
ROOT
HETATM    1  C7  UNL     1      19.584  42.819  22.644  1.00  0.00     0.028 C 
HETATM    2  C8  UNL     1      18.347  43.044  21.834  1.00  0.00     0.123 C 
HETATM    3  C9  UNL     1      18.339  41.878  20.799  1.00  0.00     0.037 C 
HETATM    4  C10 UNL     1      19.001  40.834  21.668  1.00  0.00    -0.003 C 
HETATM    5  C11 UNL     1      19.151  39.516  21.060  1.00  0.00     0.015 C 
HETATM    6  C12 UNL     1      18.792  38.475  22.089  1.00  0.00    -0.033 A 
HETATM    7  C13 UNL     1      17.316  38.561  22.497  1.00  0.00     0.016 C 
HETATM    8  C14 UNL     1      19.521  37.271  22.388  1.00  0.00     0.001 A 
HETATM    9  C23 UNL     1      19.802  38.517  23.160  1.00  0.00     0.028 A 
HETATM   10  C24 UNL     1      21.033  39.322  22.915  1.00  0.00     0.124 C 
HETATM   11  C25 UNL     1      20.883  40.787  23.182  1.00  0.00     0.042 C 
HETATM   12  C26 UNL     1      20.257  41.586  22.071  1.00  0.00    -0.032 C 
HETATM   13  C27 UNL     1      21.148  41.870  20.921  1.00  0.00     0.016 C 
ENDROOT
BRANCH   8  14
HETATM   14  C15 UNL     1      20.523  36.609  21.516  1.00  0.00     0.008 C 
BRANCH  14  15
HETATM   15  C16 UNL     1      20.431  36.914  20.060  1.00  0.00     0.032 C 
BRANCH  15  16
HETATM   16  C17 UNL     1      21.552  37.697  19.485  1.00  0.00     0.124 C 
HETATM   17  C18 UNL     1      22.516  36.686  18.857  1.00  0.00     0.065 C 
HETATM   18  C19 UNL     1      23.445  37.354  17.870  1.00  0.00     0.150 C 
HETATM   19  C20 UNL     1      23.620  38.791  18.306  1.00  0.00     0.065 C 
HETATM   20  C21 UNL     1      22.297  39.514  18.390  1.00  0.00     0.120 C 
HETATM   21  C22 UNL     1      22.086  40.506  17.294  1.00  0.00     0.039 C 
HETATM   22  O6  UNL     1      21.229  38.593  18.503  1.00  0.00    -0.381 OA
BRANCH  18  23
HETATM   23  O2  UNL     1      22.961  37.294  16.581  1.00  0.00    -0.251 OA
BRANCH  23  24
HETATM   24  S1  UNL     1      24.126  36.659  15.579  1.00  0.00     0.251 S 
HETATM   25  O3  UNL     1      25.397  37.420  15.587  1.00  0.00    -0.572 OA
HETATM   26  O4  UNL     1      24.391  35.247  16.026  1.00  0.00    -0.572 OA
HETATM   27  O5  UNL     1      23.523  36.654  14.006  1.00  0.00    -0.572 OA
ENDBRANCH  23  24
ENDBRANCH  18  23
ENDBRANCH  15  16
ENDBRANCH  14  15
ENDBRANCH   8  14
BRANCH  10  28
HETATM   28  O7  UNL     1      21.981  38.846  23.863  1.00  0.00    -0.395 OA
ATOM     29  H7  UNL     1      22.816  38.869  23.410  1.00  0.00     0.210 HD
ENDBRANCH  10  28
BRANCH   2  30
HETATM   30  O1  UNL     1      17.159  42.848  22.543  1.00  0.00    -0.395 OA
ATOM     31  H1  UNL     1      16.376  42.903  22.009  1.00  0.00     0.210 HD
ENDBRANCH   2  30
BRANCH   1  32
HETATM   32  C5  UNL     1      20.360  44.007  22.850  1.00  0.00     0.014 C 
HETATM   33  C6  UNL     1      20.481  44.520  24.269  1.00  0.00     0.012 C 
BRANCH  32  34
HETATM   34  C4  UNL     1      19.862  45.172  22.055  1.00  0.00     0.237 C 
BRANCH  34  35
HETATM   35  N1  UNL     1      20.792  46.032  21.431  1.00  0.00    -0.075 N 
ATOM     36  H12 UNL     1      21.568  45.547  20.981  1.00  0.00     0.277 HD
ATOM     37  H11 UNL     1      21.358  46.574  22.084  1.00  0.00     0.277 HD
BRANCH  35  38
HETATM   38  C3  UNL     1      19.982  46.860  20.505  1.00  0.00     0.231 C 
BRANCH  38  39
HETATM   39  C2  UNL     1      19.106  45.990  19.654  1.00  0.00     0.023 C 
HETATM   40  C1  UNL     1      18.432  46.754  18.550  1.00  0.00     0.007 C 
ENDBRANCH  38  39
ENDBRANCH  35  38
ENDBRANCH  34  35
ENDBRANCH  32  34
ENDBRANCH   1  32
TORSDOF 12
ENDMDL
