MODEL 1
REMARK VINA RESULT: -7.364409314      0.000      0.000
REMARK  13 active torsions:
REMARK  status: ('A' for Active; 'I' for Inactive)
REMARK    1  A    between atoms: C2_2  and  C3_3 
REMARK    2  A    between atoms: C2_2  and  C15_19 
REMARK    3  A    between atoms: C5_5  and  C7_7 
REMARK    4  A    between atoms: C9_10  and  C10_11 
REMARK    5  A    between atoms: C10_11  and  C11_12 
REMARK    6  A    between atoms: C12_13  and  C14_15 
REMARK    7  A    between atoms: C14_15  and  O2_16 
REMARK    8  A    between atoms: C18_26  and  N2_27 
REMARK       I    between atoms: N2_27  and  C19_29 
REMARK    9  A    between atoms: C19_29  and  C20_31 
REMARK   10  A    between atoms: C20_31  and  C21_32 
REMARK   11  A    between atoms: C20_31  and  C23_34 
REMARK   12  A    between atoms: C23_34  and  C25_36 
REMARK   13  A    between atoms: C29_40  and  O7_41 
ROOT
HETATM    1  C15 UNL     1      20.341  37.669  24.182  1.00  0.00     0.194 C 
HETATM    2  O4  UNL     1      20.338  38.984  23.692  1.00  0.00    -0.322 OA
HETATM    3  C16 UNL     1      20.755  39.018  22.394  1.00  0.00     0.155 A 
HETATM    4  N1  UNL     1      21.064  40.074  21.589  1.00  0.00    -0.302 N 
ATOM      5  H1  UNL     1      20.998  41.028  21.944  1.00  0.00     0.171 HD
HETATM    6  C17 UNL     1      21.451  39.850  20.347  1.00  0.00     0.274 A 
HETATM    7  O5  UNL     1      21.746  40.812  19.576  1.00  0.00    -0.266 OA
HETATM    8  C18 UNL     1      21.559  38.561  19.813  1.00  0.00     0.104 A 
HETATM    9  C27 UNL     1      21.254  37.483  20.606  1.00  0.00     0.049 A 
HETATM   10  C28 UNL     1      20.846  37.743  21.919  1.00  0.00     0.027 A 
HETATM   11  C29 UNL     1      20.434  36.808  22.999  1.00  0.00     0.189 C 
ENDROOT
BRANCH   1  12
HETATM   12  C2  UNL     1      19.022  37.576  24.961  1.00  0.00    -0.029 C 
HETATM   13  C1  UNL     1      18.302  38.545  25.112  1.00  0.00     0.019 C 
BRANCH  12  14
HETATM   14  C3  UNL     1      18.833  36.225  25.540  1.00  0.00     0.154 C 
HETATM   15  C4  UNL     1      18.788  36.209  27.013  1.00  0.00     0.056 C 
HETATM   16  C5  UNL     1      17.946  34.978  27.298  1.00  0.00     0.045 C 
HETATM   17  C6  UNL     1      18.797  34.063  28.133  1.00  0.00     0.026 C 
HETATM   18  C9  UNL     1      17.582  34.453  25.947  1.00  0.00     0.141 C 
HETATM   19  O3  UNL     1      17.763  35.510  25.046  1.00  0.00    -0.375 OA
BRANCH  16  20
HETATM   20  C7  UNL     1      16.740  35.316  28.096  1.00  0.00     0.134 C 
HETATM   21  C8  UNL     1      16.452  36.771  28.290  1.00  0.00     0.091 C 
HETATM   22  O1  UNL     1      15.982  34.510  28.594  1.00  0.00    -0.297 OA
ENDBRANCH  16  20
BRANCH  18  23
HETATM   23  C10 UNL     1      18.392  33.230  25.531  1.00  0.00     0.060 C 
BRANCH  23  24
HETATM   24  C11 UNL     1      17.943  32.821  24.184  1.00  0.00    -0.020 C 
HETATM   25  C12 UNL     1      18.636  32.593  23.116  1.00  0.00    -0.064 C 
HETATM   26  C13 UNL     1      17.787  32.177  21.895  1.00  0.00     0.045 C 
BRANCH  25  27
HETATM   27  C14 UNL     1      20.071  32.668  22.879  1.00  0.00     0.197 C 
BRANCH  27  28
HETATM   28  O2  UNL     1      20.513  33.337  21.780  1.00  0.00    -0.397 OA
ATOM     29  H2  UNL     1      20.875  34.208  21.896  1.00  0.00     0.209 HD
ENDBRANCH  27  28
ENDBRANCH  25  27
ENDBRANCH  23  24
ENDBRANCH  18  23
ENDBRANCH  12  14
ENDBRANCH   1  12
BRANCH  11  30
HETATM   30  O7  UNL     1      19.367  36.038  22.642  1.00  0.00    -0.388 OA
ATOM     31  H7  UNL     1      18.896  36.230  21.840  1.00  0.00     0.210 HD
ENDBRANCH  11  30
BRANCH   8  32
HETATM   32  N2  UNL     1      21.931  38.395  18.451  1.00  0.00    -0.322 N 
HETATM   33  C19 UNL     1      23.214  38.387  17.896  1.00  0.00     0.226 C 
HETATM   34  O6  UNL     1      24.235  38.550  18.554  1.00  0.00    -0.273 OA
ATOM     35  H2  UNL     1      21.162  38.267  17.794  1.00  0.00     0.169 HD
BRANCH  33  36
HETATM   36  C20 UNL     1      23.376  38.167  16.433  1.00  0.00     0.081 C 
BRANCH  36  37
HETATM   37  C21 UNL     1      23.619  39.428  15.668  1.00  0.00     0.010 C 
HETATM   38  C22 UNL     1      22.839  40.624  16.072  1.00  0.00     0.006 C 
ENDBRANCH  36  37
BRANCH  36  39
HETATM   39  C23 UNL     1      24.345  37.066  16.141  1.00  0.00    -0.006 C 
HETATM   40  C24 UNL     1      24.819  37.077  14.709  1.00  0.00     0.011 C 
BRANCH  39  41
HETATM   41  C25 UNL     1      23.753  35.696  16.494  1.00  0.00     0.000 C 
HETATM   42  C26 UNL     1      24.607  34.581  15.898  1.00  0.00     0.005 C 
ENDBRANCH  39  41
ENDBRANCH  36  39
ENDBRANCH  33  36
ENDBRANCH   8  32
TORSDOF 13
ENDMDL
MODEL 2
REMARK VINA RESULT: -7.250485524      3.026      8.389
REMARK  13 active torsions:
REMARK  status: ('A' for Active; 'I' for Inactive)
REMARK    1  A    between atoms: C2_2  and  C3_3 
REMARK    2  A    between atoms: C2_2  and  C15_19 
REMARK    3  A    between atoms: C5_5  and  C7_7 
REMARK    4  A    between atoms: C9_10  and  C10_11 
REMARK    5  A    between atoms: C10_11  and  C11_12 
REMARK    6  A    between atoms: C12_13  and  C14_15 
REMARK    7  A    between atoms: C14_15  and  O2_16 
REMARK    8  A    between atoms: C18_26  and  N2_27 
REMARK       I    between atoms: N2_27  and  C19_29 
REMARK    9  A    between atoms: C19_29  and  C20_31 
REMARK   10  A    between atoms: C20_31  and  C21_32 
REMARK   11  A    between atoms: C20_31  and  C23_34 
REMARK   12  A    between atoms: C23_34  and  C25_36 
REMARK   13  A    between atoms: C29_40  and  O7_41 
ROOT
HETATM    1  C15 UNL     1      21.667  38.244  23.498  1.00  0.00     0.194 C 
HETATM    2  O4  UNL     1      21.686  37.892  22.139  1.00  0.00    -0.322 OA
HETATM    3  C16 UNL     1      21.031  36.713  21.935  1.00  0.00     0.155 A 
HETATM    4  N1  UNL     1      20.951  35.925  20.826  1.00  0.00    -0.302 N 
ATOM      5  H1  UNL     1      21.432  36.193  19.968  1.00  0.00     0.171 HD
HETATM    6  C17 UNL     1      20.243  34.811  20.874  1.00  0.00     0.274 A 
HETATM    7  O5  UNL     1      20.151  34.057  19.859  1.00  0.00    -0.266 OA
HETATM    8  C18 UNL     1      19.566  34.398  22.027  1.00  0.00     0.104 A 
HETATM    9  C27 UNL     1      19.635  35.177  23.155  1.00  0.00     0.049 A 
HETATM   10  C28 UNL     1      20.388  36.353  23.082  1.00  0.00     0.027 A 
HETATM   11  C29 UNL     1      20.635  37.400  24.109  1.00  0.00     0.189 C 
ENDROOT
BRANCH   1  12
HETATM   12  C2  UNL     1      21.358  39.747  23.472  1.00  0.00    -0.029 C 
HETATM   13  C1  UNL     1      21.614  40.466  24.420  1.00  0.00     0.019 C 
BRANCH  12  14
HETATM   14  C3  UNL     1      20.656  40.131  22.224  1.00  0.00     0.154 C 
HETATM   15  C4  UNL     1      19.469  40.975  22.443  1.00  0.00     0.056 C 
HETATM   16  C5  UNL     1      19.377  41.750  21.141  1.00  0.00     0.045 C 
HETATM   17  C6  UNL     1      18.030  41.437  20.552  1.00  0.00     0.026 C 
HETATM   18  C9  UNL     1      20.547  41.277  20.342  1.00  0.00     0.141 C 
HETATM   19  O3  UNL     1      21.446  40.703  21.250  1.00  0.00    -0.375 OA
BRANCH  16  20
HETATM   20  C7  UNL     1      19.431  43.215  21.375  1.00  0.00     0.134 C 
HETATM   21  C8  UNL     1      20.196  43.674  22.576  1.00  0.00     0.091 C 
HETATM   22  O1  UNL     1      18.909  44.055  20.673  1.00  0.00    -0.297 OA
ENDBRANCH  16  20
BRANCH  18  23
HETATM   23  C10 UNL     1      20.173  40.290  19.241  1.00  0.00     0.060 C 
BRANCH  23  24
HETATM   24  C11 UNL     1      21.217  40.352  18.197  1.00  0.00    -0.020 C 
HETATM   25  C12 UNL     1      22.060  39.447  17.816  1.00  0.00    -0.064 C 
HETATM   26  C13 UNL     1      22.999  39.903  16.679  1.00  0.00     0.045 C 
BRANCH  25  27
HETATM   27  C14 UNL     1      22.267  38.084  18.285  1.00  0.00     0.197 C 
BRANCH  27  28
HETATM   28  O2  UNL     1      22.989  37.892  19.422  1.00  0.00    -0.397 OA
ATOM     29  H2  UNL     1      23.258  37.007  19.644  1.00  0.00     0.209 HD
ENDBRANCH  27  28
ENDBRANCH  25  27
ENDBRANCH  23  24
ENDBRANCH  18  23
ENDBRANCH  12  14
ENDBRANCH   1  12
BRANCH  11  30
HETATM   30  O7  UNL     1      19.482  37.970  24.560  1.00  0.00    -0.388 OA
ATOM     31  H7  UNL     1      19.139  37.724  25.411  1.00  0.00     0.210 HD
ENDBRANCH  11  30
BRANCH   8  32
HETATM   32  N2  UNL     1      18.780  33.215  21.992  1.00  0.00    -0.322 N 
HETATM   33  C19 UNL     1      19.144  31.919  22.372  1.00  0.00     0.226 C 
HETATM   34  O6  UNL     1      20.259  31.626  22.788  1.00  0.00    -0.273 OA
ATOM     35  H2  UNL     1      17.828  33.324  21.644  1.00  0.00     0.169 HD
BRANCH  33  36
HETATM   36  C20 UNL     1      18.144  30.822  22.278  1.00  0.00     0.081 C 
BRANCH  36  37
HETATM   37  C21 UNL     1      17.891  30.368  20.876  1.00  0.00     0.010 C 
HETATM   38  C22 UNL     1      16.902  31.141  20.084  1.00  0.00     0.006 C 
ENDBRANCH  36  37
BRANCH  36  39
HETATM   39  C23 UNL     1      18.436  29.719  23.245  1.00  0.00    -0.006 C 
HETATM   40  C24 UNL     1      18.775  28.420  22.556  1.00  0.00     0.011 C 
BRANCH  39  41
HETATM   41  C25 UNL     1      17.274  29.514  24.223  1.00  0.00     0.000 C 
HETATM   42  C26 UNL     1      17.188  30.685  25.198  1.00  0.00     0.005 C 
ENDBRANCH  39  41
ENDBRANCH  36  39
ENDBRANCH  33  36
ENDBRANCH   8  32
TORSDOF 13
ENDMDL
MODEL 3
REMARK VINA RESULT: -7.249534692      1.969      2.822
REMARK  13 active torsions:
REMARK  status: ('A' for Active; 'I' for Inactive)
REMARK    1  A    between atoms: C2_2  and  C3_3 
REMARK    2  A    between atoms: C2_2  and  C15_19 
REMARK    3  A    between atoms: C5_5  and  C7_7 
REMARK    4  A    between atoms: C9_10  and  C10_11 
REMARK    5  A    between atoms: C10_11  and  C11_12 
REMARK    6  A    between atoms: C12_13  and  C14_15 
REMARK    7  A    between atoms: C14_15  and  O2_16 
REMARK    8  A    between atoms: C18_26  and  N2_27 
REMARK       I    between atoms: N2_27  and  C19_29 
REMARK    9  A    between atoms: C19_29  and  C20_31 
REMARK   10  A    between atoms: C20_31  and  C21_32 
REMARK   11  A    between atoms: C20_31  and  C23_34 
REMARK   12  A    between atoms: C23_34  and  C25_36 
REMARK   13  A    between atoms: C29_40  and  O7_41 
ROOT
HETATM    1  C15 UNL     1      20.010  35.570  23.478  1.00  0.00     0.194 C 
HETATM    2  O4  UNL     1      19.636  36.895  23.204  1.00  0.00    -0.322 OA
HETATM    3  C16 UNL     1      20.110  37.290  21.989  1.00  0.00     0.155 A 
HETATM    4  N1  UNL     1      20.132  38.522  21.404  1.00  0.00    -0.302 N 
ATOM      5  H1  UNL     1      19.750  39.331  21.894  1.00  0.00     0.171 HD
HETATM    6  C17 UNL     1      20.653  38.657  20.199  1.00  0.00     0.274 A 
HETATM    7  O5  UNL     1      20.688  39.790  19.630  1.00  0.00    -0.266 OA
HETATM    8  C18 UNL     1      21.190  37.579  19.486  1.00  0.00     0.104 A 
HETATM    9  C27 UNL     1      21.179  36.331  20.056  1.00  0.00     0.049 A 
HETATM   10  C28 UNL     1      20.621  36.210  21.333  1.00  0.00     0.027 A 
HETATM   11  C29 UNL     1      20.445  35.011  22.194  1.00  0.00     0.189 C 
ENDROOT
BRANCH   1  12
HETATM   12  C2  UNL     1      18.734  34.953  24.066  1.00  0.00    -0.029 C 
HETATM   13  C1  UNL     1      17.888  35.637  24.609  1.00  0.00     0.019 C 
BRANCH  12  14
HETATM   14  C3  UNL     1      18.750  33.474  23.953  1.00  0.00     0.154 C 
HETATM   15  C4  UNL     1      18.752  32.778  25.252  1.00  0.00     0.056 C 
HETATM   16  C5  UNL     1      18.097  31.452  24.910  1.00  0.00     0.045 C 
HETATM   17  C6  UNL     1      19.090  30.381  25.263  1.00  0.00     0.026 C 
HETATM   18  C9  UNL     1      17.768  31.562  23.457  1.00  0.00     0.141 C 
HETATM   19  O3  UNL     1      17.774  32.928  23.148  1.00  0.00    -0.375 OA
BRANCH  16  20
HETATM   20  C7  UNL     1      16.881  31.219  25.730  1.00  0.00     0.134 C 
HETATM   21  C8  UNL     1      16.995  31.502  27.194  1.00  0.00     0.091 C 
HETATM   22  O1  UNL     1      15.816  30.822  25.305  1.00  0.00    -0.297 OA
ENDBRANCH  16  20
BRANCH  18  23
HETATM   23  C10 UNL     1      18.725  30.790  22.556  1.00  0.00     0.060 C 
BRANCH  23  24
HETATM   24  C11 UNL     1      17.929  30.125  21.505  1.00  0.00    -0.020 C 
HETATM   25  C12 UNL     1      17.518  30.581  20.366  1.00  0.00    -0.064 C 
HETATM   26  C13 UNL     1      16.705  29.562  19.538  1.00  0.00     0.045 C 
BRANCH  25  27
HETATM   27  C14 UNL     1      17.694  31.887  19.746  1.00  0.00     0.197 C 
BRANCH  27  28
HETATM   28  O2  UNL     1      18.924  32.219  19.269  1.00  0.00    -0.397 OA
ATOM     29  H2  UNL     1      19.012  32.421  18.345  1.00  0.00     0.209 HD
ENDBRANCH  27  28
ENDBRANCH  25  27
ENDBRANCH  23  24
ENDBRANCH  18  23
ENDBRANCH  12  14
ENDBRANCH   1  12
BRANCH  11  30
HETATM   30  O7  UNL     1      19.695  34.044  21.593  1.00  0.00    -0.388 OA
ATOM     31  H7  UNL     1      20.121  33.383  21.060  1.00  0.00     0.210 HD
ENDBRANCH  11  30
BRANCH   8  32
HETATM   32  N2  UNL     1      21.687  37.787  18.170  1.00  0.00    -0.322 N 
HETATM   33  C19 UNL     1      23.014  37.941  17.758  1.00  0.00     0.226 C 
HETATM   34  O6  UNL     1      23.966  37.935  18.529  1.00  0.00    -0.273 OA
ATOM     35  H2  UNL     1      20.984  37.830  17.432  1.00  0.00     0.169 HD
BRANCH  33  36
HETATM   36  C20 UNL     1      23.313  38.121  16.311  1.00  0.00     0.081 C 
BRANCH  36  37
HETATM   37  C21 UNL     1      23.649  39.531  15.946  1.00  0.00     0.010 C 
HETATM   38  C22 UNL     1      22.731  40.592  16.430  1.00  0.00     0.006 C 
ENDBRANCH  36  37
BRANCH  36  39
HETATM   39  C23 UNL     1      24.287  37.102  15.814  1.00  0.00    -0.006 C 
HETATM   40  C24 UNL     1      24.799  37.416  14.430  1.00  0.00     0.011 C 
BRANCH  39  41
HETATM   41  C25 UNL     1      23.683  35.693  15.849  1.00  0.00     0.000 C 
HETATM   42  C26 UNL     1      24.789  34.644  15.925  1.00  0.00     0.005 C 
ENDBRANCH  39  41
ENDBRANCH  36  39
ENDBRANCH  33  36
ENDBRANCH   8  32
TORSDOF 13
ENDMDL
MODEL 4
REMARK VINA RESULT: -7.100559961      2.809      4.736
REMARK  13 active torsions:
REMARK  status: ('A' for Active; 'I' for Inactive)
REMARK    1  A    between atoms: C2_2  and  C3_3 
REMARK    2  A    between atoms: C2_2  and  C15_19 
REMARK    3  A    between atoms: C5_5  and  C7_7 
REMARK    4  A    between atoms: C9_10  and  C10_11 
REMARK    5  A    between atoms: C10_11  and  C11_12 
REMARK    6  A    between atoms: C12_13  and  C14_15 
REMARK    7  A    between atoms: C14_15  and  O2_16 
REMARK    8  A    between atoms: C18_26  and  N2_27 
REMARK       I    between atoms: N2_27  and  C19_29 
REMARK    9  A    between atoms: C19_29  and  C20_31 
REMARK   10  A    between atoms: C20_31  and  C21_32 
REMARK   11  A    between atoms: C20_31  and  C23_34 
REMARK   12  A    between atoms: C23_34  and  C25_36 
REMARK   13  A    between atoms: C29_40  and  O7_41 
ROOT
HETATM    1  C15 UNL     1      18.711  41.818  22.422  1.00  0.00     0.194 C 
HETATM    2  O4  UNL     1      18.759  40.418  22.520  1.00  0.00    -0.322 OA
HETATM    3  C16 UNL     1      19.335  39.875  21.410  1.00  0.00     0.155 A 
HETATM    4  N1  UNL     1      19.432  38.576  21.007  1.00  0.00    -0.302 N 
ATOM      5  H1  UNL     1      19.032  37.830  21.576  1.00  0.00     0.171 HD
HETATM    6  C17 UNL     1      20.048  38.295  19.874  1.00  0.00     0.274 A 
HETATM    7  O5  UNL     1      20.153  37.097  19.473  1.00  0.00    -0.266 OA
HETATM    8  C18 UNL     1      20.612  39.282  19.057  1.00  0.00     0.104 A 
HETATM    9  C27 UNL     1      20.525  40.596  19.444  1.00  0.00     0.049 A 
HETATM   10  C28 UNL     1      19.869  40.872  20.648  1.00  0.00     0.027 A 
HETATM   11  C29 UNL     1      19.632  42.169  21.337  1.00  0.00     0.189 C 
ENDROOT
BRANCH   1  12
HETATM   12  C2  UNL     1      19.134  42.287  23.821  1.00  0.00    -0.029 C 
HETATM   13  C1  UNL     1      18.724  43.330  24.294  1.00  0.00     0.019 C 
BRANCH  12  14
HETATM   14  C3  UNL     1      20.133  41.368  24.418  1.00  0.00     0.154 C 
HETATM   15  C4  UNL     1      21.357  42.041  24.887  1.00  0.00     0.056 C 
HETATM   16  C5  UNL     1      21.834  41.113  25.990  1.00  0.00     0.045 C 
HETATM   17  C6  UNL     1      23.215  40.664  25.602  1.00  0.00     0.026 C 
HETATM   18  C9  UNL     1      20.804  40.033  26.041  1.00  0.00     0.141 C 
HETATM   19  O3  UNL     1      19.659  40.542  25.414  1.00  0.00    -0.375 OA
BRANCH  16  20
HETATM   20  C7  UNL     1      21.946  41.824  27.289  1.00  0.00     0.134 C 
HETATM   21  C8  UNL     1      22.848  41.212  28.312  1.00  0.00     0.091 C 
HETATM   22  O1  UNL     1      21.367  42.851  27.576  1.00  0.00    -0.297 OA
ENDBRANCH  16  20
BRANCH  18  23
HETATM   23  C10 UNL     1      21.255  38.730  25.389  1.00  0.00     0.060 C 
BRANCH  23  24
HETATM   24  C11 UNL     1      20.049  37.950  25.045  1.00  0.00    -0.020 C 
HETATM   25  C12 UNL     1      19.887  37.029  24.150  1.00  0.00    -0.064 C 
HETATM   26  C13 UNL     1      18.459  36.445  24.102  1.00  0.00     0.045 C 
BRANCH  25  27
HETATM   27  C14 UNL     1      20.824  36.465  23.187  1.00  0.00     0.197 C 
BRANCH  27  28
HETATM   28  O2  UNL     1      20.326  35.751  22.141  1.00  0.00    -0.397 OA
ATOM     29  H2  UNL     1      20.859  35.055  21.775  1.00  0.00     0.209 HD
ENDBRANCH  27  28
ENDBRANCH  25  27
ENDBRANCH  23  24
ENDBRANCH  18  23
ENDBRANCH  12  14
ENDBRANCH   1  12
BRANCH  11  30
HETATM   30  O7  UNL     1      20.792  42.826  21.624  1.00  0.00    -0.388 OA
ATOM     31  H7  UNL     1      21.378  42.474  22.283  1.00  0.00     0.210 HD
ENDBRANCH  11  30
BRANCH   8  32
HETATM   32  N2  UNL     1      21.306  38.902  17.877  1.00  0.00    -0.322 N 
HETATM   33  C19 UNL     1      22.659  38.579  17.731  1.00  0.00     0.226 C 
HETATM   34  O6  UNL     1      23.462  38.604  18.656  1.00  0.00    -0.273 OA
ATOM     35  H2  UNL     1      20.745  38.862  17.026  1.00  0.00     0.169 HD
BRANCH  33  36
HETATM   36  C20 UNL     1      23.174  38.178  16.394  1.00  0.00     0.081 C 
BRANCH  36  37
HETATM   37  C21 UNL     1      23.536  39.339  15.525  1.00  0.00     0.010 C 
HETATM   38  C22 UNL     1      22.998  40.667  15.913  1.00  0.00     0.006 C 
ENDBRANCH  36  37
BRANCH  36  39
HETATM   39  C23 UNL     1      24.231  37.126  16.498  1.00  0.00    -0.006 C 
HETATM   40  C24 UNL     1      25.163  37.121  15.311  1.00  0.00     0.011 C 
BRANCH  39  41
HETATM   41  C25 UNL     1      23.615  35.736  16.695  1.00  0.00     0.000 C 
HETATM   42  C26 UNL     1      24.410  34.689  15.921  1.00  0.00     0.005 C 
ENDBRANCH  39  41
ENDBRANCH  36  39
ENDBRANCH  33  36
ENDBRANCH   8  32
TORSDOF 13
ENDMDL
MODEL 5
REMARK VINA RESULT: -7.015371564      2.393      4.739
REMARK  13 active torsions:
REMARK  status: ('A' for Active; 'I' for Inactive)
REMARK    1  A    between atoms: C2_2  and  C3_3 
REMARK    2  A    between atoms: C2_2  and  C15_19 
REMARK    3  A    between atoms: C5_5  and  C7_7 
REMARK    4  A    between atoms: C9_10  and  C10_11 
REMARK    5  A    between atoms: C10_11  and  C11_12 
REMARK    6  A    between atoms: C12_13  and  C14_15 
REMARK    7  A    between atoms: C14_15  and  O2_16 
REMARK    8  A    between atoms: C18_26  and  N2_27 
REMARK       I    between atoms: N2_27  and  C19_29 
REMARK    9  A    between atoms: C19_29  and  C20_31 
REMARK   10  A    between atoms: C20_31  and  C21_32 
REMARK   11  A    between atoms: C20_31  and  C23_34 
REMARK   12  A    between atoms: C23_34  and  C25_36 
REMARK   13  A    between atoms: C29_40  and  O7_41 
ROOT
HETATM    1  C15 UNL     1      20.549  37.873  24.302  1.00  0.00     0.194 C 
HETATM    2  O4  UNL     1      20.532  39.170  23.765  1.00  0.00    -0.322 OA
HETATM    3  C16 UNL     1      20.910  39.155  22.455  1.00  0.00     0.155 A 
HETATM    4  N1  UNL     1      21.196  40.182  21.604  1.00  0.00    -0.302 N 
ATOM      5  H1  UNL     1      21.140  41.148  21.926  1.00  0.00     0.171 HD
HETATM    6  C17 UNL     1      21.545  39.912  20.360  1.00  0.00     0.274 A 
HETATM    7  O5  UNL     1      21.817  40.845  19.546  1.00  0.00    -0.266 OA
HETATM    8  C18 UNL     1      21.638  38.604  19.870  1.00  0.00     0.104 A 
HETATM    9  C27 UNL     1      21.356  37.557  20.710  1.00  0.00     0.049 A 
HETATM   10  C28 UNL     1      20.986  37.865  22.024  1.00  0.00     0.027 A 
HETATM   11  C29 UNL     1      20.607  36.969  23.149  1.00  0.00     0.189 C 
ENDROOT
BRANCH   1  12
HETATM   12  C2  UNL     1      19.254  37.810  25.123  1.00  0.00    -0.029 C 
HETATM   13  C1  UNL     1      19.074  36.952  25.966  1.00  0.00     0.019 C 
BRANCH  12  14
HETATM   14  C3  UNL     1      18.286  38.842  24.679  1.00  0.00     0.154 C 
HETATM   15  C4  UNL     1      17.027  38.289  24.149  1.00  0.00     0.056 C 
HETATM   16  C5  UNL     1      16.039  39.408  24.426  1.00  0.00     0.045 C 
HETATM   17  C6  UNL     1      15.465  39.810  23.096  1.00  0.00     0.026 C 
HETATM   18  C9  UNL     1      16.848  40.459  25.114  1.00  0.00     0.141 C 
HETATM   19  O3  UNL     1      17.996  39.822  25.604  1.00  0.00    -0.375 OA
BRANCH  16  20
HETATM   20  C7  UNL     1      14.913  38.942  25.274  1.00  0.00     0.134 C 
HETATM   21  C8  UNL     1      14.141  37.762  24.774  1.00  0.00     0.091 C 
HETATM   22  O1  UNL     1      14.579  39.441  26.328  1.00  0.00    -0.297 OA
ENDBRANCH  16  20
BRANCH  18  23
HETATM   23  C10 UNL     1      17.213  41.633  24.213  1.00  0.00     0.060 C 
BRANCH  23  24
HETATM   24  C11 UNL     1      18.621  41.992  24.477  1.00  0.00    -0.020 C 
HETATM   25  C12 UNL     1      19.465  42.632  23.733  1.00  0.00    -0.064 C 
HETATM   26  C13 UNL     1      20.857  42.812  24.376  1.00  0.00     0.045 C 
BRANCH  25  27
HETATM   27  C14 UNL     1      19.317  43.199  22.400  1.00  0.00     0.197 C 
BRANCH  27  28
HETATM   28  O2  UNL     1      20.291  42.957  21.481  1.00  0.00    -0.397 OA
ATOM     29  H2  UNL     1      21.061  42.473  21.754  1.00  0.00     0.209 HD
ENDBRANCH  27  28
ENDBRANCH  25  27
ENDBRANCH  23  24
ENDBRANCH  18  23
ENDBRANCH  12  14
ENDBRANCH   1  12
BRANCH  11  30
HETATM   30  O7  UNL     1      19.530  36.188  22.853  1.00  0.00    -0.388 OA
ATOM     31  H7  UNL     1      19.665  35.302  22.539  1.00  0.00     0.210 HD
ENDBRANCH  11  30
BRANCH   8  32
HETATM   32  N2  UNL     1      21.969  38.389  18.505  1.00  0.00    -0.322 N 
HETATM   33  C19 UNL     1      23.234  38.381  17.909  1.00  0.00     0.226 C 
HETATM   34  O6  UNL     1      24.272  38.592  18.525  1.00  0.00    -0.273 OA
ATOM     35  H2  UNL     1      21.182  38.219  17.879  1.00  0.00     0.169 HD
BRANCH  33  36
HETATM   36  C20 UNL     1      23.353  38.104  16.452  1.00  0.00     0.081 C 
BRANCH  36  37
HETATM   37  C21 UNL     1      23.586  39.331  15.631  1.00  0.00     0.010 C 
HETATM   38  C22 UNL     1      22.858  40.561  16.032  1.00  0.00     0.006 C 
ENDBRANCH  36  37
BRANCH  36  39
HETATM   39  C23 UNL     1      24.303  36.982  16.176  1.00  0.00    -0.006 C 
HETATM   40  C24 UNL     1      24.923  37.073  14.804  1.00  0.00     0.011 C 
BRANCH  39  41
HETATM   41  C25 UNL     1      23.624  35.620  16.363  1.00  0.00     0.000 C 
HETATM   42  C26 UNL     1      24.579  34.494  15.977  1.00  0.00     0.005 C 
ENDBRANCH  39  41
ENDBRANCH  36  39
ENDBRANCH  33  36
ENDBRANCH   8  32
TORSDOF 13
ENDMDL
