MODEL 1
REMARK VINA RESULT: -8.037484790      0.000      0.000
REMARK  17 active torsions:
REMARK  status: ('A' for Active; 'I' for Inactive)
REMARK    1  A    between atoms: C2_2  and  O1_3 
REMARK    2  A    between atoms: O1_3  and  C3_4 
REMARK    3  A    between atoms: C3_4  and  O2_5 
REMARK    4  A    between atoms: C3_4  and  C4_7 
REMARK    5  A    between atoms: C4_7  and  C5_8 
REMARK    6  A    between atoms: C5_8  and  C6_9 
REMARK    7  A    between atoms: C6_9  and  C8_11 
REMARK    8  A    between atoms: C8_11  and  C9_12 
REMARK    9  A    between atoms: C9_12  and  O3_13 
REMARK   10  A    between atoms: C9_12  and  C10_15 
REMARK   11  A    between atoms: C13_18  and  C14_19 
REMARK   12  A    between atoms: C19_24  and  C20_25 
REMARK   13  A    between atoms: C20_25  and  C21_26 
REMARK   14  A    between atoms: C21_26  and  O4_27 
REMARK   15  A    between atoms: C24_31  and  O5_32 
REMARK   16  A    between atoms: O5_32  and  C25_33 
REMARK   17  A    between atoms: C26_36  and  O7_38 
ROOT
HETATM    1  C14 UNL     1      19.853  40.095  20.255  1.00  0.00     0.065 C 
HETATM    2  C15 UNL     1      18.848  41.189  20.011  1.00  0.00     0.046 C 
HETATM    3  C16 UNL     1      19.282  38.700  20.292  1.00  0.00     0.076 C 
HETATM    4  C17 UNL     1      19.084  39.034  21.684  1.00  0.00     0.069 A 
HETATM    5  C18 UNL     1      17.837  39.145  22.437  1.00  0.00     0.046 A 
HETATM    6  C19 UNL     1      18.877  38.180  22.846  1.00  0.00     0.026 A 
HETATM    7  O8  UNL     1      20.042  40.040  21.669  1.00  0.00    -0.369 OA
ENDROOT
BRANCH   1   8
HETATM    8  C13 UNL     1      21.198  40.221  19.636  1.00  0.00     0.020 C 
HETATM    9  C12 UNL     1      21.108  40.464  18.132  1.00  0.00     0.008 C 
HETATM   10  C11 UNL     1      21.824  39.335  17.473  1.00  0.00     0.007 C 
HETATM   11  C10 UNL     1      22.024  38.291  18.546  1.00  0.00     0.015 C 
HETATM   12  C29 UNL     1      22.129  39.061  19.801  1.00  0.00     0.014 C 
BRANCH  11  13
HETATM   13  C9  UNL     1      23.354  37.582  18.184  1.00  0.00     0.122 C 
BRANCH  13  14
HETATM   14  C8  UNL     1      23.038  36.515  17.207  1.00  0.00     0.040 C 
BRANCH  14  15
HETATM   15  C6  UNL     1      24.213  35.841  16.523  1.00  0.00     0.006 C 
HETATM   16  C7  UNL     1      24.093  34.392  16.333  1.00  0.00     0.014 C 
BRANCH  15  17
HETATM   17  C5  UNL     1      24.613  36.693  15.408  1.00  0.00    -0.018 C 
BRANCH  17  18
HETATM   18  C4  UNL     1      24.303  36.935  14.207  1.00  0.00     0.060 C 
BRANCH  18  19
HETATM   19  C3  UNL     1      23.337  36.412  13.308  1.00  0.00     0.177 C 
BRANCH  19  20
HETATM   20  O1  UNL     1      22.274  35.603  13.569  1.00  0.00    -0.331 OA
BRANCH  20  21
HETATM   21  C2  UNL     1      21.434  35.025  12.593  1.00  0.00     0.173 C 
HETATM   22  C1  UNL     1      21.688  33.583  12.327  1.00  0.00     0.034 C 
ENDBRANCH  20  21
ENDBRANCH  19  20
BRANCH  19  23
HETATM   23  O2  UNL     1      23.433  36.720  12.040  1.00  0.00    -0.341 OA
ATOM     24  H2  UNL     1      24.142  36.258  11.606  1.00  0.00     0.220 HD
ENDBRANCH  19  23
ENDBRANCH  18  19
ENDBRANCH  17  18
ENDBRANCH  15  17
ENDBRANCH  14  15
ENDBRANCH  13  14
BRANCH  13  25
HETATM   25  O3  UNL     1      23.844  37.013  19.363  1.00  0.00    -0.395 OA
ATOM     26  H3  UNL     1      23.577  37.539  20.109  1.00  0.00     0.210 HD
ENDBRANCH  13  25
ENDBRANCH  11  13
ENDBRANCH   1   8
BRANCH   6  27
HETATM   27  C20 UNL     1      18.709  36.740  22.938  1.00  0.00     0.050 C 
BRANCH  27  28
HETATM   28  C21 UNL     1      19.843  35.790  22.754  1.00  0.00     0.079 C 
HETATM   29  C22 UNL     1      19.439  34.580  23.488  1.00  0.00     0.009 C 
HETATM   30  C23 UNL     1      18.943  33.507  22.931  1.00  0.00     0.007 C 
HETATM   31  C24 UNL     1      18.774  33.502  21.432  1.00  0.00     0.190 C 
HETATM   32  C26 UNL     1      20.097  34.035  20.923  1.00  0.00     0.087 C 
HETATM   33  C27 UNL     1      20.202  33.955  19.429  1.00  0.00     0.049 C 
HETATM   34  C28 UNL     1      20.181  35.472  21.356  1.00  0.00     0.082 C 
BRANCH  28  35
HETATM   35  O4  UNL     1      21.007  36.224  23.449  1.00  0.00    -0.386 OA
ATOM     36  H4  UNL     1      21.799  36.003  22.974  1.00  0.00     0.211 HD
ENDBRANCH  28  35
BRANCH  31  37
HETATM   37  O5  UNL     1      18.560  32.180  20.971  1.00  0.00    -0.294 OA
BRANCH  37  38
HETATM   38  C25 UNL     1      17.444  31.752  20.291  1.00  0.00     0.373 C 
HETATM   39  N1  UNL     1      16.135  32.212  20.560  1.00  0.00    -0.032 NA
HETATM   40  O6  UNL     1      17.581  30.892  19.363  1.00  0.00    -0.242 OA
ENDBRANCH  37  38
ENDBRANCH  31  37
BRANCH  32  41
HETATM   41  O7  UNL     1      21.157  33.278  21.462  1.00  0.00    -0.387 OA
ATOM     42  H7  UNL     1      21.266  32.477  20.963  1.00  0.00     0.210 HD
ENDBRANCH  32  41
ENDBRANCH  27  28
ENDBRANCH   6  27
TORSDOF 17
ENDMDL
MODEL 2
REMARK VINA RESULT: -7.908416820      2.905      7.159
REMARK  17 active torsions:
REMARK  status: ('A' for Active; 'I' for Inactive)
REMARK    1  A    between atoms: C2_2  and  O1_3 
REMARK    2  A    between atoms: O1_3  and  C3_4 
REMARK    3  A    between atoms: C3_4  and  O2_5 
REMARK    4  A    between atoms: C3_4  and  C4_7 
REMARK    5  A    between atoms: C4_7  and  C5_8 
REMARK    6  A    between atoms: C5_8  and  C6_9 
REMARK    7  A    between atoms: C6_9  and  C8_11 
REMARK    8  A    between atoms: C8_11  and  C9_12 
REMARK    9  A    between atoms: C9_12  and  O3_13 
REMARK   10  A    between atoms: C9_12  and  C10_15 
REMARK   11  A    between atoms: C13_18  and  C14_19 
REMARK   12  A    between atoms: C19_24  and  C20_25 
REMARK   13  A    between atoms: C20_25  and  C21_26 
REMARK   14  A    between atoms: C21_26  and  O4_27 
REMARK   15  A    between atoms: C24_31  and  O5_32 
REMARK   16  A    between atoms: O5_32  and  C25_33 
REMARK   17  A    between atoms: C26_36  and  O7_38 
ROOT
HETATM    1  C14 UNL     1      18.943  39.615  23.727  1.00  0.00     0.065 C 
HETATM    2  C15 UNL     1      19.195  40.427  24.970  1.00  0.00     0.046 C 
HETATM    3  C16 UNL     1      20.143  39.426  22.834  1.00  0.00     0.076 C 
HETATM    4  C17 UNL     1      19.682  40.683  22.288  1.00  0.00     0.069 A 
HETATM    5  C18 UNL     1      20.355  41.979  22.263  1.00  0.00     0.046 A 
HETATM    6  C19 UNL     1      19.955  41.317  21.004  1.00  0.00     0.026 A 
HETATM    7  O8  UNL     1      18.390  40.519  22.771  1.00  0.00    -0.369 OA
ENDROOT
BRANCH   1   8
HETATM    8  C13 UNL     1      18.022  38.453  23.818  1.00  0.00     0.020 C 
HETATM    9  C12 UNL     1      17.513  38.245  25.242  1.00  0.00     0.008 C 
HETATM   10  C11 UNL     1      17.945  36.878  25.655  1.00  0.00     0.007 C 
HETATM   11  C10 UNL     1      18.966  36.442  24.631  1.00  0.00     0.015 C 
HETATM   12  C29 UNL     1      18.564  37.127  23.387  1.00  0.00     0.014 C 
BRANCH  11  13
HETATM   13  C9  UNL     1      18.809  34.903  24.528  1.00  0.00     0.122 C 
BRANCH  13  14
HETATM   14  C8  UNL     1      18.879  34.544  23.093  1.00  0.00     0.040 C 
BRANCH  14  15
HETATM   15  C6  UNL     1      20.212  34.032  22.578  1.00  0.00     0.006 C 
HETATM   16  C7  UNL     1      20.486  32.613  22.824  1.00  0.00     0.014 C 
BRANCH  15  17
HETATM   17  C5  UNL     1      20.408  34.593  21.246  1.00  0.00    -0.018 C 
BRANCH  17  18
HETATM   18  C4  UNL     1      19.958  34.490  20.069  1.00  0.00     0.060 C 
BRANCH  18  19
HETATM   19  C3  UNL     1      19.626  33.396  19.228  1.00  0.00     0.177 C 
BRANCH  19  20
HETATM   20  O1  UNL     1      18.428  32.771  19.069  1.00  0.00    -0.331 OA
BRANCH  20  21
HETATM   21  C2  UNL     1      17.566  32.386  20.118  1.00  0.00     0.173 C 
HETATM   22  C1  UNL     1      17.910  31.090  20.764  1.00  0.00     0.034 C 
ENDBRANCH  20  21
ENDBRANCH  19  20
BRANCH  19  23
HETATM   23  O2  UNL     1      20.565  32.877  18.478  1.00  0.00    -0.341 OA
ATOM     24  H2  UNL     1      20.849  33.469  17.791  1.00  0.00     0.220 HD
ENDBRANCH  19  23
ENDBRANCH  18  19
ENDBRANCH  17  18
ENDBRANCH  15  17
ENDBRANCH  14  15
ENDBRANCH  13  14
BRANCH  13  25
HETATM   25  O3  UNL     1      17.542  34.591  25.031  1.00  0.00    -0.395 OA
ATOM     26  H3  UNL     1      17.194  35.336  25.508  1.00  0.00     0.210 HD
ENDBRANCH  13  25
ENDBRANCH  11  13
ENDBRANCH   1   8
BRANCH   6  27
HETATM   27  C20 UNL     1      20.850  40.923  19.931  1.00  0.00     0.050 C 
BRANCH  27  28
HETATM   28  C21 UNL     1      20.787  39.578  19.292  1.00  0.00     0.079 C 
HETATM   29  C22 UNL     1      20.955  39.840  17.853  1.00  0.00     0.009 C 
HETATM   30  C23 UNL     1      22.075  39.683  17.198  1.00  0.00     0.007 C 
HETATM   31  C24 UNL     1      23.280  39.198  17.963  1.00  0.00     0.190 C 
HETATM   32  C26 UNL     1      22.744  38.032  18.768  1.00  0.00     0.087 C 
HETATM   33  C27 UNL     1      23.834  37.291  19.485  1.00  0.00     0.049 C 
HETATM   34  C28 UNL     1      21.781  38.604  19.771  1.00  0.00     0.082 C 
BRANCH  28  35
HETATM   35  O4  UNL     1      19.480  39.020  19.374  1.00  0.00    -0.386 OA
ATOM     36  H4  UNL     1      19.276  38.738  20.257  1.00  0.00     0.211 HD
ENDBRANCH  28  35
BRANCH  31  37
HETATM   37  O5  UNL     1      24.284  38.761  17.065  1.00  0.00    -0.294 OA
BRANCH  37  38
HETATM   38  C25 UNL     1      24.055  38.289  15.794  1.00  0.00     0.373 C 
HETATM   39  N1  UNL     1      23.666  36.961  15.506  1.00  0.00    -0.032 NA
HETATM   40  O6  UNL     1      24.196  39.081  14.808  1.00  0.00    -0.242 OA
ENDBRANCH  37  38
ENDBRANCH  31  37
BRANCH  32  41
HETATM   41  O7  UNL     1      22.103  37.114  17.912  1.00  0.00    -0.387 OA
ATOM     42  H7  UNL     1      21.938  37.521  17.069  1.00  0.00     0.210 HD
ENDBRANCH  32  41
ENDBRANCH  27  28
ENDBRANCH   6  27
TORSDOF 17
ENDMDL
MODEL 3
REMARK VINA RESULT: -7.886230516      3.448      6.334
REMARK  17 active torsions:
REMARK  status: ('A' for Active; 'I' for Inactive)
REMARK    1  A    between atoms: C2_2  and  O1_3 
REMARK    2  A    between atoms: O1_3  and  C3_4 
REMARK    3  A    between atoms: C3_4  and  O2_5 
REMARK    4  A    between atoms: C3_4  and  C4_7 
REMARK    5  A    between atoms: C4_7  and  C5_8 
REMARK    6  A    between atoms: C5_8  and  C6_9 
REMARK    7  A    between atoms: C6_9  and  C8_11 
REMARK    8  A    between atoms: C8_11  and  C9_12 
REMARK    9  A    between atoms: C9_12  and  O3_13 
REMARK   10  A    between atoms: C9_12  and  C10_15 
REMARK   11  A    between atoms: C13_18  and  C14_19 
REMARK   12  A    between atoms: C19_24  and  C20_25 
REMARK   13  A    between atoms: C20_25  and  C21_26 
REMARK   14  A    between atoms: C21_26  and  O4_27 
REMARK   15  A    between atoms: C24_31  and  O5_32 
REMARK   16  A    between atoms: O5_32  and  C25_33 
REMARK   17  A    between atoms: C26_36  and  O7_38 
ROOT
HETATM    1  C14 UNL     1      20.045  36.969  22.540  1.00  0.00     0.065 C 
HETATM    2  C15 UNL     1      19.607  35.629  23.071  1.00  0.00     0.046 C 
HETATM    3  C16 UNL     1      21.246  37.566  23.229  1.00  0.00     0.076 C 
HETATM    4  C17 UNL     1      20.229  38.082  24.116  1.00  0.00     0.069 A 
HETATM    5  C18 UNL     1      20.029  37.823  25.539  1.00  0.00     0.046 A 
HETATM    6  C19 UNL     1      20.264  39.197  25.054  1.00  0.00     0.026 A 
HETATM    7  O8  UNL     1      19.214  37.938  23.179  1.00  0.00    -0.369 OA
ENDROOT
BRANCH   1   8
HETATM    8  C13 UNL     1      19.959  37.211  21.077  1.00  0.00     0.020 C 
HETATM    9  C12 UNL     1      21.025  36.432  20.311  1.00  0.00     0.008 C 
HETATM   10  C11 UNL     1      21.854  37.439  19.589  1.00  0.00     0.007 C 
HETATM   11  C10 UNL     1      21.495  38.777  20.192  1.00  0.00     0.015 C 
HETATM   12  C29 UNL     1      20.090  38.629  20.618  1.00  0.00     0.014 C 
BRANCH  11  13
HETATM   13  C9  UNL     1      21.650  39.800  19.037  1.00  0.00     0.122 C 
BRANCH  13  14
HETATM   14  C8  UNL     1      22.997  39.608  18.451  1.00  0.00     0.040 C 
BRANCH  14  15
HETATM   15  C6  UNL     1      23.064  39.358  16.955  1.00  0.00     0.006 C 
HETATM   16  C7  UNL     1      22.873  40.536  16.104  1.00  0.00     0.014 C 
BRANCH  15  17
HETATM   17  C5  UNL     1      24.188  38.460  16.716  1.00  0.00    -0.018 C 
BRANCH  17  18
HETATM   18  C4  UNL     1      24.815  37.915  15.763  1.00  0.00     0.060 C 
BRANCH  18  19
HETATM   19  C3  UNL     1      24.441  37.067  14.687  1.00  0.00     0.177 C 
BRANCH  19  20
HETATM   20  O1  UNL     1      23.335  36.284  14.559  1.00  0.00    -0.331 OA
BRANCH  20  21
HETATM   21  C2  UNL     1      23.266  34.913  14.888  1.00  0.00     0.173 C 
HETATM   22  C1  UNL     1      23.955  34.540  16.153  1.00  0.00     0.034 C 
ENDBRANCH  20  21
ENDBRANCH  19  20
BRANCH  19  23
HETATM   23  O2  UNL     1      25.232  36.990  13.648  1.00  0.00    -0.341 OA
ATOM     24  H2  UNL     1      25.727  36.179  13.627  1.00  0.00     0.220 HD
ENDBRANCH  19  23
ENDBRANCH  18  19
ENDBRANCH  17  18
ENDBRANCH  15  17
ENDBRANCH  14  15
ENDBRANCH  13  14
BRANCH  13  25
HETATM   25  O3  UNL     1      21.561  41.072  19.610  1.00  0.00    -0.395 OA
ATOM     26  H3  UNL     1      21.409  41.720  18.930  1.00  0.00     0.210 HD
ENDBRANCH  13  25
ENDBRANCH  11  13
ENDBRANCH   1   8
BRANCH   6  27
HETATM   27  C20 UNL     1      21.362  40.061  25.450  1.00  0.00     0.050 C 
BRANCH  27  28
HETATM   28  C21 UNL     1      21.471  41.476  24.992  1.00  0.00     0.079 C 
HETATM   29  C22 UNL     1      21.483  41.393  23.523  1.00  0.00     0.009 C 
HETATM   30  C23 UNL     1      20.446  41.622  22.760  1.00  0.00     0.007 C 
HETATM   31  C24 UNL     1      19.148  42.000  23.427  1.00  0.00     0.190 C 
HETATM   32  C26 UNL     1      19.558  43.061  24.427  1.00  0.00     0.087 C 
HETATM   33  C27 UNL     1      18.374  43.699  25.092  1.00  0.00     0.049 C 
HETATM   34  C28 UNL     1      20.406  42.376  25.462  1.00  0.00     0.082 C 
BRANCH  28  35
HETATM   35  O4  UNL     1      22.747  42.028  25.300  1.00  0.00    -0.386 OA
ATOM     36  H4  UNL     1      22.704  42.604  26.055  1.00  0.00     0.211 HD
ENDBRANCH  28  35
BRANCH  31  37
HETATM   37  O5  UNL     1      18.249  42.538  22.473  1.00  0.00    -0.294 OA
BRANCH  37  38
HETATM   38  C25 UNL     1      18.573  42.855  21.175  1.00  0.00     0.373 C 
HETATM   39  N1  UNL     1      18.962  44.146  20.754  1.00  0.00    -0.032 NA
HETATM   40  O6  UNL     1      18.524  41.942  20.289  1.00  0.00    -0.242 OA
ENDBRANCH  37  38
ENDBRANCH  31  37
BRANCH  32  41
HETATM   41  O7  UNL     1      20.276  44.082  23.774  1.00  0.00    -0.387 OA
ATOM     42  H7  UNL     1      19.873  44.274  22.935  1.00  0.00     0.210 HD
ENDBRANCH  32  41
ENDBRANCH  27  28
ENDBRANCH   6  27
TORSDOF 17
ENDMDL
MODEL 4
REMARK VINA RESULT: -7.785359148      2.371      4.084
REMARK  17 active torsions:
REMARK  status: ('A' for Active; 'I' for Inactive)
REMARK    1  A    between atoms: C2_2  and  O1_3 
REMARK    2  A    between atoms: O1_3  and  C3_4 
REMARK    3  A    between atoms: C3_4  and  O2_5 
REMARK    4  A    between atoms: C3_4  and  C4_7 
REMARK    5  A    between atoms: C4_7  and  C5_8 
REMARK    6  A    between atoms: C5_8  and  C6_9 
REMARK    7  A    between atoms: C6_9  and  C8_11 
REMARK    8  A    between atoms: C8_11  and  C9_12 
REMARK    9  A    between atoms: C9_12  and  O3_13 
REMARK   10  A    between atoms: C9_12  and  C10_15 
REMARK   11  A    between atoms: C13_18  and  C14_19 
REMARK   12  A    between atoms: C19_24  and  C20_25 
REMARK   13  A    between atoms: C20_25  and  C21_26 
REMARK   14  A    between atoms: C21_26  and  O4_27 
REMARK   15  A    between atoms: C24_31  and  O5_32 
REMARK   16  A    between atoms: O5_32  and  C25_33 
REMARK   17  A    between atoms: C26_36  and  O7_38 
ROOT
HETATM    1  C14 UNL     1      18.958  37.219  24.522  1.00  0.00     0.065 C 
HETATM    2  C15 UNL     1      18.117  38.437  24.805  1.00  0.00     0.046 C 
HETATM    3  C16 UNL     1      18.218  36.064  23.897  1.00  0.00     0.076 C 
HETATM    4  C17 UNL     1      17.953  35.745  25.281  1.00  0.00     0.069 A 
HETATM    5  C18 UNL     1      16.674  35.678  25.984  1.00  0.00     0.046 A 
HETATM    6  C19 UNL     1      17.551  34.492  25.907  1.00  0.00     0.026 A 
HETATM    7  O8  UNL     1      19.026  36.493  25.750  1.00  0.00    -0.369 OA
ENDROOT
BRANCH   1   8
HETATM    8  C13 UNL     1      20.352  37.418  24.051  1.00  0.00     0.020 C 
HETATM    9  C12 UNL     1      20.596  38.855  23.596  1.00  0.00     0.008 C 
HETATM   10  C11 UNL     1      21.002  38.787  22.164  1.00  0.00     0.007 C 
HETATM   11  C10 UNL     1      20.670  37.386  21.707  1.00  0.00     0.015 C 
HETATM   12  C29 UNL     1      20.812  36.555  22.918  1.00  0.00     0.014 C 
BRANCH  11  13
HETATM   13  C9  UNL     1      21.736  37.042  20.635  1.00  0.00     0.122 C 
BRANCH  13  14
HETATM   14  C8  UNL     1      22.109  38.305  19.957  1.00  0.00     0.040 C 
BRANCH  14  15
HETATM   15  C6  UNL     1      22.099  38.297  18.439  1.00  0.00     0.006 C 
HETATM   16  C7  UNL     1      21.074  39.132  17.805  1.00  0.00     0.014 C 
BRANCH  15  17
HETATM   17  C5  UNL     1      23.486  38.383  17.997  1.00  0.00    -0.018 C 
BRANCH  17  18
HETATM   18  C4  UNL     1      24.164  38.625  16.957  1.00  0.00     0.060 C 
BRANCH  18  19
HETATM   19  C3  UNL     1      24.279  38.010  15.684  1.00  0.00     0.177 C 
BRANCH  19  20
HETATM   20  O1  UNL     1      23.449  37.110  15.090  1.00  0.00    -0.331 OA
BRANCH  20  21
HETATM   21  C2  UNL     1      23.714  35.731  14.945  1.00  0.00     0.173 C 
HETATM   22  C1  UNL     1      24.064  35.027  16.208  1.00  0.00     0.034 C 
ENDBRANCH  20  21
ENDBRANCH  19  20
BRANCH  19  23
HETATM   23  O2  UNL     1      25.306  38.314  14.933  1.00  0.00    -0.341 OA
ATOM     24  H2  UNL     1      26.131  38.041  15.318  1.00  0.00     0.220 HD
ENDBRANCH  19  23
ENDBRANCH  18  19
ENDBRANCH  17  18
ENDBRANCH  15  17
ENDBRANCH  14  15
ENDBRANCH  13  14
BRANCH  13  25
HETATM   25  O3  UNL     1      21.126  36.178  19.721  1.00  0.00    -0.395 OA
ATOM     26  H3  UNL     1      20.329  35.821  20.098  1.00  0.00     0.210 HD
ENDBRANCH  13  25
ENDBRANCH  11  13
ENDBRANCH   1   8
BRANCH   6  27
HETATM   27  C20 UNL     1      17.200  33.214  25.314  1.00  0.00     0.050 C 
BRANCH  27  28
HETATM   28  C21 UNL     1      18.217  32.166  25.015  1.00  0.00     0.079 C 
HETATM   29  C22 UNL     1      17.525  31.217  24.129  1.00  0.00     0.009 C 
HETATM   30  C23 UNL     1      17.660  31.184  22.829  1.00  0.00     0.007 C 
HETATM   31  C24 UNL     1      18.590  32.185  22.190  1.00  0.00     0.190 C 
HETATM   32  C26 UNL     1      19.836  32.111  23.048  1.00  0.00     0.087 C 
HETATM   33  C27 UNL     1      20.964  32.919  22.479  1.00  0.00     0.049 C 
HETATM   34  C28 UNL     1      19.463  32.651  24.400  1.00  0.00     0.082 C 
BRANCH  28  35
HETATM   35  O4  UNL     1      18.515  31.383  26.166  1.00  0.00    -0.386 OA
ATOM     36  H4  UNL     1      19.012  30.606  25.940  1.00  0.00     0.211 HD
ENDBRANCH  28  35
BRANCH  31  37
HETATM   37  O5  UNL     1      18.881  31.798  20.858  1.00  0.00    -0.294 OA
BRANCH  37  38
HETATM   38  C25 UNL     1      18.727  32.601  19.752  1.00  0.00     0.373 C 
HETATM   39  N1  UNL     1      19.793  33.280  19.119  1.00  0.00    -0.032 NA
HETATM   40  O6  UNL     1      17.564  32.751  19.258  1.00  0.00    -0.242 OA
ENDBRANCH  37  38
ENDBRANCH  31  37
BRANCH  32  41
HETATM   41  O7  UNL     1      20.277  30.775  23.137  1.00  0.00    -0.387 OA
ATOM     42  H7  UNL     1      20.362  30.524  24.049  1.00  0.00     0.210 HD
ENDBRANCH  32  41
ENDBRANCH  27  28
ENDBRANCH   6  27
TORSDOF 17
ENDMDL
MODEL 5
REMARK VINA RESULT: -7.747657232      3.748      6.800
REMARK  17 active torsions:
REMARK  status: ('A' for Active; 'I' for Inactive)
REMARK    1  A    between atoms: C2_2  and  O1_3 
REMARK    2  A    between atoms: O1_3  and  C3_4 
REMARK    3  A    between atoms: C3_4  and  O2_5 
REMARK    4  A    between atoms: C3_4  and  C4_7 
REMARK    5  A    between atoms: C4_7  and  C5_8 
REMARK    6  A    between atoms: C5_8  and  C6_9 
REMARK    7  A    between atoms: C6_9  and  C8_11 
REMARK    8  A    between atoms: C8_11  and  C9_12 
REMARK    9  A    between atoms: C9_12  and  O3_13 
REMARK   10  A    between atoms: C9_12  and  C10_15 
REMARK   11  A    between atoms: C13_18  and  C14_19 
REMARK   12  A    between atoms: C19_24  and  C20_25 
REMARK   13  A    between atoms: C20_25  and  C21_26 
REMARK   14  A    between atoms: C21_26  and  O4_27 
REMARK   15  A    between atoms: C24_31  and  O5_32 
REMARK   16  A    between atoms: O5_32  and  C25_33 
REMARK   17  A    between atoms: C26_36  and  O7_38 
ROOT
HETATM    1  C14 UNL     1      20.103  37.046  22.343  1.00  0.00     0.065 C 
HETATM    2  C15 UNL     1      20.571  35.661  22.708  1.00  0.00     0.046 C 
HETATM    3  C16 UNL     1      20.621  38.149  23.231  1.00  0.00     0.076 C 
HETATM    4  C17 UNL     1      19.455  37.797  24.009  1.00  0.00     0.069 A 
HETATM    5  C18 UNL     1      19.378  37.269  25.368  1.00  0.00     0.046 A 
HETATM    6  C19 UNL     1      18.727  38.549  25.023  1.00  0.00     0.026 A 
HETATM    7  O8  UNL     1      18.812  37.195  22.934  1.00  0.00    -0.369 OA
ENDROOT
BRANCH   1   8
HETATM    8  C13 UNL     1      19.970  37.389  20.904  1.00  0.00     0.020 C 
HETATM    9  C12 UNL     1      20.875  36.524  20.030  1.00  0.00     0.008 C 
HETATM   10  C11 UNL     1      21.794  37.454  19.314  1.00  0.00     0.007 C 
HETATM   11  C10 UNL     1      21.657  38.787  20.011  1.00  0.00     0.015 C 
HETATM   12  C29 UNL     1      20.271  38.803  20.517  1.00  0.00     0.014 C 
BRANCH  11  13
HETATM   13  C9  UNL     1      21.888  39.851  18.908  1.00  0.00     0.122 C 
BRANCH  13  14
HETATM   14  C8  UNL     1      23.214  39.584  18.303  1.00  0.00     0.040 C 
BRANCH  14  15
HETATM   15  C6  UNL     1      23.244  39.308  16.811  1.00  0.00     0.006 C 
HETATM   16  C7  UNL     1      23.000  40.466  15.945  1.00  0.00     0.014 C 
BRANCH  15  17
HETATM   17  C5  UNL     1      24.382  38.433  16.555  1.00  0.00    -0.018 C 
BRANCH  17  18
HETATM   18  C4  UNL     1      24.953  37.830  15.601  1.00  0.00     0.060 C 
BRANCH  18  19
HETATM   19  C3  UNL     1      24.500  37.017  14.530  1.00  0.00     0.177 C 
BRANCH  19  20
HETATM   20  O1  UNL     1      23.369  36.263  14.446  1.00  0.00    -0.331 OA
BRANCH  20  21
HETATM   21  C2  UNL     1      23.258  34.916  14.851  1.00  0.00     0.173 C 
HETATM   22  C1  UNL     1      23.968  34.585  16.117  1.00  0.00     0.034 C 
ENDBRANCH  20  21
ENDBRANCH  19  20
BRANCH  19  23
HETATM   23  O2  UNL     1      25.231  36.945  13.447  1.00  0.00    -0.341 OA
ATOM     24  H2  UNL     1      24.860  36.361  12.796  1.00  0.00     0.220 HD
ENDBRANCH  19  23
ENDBRANCH  18  19
ENDBRANCH  17  18
ENDBRANCH  15  17
ENDBRANCH  14  15
ENDBRANCH  13  14
BRANCH  13  25
HETATM   25  O3  UNL     1      21.900  41.097  19.543  1.00  0.00    -0.395 OA
ATOM     26  H3  UNL     1      21.279  41.096  20.262  1.00  0.00     0.210 HD
ENDBRANCH  13  25
ENDBRANCH  11  13
ENDBRANCH   1   8
BRANCH   6  27
HETATM   27  C20 UNL     1      19.016  39.838  25.627  1.00  0.00     0.050 C 
BRANCH  27  28
HETATM   28  C21 UNL     1      18.407  41.106  25.133  1.00  0.00     0.079 C 
HETATM   29  C22 UNL     1      19.152  42.171  25.824  1.00  0.00     0.009 C 
HETATM   30  C23 UNL     1      20.118  42.867  25.284  1.00  0.00     0.007 C 
HETATM   31  C24 UNL     1      20.497  42.562  23.857  1.00  0.00     0.190 C 
HETATM   32  C26 UNL     1      19.164  42.501  23.141  1.00  0.00     0.087 C 
HETATM   33  C27 UNL     1      19.326  42.371  21.655  1.00  0.00     0.049 C 
HETATM   34  C28 UNL     1      18.440  41.297  23.674  1.00  0.00     0.082 C 
BRANCH  28  35
HETATM   35  O4  UNL     1      17.078  41.269  25.615  1.00  0.00    -0.386 OA
ATOM     36  H4  UNL     1      17.064  41.709  26.457  1.00  0.00     0.211 HD
ENDBRANCH  28  35
BRANCH  31  37
HETATM   37  O5  UNL     1      21.296  43.608  23.332  1.00  0.00    -0.294 OA
BRANCH  37  38
HETATM   38  C25 UNL     1      22.039  44.488  24.084  1.00  0.00     0.373 C 
HETATM   39  N1  UNL     1      23.192  44.120  24.813  1.00  0.00    -0.032 NA
HETATM   40  O6  UNL     1      21.680  45.708  24.136  1.00  0.00    -0.242 OA
ENDBRANCH  37  38
ENDBRANCH  31  37
BRANCH  32  41
HETATM   41  O7  UNL     1      18.436  43.683  23.384  1.00  0.00    -0.387 OA
ATOM     42  H7  UNL     1      18.001  43.963  22.587  1.00  0.00     0.210 HD
ENDBRANCH  32  41
ENDBRANCH  27  28
ENDBRANCH   6  27
TORSDOF 17
ENDMDL
