MODEL 1
REMARK VINA RESULT: -7.377502660      0.000      0.000
REMARK  11 active torsions:
REMARK  status: ('A' for Active; 'I' for Inactive)
REMARK    1  A    between atoms: C2_2  and  C4_4 
REMARK    2  A    between atoms: C4_4  and  C5_5 
REMARK       I    between atoms: C5_5  and  N1_7 
REMARK    3  A    between atoms: N1_7  and  C6_9 
REMARK    4  A    between atoms: C6_9  and  C7_10 
REMARK    5  A    between atoms: C6_9  and  C18_29 
REMARK    6  A    between atoms: C7_10  and  C8_11 
REMARK    7  A    between atoms: C7_10  and  N2_13 
REMARK       I    between atoms: N2_13  and  C9_15 
REMARK    8  A    between atoms: C9_15  and  C10_17 
REMARK    9  A    between atoms: C12_20  and  C13_21 
REMARK   10  A    between atoms: C18_29  and  O4_30 
REMARK   11  A    between atoms: C18_29  and  C19_32 
ROOT
HETATM    1  C6  UNL     1      20.953  40.507  22.794  1.00  0.00     0.137 C 
ENDROOT
BRANCH   1   2
HETATM    2  N1  UNL     1      20.283  39.378  23.344  1.00  0.00    -0.352 N 
HETATM    3  C5  UNL     1      20.820  38.270  24.011  1.00  0.00     0.218 C 
HETATM    4  O1  UNL     1      22.045  38.133  24.226  1.00  0.00    -0.274 OA
ATOM      5  H1  UNL     1      19.269  39.375  23.238  1.00  0.00     0.163 HD
BRANCH   3   6
HETATM    6  C4  UNL     1      19.948  37.167  24.514  1.00  0.00     0.106 C 
BRANCH   6   7
HETATM    7  C2  UNL     1      19.434  36.295  23.410  1.00  0.00    -0.014 C 
HETATM    8  C1  UNL     1      20.564  35.663  22.652  1.00  0.00     0.010 C 
HETATM    9  C3  UNL     1      18.605  35.197  24.029  1.00  0.00     0.010 C 
ENDBRANCH   6   7
ENDBRANCH   3   6
ENDBRANCH   1   2
BRANCH   1  10
HETATM   10  C7  UNL     1      21.035  41.643  23.759  1.00  0.00     0.120 C 
BRANCH  10  11
HETATM   11  C8  UNL     1      20.363  41.376  25.097  1.00  0.00     0.113 C 
HETATM   12  S1  UNL     1      21.468  41.216  26.481  1.00  0.00    -0.096 SA
ENDBRANCH  10  11
BRANCH  10  13
HETATM   13  N2  UNL     1      20.606  42.929  23.261  1.00  0.00    -0.348 N 
HETATM   14  C9  UNL     1      21.313  44.131  23.530  1.00  0.00     0.269 C 
HETATM   15  O2  UNL     1      22.345  44.057  24.236  1.00  0.00    -0.266 OA
ATOM     16  H2  UNL     1      19.761  42.977  22.692  1.00  0.00     0.163 HD
BRANCH  14  17
HETATM   17  C10 UNL     1      20.814  45.423  22.973  1.00  0.00     0.107 A 
HETATM   18  C11 UNL     1      20.410  46.456  23.780  1.00  0.00     0.086 A 
HETATM   19  S2  UNL     1      19.954  47.636  22.640  1.00  0.00    -0.086 SA
HETATM   20  C12 UNL     1      20.299  46.757  21.219  1.00  0.00     0.055 A 
HETATM   21  N3  UNL     1      20.745  45.609  21.686  1.00  0.00    -0.349 N 
ATOM     22  H3  UNL     1      21.035  44.872  21.044  1.00  0.00     0.166 HD
BRANCH  20  23
HETATM   23  C13 UNL     1      20.124  47.196  19.782  1.00  0.00     0.047 C 
HETATM   24  C14 UNL     1      19.346  48.489  19.846  1.00  0.00     0.037 C 
HETATM   25  C15 UNL     1      18.702  48.884  18.558  1.00  0.00     0.168 C 
HETATM   26  O3  UNL     1      18.192  47.808  17.868  1.00  0.00    -0.391 OA
HETATM   27  C16 UNL     1      17.950  46.696  18.678  1.00  0.00     0.168 C 
HETATM   28  C17 UNL     1      19.268  46.119  19.140  1.00  0.00     0.037 C 
ENDBRANCH  20  23
ENDBRANCH  14  17
ENDBRANCH  10  13
ENDBRANCH   1  10
BRANCH   1  29
HETATM   29  C18 UNL     1      20.504  40.843  21.420  1.00  0.00     0.151 C 
BRANCH  29  30
HETATM   30  O4  UNL     1      21.474  41.852  20.995  1.00  0.00    -0.393 OA
ATOM     31  H4  UNL     1      22.294  41.373  20.997  1.00  0.00     0.210 HD
ENDBRANCH  29  30
BRANCH  29  32
HETATM   32  C19 UNL     1      20.630  39.842  20.339  1.00  0.00    -0.008 C 
HETATM   33  C20 UNL     1      21.711  38.786  20.666  1.00  0.00     0.017 C 
HETATM   34  C21 UNL     1      21.368  37.746  19.600  1.00  0.00    -0.013 C 
HETATM   35  C22 UNL     1      21.805  38.321  18.280  1.00  0.00     0.009 C 
HETATM   36  C26 UNL     1      19.865  37.680  19.767  1.00  0.00     0.010 C 
HETATM   37  C23 UNL     1      21.124  39.649  18.045  1.00  0.00    -0.013 C 
HETATM   38  C24 UNL     1      19.632  39.436  18.155  1.00  0.00     0.010 C 
HETATM   39  C27 UNL     1      21.334  40.620  19.181  1.00  0.00     0.017 C 
HETATM   40  C25 UNL     1      19.531  39.191  19.687  1.00  0.00    -0.003 C 
ENDBRANCH  29  32
ENDBRANCH   1  29
TORSDOF 11
ENDMDL
MODEL 2
REMARK VINA RESULT: -7.272462082      0.705      1.387
REMARK  11 active torsions:
REMARK  status: ('A' for Active; 'I' for Inactive)
REMARK    1  A    between atoms: C2_2  and  C4_4 
REMARK    2  A    between atoms: C4_4  and  C5_5 
REMARK       I    between atoms: C5_5  and  N1_7 
REMARK    3  A    between atoms: N1_7  and  C6_9 
REMARK    4  A    between atoms: C6_9  and  C7_10 
REMARK    5  A    between atoms: C6_9  and  C18_29 
REMARK    6  A    between atoms: C7_10  and  C8_11 
REMARK    7  A    between atoms: C7_10  and  N2_13 
REMARK       I    between atoms: N2_13  and  C9_15 
REMARK    8  A    between atoms: C9_15  and  C10_17 
REMARK    9  A    between atoms: C12_20  and  C13_21 
REMARK   10  A    between atoms: C18_29  and  O4_30 
REMARK   11  A    between atoms: C18_29  and  C19_32 
ROOT
HETATM    1  C6  UNL     1      21.016  40.796  23.065  1.00  0.00     0.137 C 
ENDROOT
BRANCH   1   2
HETATM    2  N1  UNL     1      20.320  39.782  23.782  1.00  0.00    -0.352 N 
HETATM    3  C5  UNL     1      20.786  38.543  24.236  1.00  0.00     0.218 C 
HETATM    4  O1  UNL     1      21.961  38.150  24.058  1.00  0.00    -0.274 OA
ATOM      5  H1  UNL     1      19.345  39.988  23.996  1.00  0.00     0.163 HD
BRANCH   3   6
HETATM    6  C4  UNL     1      19.894  37.598  24.971  1.00  0.00     0.106 C 
BRANCH   6   7
HETATM    7  C2  UNL     1      18.773  37.087  24.117  1.00  0.00    -0.014 C 
HETATM    8  C1  UNL     1      19.143  35.791  23.460  1.00  0.00     0.010 C 
HETATM    9  C3  UNL     1      17.580  36.845  25.009  1.00  0.00     0.010 C 
ENDBRANCH   6   7
ENDBRANCH   3   6
ENDBRANCH   1   2
BRANCH   1  10
HETATM   10  C7  UNL     1      21.281  42.002  23.903  1.00  0.00     0.120 C 
BRANCH  10  11
HETATM   11  C8  UNL     1      20.871  41.854  25.360  1.00  0.00     0.113 C 
HETATM   12  S1  UNL     1      22.213  41.649  26.508  1.00  0.00    -0.096 SA
ENDBRANCH  10  11
BRANCH  10  13
HETATM   13  N2  UNL     1      20.770  43.253  23.391  1.00  0.00    -0.348 N 
HETATM   14  C9  UNL     1      21.472  44.480  23.525  1.00  0.00     0.269 C 
HETATM   15  O2  UNL     1      22.575  44.462  24.119  1.00  0.00    -0.266 OA
ATOM     16  H2  UNL     1      19.869  43.255  22.914  1.00  0.00     0.163 HD
BRANCH  14  17
HETATM   17  C10 UNL     1      20.886  45.733  22.962  1.00  0.00     0.107 A 
HETATM   18  C11 UNL     1      20.424  46.745  23.764  1.00  0.00     0.086 A 
HETATM   19  S2  UNL     1      19.881  47.883  22.618  1.00  0.00    -0.086 SA
HETATM   20  C12 UNL     1      20.269  47.014  21.202  1.00  0.00     0.055 A 
HETATM   21  N3  UNL     1      20.793  45.902  21.673  1.00  0.00    -0.349 N 
ATOM     22  H3  UNL     1      21.123  45.178  21.035  1.00  0.00     0.166 HD
BRANCH  20  23
HETATM   23  C13 UNL     1      20.052  47.428  19.762  1.00  0.00     0.047 C 
HETATM   24  C14 UNL     1      19.130  48.623  19.820  1.00  0.00     0.037 C 
HETATM   25  C15 UNL     1      18.452  48.939  18.527  1.00  0.00     0.168 C 
HETATM   26  O3  UNL     1      18.073  47.810  17.837  1.00  0.00    -0.391 OA
HETATM   27  C16 UNL     1      17.956  46.679  18.648  1.00  0.00     0.168 C 
HETATM   28  C17 UNL     1      19.329  46.258  19.118  1.00  0.00     0.037 C 
ENDBRANCH  20  23
ENDBRANCH  14  17
ENDBRANCH  10  13
ENDBRANCH   1  10
BRANCH   1  29
HETATM   29  C18 UNL     1      20.460  41.045  21.712  1.00  0.00     0.151 C 
BRANCH  29  30
HETATM   30  O4  UNL     1      21.382  42.033  21.155  1.00  0.00    -0.393 OA
ATOM     31  H4  UNL     1      21.354  41.850  20.223  1.00  0.00     0.210 HD
ENDBRANCH  29  30
BRANCH  29  32
HETATM   32  C19 UNL     1      20.516  39.981  20.686  1.00  0.00    -0.008 C 
HETATM   33  C20 UNL     1      20.416  40.565  19.257  1.00  0.00     0.017 C 
HETATM   34  C21 UNL     1      20.849  39.335  18.459  1.00  0.00    -0.013 C 
HETATM   35  C22 UNL     1      19.712  38.352  18.534  1.00  0.00     0.009 C 
HETATM   36  C26 UNL     1      22.067  38.917  19.255  1.00  0.00     0.010 C 
HETATM   37  C23 UNL     1      19.397  38.034  19.977  1.00  0.00    -0.013 C 
HETATM   38  C24 UNL     1      20.668  37.551  20.637  1.00  0.00     0.010 C 
HETATM   39  C27 UNL     1      19.129  39.271  20.799  1.00  0.00     0.017 C 
HETATM   40  C25 UNL     1      21.451  38.893  20.676  1.00  0.00    -0.003 C 
ENDBRANCH  29  32
ENDBRANCH   1  29
TORSDOF 11
ENDMDL
MODEL 3
REMARK VINA RESULT: -7.195145172      2.431      2.807
REMARK  11 active torsions:
REMARK  status: ('A' for Active; 'I' for Inactive)
REMARK    1  A    between atoms: C2_2  and  C4_4 
REMARK    2  A    between atoms: C4_4  and  C5_5 
REMARK       I    between atoms: C5_5  and  N1_7 
REMARK    3  A    between atoms: N1_7  and  C6_9 
REMARK    4  A    between atoms: C6_9  and  C7_10 
REMARK    5  A    between atoms: C6_9  and  C18_29 
REMARK    6  A    between atoms: C7_10  and  C8_11 
REMARK    7  A    between atoms: C7_10  and  N2_13 
REMARK       I    between atoms: N2_13  and  C9_15 
REMARK    8  A    between atoms: C9_15  and  C10_17 
REMARK    9  A    between atoms: C12_20  and  C13_21 
REMARK   10  A    between atoms: C18_29  and  O4_30 
REMARK   11  A    between atoms: C18_29  and  C19_32 
ROOT
HETATM    1  C6  UNL     1      19.367  39.689  22.683  1.00  0.00     0.137 C 
ENDROOT
BRANCH   1   2
HETATM    2  N1  UNL     1      19.356  38.266  22.701  1.00  0.00    -0.352 N 
HETATM    3  C5  UNL     1      20.187  37.385  23.403  1.00  0.00     0.218 C 
HETATM    4  O1  UNL     1      21.104  37.771  24.161  1.00  0.00    -0.274 OA
ATOM      5  H1  UNL     1      18.642  37.826  22.121  1.00  0.00     0.163 HD
BRANCH   3   6
HETATM    6  C4  UNL     1      20.026  35.905  23.286  1.00  0.00     0.106 C 
BRANCH   6   7
HETATM    7  C2  UNL     1      18.673  35.439  23.732  1.00  0.00    -0.014 C 
HETATM    8  C1  UNL     1      18.586  33.942  23.714  1.00  0.00     0.010 C 
HETATM    9  C3  UNL     1      18.461  35.911  25.150  1.00  0.00     0.010 C 
ENDBRANCH   6   7
ENDBRANCH   3   6
ENDBRANCH   1   2
BRANCH   1  10
HETATM   10  C7  UNL     1      17.991  40.267  22.656  1.00  0.00     0.120 C 
BRANCH  10  11
HETATM   11  C8  UNL     1      16.899  39.264  22.317  1.00  0.00     0.113 C 
HETATM   12  S1  UNL     1      15.752  38.918  23.631  1.00  0.00    -0.096 SA
ENDBRANCH  10  11
BRANCH  10  13
HETATM   13  N2  UNL     1      17.816  41.450  21.847  1.00  0.00    -0.348 N 
HETATM   14  C9  UNL     1      17.284  42.661  22.364  1.00  0.00     0.269 C 
HETATM   15  O2  UNL     1      16.951  42.686  23.571  1.00  0.00    -0.266 OA
ATOM     16  H2  UNL     1      18.086  41.416  20.864  1.00  0.00     0.163 HD
BRANCH  14  17
HETATM   17  C10 UNL     1      17.142  43.848  21.469  1.00  0.00     0.107 A 
HETATM   18  C11 UNL     1      15.933  44.461  21.260  1.00  0.00     0.086 A 
HETATM   19  S2  UNL     1      16.354  45.712  20.184  1.00  0.00    -0.086 SA
HETATM   20  C12 UNL     1      18.024  45.387  20.064  1.00  0.00     0.055 A 
HETATM   21  N3  UNL     1      18.177  44.341  20.850  1.00  0.00    -0.349 N 
ATOM     22  H3  UNL     1      19.097  43.921  20.974  1.00  0.00     0.166 HD
BRANCH  20  23
HETATM   23  C13 UNL     1      19.063  46.121  19.246  1.00  0.00     0.047 C 
HETATM   24  C14 UNL     1      19.781  47.024  20.220  1.00  0.00     0.037 C 
HETATM   25  C15 UNL     1      20.552  48.132  19.579  1.00  0.00     0.168 C 
HETATM   26  O3  UNL     1      19.900  48.671  18.493  1.00  0.00    -0.391 OA
HETATM   27  C16 UNL     1      18.524  48.433  18.499  1.00  0.00     0.168 C 
HETATM   28  C17 UNL     1      18.270  46.963  18.261  1.00  0.00     0.037 C 
ENDBRANCH  20  23
ENDBRANCH  14  17
ENDBRANCH  10  13
ENDBRANCH   1  10
BRANCH   1  29
HETATM   29  C18 UNL     1      20.336  40.256  21.713  1.00  0.00     0.151 C 
BRANCH  29  30
HETATM   30  O4  UNL     1      21.620  40.081  22.391  1.00  0.00    -0.393 OA
ATOM     31  H4  UNL     1      21.706  40.881  22.896  1.00  0.00     0.210 HD
ENDBRANCH  29  30
BRANCH  29  32
HETATM   32  C19 UNL     1      20.585  39.564  20.430  1.00  0.00    -0.008 C 
HETATM   33  C20 UNL     1      21.726  38.526  20.557  1.00  0.00     0.017 C 
HETATM   34  C21 UNL     1      21.510  37.764  19.250  1.00  0.00    -0.013 C 
HETATM   35  C22 UNL     1      21.963  38.674  18.141  1.00  0.00     0.009 C 
HETATM   36  C26 UNL     1      20.010  37.569  19.301  1.00  0.00     0.010 C 
HETATM   37  C23 UNL     1      21.198  39.975  18.194  1.00  0.00    -0.013 C 
HETATM   38  C24 UNL     1      19.722  39.652  18.155  1.00  0.00     0.010 C 
HETATM   39  C27 UNL     1      21.283  40.645  19.544  1.00  0.00     0.017 C 
HETATM   40  C25 UNL     1      19.569  39.030  19.571  1.00  0.00    -0.003 C 
ENDBRANCH  29  32
ENDBRANCH   1  29
TORSDOF 11
ENDMDL
MODEL 4
REMARK VINA RESULT: -7.120925198      2.031      2.251
REMARK  11 active torsions:
REMARK  status: ('A' for Active; 'I' for Inactive)
REMARK    1  A    between atoms: C2_2  and  C4_4 
REMARK    2  A    between atoms: C4_4  and  C5_5 
REMARK       I    between atoms: C5_5  and  N1_7 
REMARK    3  A    between atoms: N1_7  and  C6_9 
REMARK    4  A    between atoms: C6_9  and  C7_10 
REMARK    5  A    between atoms: C6_9  and  C18_29 
REMARK    6  A    between atoms: C7_10  and  C8_11 
REMARK    7  A    between atoms: C7_10  and  N2_13 
REMARK       I    between atoms: N2_13  and  C9_15 
REMARK    8  A    between atoms: C9_15  and  C10_17 
REMARK    9  A    between atoms: C12_20  and  C13_21 
REMARK   10  A    between atoms: C18_29  and  O4_30 
REMARK   11  A    between atoms: C18_29  and  C19_32 
ROOT
HETATM    1  C6  UNL     1      19.687  40.678  22.265  1.00  0.00     0.137 C 
ENDROOT
BRANCH   1   2
HETATM    2  N1  UNL     1      18.289  40.431  22.373  1.00  0.00    -0.352 N 
HETATM    3  C5  UNL     1      17.617  39.213  22.530  1.00  0.00     0.218 C 
HETATM    4  O1  UNL     1      18.208  38.113  22.607  1.00  0.00    -0.274 OA
ATOM      5  H1  UNL     1      17.693  41.257  22.329  1.00  0.00     0.163 HD
BRANCH   3   6
HETATM    6  C4  UNL     1      16.127  39.152  22.616  1.00  0.00     0.106 C 
BRANCH   6   7
HETATM    7  C2  UNL     1      15.620  39.466  23.990  1.00  0.00    -0.014 C 
HETATM    8  C1  UNL     1      14.777  40.707  23.984  1.00  0.00     0.010 C 
HETATM    9  C3  UNL     1      14.762  38.312  24.447  1.00  0.00     0.010 C 
ENDBRANCH   6   7
ENDBRANCH   3   6
ENDBRANCH   1   2
BRANCH   1  10
HETATM   10  C7  UNL     1      20.158  41.701  23.244  1.00  0.00     0.120 C 
BRANCH  10  11
HETATM   11  C8  UNL     1      19.659  41.483  24.664  1.00  0.00     0.113 C 
HETATM   12  S1  UNL     1      20.848  40.785  25.787  1.00  0.00    -0.096 SA
ENDBRANCH  10  11
BRANCH  10  13
HETATM   13  N2  UNL     1      19.945  43.080  22.872  1.00  0.00    -0.348 N 
HETATM   14  C9  UNL     1      20.840  44.120  23.237  1.00  0.00     0.269 C 
HETATM   15  O2  UNL     1      21.848  43.814  23.915  1.00  0.00    -0.266 OA
ATOM     16  H2  UNL     1      19.118  43.317  22.325  1.00  0.00     0.163 HD
BRANCH  14  17
HETATM   17  C10 UNL     1      20.559  45.522  22.808  1.00  0.00     0.107 A 
HETATM   18  C11 UNL     1      20.440  46.549  23.709  1.00  0.00     0.086 A 
HETATM   19  S2  UNL     1      20.126  47.878  22.690  1.00  0.00    -0.086 SA
HETATM   20  C12 UNL     1      20.163  47.058  21.194  1.00  0.00     0.055 A 
HETATM   21  N3  UNL     1      20.413  45.815  21.547  1.00  0.00    -0.349 N 
ATOM     22  H3  UNL     1      20.492  45.086  20.838  1.00  0.00     0.166 HD
BRANCH  20  23
HETATM   23  C13 UNL     1      19.949  47.630  19.810  1.00  0.00     0.047 C 
HETATM   24  C14 UNL     1      18.852  48.656  19.961  1.00  0.00     0.037 C 
HETATM   25  C15 UNL     1      18.193  49.045  18.677  1.00  0.00     0.168 C 
HETATM   26  O3  UNL     1      18.025  47.978  17.824  1.00  0.00    -0.391 OA
HETATM   27  C16 UNL     1      18.048  46.741  18.472  1.00  0.00     0.168 C 
HETATM   28  C17 UNL     1      19.447  46.466  18.973  1.00  0.00     0.037 C 
ENDBRANCH  20  23
ENDBRANCH  14  17
ENDBRANCH  10  13
ENDBRANCH   1  10
BRANCH   1  29
HETATM   29  C18 UNL     1      20.146  40.849  20.864  1.00  0.00     0.151 C 
BRANCH  29  30
HETATM   30  O4  UNL     1      21.387  41.607  21.015  1.00  0.00    -0.393 OA
ATOM     31  H4  UNL     1      21.081  42.474  21.250  1.00  0.00     0.210 HD
ENDBRANCH  29  30
BRANCH  29  32
HETATM   32  C19 UNL     1      20.611  39.675  20.093  1.00  0.00    -0.008 C 
HETATM   33  C20 UNL     1      21.327  38.648  21.000  1.00  0.00     0.017 C 
HETATM   34  C21 UNL     1      21.360  37.457  20.042  1.00  0.00    -0.013 C 
HETATM   35  C22 UNL     1      22.378  37.784  18.984  1.00  0.00     0.009 C 
HETATM   36  C26 UNL     1      19.933  37.480  19.540  1.00  0.00     0.010 C 
HETATM   37  C23 UNL     1      22.013  39.079  18.298  1.00  0.00    -0.013 C 
HETATM   38  C24 UNL     1      20.603  38.947  17.769  1.00  0.00     0.010 C 
HETATM   39  C27 UNL     1      21.823  40.218  19.269  1.00  0.00     0.017 C 
HETATM   40  C25 UNL     1      19.832  38.968  19.119  1.00  0.00    -0.003 C 
ENDBRANCH  29  32
ENDBRANCH   1  29
TORSDOF 11
ENDMDL
MODEL 5
REMARK VINA RESULT: -7.099346312      1.199      1.352
REMARK  11 active torsions:
REMARK  status: ('A' for Active; 'I' for Inactive)
REMARK    1  A    between atoms: C2_2  and  C4_4 
REMARK    2  A    between atoms: C4_4  and  C5_5 
REMARK       I    between atoms: C5_5  and  N1_7 
REMARK    3  A    between atoms: N1_7  and  C6_9 
REMARK    4  A    between atoms: C6_9  and  C7_10 
REMARK    5  A    between atoms: C6_9  and  C18_29 
REMARK    6  A    between atoms: C7_10  and  C8_11 
REMARK    7  A    between atoms: C7_10  and  N2_13 
REMARK       I    between atoms: N2_13  and  C9_15 
REMARK    8  A    between atoms: C9_15  and  C10_17 
REMARK    9  A    between atoms: C12_20  and  C13_21 
REMARK   10  A    between atoms: C18_29  and  O4_30 
REMARK   11  A    between atoms: C18_29  and  C19_32 
ROOT
HETATM    1  C6  UNL     1      20.134  40.024  22.720  1.00  0.00     0.137 C 
ENDROOT
BRANCH   1   2
HETATM    2  N1  UNL     1      19.440  38.785  22.822  1.00  0.00    -0.352 N 
HETATM    3  C5  UNL     1      19.874  37.572  23.368  1.00  0.00     0.218 C 
HETATM    4  O1  UNL     1      21.007  37.420  23.877  1.00  0.00    -0.274 OA
ATOM      5  H1  UNL     1      18.493  38.781  22.445  1.00  0.00     0.163 HD
BRANCH   3   6
HETATM    6  C4  UNL     1      18.996  36.364  23.377  1.00  0.00     0.106 C 
BRANCH   6   7
HETATM    7  C2  UNL     1      19.774  35.090  23.244  1.00  0.00    -0.014 C 
HETATM    8  C1  UNL     1      18.943  33.907  23.644  1.00  0.00     0.010 C 
HETATM    9  C3  UNL     1      20.163  34.929  21.795  1.00  0.00     0.010 C 
ENDBRANCH   6   7
ENDBRANCH   3   6
ENDBRANCH   1   2
BRANCH   1  10
HETATM   10  C7  UNL     1      19.748  40.980  23.799  1.00  0.00     0.120 C 
BRANCH  10  11
HETATM   11  C8  UNL     1      18.515  40.568  24.589  1.00  0.00     0.113 C 
HETATM   12  S1  UNL     1      16.999  41.353  24.093  1.00  0.00    -0.096 SA
ENDBRANCH  10  11
BRANCH  10  13
HETATM   13  N2  UNL     1      19.618  42.363  23.403  1.00  0.00    -0.348 N 
HETATM   14  C9  UNL     1      20.624  43.332  23.659  1.00  0.00     0.269 C 
HETATM   15  O2  UNL     1      21.658  42.959  24.259  1.00  0.00    -0.266 OA
ATOM     16  H2  UNL     1      18.769  42.656  22.920  1.00  0.00     0.163 HD
BRANCH  14  17
HETATM   17  C10 UNL     1      20.423  44.742  23.211  1.00  0.00     0.107 A 
HETATM   18  C11 UNL     1      20.245  45.770  24.101  1.00  0.00     0.086 A 
HETATM   19  S2  UNL     1      20.066  47.109  23.063  1.00  0.00    -0.086 SA
HETATM   20  C12 UNL     1      20.226  46.291  21.574  1.00  0.00     0.055 A 
HETATM   21  N3  UNL     1      20.407  45.041  21.943  1.00  0.00    -0.349 N 
ATOM     22  H3  UNL     1      20.536  44.312  21.242  1.00  0.00     0.166 HD
BRANCH  20  23
HETATM   23  C13 UNL     1      20.163  46.872  20.178  1.00  0.00     0.047 C 
HETATM   24  C14 UNL     1      19.558  48.246  20.338  1.00  0.00     0.037 C 
HETATM   25  C15 UNL     1      19.020  48.833  19.074  1.00  0.00     0.168 C 
HETATM   26  O3  UNL     1      18.400  47.897  18.277  1.00  0.00    -0.391 OA
HETATM   27  C16 UNL     1      17.985  46.762  18.977  1.00  0.00     0.168 C 
HETATM   28  C17 UNL     1      19.198  45.977  19.419  1.00  0.00     0.037 C 
ENDBRANCH  20  23
ENDBRANCH  14  17
ENDBRANCH  10  13
ENDBRANCH   1  10
BRANCH   1  29
HETATM   29  C18 UNL     1      20.163  40.568  21.340  1.00  0.00     0.151 C 
BRANCH  29  30
HETATM   30  O4  UNL     1      21.318  41.464  21.364  1.00  0.00    -0.393 OA
ATOM     31  H4  UNL     1      20.924  42.315  21.516  1.00  0.00     0.210 HD
ENDBRANCH  29  30
BRANCH  29  32
HETATM   32  C19 UNL     1      20.503  39.681  20.206  1.00  0.00    -0.008 C 
HETATM   33  C20 UNL     1      21.686  38.747  20.552  1.00  0.00     0.017 C 
HETATM   34  C21 UNL     1      21.567  37.761  19.389  1.00  0.00    -0.013 C 
HETATM   35  C22 UNL     1      22.026  38.492  18.156  1.00  0.00     0.009 C 
HETATM   36  C26 UNL     1      20.078  37.494  19.418  1.00  0.00     0.010 C 
HETATM   37  C23 UNL     1      21.196  39.739  17.956  1.00  0.00    -0.013 C 
HETATM   38  C24 UNL     1      19.741  39.331  17.919  1.00  0.00     0.010 C 
HETATM   39  C27 UNL     1      21.187  40.633  19.172  1.00  0.00     0.017 C 
HETATM   40  C25 UNL     1      19.554  38.952  19.416  1.00  0.00    -0.003 C 
ENDBRANCH  29  32
ENDBRANCH   1  29
TORSDOF 11
ENDMDL
