MODEL 1
REMARK VINA RESULT: -7.220961977      0.000      0.000
REMARK  13 active torsions:
REMARK  status: ('A' for Active; 'I' for Inactive)
REMARK    1  A    between atoms: C2_2  and  C3_3 
REMARK    2  A    between atoms: C3_3  and  C4_4 
REMARK    3  A    between atoms: C4_4  and  C5_5 
REMARK    4  A    between atoms: C5_5  and  C6_6 
REMARK    5  A    between atoms: C6_6  and  O1_7 
REMARK    6  A    between atoms: O1_7  and  C7_8 
REMARK    7  A    between atoms: C12_14  and  O3_15 
REMARK    8  A    between atoms: C21_26  and  C22_27 
REMARK    9  A    between atoms: C22_27  and  O5_28 
REMARK   10  A    between atoms: C22_27  and  O6_30 
REMARK   11  A    between atoms: C22_27  and  C23_32 
REMARK   12  A    between atoms: C23_32  and  C24_33 
REMARK   13  A    between atoms: C24_33  and  C25_34 
ROOT
HETATM    1  C7  UNL     1      20.967  41.615  22.527  1.00  0.00     0.048 C 
HETATM    2  C8  UNL     1      20.417  42.814  22.388  1.00  0.00     0.019 C 
HETATM    3  C9  UNL     1      20.012  43.688  23.515  1.00  0.00     0.089 C 
HETATM    4  C10 UNL     1      20.378  45.106  23.284  1.00  0.00     0.137 C 
HETATM    5  O2  UNL     1      20.816  45.529  22.234  1.00  0.00    -0.297 OA
HETATM    6  C11 UNL     1      20.197  46.062  24.406  1.00  0.00     0.110 C 
HETATM    7  C12 UNL     1      19.602  45.307  25.572  1.00  0.00     0.126 C 
HETATM    8  C13 UNL     1      20.346  44.064  25.928  1.00  0.00     0.042 C 
HETATM    9  C14 UNL     1      20.818  43.253  24.750  1.00  0.00    -0.023 C 
HETATM   10  C15 UNL     1      22.277  43.558  24.549  1.00  0.00     0.016 C 
HETATM   11  C16 UNL     1      20.517  41.792  24.903  1.00  0.00     0.013 C 
HETATM   12  C17 UNL     1      19.010  41.647  24.838  1.00  0.00     0.084 C 
HETATM   13  C18 UNL     1      18.645  40.486  25.714  1.00  0.00     0.127 C 
HETATM   14  O4  UNL     1      17.602  40.547  26.337  1.00  0.00    -0.298 OA
HETATM   15  C19 UNL     1      19.495  39.271  25.857  1.00  0.00     0.084 C 
HETATM   16  C20 UNL     1      19.942  38.900  24.462  1.00  0.00     0.011 C 
HETATM   17  C21 UNL     1      20.258  37.434  24.358  1.00  0.00     0.053 C 
HETATM   18  C26 UNL     1      21.362  37.313  23.341  1.00  0.00     0.011 C 
HETATM   19  C27 UNL     1      21.481  38.743  22.746  1.00  0.00     0.011 C 
HETATM   20  C28 UNL     1      21.190  39.554  23.993  1.00  0.00    -0.030 C 
HETATM   21  C29 UNL     1      22.309  39.117  24.972  1.00  0.00     0.016 C 
HETATM   22  C30 UNL     1      21.243  41.005  23.838  1.00  0.00     0.056 C 
ENDROOT
BRANCH  17  23
HETATM   23  C22 UNL     1      19.099  36.615  23.844  1.00  0.00     0.163 C 
BRANCH  23  24
HETATM   24  O5  UNL     1      18.564  35.786  24.829  1.00  0.00    -0.365 OA
ATOM     25  H5  UNL     1      18.828  34.880  24.717  1.00  0.00     0.213 HD
ENDBRANCH  23  24
BRANCH  23  26
HETATM   26  O6  UNL     1      18.073  37.366  23.312  1.00  0.00    -0.365 OA
ATOM     27  H6  UNL     1      18.197  37.599  22.400  1.00  0.00     0.213 HD
ENDBRANCH  23  26
BRANCH  23  28
HETATM   28  C23 UNL     1      19.656  35.676  22.789  1.00  0.00     0.079 C 
BRANCH  28  29
HETATM   29  C24 UNL     1      19.259  34.241  23.064  1.00  0.00     0.118 C 
BRANCH  29  30
HETATM   30  C25 UNL     1      20.151  33.357  22.269  1.00  0.00     0.172 C 
HETATM   31  O7  UNL     1      20.713  32.345  22.785  1.00  0.00    -0.648 OA
HETATM   32  O8  UNL     1      20.408  33.592  20.937  1.00  0.00    -0.648 OA
ENDBRANCH  29  30
ENDBRANCH  28  29
ENDBRANCH  23  28
ENDBRANCH  17  23
BRANCH   1  33
HETATM   33  O1  UNL     1      21.273  40.964  21.358  1.00  0.00    -0.355 OA
BRANCH  33  34
HETATM   34  C6  UNL     1      20.708  41.127  20.102  1.00  0.00     0.175 C 
BRANCH  34  35
HETATM   35  C5  UNL     1      19.582  40.170  19.791  1.00  0.00     0.027 C 
BRANCH  35  36
HETATM   36  C4  UNL     1      20.095  39.051  18.900  1.00  0.00     0.006 C 
BRANCH  36  37
HETATM   37  C3  UNL     1      19.937  37.705  19.562  1.00  0.00     0.026 C 
BRANCH  37  38
HETATM   38  C2  UNL     1      21.228  36.982  19.529  1.00  0.00    -0.037 C 
HETATM   39  C1  UNL     1      22.362  37.628  19.358  1.00  0.00     0.007 C 
ENDBRANCH  37  38
ENDBRANCH  36  37
ENDBRANCH  35  36
ENDBRANCH  34  35
ENDBRANCH  33  34
ENDBRANCH   1  33
BRANCH   7  40
HETATM   40  O3  UNL     1      19.658  46.157  26.701  1.00  0.00    -0.395 OA
ATOM     41  H3  UNL     1      19.446  45.632  27.464  1.00  0.00     0.210 HD
ENDBRANCH   7  40
TORSDOF 13
ENDMDL
MODEL 2
REMARK VINA RESULT: -7.220306994      3.004      6.064
REMARK  13 active torsions:
REMARK  status: ('A' for Active; 'I' for Inactive)
REMARK    1  A    between atoms: C2_2  and  C3_3 
REMARK    2  A    between atoms: C3_3  and  C4_4 
REMARK    3  A    between atoms: C4_4  and  C5_5 
REMARK    4  A    between atoms: C5_5  and  C6_6 
REMARK    5  A    between atoms: C6_6  and  O1_7 
REMARK    6  A    between atoms: O1_7  and  C7_8 
REMARK    7  A    between atoms: C12_14  and  O3_15 
REMARK    8  A    between atoms: C21_26  and  C22_27 
REMARK    9  A    between atoms: C22_27  and  O5_28 
REMARK   10  A    between atoms: C22_27  and  O6_30 
REMARK   11  A    between atoms: C22_27  and  C23_32 
REMARK   12  A    between atoms: C23_32  and  C24_33 
REMARK   13  A    between atoms: C24_33  and  C25_34 
ROOT
HETATM    1  C7  UNL     1      19.907  38.288  22.896  1.00  0.00     0.048 C 
HETATM    2  C8  UNL     1      19.605  38.914  24.026  1.00  0.00     0.019 C 
HETATM    3  C9  UNL     1      18.527  39.922  24.165  1.00  0.00     0.089 C 
HETATM    4  C10 UNL     1      17.747  39.740  25.413  1.00  0.00     0.137 C 
HETATM    5  O2  UNL     1      18.049  38.958  26.292  1.00  0.00    -0.297 OA
HETATM    6  C11 UNL     1      16.525  40.564  25.595  1.00  0.00     0.110 C 
HETATM    7  C12 UNL     1      16.395  41.478  24.399  1.00  0.00     0.126 C 
HETATM    8  C13 UNL     1      16.480  40.771  23.088  1.00  0.00     0.042 C 
HETATM    9  C14 UNL     1      17.528  39.692  23.021  1.00  0.00    -0.023 C 
HETATM   10  C15 UNL     1      16.828  38.373  23.202  1.00  0.00     0.016 C 
HETATM   11  C16 UNL     1      18.356  39.775  21.773  1.00  0.00     0.013 C 
HETATM   12  C17 UNL     1      19.177  41.045  21.877  1.00  0.00     0.084 C 
HETATM   13  C18 UNL     1      19.365  41.558  20.481  1.00  0.00     0.127 C 
HETATM   14  O4  UNL     1      19.378  42.763  20.313  1.00  0.00    -0.298 OA
HETATM   15  C19 UNL     1      19.535  40.668  19.298  1.00  0.00     0.084 C 
HETATM   16  C20 UNL     1      20.506  39.589  19.716  1.00  0.00     0.011 C 
HETATM   17  C21 UNL     1      21.232  39.014  18.531  1.00  0.00     0.053 C 
HETATM   18  C26 UNL     1      21.499  37.570  18.862  1.00  0.00     0.011 C 
HETATM   19  C27 UNL     1      21.081  37.443  20.353  1.00  0.00     0.011 C 
HETATM   20  C28 UNL     1      19.901  38.395  20.359  1.00  0.00    -0.030 C 
HETATM   21  C29 UNL     1      18.937  37.775  19.316  1.00  0.00     0.016 C 
HETATM   22  C30 UNL     1      19.195  38.527  21.630  1.00  0.00     0.056 C 
ENDROOT
BRANCH  17  23
HETATM   23  C22 UNL     1      22.573  39.662  18.289  1.00  0.00     0.163 C 
BRANCH  23  24
HETATM   24  O5  UNL     1      22.587  40.420  17.118  1.00  0.00    -0.365 OA
ATOM     25  H5  UNL     1      23.459  40.490  16.748  1.00  0.00     0.213 HD
ENDBRANCH  23  24
BRANCH  23  26
HETATM   26  O6  UNL     1      23.004  40.465  19.323  1.00  0.00    -0.365 OA
ATOM     27  H6  UNL     1      23.504  41.223  19.043  1.00  0.00     0.213 HD
ENDBRANCH  23  26
BRANCH  23  28
HETATM   28  C23 UNL     1      23.569  38.541  18.052  1.00  0.00     0.079 C 
BRANCH  28  29
HETATM   29  C24 UNL     1      24.131  38.590  16.648  1.00  0.00     0.118 C 
BRANCH  29  30
HETATM   30  C25 UNL     1      23.948  37.251  16.032  1.00  0.00     0.172 C 
HETATM   31  O7  UNL     1      23.863  36.202  16.739  1.00  0.00    -0.648 OA
HETATM   32  O8  UNL     1      23.861  37.083  14.668  1.00  0.00    -0.648 OA
ENDBRANCH  29  30
ENDBRANCH  28  29
ENDBRANCH  23  28
ENDBRANCH  17  23
BRANCH   1  33
HETATM   33  O1  UNL     1      20.938  37.385  22.975  1.00  0.00    -0.355 OA
BRANCH  33  34
HETATM   34  C6  UNL     1      20.879  36.021  23.218  1.00  0.00     0.175 C 
BRANCH  34  35
HETATM   35  C5  UNL     1      19.486  35.482  23.436  1.00  0.00     0.027 C 
BRANCH  35  36
HETATM   36  C4  UNL     1      19.332  34.157  22.708  1.00  0.00     0.006 C 
BRANCH  36  37
HETATM   37  C3  UNL     1      20.301  34.046  21.558  1.00  0.00     0.026 C 
BRANCH  37  38
HETATM   38  C2  UNL     1      19.574  33.643  20.334  1.00  0.00    -0.037 C 
HETATM   39  C1  UNL     1      19.954  34.071  19.149  1.00  0.00     0.007 C 
ENDBRANCH  37  38
ENDBRANCH  36  37
ENDBRANCH  35  36
ENDBRANCH  34  35
ENDBRANCH  33  34
ENDBRANCH   1  33
BRANCH   7  40
HETATM   40  O3  UNL     1      15.117  42.079  24.460  1.00  0.00    -0.395 OA
ATOM     41  H3  UNL     1      15.098  42.632  25.232  1.00  0.00     0.210 HD
ENDBRANCH   7  40
TORSDOF 13
ENDMDL
MODEL 3
REMARK VINA RESULT: -7.141609859      2.607      6.619
REMARK  13 active torsions:
REMARK  status: ('A' for Active; 'I' for Inactive)
REMARK    1  A    between atoms: C2_2  and  C3_3 
REMARK    2  A    between atoms: C3_3  and  C4_4 
REMARK    3  A    between atoms: C4_4  and  C5_5 
REMARK    4  A    between atoms: C5_5  and  C6_6 
REMARK    5  A    between atoms: C6_6  and  O1_7 
REMARK    6  A    between atoms: O1_7  and  C7_8 
REMARK    7  A    between atoms: C12_14  and  O3_15 
REMARK    8  A    between atoms: C21_26  and  C22_27 
REMARK    9  A    between atoms: C22_27  and  O5_28 
REMARK   10  A    between atoms: C22_27  and  O6_30 
REMARK   11  A    between atoms: C22_27  and  C23_32 
REMARK   12  A    between atoms: C23_32  and  C24_33 
REMARK   13  A    between atoms: C24_33  and  C25_34 
ROOT
HETATM    1  C7  UNL     1      19.484  40.956  20.674  1.00  0.00     0.048 C 
HETATM    2  C8  UNL     1      20.605  41.060  19.972  1.00  0.00     0.019 C 
HETATM    3  C9  UNL     1      21.539  39.939  19.711  1.00  0.00     0.089 C 
HETATM    4  C10 UNL     1      22.030  39.933  18.311  1.00  0.00     0.137 C 
HETATM    5  O2  UNL     1      21.817  40.825  17.516  1.00  0.00    -0.297 OA
HETATM    6  C11 UNL     1      22.829  38.765  17.860  1.00  0.00     0.110 C 
HETATM    7  C12 UNL     1      22.991  37.828  19.034  1.00  0.00     0.126 C 
HETATM    8  C13 UNL     1      21.707  37.481  19.710  1.00  0.00     0.042 C 
HETATM    9  C14 UNL     1      20.749  38.631  19.873  1.00  0.00    -0.023 C 
HETATM   10  C15 UNL     1      19.715  38.513  18.787  1.00  0.00     0.016 C 
HETATM   11  C16 UNL     1      20.174  38.706  21.256  1.00  0.00     0.013 C 
HETATM   12  C17 UNL     1      21.314  39.074  22.185  1.00  0.00     0.084 C 
HETATM   13  C18 UNL     1      21.029  38.421  23.504  1.00  0.00     0.127 C 
HETATM   14  O4  UNL     1      21.973  38.006  24.150  1.00  0.00    -0.298 OA
HETATM   15  C19 UNL     1      19.656  38.258  24.057  1.00  0.00     0.084 C 
HETATM   16  C20 UNL     1      18.949  39.574  23.831  1.00  0.00     0.011 C 
HETATM   17  C21 UNL     1      17.844  39.782  24.830  1.00  0.00     0.053 C 
HETATM   18  C26 UNL     1      16.780  40.576  24.119  1.00  0.00     0.011 C 
HETATM   19  C27 UNL     1      17.445  40.972  22.772  1.00  0.00     0.011 C 
HETATM   20  C28 UNL     1      18.261  39.719  22.524  1.00  0.00    -0.030 C 
HETATM   21  C29 UNL     1      17.190  38.600  22.465  1.00  0.00     0.016 C 
HETATM   22  C30 UNL     1      19.033  39.695  21.284  1.00  0.00     0.056 C 
ENDROOT
BRANCH  17  23
HETATM   23  C22 UNL     1      18.273  40.598  26.025  1.00  0.00     0.163 C 
BRANCH  23  24
HETATM   24  O5  UNL     1      17.275  41.476  26.446  1.00  0.00    -0.365 OA
ATOM     25  H5  UNL     1      17.613  42.153  27.021  1.00  0.00     0.213 HD
ENDBRANCH  23  24
BRANCH  23  26
HETATM   26  O6  UNL     1      18.665  39.843  27.110  1.00  0.00    -0.365 OA
ATOM     27  H6  UNL     1      18.237  40.083  27.923  1.00  0.00     0.213 HD
ENDBRANCH  23  26
BRANCH  23  28
HETATM   28  C23 UNL     1      19.418  41.483  25.567  1.00  0.00     0.079 C 
BRANCH  28  29
HETATM   29  C24 UNL     1      20.448  41.662  26.662  1.00  0.00     0.118 C 
BRANCH  29  30
HETATM   30  C25 UNL     1      21.595  40.766  26.365  1.00  0.00     0.172 C 
HETATM   31  O7  UNL     1      21.767  39.678  26.994  1.00  0.00    -0.648 OA
HETATM   32  O8  UNL     1      22.525  41.070  25.396  1.00  0.00    -0.648 OA
ENDBRANCH  29  30
ENDBRANCH  28  29
ENDBRANCH  23  28
ENDBRANCH  17  23
BRANCH   1  33
HETATM   33  O1  UNL     1      18.753  42.111  20.800  1.00  0.00    -0.355 OA
BRANCH  33  34
HETATM   34  C6  UNL     1      19.210  43.411  20.962  1.00  0.00     0.175 C 
BRANCH  34  35
HETATM   35  C5  UNL     1      19.391  43.839  22.398  1.00  0.00     0.027 C 
BRANCH  35  36
HETATM   36  C4  UNL     1      20.812  43.539  22.844  1.00  0.00     0.006 C 
BRANCH  36  37
HETATM   37  C3  UNL     1      21.480  44.767  23.411  1.00  0.00     0.026 C 
BRANCH  37  38
HETATM   38  C2  UNL     1      22.545  44.361  24.355  1.00  0.00    -0.037 C 
HETATM   39  C1  UNL     1      22.465  44.660  25.634  1.00  0.00     0.007 C 
ENDBRANCH  37  38
ENDBRANCH  36  37
ENDBRANCH  35  36
ENDBRANCH  34  35
ENDBRANCH  33  34
ENDBRANCH   1  33
BRANCH   7  40
HETATM   40  O3  UNL     1      23.536  36.620  18.542  1.00  0.00    -0.395 OA
ATOM     41  H3  UNL     1      24.320  36.435  19.045  1.00  0.00     0.210 HD
ENDBRANCH   7  40
TORSDOF 13
ENDMDL
MODEL 4
REMARK VINA RESULT: -7.140876003      2.694      6.432
REMARK  13 active torsions:
REMARK  status: ('A' for Active; 'I' for Inactive)
REMARK    1  A    between atoms: C2_2  and  C3_3 
REMARK    2  A    between atoms: C3_3  and  C4_4 
REMARK    3  A    between atoms: C4_4  and  C5_5 
REMARK    4  A    between atoms: C5_5  and  C6_6 
REMARK    5  A    between atoms: C6_6  and  O1_7 
REMARK    6  A    between atoms: O1_7  and  C7_8 
REMARK    7  A    between atoms: C12_14  and  O3_15 
REMARK    8  A    between atoms: C21_26  and  C22_27 
REMARK    9  A    between atoms: C22_27  and  O5_28 
REMARK   10  A    between atoms: C22_27  and  O6_30 
REMARK   11  A    between atoms: C22_27  and  C23_32 
REMARK   12  A    between atoms: C23_32  and  C24_33 
REMARK   13  A    between atoms: C24_33  and  C25_34 
ROOT
HETATM    1  C7  UNL     1      20.275  36.919  22.519  1.00  0.00     0.048 C 
HETATM    2  C8  UNL     1      20.318  37.080  23.835  1.00  0.00     0.019 C 
HETATM    3  C9  UNL     1      19.738  38.237  24.559  1.00  0.00     0.089 C 
HETATM    4  C10 UNL     1      19.031  37.827  25.796  1.00  0.00     0.137 C 
HETATM    5  O2  UNL     1      19.054  36.700  26.247  1.00  0.00    -0.297 OA
HETATM    6  C11 UNL     1      18.248  38.858  26.524  1.00  0.00     0.110 C 
HETATM    7  C12 UNL     1      18.416  40.172  25.795  1.00  0.00     0.126 C 
HETATM    8  C13 UNL     1      18.130  40.090  24.333  1.00  0.00     0.042 C 
HETATM    9  C14 UNL     1      18.659  38.854  23.656  1.00  0.00    -0.023 C 
HETATM   10  C15 UNL     1      17.508  37.899  23.499  1.00  0.00     0.016 C 
HETATM   11  C16 UNL     1      19.371  39.164  22.373  1.00  0.00     0.013 C 
HETATM   12  C17 UNL     1      20.632  39.918  22.744  1.00  0.00     0.084 C 
HETATM   13  C18 UNL     1      20.919  40.868  21.621  1.00  0.00     0.127 C 
HETATM   14  O4  UNL     1      21.397  41.952  21.899  1.00  0.00    -0.298 OA
HETATM   15  C19 UNL     1      20.647  40.550  20.191  1.00  0.00     0.084 C 
HETATM   16  C20 UNL     1      21.136  39.138  19.971  1.00  0.00     0.011 C 
HETATM   17  C21 UNL     1      21.498  38.901  18.530  1.00  0.00     0.053 C 
HETATM   18  C26 UNL     1      21.192  37.452  18.254  1.00  0.00     0.011 C 
HETATM   19  C27 UNL     1      20.855  36.866  19.652  1.00  0.00     0.011 C 
HETATM   20  C28 UNL     1      20.151  38.065  20.257  1.00  0.00    -0.030 C 
HETATM   21  C29 UNL     1      18.956  38.299  19.298  1.00  0.00     0.016 C 
HETATM   22  C30 UNL     1      19.637  37.886  21.612  1.00  0.00     0.056 C 
ENDROOT
BRANCH  17  23
HETATM   23  C22 UNL     1      22.969  39.098  18.251  1.00  0.00     0.163 C 
BRANCH  23  24
HETATM   24  O5  UNL     1      23.407  40.369  18.619  1.00  0.00    -0.365 OA
ATOM     25  H5  UNL     1      24.288  40.355  18.974  1.00  0.00     0.213 HD
ENDBRANCH  23  24
BRANCH  23  26
HETATM   26  O6  UNL     1      23.786  38.170  18.860  1.00  0.00    -0.365 OA
ATOM     27  H6  UNL     1      24.387  38.541  19.495  1.00  0.00     0.213 HD
ENDBRANCH  23  26
BRANCH  23  28
HETATM   28  C23 UNL     1      23.144  39.034  16.744  1.00  0.00     0.079 C 
BRANCH  28  29
HETATM   29  C24 UNL     1      24.387  38.257  16.366  1.00  0.00     0.118 C 
BRANCH  29  30
HETATM   30  C25 UNL     1      23.960  36.932  15.848  1.00  0.00     0.172 C 
HETATM   31  O7  UNL     1      23.899  35.914  16.601  1.00  0.00    -0.648 OA
HETATM   32  O8  UNL     1      23.613  36.744  14.528  1.00  0.00    -0.648 OA
ENDBRANCH  29  30
ENDBRANCH  28  29
ENDBRANCH  23  28
ENDBRANCH  17  23
BRANCH   1  33
HETATM   33  O1  UNL     1      20.868  35.776  22.042  1.00  0.00    -0.355 OA
BRANCH  33  34
HETATM   34  C6  UNL     1      20.600  34.457  22.376  1.00  0.00     0.175 C 
BRANCH  34  35
HETATM   35  C5  UNL     1      19.456  33.835  21.613  1.00  0.00     0.027 C 
BRANCH  35  36
HETATM   36  C4  UNL     1      19.857  33.643  20.159  1.00  0.00     0.006 C 
BRANCH  36  37
HETATM   37  C3  UNL     1      18.812  32.866  19.399  1.00  0.00     0.026 C 
BRANCH  37  38
HETATM   38  C2  UNL     1      17.944  32.139  20.351  1.00  0.00    -0.037 C 
HETATM   39  C1  UNL     1      17.334  31.027  19.999  1.00  0.00     0.007 C 
ENDBRANCH  37  38
ENDBRANCH  36  37
ENDBRANCH  35  36
ENDBRANCH  34  35
ENDBRANCH  33  34
ENDBRANCH   1  33
BRANCH   7  40
HETATM   40  O3  UNL     1      17.486  41.084  26.346  1.00  0.00    -0.395 OA
ATOM     41  H3  UNL     1      17.290  41.729  25.677  1.00  0.00     0.210 HD
ENDBRANCH   7  40
TORSDOF 13
ENDMDL
MODEL 5
REMARK VINA RESULT: -6.950024201      2.695      6.548
REMARK  13 active torsions:
REMARK  status: ('A' for Active; 'I' for Inactive)
REMARK    1  A    between atoms: C2_2  and  C3_3 
REMARK    2  A    between atoms: C3_3  and  C4_4 
REMARK    3  A    between atoms: C4_4  and  C5_5 
REMARK    4  A    between atoms: C5_5  and  C6_6 
REMARK    5  A    between atoms: C6_6  and  O1_7 
REMARK    6  A    between atoms: O1_7  and  C7_8 
REMARK    7  A    between atoms: C12_14  and  O3_15 
REMARK    8  A    between atoms: C21_26  and  C22_27 
REMARK    9  A    between atoms: C22_27  and  O5_28 
REMARK   10  A    between atoms: C22_27  and  O6_30 
REMARK   11  A    between atoms: C22_27  and  C23_32 
REMARK   12  A    between atoms: C23_32  and  C24_33 
REMARK   13  A    between atoms: C24_33  and  C25_34 
ROOT
HETATM    1  C7  UNL     1      20.331  36.910  22.550  1.00  0.00     0.048 C 
HETATM    2  C8  UNL     1      20.372  37.094  23.863  1.00  0.00     0.019 C 
HETATM    3  C9  UNL     1      19.774  38.254  24.567  1.00  0.00     0.089 C 
HETATM    4  C10 UNL     1      19.073  37.854  25.812  1.00  0.00     0.137 C 
HETATM    5  O2  UNL     1      19.115  36.735  26.281  1.00  0.00    -0.297 OA
HETATM    6  C11 UNL     1      18.275  38.885  26.522  1.00  0.00     0.110 C 
HETATM    7  C12 UNL     1      18.421  40.188  25.771  1.00  0.00     0.126 C 
HETATM    8  C13 UNL     1      18.136  40.077  24.311  1.00  0.00     0.042 C 
HETATM    9  C14 UNL     1      18.685  38.838  23.654  1.00  0.00    -0.023 C 
HETATM   10  C15 UNL     1      17.549  37.862  23.515  1.00  0.00     0.016 C 
HETATM   11  C16 UNL     1      19.391  39.138  22.366  1.00  0.00     0.013 C 
HETATM   12  C17 UNL     1      20.640  39.918  22.724  1.00  0.00     0.084 C 
HETATM   13  C18 UNL     1      20.911  40.854  21.584  1.00  0.00     0.127 C 
HETATM   14  O4  UNL     1      21.371  41.950  21.844  1.00  0.00    -0.298 OA
HETATM   15  C19 UNL     1      20.644  40.507  20.160  1.00  0.00     0.084 C 
HETATM   16  C20 UNL     1      21.156  39.100  19.964  1.00  0.00     0.011 C 
HETATM   17  C21 UNL     1      21.522  38.844  18.528  1.00  0.00     0.053 C 
HETATM   18  C26 UNL     1      21.239  37.386  18.276  1.00  0.00     0.011 C 
HETATM   19  C27 UNL     1      20.912  36.819  19.684  1.00  0.00     0.011 C 
HETATM   20  C28 UNL     1      20.188  38.016  20.269  1.00  0.00    -0.030 C 
HETATM   21  C29 UNL     1      18.989  38.214  19.307  1.00  0.00     0.016 C 
HETATM   22  C30 UNL     1      19.678  37.852  21.627  1.00  0.00     0.056 C 
ENDROOT
BRANCH  17  23
HETATM   23  C22 UNL     1      22.989  39.060  18.244  1.00  0.00     0.163 C 
BRANCH  23  24
HETATM   24  O5  UNL     1      23.410  40.339  18.605  1.00  0.00    -0.365 OA
ATOM     25  H5  UNL     1      23.023  41.012  18.058  1.00  0.00     0.213 HD
ENDBRANCH  23  24
BRANCH  23  26
HETATM   26  O6  UNL     1      23.820  38.146  18.856  1.00  0.00    -0.365 OA
ATOM     27  H6  UNL     1      23.364  37.506  19.390  1.00  0.00     0.213 HD
ENDBRANCH  23  26
BRANCH  23  28
HETATM   28  C23 UNL     1      23.162  38.992  16.738  1.00  0.00     0.079 C 
BRANCH  28  29
HETATM   29  C24 UNL     1      24.401  38.210  16.360  1.00  0.00     0.118 C 
BRANCH  29  30
HETATM   30  C25 UNL     1      23.971  36.881  15.853  1.00  0.00     0.172 C 
HETATM   31  O7  UNL     1      23.944  35.861  16.606  1.00  0.00    -0.648 OA
HETATM   32  O8  UNL     1      23.580  36.693  14.546  1.00  0.00    -0.648 OA
ENDBRANCH  29  30
ENDBRANCH  28  29
ENDBRANCH  23  28
ENDBRANCH  17  23
BRANCH   1  33
HETATM   33  O1  UNL     1      20.943  35.770  22.092  1.00  0.00    -0.355 OA
BRANCH  33  34
HETATM   34  C6  UNL     1      20.677  34.450  22.427  1.00  0.00     0.175 C 
BRANCH  34  35
HETATM   35  C5  UNL     1      19.466  33.861  21.745  1.00  0.00     0.027 C 
BRANCH  35  36
HETATM   36  C4  UNL     1      18.562  33.214  22.781  1.00  0.00     0.006 C 
BRANCH  36  37
HETATM   37  C3  UNL     1      18.544  34.005  24.065  1.00  0.00     0.026 C 
BRANCH  37  38
HETATM   38  C2  UNL     1      18.496  33.078  25.218  1.00  0.00    -0.037 C 
HETATM   39  C1  UNL     1      19.215  31.976  25.231  1.00  0.00     0.007 C 
ENDBRANCH  37  38
ENDBRANCH  36  37
ENDBRANCH  35  36
ENDBRANCH  34  35
ENDBRANCH  33  34
ENDBRANCH   1  33
BRANCH   7  40
HETATM   40  O3  UNL     1      17.476  41.094  26.307  1.00  0.00    -0.395 OA
ATOM     41  H3  UNL     1      17.826  41.418  27.128  1.00  0.00     0.210 HD
ENDBRANCH   7  40
TORSDOF 13
ENDMDL
