MODEL 1
REMARK VINA RESULT: -10.885327520      0.000      0.000
REMARK  6 active torsions:
REMARK  status: ('A' for Active; 'I' for Inactive)
REMARK    1  A    between atoms: C2_2  and  C4_4 
REMARK    2  A    between atoms: C8_8  and  C9_9 
REMARK    3  A    between atoms: C10_10  and  C11_11 
REMARK    4  A    between atoms: C18_22  and  C19_23 
REMARK    5  A    between atoms: C19_23  and  C20_24 
REMARK    6  A    between atoms: C20_24  and  N2_25 
ROOT
HETATM    1  N2  UNL     1      10.619  13.545 -20.886  1.00  0.00    -0.302 N 
HETATM    2  C21 UNL     1      10.271  12.322 -21.330  1.00  0.00     0.134 A 
HETATM    3  C22 UNL     1      10.630  12.192 -22.655  1.00  0.00     0.078 A 
HETATM    4  C23 UNL     1      10.443  11.057 -23.510  1.00  0.00     0.102 C 
HETATM    5  N3  UNL     1      10.294  10.129 -24.184  1.00  0.00    -0.191 NA
HETATM    6  C24 UNL     1      11.212  13.387 -22.998  1.00  0.00     0.131 A 
HETATM    7  N4  UNL     1      11.182  14.154 -21.915  1.00  0.00    -0.309 N 
ATOM      8  H4  UNL     1      11.551  15.105 -21.881  1.00  0.00     0.186 HD
ENDROOT
BRANCH   1   9
HETATM    9  C20 UNL     1      10.402  14.063 -19.527  1.00  0.00     0.153 C 
BRANCH   9  10
HETATM   10  C19 UNL     1      10.077  15.528 -19.686  1.00  0.00     0.063 C 
BRANCH  10  11
HETATM   11  C18 UNL     1      10.050  16.272 -18.428  1.00  0.00    -0.017 A 
HETATM   12  C11 UNL     1      11.072  17.098 -17.939  1.00  0.00     0.039 A 
HETATM   13  N1  UNL     1      10.612  17.562 -16.767  1.00  0.00    -0.353 N 
HETATM   14  C12 UNL     1       9.387  17.101 -16.472  1.00  0.00     0.083 A 
ATOM     15  H1  UNL     1      11.136  18.196 -16.164  1.00  0.00     0.166 HD
HETATM   16  C13 UNL     1       8.541  17.311 -15.386  1.00  0.00     0.146 A 
HETATM   17  C17 UNL     1       9.023  16.282 -17.518  1.00  0.00     0.005 A 
HETATM   18  F1  UNL     1       8.928  18.117 -14.379  1.00  0.00    -0.204 F 
HETATM   19  C14 UNL     1       7.325  16.705 -15.340  1.00  0.00     0.086 A 
HETATM   20  C15 UNL     1       6.933  15.883 -16.369  1.00  0.00     0.120 A 
HETATM   21  F2  UNL     1       5.703  15.262 -16.336  1.00  0.00    -0.206 F 
HETATM   22  C16 UNL     1       7.784  15.688 -17.433  1.00  0.00     0.056 A 
BRANCH  12  23
HETATM   23  C10 UNL     1      12.344  17.374 -18.587  1.00  0.00     0.026 C 
HETATM   24  C9  UNL     1      13.246  16.442 -18.710  1.00  0.00    -0.019 C 
BRANCH  24  25
HETATM   25  C8  UNL     1      14.557  16.644 -19.354  1.00  0.00     0.017 C 
HETATM   26  C7  UNL     1      15.355  15.385 -19.332  1.00  0.00     0.006 C 
HETATM   27  C6  UNL     1      14.833  14.317 -20.232  1.00  0.00     0.007 C 
HETATM   28  C28 UNL     1      16.780  15.605 -19.824  1.00  0.00    -0.018 C 
HETATM   29  C5  UNL     1      15.985  13.463 -20.675  1.00  0.00     0.006 C 
HETATM   30  C4  UNL     1      17.193  14.237 -20.197  1.00  0.00     0.001 C 
HETATM   31  C27 UNL     1      16.840  16.635 -20.870  1.00  0.00    -0.021 C 
HETATM   32  C29 UNL     1      17.629  16.050 -18.634  1.00  0.00     0.020 C 
HETATM   33  C26 UNL     1      15.806  17.343 -21.300  1.00  0.00    -0.029 C 
HETATM   34  C25 UNL     1      14.426  17.180 -20.761  1.00  0.00     0.035 C 
BRANCH  30  35
HETATM   35  C2  UNL     1      18.371  14.078 -21.086  1.00  0.00    -0.018 C 
HETATM   36  C1  UNL     1      19.441  13.374 -20.231  1.00  0.00     0.010 C 
HETATM   37  C3  UNL     1      18.160  13.242 -22.298  1.00  0.00     0.010 C 
ENDBRANCH  30  35
ENDBRANCH  24  25
ENDBRANCH  12  23
ENDBRANCH  10  11
ENDBRANCH   9  10
ENDBRANCH   1   9
TORSDOF 6
ENDMDL
MODEL 2
REMARK VINA RESULT: -10.017514321      1.289      2.014
REMARK  6 active torsions:
REMARK  status: ('A' for Active; 'I' for Inactive)
REMARK    1  A    between atoms: C2_2  and  C4_4 
REMARK    2  A    between atoms: C8_8  and  C9_9 
REMARK    3  A    between atoms: C10_10  and  C11_11 
REMARK    4  A    between atoms: C18_22  and  C19_23 
REMARK    5  A    between atoms: C19_23  and  C20_24 
REMARK    6  A    between atoms: C20_24  and  N2_25 
ROOT
HETATM    1  N2  UNL     1      11.394  14.821 -21.348  1.00  0.00    -0.302 N 
HETATM    2  C21 UNL     1      11.673  16.022 -21.892  1.00  0.00     0.134 A 
HETATM    3  C22 UNL     1      12.187  15.848 -23.160  1.00  0.00     0.078 A 
HETATM    4  C23 UNL     1      12.614  16.857 -24.083  1.00  0.00     0.102 C 
HETATM    5  N3  UNL     1      12.945  17.685 -24.819  1.00  0.00    -0.191 NA
HETATM    6  C24 UNL     1      12.207  14.490 -23.365  1.00  0.00     0.131 A 
HETATM    7  N4  UNL     1      11.727  13.927 -22.263  1.00  0.00    -0.309 N 
ATOM      8  H4  UNL     1      11.626  12.920 -22.137  1.00  0.00     0.186 HD
ENDROOT
BRANCH   1   9
HETATM    9  C20 UNL     1      10.833  14.591 -20.009  1.00  0.00     0.153 C 
BRANCH   9  10
HETATM   10  C19 UNL     1       9.802  15.674 -19.798  1.00  0.00     0.063 C 
BRANCH  10  11
HETATM   11  C18 UNL     1       9.882  16.324 -18.491  1.00  0.00    -0.017 A 
HETATM   12  C11 UNL     1      10.974  17.056 -18.002  1.00  0.00     0.039 A 
HETATM   13  N1  UNL     1      10.601  17.457 -16.778  1.00  0.00    -0.353 N 
HETATM   14  C12 UNL     1       9.368  17.044 -16.450  1.00  0.00     0.083 A 
ATOM     15  H1  UNL     1      11.191  18.016 -16.162  1.00  0.00     0.166 HD
HETATM   16  C13 UNL     1       8.591  17.222 -15.307  1.00  0.00     0.146 A 
HETATM   17  C17 UNL     1       8.904  16.324 -17.529  1.00  0.00     0.005 A 
HETATM   18  F1  UNL     1       9.075  17.930 -14.269  1.00  0.00    -0.204 F 
HETATM   19  C14 UNL     1       7.346  16.681 -15.237  1.00  0.00     0.086 A 
HETATM   20  C15 UNL     1       6.855  15.959 -16.298  1.00  0.00     0.120 A 
HETATM   21  F2  UNL     1       5.594  15.405 -16.242  1.00  0.00    -0.206 F 
HETATM   22  C16 UNL     1       7.639  15.795 -17.418  1.00  0.00     0.056 A 
BRANCH  12  23
HETATM   23  C10 UNL     1      12.225  17.308 -18.699  1.00  0.00     0.026 C 
HETATM   24  C9  UNL     1      13.256  16.531 -18.520  1.00  0.00    -0.019 C 
BRANCH  24  25
HETATM   25  C8  UNL     1      14.557  16.721 -19.188  1.00  0.00     0.017 C 
HETATM   26  C7  UNL     1      15.325  15.444 -19.219  1.00  0.00     0.006 C 
HETATM   27  C6  UNL     1      14.758  14.413 -20.135  1.00  0.00     0.007 C 
HETATM   28  C28 UNL     1      16.744  15.645 -19.738  1.00  0.00    -0.018 C 
HETATM   29  C5  UNL     1      15.880  13.546 -20.628  1.00  0.00     0.006 C 
HETATM   30  C4  UNL     1      17.116  14.279 -20.157  1.00  0.00     0.001 C 
HETATM   31  C27 UNL     1      16.804  16.701 -20.756  1.00  0.00    -0.021 C 
HETATM   32  C29 UNL     1      17.629  16.037 -18.556  1.00  0.00     0.020 C 
HETATM   33  C26 UNL     1      15.777  17.445 -21.144  1.00  0.00    -0.029 C 
HETATM   34  C25 UNL     1      14.406  17.298 -20.577  1.00  0.00     0.035 C 
BRANCH  30  35
HETATM   35  C2  UNL     1      18.270  14.118 -21.077  1.00  0.00    -0.018 C 
HETATM   36  C1  UNL     1      19.340  13.360 -20.269  1.00  0.00     0.010 C 
HETATM   37  C3  UNL     1      18.010  13.325 -22.308  1.00  0.00     0.010 C 
ENDBRANCH  30  35
ENDBRANCH  24  25
ENDBRANCH  12  23
ENDBRANCH  10  11
ENDBRANCH   9  10
ENDBRANCH   1   9
TORSDOF 6
ENDMDL
MODEL 3
REMARK VINA RESULT: -9.599852955      1.149      1.559
REMARK  6 active torsions:
REMARK  status: ('A' for Active; 'I' for Inactive)
REMARK    1  A    between atoms: C2_2  and  C4_4 
REMARK    2  A    between atoms: C8_8  and  C9_9 
REMARK    3  A    between atoms: C10_10  and  C11_11 
REMARK    4  A    between atoms: C18_22  and  C19_23 
REMARK    5  A    between atoms: C19_23  and  C20_24 
REMARK    6  A    between atoms: C20_24  and  N2_25 
ROOT
HETATM    1  N2  UNL     1      10.475  13.461 -20.248  1.00  0.00    -0.302 N 
HETATM    2  C21 UNL     1      11.520  13.035 -19.511  1.00  0.00     0.134 A 
HETATM    3  C22 UNL     1      12.262  12.129 -20.240  1.00  0.00     0.078 A 
HETATM    4  C23 UNL     1      13.449  11.436 -19.836  1.00  0.00     0.102 C 
HETATM    5  N3  UNL     1      14.412  10.892 -19.498  1.00  0.00    -0.191 NA
HETATM    6  C24 UNL     1      11.625  12.024 -21.452  1.00  0.00     0.131 A 
HETATM    7  N4  UNL     1      10.573  12.832 -21.406  1.00  0.00    -0.309 N 
ATOM      8  H4  UNL     1       9.916  12.955 -22.177  1.00  0.00     0.186 HD
ENDROOT
BRANCH   1   9
HETATM    9  C20 UNL     1       9.456  14.429 -19.818  1.00  0.00     0.153 C 
BRANCH   9  10
HETATM   10  C19 UNL     1      10.142  15.773 -19.794  1.00  0.00     0.063 C 
BRANCH  10  11
HETATM   11  C18 UNL     1      10.132  16.423 -18.485  1.00  0.00    -0.017 A 
HETATM   12  C11 UNL     1      11.174  17.184 -17.936  1.00  0.00     0.039 A 
HETATM   13  N1  UNL     1      10.722  17.573 -16.734  1.00  0.00    -0.353 N 
HETATM   14  C12 UNL     1       9.486  17.124 -16.475  1.00  0.00     0.083 A 
ATOM     15  H1  UNL     1      11.262  18.147 -16.086  1.00  0.00     0.166 HD
HETATM   16  C13 UNL     1       8.642  17.277 -15.376  1.00  0.00     0.146 A 
HETATM   17  C17 UNL     1       9.103  16.394 -17.578  1.00  0.00     0.005 A 
HETATM   18  F1  UNL     1       9.048  17.997 -14.313  1.00  0.00    -0.204 F 
HETATM   19  C14 UNL     1       7.411  16.701 -15.375  1.00  0.00     0.086 A 
HETATM   20  C15 UNL     1       7.000  15.967 -16.462  1.00  0.00     0.120 A 
HETATM   21  F2  UNL     1       5.754  15.378 -16.475  1.00  0.00    -0.206 F 
HETATM   22  C16 UNL     1       7.849  15.828 -17.537  1.00  0.00     0.056 A 
BRANCH  12  23
HETATM   23  C10 UNL     1      12.454  17.473 -18.562  1.00  0.00     0.026 C 
HETATM   24  C9  UNL     1      13.328  16.527 -18.761  1.00  0.00    -0.019 C 
BRANCH  24  25
HETATM   25  C8  UNL     1      14.645  16.741 -19.389  1.00  0.00     0.017 C 
HETATM   26  C7  UNL     1      15.449  15.486 -19.367  1.00  0.00     0.006 C 
HETATM   27  C6  UNL     1      14.943  14.422 -20.281  1.00  0.00     0.007 C 
HETATM   28  C28 UNL     1      16.878  15.717 -19.841  1.00  0.00    -0.018 C 
HETATM   29  C5  UNL     1      16.105  13.577 -20.717  1.00  0.00     0.006 C 
HETATM   30  C4  UNL     1      17.303  14.355 -20.219  1.00  0.00     0.001 C 
HETATM   31  C27 UNL     1      16.945  16.755 -20.878  1.00  0.00    -0.021 C 
HETATM   32  C29 UNL     1      17.711  16.157 -18.638  1.00  0.00     0.020 C 
HETATM   33  C26 UNL     1      15.912  17.461 -21.315  1.00  0.00    -0.029 C 
HETATM   34  C25 UNL     1      14.527  17.286 -20.793  1.00  0.00     0.035 C 
BRANCH  30  35
HETATM   35  C2  UNL     1      18.492  14.208 -21.096  1.00  0.00    -0.018 C 
HETATM   36  C1  UNL     1      19.558  13.509 -20.232  1.00  0.00     0.010 C 
HETATM   37  C3  UNL     1      18.301  13.375 -22.313  1.00  0.00     0.010 C 
ENDBRANCH  30  35
ENDBRANCH  24  25
ENDBRANCH  12  23
ENDBRANCH  10  11
ENDBRANCH   9  10
ENDBRANCH   1   9
TORSDOF 6
ENDMDL
MODEL 4
REMARK VINA RESULT: -9.189267695      2.460      4.620
REMARK  6 active torsions:
REMARK  status: ('A' for Active; 'I' for Inactive)
REMARK    1  A    between atoms: C2_2  and  C4_4 
REMARK    2  A    between atoms: C8_8  and  C9_9 
REMARK    3  A    between atoms: C10_10  and  C11_11 
REMARK    4  A    between atoms: C18_22  and  C19_23 
REMARK    5  A    between atoms: C19_23  and  C20_24 
REMARK    6  A    between atoms: C20_24  and  N2_25 
ROOT
HETATM    1  N2  UNL     1      12.918  18.294 -18.389  1.00  0.00    -0.302 N 
HETATM    2  C21 UNL     1      13.853  17.437 -17.933  1.00  0.00     0.134 A 
HETATM    3  C22 UNL     1      14.987  17.533 -18.711  1.00  0.00     0.078 A 
HETATM    4  C23 UNL     1      16.213  16.802 -18.575  1.00  0.00     0.102 C 
HETATM    5  N3  UNL     1      17.198  16.211 -18.445  1.00  0.00    -0.191 NA
HETATM    6  C24 UNL     1      14.704  18.486 -19.659  1.00  0.00     0.131 A 
HETATM    7  N4  UNL     1      13.467  18.906 -19.424  1.00  0.00    -0.309 N 
ATOM      8  H4  UNL     1      12.994  19.619 -19.979  1.00  0.00     0.186 HD
ENDROOT
BRANCH   1   9
HETATM    9  C20 UNL     1      11.575  18.484 -17.824  1.00  0.00     0.153 C 
BRANCH   9  10
HETATM   10  C19 UNL     1      11.320  17.284 -16.943  1.00  0.00     0.063 C 
BRANCH  10  11
HETATM   11  C18 UNL     1      10.007  16.671 -17.137  1.00  0.00    -0.017 A 
HETATM   12  C11 UNL     1       9.645  15.820 -18.190  1.00  0.00     0.039 A 
HETATM   13  N1  UNL     1       8.360  15.510 -17.959  1.00  0.00    -0.353 N 
HETATM   14  C12 UNL     1       7.879  16.091 -16.851  1.00  0.00     0.083 A 
ATOM     15  H1  UNL     1       7.809  14.899 -18.561  1.00  0.00     0.166 HD
HETATM   16  C13 UNL     1       6.628  16.053 -16.238  1.00  0.00     0.146 A 
HETATM   17  C17 UNL     1       8.914  16.830 -16.322  1.00  0.00     0.005 A 
HETATM   18  F1  UNL     1       5.636  15.321 -16.781  1.00  0.00    -0.204 F 
HETATM   19  C14 UNL     1       6.406  16.754 -15.094  1.00  0.00     0.086 A 
HETATM   20  C15 UNL     1       7.420  17.499 -14.543  1.00  0.00     0.120 A 
HETATM   21  F2  UNL     1       7.210  18.214 -13.384  1.00  0.00    -0.206 F 
HETATM   22  C16 UNL     1       8.649  17.523 -15.164  1.00  0.00     0.056 A 
BRANCH  12  23
HETATM   23  C10 UNL     1      10.502  15.384 -19.282  1.00  0.00     0.026 C 
HETATM   24  C9  UNL     1      10.736  16.166 -20.298  1.00  0.00    -0.019 C 
BRANCH  24  25
HETATM   25  C8  UNL     1      11.592  15.796 -21.441  1.00  0.00     0.017 C 
HETATM   26  C7  UNL     1      13.021  15.720 -21.025  1.00  0.00     0.006 C 
HETATM   27  C6  UNL     1      13.336  14.565 -20.135  1.00  0.00     0.007 C 
HETATM   28  C28 UNL     1      13.951  15.520 -22.215  1.00  0.00    -0.018 C 
HETATM   29  C5  UNL     1      14.768  14.171 -20.356  1.00  0.00     0.006 C 
HETATM   30  C4  UNL     1      15.164  14.977 -21.572  1.00  0.00     0.001 C 
HETATM   31  C27 UNL     1      13.323  14.704 -23.263  1.00  0.00    -0.021 C 
HETATM   32  C29 UNL     1      14.291  16.895 -22.787  1.00  0.00     0.020 C 
HETATM   33  C26 UNL     1      12.080  14.245 -23.227  1.00  0.00    -0.029 C 
HETATM   34  C25 UNL     1      11.147  14.509 -22.096  1.00  0.00     0.035 C 
BRANCH  30  35
HETATM   35  C2  UNL     1      16.159  14.282 -22.427  1.00  0.00    -0.018 C 
HETATM   36  C1  UNL     1      17.353  15.247 -22.539  1.00  0.00     0.010 C 
HETATM   37  C3  UNL     1      16.686  12.996 -21.893  1.00  0.00     0.010 C 
ENDBRANCH  30  35
ENDBRANCH  24  25
ENDBRANCH  12  23
ENDBRANCH  10  11
ENDBRANCH   9  10
ENDBRANCH   1   9
TORSDOF 6
ENDMDL
MODEL 5
REMARK VINA RESULT: -8.776242099      3.974      7.194
REMARK  6 active torsions:
REMARK  status: ('A' for Active; 'I' for Inactive)
REMARK    1  A    between atoms: C2_2  and  C4_4 
REMARK    2  A    between atoms: C8_8  and  C9_9 
REMARK    3  A    between atoms: C10_10  and  C11_11 
REMARK    4  A    between atoms: C18_22  and  C19_23 
REMARK    5  A    between atoms: C19_23  and  C20_24 
REMARK    6  A    between atoms: C20_24  and  N2_25 
ROOT
HETATM    1  N2  UNL     1      10.141  13.815 -19.729  1.00  0.00    -0.302 N 
HETATM    2  C21 UNL     1       9.424  14.839 -19.227  1.00  0.00     0.134 A 
HETATM    3  C22 UNL     1      10.105  15.408 -18.171  1.00  0.00     0.078 A 
HETATM    4  C23 UNL     1       9.701  16.517 -17.358  1.00  0.00     0.102 C 
HETATM    5  N3  UNL     1       9.365  17.419 -16.718  1.00  0.00    -0.191 NA
HETATM    6  C24 UNL     1      11.267  14.687 -18.053  1.00  0.00     0.131 A 
HETATM    7  N4  UNL     1      11.241  13.756 -18.999  1.00  0.00    -0.309 N 
ATOM      8  H4  UNL     1      11.985  13.073 -19.145  1.00  0.00     0.186 HD
ENDROOT
BRANCH   1   9
HETATM    9  C20 UNL     1       9.750  12.961 -20.860  1.00  0.00     0.153 C 
BRANCH   9  10
HETATM   10  C19 UNL     1      11.036  12.552 -21.536  1.00  0.00     0.063 C 
BRANCH  10  11
HETATM   11  C18 UNL     1      11.079  12.857 -22.966  1.00  0.00    -0.017 A 
HETATM   12  C11 UNL     1      11.351  14.110 -23.531  1.00  0.00     0.039 A 
HETATM   13  N1  UNL     1      11.282  13.914 -24.857  1.00  0.00    -0.353 N 
HETATM   14  C12 UNL     1      10.991  12.646 -25.179  1.00  0.00     0.083 A 
ATOM     15  H1  UNL     1      11.434  14.651 -25.546  1.00  0.00     0.166 HD
HETATM   16  C13 UNL     1      10.824  12.002 -26.403  1.00  0.00     0.146 A 
HETATM   17  C17 UNL     1      10.860  11.967 -23.987  1.00  0.00     0.005 A 
HETATM   18  F1  UNL     1      10.958  12.695 -27.550  1.00  0.00    -0.204 F 
HETATM   19  C14 UNL     1      10.524  10.677 -26.443  1.00  0.00     0.086 A 
HETATM   20  C15 UNL     1      10.388   9.972 -25.271  1.00  0.00     0.120 A 
HETATM   21  F2  UNL     1      10.085   8.629 -25.295  1.00  0.00    -0.206 F 
HETATM   22  C16 UNL     1      10.558  10.627 -24.071  1.00  0.00     0.056 A 
BRANCH  12  23
HETATM   23  C10 UNL     1      11.643  15.338 -22.809  1.00  0.00     0.026 C 
HETATM   24  C9  UNL     1      12.855  15.606 -22.411  1.00  0.00    -0.019 C 
BRANCH  24  25
HETATM   25  C8  UNL     1      13.228  16.828 -21.675  1.00  0.00     0.017 C 
HETATM   26  C7  UNL     1      13.168  16.596 -20.204  1.00  0.00     0.006 C 
HETATM   27  C6  UNL     1      14.237  15.694 -19.686  1.00  0.00     0.007 C 
HETATM   28  C28 UNL     1      13.370  17.884 -19.415  1.00  0.00    -0.018 C 
HETATM   29  C5  UNL     1      14.533  16.076 -18.264  1.00  0.00     0.006 C 
HETATM   30  C4  UNL     1      13.777  17.374 -18.091  1.00  0.00     0.001 C 
HETATM   31  C27 UNL     1      14.296  18.798 -20.097  1.00  0.00    -0.021 C 
HETATM   32  C29 UNL     1      12.011  18.566 -19.266  1.00  0.00     0.020 C 
HETATM   33  C26 UNL     1      14.846  18.579 -21.283  1.00  0.00    -0.029 C 
HETATM   34  C25 UNL     1      14.585  17.352 -22.088  1.00  0.00     0.035 C 
BRANCH  30  35
HETATM   35  C2  UNL     1      14.445  18.312 -17.154  1.00  0.00    -0.018 C 
HETATM   36  C1  UNL     1      15.919  18.359 -17.599  1.00  0.00     0.010 C 
HETATM   37  C3  UNL     1      13.940  19.711 -17.167  1.00  0.00     0.010 C 
ENDBRANCH  30  35
ENDBRANCH  24  25
ENDBRANCH  12  23
ENDBRANCH  10  11
ENDBRANCH   9  10
ENDBRANCH   1   9
TORSDOF 6
ENDMDL
