MODEL 1
REMARK VINA RESULT: -9.056660308      0.000      0.000
REMARK  5 active torsions:
REMARK  status: ('A' for Active; 'I' for Inactive)
REMARK    1  A    between atoms: C5_6  and  C6_7 
REMARK    2  A    between atoms: N2_17  and  C13_18 
REMARK    3  A    between atoms: N3_21  and  C16_22 
REMARK    4  A    between atoms: C16_22  and  C17_23 
REMARK    5  A    between atoms: C17_23  and  C18_24 
ROOT
HETATM    1 CL1  UNL     1      11.216  12.105 -23.487  1.00  0.00    -0.082 Cl
HETATM    2  C1  UNL     1      10.711  13.015 -22.106  1.00  0.00     0.058 A 
HETATM    3  C2  UNL     1       9.442  12.817 -21.592  1.00  0.00     0.026 A 
HETATM    4  C3  UNL     1       9.080  13.559 -20.495  1.00  0.00     0.016 A 
HETATM    5  C4  UNL     1       9.964  14.463 -19.943  1.00  0.00     0.004 A 
HETATM    6  C5  UNL     1       9.795  15.277 -18.874  1.00  0.00    -0.007 A 
HETATM    7  C12 UNL     1      10.980  15.963 -18.759  1.00  0.00     0.109 A 
HETATM    8  N2  UNL     1      11.891  15.614 -19.715  1.00  0.00    -0.327 N 
HETATM    9  C26 UNL     1      11.251  14.678 -20.448  1.00  0.00     0.073 A 
HETATM   10  C27 UNL     1      11.590  13.925 -21.544  1.00  0.00     0.083 A 
HETATM   11 CL2  UNL     1      13.159  14.090 -22.263  1.00  0.00    -0.080 Cl
ENDROOT
BRANCH   8  12
HETATM   12  C13 UNL     1      13.250  16.137 -19.909  1.00  0.00    -0.003 C 
HETATM   13  C14 UNL     1      14.391  15.340 -19.473  1.00  0.00     0.072 C 
HETATM   14  C15 UNL     1      15.523  16.309 -19.041  1.00  0.00     0.122 C 
HETATM   15  N3  UNL     1      15.743  17.339 -20.016  1.00  0.00    -0.412 N 
HETATM   16  C24 UNL     1      14.590  18.135 -20.335  1.00  0.00     0.122 C 
HETATM   17  C25 UNL     1      13.417  17.258 -20.847  1.00  0.00     0.072 C 
BRANCH  15  18
HETATM   18  C16 UNL     1      16.567  16.980 -21.123  1.00  0.00     0.117 C 
BRANCH  18  19
HETATM   19  C17 UNL     1      17.839  16.277 -20.719  1.00  0.00     0.024 C 
BRANCH  19  20
HETATM   20  C18 UNL     1      18.316  15.270 -21.712  1.00  0.00    -0.013 C 
HETATM   21  C19 UNL     1      17.131  14.650 -22.440  1.00  0.00     0.005 C 
HETATM   22  C20 UNL     1      16.883  13.235 -22.027  1.00  0.00     0.000 C 
HETATM   23  C21 UNL     1      17.041  13.036 -20.532  1.00  0.00     0.000 C 
HETATM   24  C22 UNL     1      18.418  13.429 -20.045  1.00  0.00     0.000 C 
HETATM   25  C23 UNL     1      19.172  14.208 -21.107  1.00  0.00     0.005 C 
ENDBRANCH  19  20
ENDBRANCH  18  19
ENDBRANCH  15  18
ENDBRANCH   8  12
BRANCH   6  26
HETATM   26  C6  UNL     1       8.589  15.388 -18.066  1.00  0.00     0.018 C 
HETATM   27  C7  UNL     1       8.365  16.254 -17.108  1.00  0.00    -0.054 C 
HETATM   28  C8  UNL     1       7.050  16.193 -16.408  1.00  0.00     0.037 C 
HETATM   29  C11 UNL     1       9.330  17.284 -16.676  1.00  0.00     0.266 C 
HETATM   30  C9  UNL     1       7.199  16.508 -14.957  1.00  0.00     0.032 C 
HETATM   31  C10 UNL     1       8.068  17.711 -14.677  1.00  0.00     0.233 C 
HETATM   32  N1  UNL     1       9.381  17.478 -15.237  1.00  0.00    -0.072 N 
ATOM     33  H12 UNL     1      10.029  18.226 -14.987  1.00  0.00     0.277 HD
ATOM     34  H11 UNL     1       9.849  16.699 -14.774  1.00  0.00     0.277 HD
ENDBRANCH   6  26
TORSDOF 5
ENDMDL
MODEL 2
REMARK VINA RESULT: -8.825514160      3.437      5.955
REMARK  5 active torsions:
REMARK  status: ('A' for Active; 'I' for Inactive)
REMARK    1  A    between atoms: C5_6  and  C6_7 
REMARK    2  A    between atoms: N2_17  and  C13_18 
REMARK    3  A    between atoms: N3_21  and  C16_22 
REMARK    4  A    between atoms: C16_22  and  C17_23 
REMARK    5  A    between atoms: C17_23  and  C18_24 
ROOT
HETATM    1 CL1  UNL     1       9.803  10.698 -18.645  1.00  0.00    -0.082 Cl
HETATM    2  C1  UNL     1      10.106  11.590 -20.095  1.00  0.00     0.058 A 
HETATM    3  C2  UNL     1       9.326  11.351 -21.212  1.00  0.00     0.026 A 
HETATM    4  C3  UNL     1       9.599  12.081 -22.343  1.00  0.00     0.016 A 
HETATM    5  C4  UNL     1      10.618  13.012 -22.342  1.00  0.00     0.004 A 
HETATM    6  C5  UNL     1      11.035  13.820 -23.345  1.00  0.00    -0.007 A 
HETATM    7  C12 UNL     1      12.074  14.542 -22.810  1.00  0.00     0.109 A 
HETATM    8  N2  UNL     1      12.329  14.221 -21.507  1.00  0.00    -0.327 N 
HETATM    9  C26 UNL     1      11.418  13.268 -21.223  1.00  0.00     0.073 A 
HETATM   10  C27 UNL     1      11.125  12.527 -20.105  1.00  0.00     0.083 A 
HETATM   11 CL2  UNL     1      12.037  12.752 -18.648  1.00  0.00    -0.080 Cl
ENDROOT
BRANCH   8  12
HETATM   12  C13 UNL     1      13.361  14.776 -20.620  1.00  0.00    -0.003 C 
HETATM   13  C14 UNL     1      14.579  14.014 -20.377  1.00  0.00     0.072 C 
HETATM   14  C15 UNL     1      15.074  14.336 -18.941  1.00  0.00     0.122 C 
HETATM   15  N3  UNL     1      15.092  15.749 -18.689  1.00  0.00    -0.412 N 
HETATM   16  C24 UNL     1      13.833  16.417 -18.873  1.00  0.00     0.122 C 
HETATM   17  C25 UNL     1      13.285  16.213 -20.310  1.00  0.00     0.072 C 
BRANCH  15  18
HETATM   18  C16 UNL     1      16.237  16.451 -19.167  1.00  0.00     0.117 C 
BRANCH  18  19
HETATM   19  C17 UNL     1      17.453  15.573 -19.326  1.00  0.00     0.024 C 
BRANCH  19  20
HETATM   20  C18 UNL     1      18.232  15.838 -20.571  1.00  0.00    -0.013 C 
HETATM   21  C19 UNL     1      17.286  16.074 -21.741  1.00  0.00     0.005 C 
HETATM   22  C20 UNL     1      17.279  14.934 -22.709  1.00  0.00     0.000 C 
HETATM   23  C21 UNL     1      17.299  13.588 -22.012  1.00  0.00     0.000 C 
HETATM   24  C22 UNL     1      18.505  13.428 -21.112  1.00  0.00     0.000 C 
HETATM   25  C23 UNL     1      19.206  14.756 -20.897  1.00  0.00     0.005 C 
ENDBRANCH  19  20
ENDBRANCH  18  19
ENDBRANCH  15  18
ENDBRANCH   8  12
BRANCH   6  26
HETATM   26  C6  UNL     1      10.488  13.861 -24.694  1.00  0.00     0.018 C 
HETATM   27  C7  UNL     1      10.546  12.907 -25.592  1.00  0.00    -0.054 C 
HETATM   28  C8  UNL     1       9.912  13.159 -26.917  1.00  0.00     0.037 C 
HETATM   29  C11 UNL     1      11.200  11.602 -25.376  1.00  0.00     0.266 C 
HETATM   30  C9  UNL     1      10.702  12.535 -28.018  1.00  0.00     0.032 C 
HETATM   31  C10 UNL     1      11.144  11.120 -27.728  1.00  0.00     0.233 C 
HETATM   32  N1  UNL     1      11.946  11.118 -26.525  1.00  0.00    -0.072 N 
ATOM     33  H12 UNL     1      12.345  10.196 -26.347  1.00  0.00     0.277 HD
ATOM     34  H11 UNL     1      12.809  11.645 -26.655  1.00  0.00     0.277 HD
ENDBRANCH   6  26
TORSDOF 5
ENDMDL
MODEL 3
REMARK VINA RESULT: -8.287064500      2.575      8.719
REMARK  5 active torsions:
REMARK  status: ('A' for Active; 'I' for Inactive)
REMARK    1  A    between atoms: C5_6  and  C6_7 
REMARK    2  A    between atoms: N2_17  and  C13_18 
REMARK    3  A    between atoms: N3_21  and  C16_22 
REMARK    4  A    between atoms: C16_22  and  C17_23 
REMARK    5  A    between atoms: C17_23  and  C18_24 
ROOT
HETATM    1 CL1  UNL     1      17.031  16.205 -20.392  1.00  0.00    -0.082 Cl
HETATM    2  C1  UNL     1      15.572  15.777 -21.214  1.00  0.00     0.058 A 
HETATM    3  C2  UNL     1      15.645  15.236 -22.485  1.00  0.00     0.026 A 
HETATM    4  C3  UNL     1      14.463  14.909 -23.103  1.00  0.00     0.016 A 
HETATM    5  C4  UNL     1      13.260  15.121 -22.462  1.00  0.00     0.004 A 
HETATM    6  C5  UNL     1      12.003  14.868 -22.900  1.00  0.00    -0.007 A 
HETATM    7  C12 UNL     1      11.182  15.266 -21.872  1.00  0.00     0.109 A 
HETATM    8  N2  UNL     1      11.872  15.761 -20.803  1.00  0.00    -0.327 N 
HETATM    9  C26 UNL     1      13.165  15.667 -21.177  1.00  0.00     0.073 A 
HETATM   10  C27 UNL     1      14.359  15.985 -20.580  1.00  0.00     0.083 A 
HETATM   11 CL2  UNL     1      14.382  16.663 -18.984  1.00  0.00    -0.080 Cl
ENDROOT
BRANCH   8  12
HETATM   12  C13 UNL     1      11.334  16.283 -19.539  1.00  0.00    -0.003 C 
HETATM   13  C14 UNL     1      10.846  17.656 -19.483  1.00  0.00     0.072 C 
HETATM   14  C15 UNL     1      11.092  18.200 -18.051  1.00  0.00     0.122 C 
HETATM   15  N3  UNL     1      10.646  17.277 -17.046  1.00  0.00    -0.412 N 
HETATM   16  C24 UNL     1      11.232  15.966 -17.119  1.00  0.00     0.122 C 
HETATM   17  C25 UNL     1      10.979  15.305 -18.498  1.00  0.00     0.072 C 
BRANCH  15  18
HETATM   18  C16 UNL     1       9.252  17.311 -16.746  1.00  0.00     0.117 C 
BRANCH  18  19
HETATM   19  C17 UNL     1       8.960  17.386 -15.269  1.00  0.00     0.024 C 
BRANCH  19  20
HETATM   20  C18 UNL     1       7.812  16.536 -14.835  1.00  0.00    -0.013 C 
HETATM   21  C19 UNL     1       6.501  17.141 -15.316  1.00  0.00     0.005 C 
HETATM   22  C20 UNL     1       5.702  17.734 -14.200  1.00  0.00     0.000 C 
HETATM   23  C21 UNL     1       6.567  18.491 -13.213  1.00  0.00     0.000 C 
HETATM   24  C22 UNL     1       7.640  17.616 -12.603  1.00  0.00     0.000 C 
HETATM   25  C23 UNL     1       7.774  16.308 -13.361  1.00  0.00     0.005 C 
ENDBRANCH  19  20
ENDBRANCH  18  19
ENDBRANCH  15  18
ENDBRANCH   8  12
BRANCH   6  26
HETATM   26  C6  UNL     1      11.646  14.316 -24.199  1.00  0.00     0.018 C 
HETATM   27  C7  UNL     1      11.073  13.160 -24.428  1.00  0.00    -0.054 C 
HETATM   28  C8  UNL     1      10.791  12.791 -25.844  1.00  0.00     0.037 C 
HETATM   29  C11 UNL     1      10.689  12.199 -23.375  1.00  0.00     0.266 C 
HETATM   30  C9  UNL     1      10.986  11.329 -26.068  1.00  0.00     0.032 C 
HETATM   31  C10 UNL     1      10.370  10.458 -24.998  1.00  0.00     0.233 C 
HETATM   32  N1  UNL     1      10.946  10.812 -23.720  1.00  0.00    -0.072 N 
ATOM     33  H12 UNL     1      10.629  10.181 -22.984  1.00  0.00     0.277 HD
ATOM     34  H11 UNL     1      11.944  10.601 -23.693  1.00  0.00     0.277 HD
ENDBRANCH   6  26
TORSDOF 5
ENDMDL
MODEL 4
REMARK VINA RESULT: -7.933235432      2.135      3.758
REMARK  5 active torsions:
REMARK  status: ('A' for Active; 'I' for Inactive)
REMARK    1  A    between atoms: C5_6  and  C6_7 
REMARK    2  A    between atoms: N2_17  and  C13_18 
REMARK    3  A    between atoms: N3_21  and  C16_22 
REMARK    4  A    between atoms: C16_22  and  C17_23 
REMARK    5  A    between atoms: C17_23  and  C18_24 
ROOT
HETATM    1 CL1  UNL     1      13.940  19.497 -19.794  1.00  0.00    -0.082 Cl
HETATM    2  C1  UNL     1      12.658  18.432 -19.334  1.00  0.00     0.058 A 
HETATM    3  C2  UNL     1      11.480  18.965 -18.838  1.00  0.00     0.026 A 
HETATM    4  C3  UNL     1      10.487  18.085 -18.485  1.00  0.00     0.016 A 
HETATM    5  C4  UNL     1      10.677  16.726 -18.627  1.00  0.00     0.004 A 
HETATM    6  C5  UNL     1       9.827  15.711 -18.339  1.00  0.00    -0.007 A 
HETATM    7  C12 UNL     1      10.515  14.568 -18.669  1.00  0.00     0.109 A 
HETATM    8  N2  UNL     1      11.766  14.822 -19.154  1.00  0.00    -0.327 N 
HETATM    9  C26 UNL     1      11.859  16.168 -19.126  1.00  0.00     0.073 A 
HETATM   10  C27 UNL     1      12.837  17.066 -19.473  1.00  0.00     0.083 A 
HETATM   11 CL2  UNL     1      14.348  16.506 -20.111  1.00  0.00    -0.080 Cl
ENDROOT
BRANCH   8  12
HETATM   12  C13 UNL     1      12.781  13.856 -19.599  1.00  0.00    -0.003 C 
HETATM   13  C14 UNL     1      13.285  13.928 -20.965  1.00  0.00     0.072 C 
HETATM   14  C15 UNL     1      13.651  12.491 -21.423  1.00  0.00     0.122 C 
HETATM   15  N3  UNL     1      14.441  11.805 -20.439  1.00  0.00    -0.412 N 
HETATM   16  C24 UNL     1      13.842  11.706 -19.137  1.00  0.00     0.122 C 
HETATM   17  C25 UNL     1      13.500  13.104 -18.559  1.00  0.00     0.072 C 
BRANCH  15  18
HETATM   18  C16 UNL     1      15.837  12.093 -20.454  1.00  0.00     0.117 C 
BRANCH  18  19
HETATM   19  C17 UNL     1      16.209  13.204 -21.403  1.00  0.00     0.024 C 
BRANCH  19  20
HETATM   20  C18 UNL     1      17.679  13.434 -21.519  1.00  0.00    -0.013 C 
HETATM   21  C19 UNL     1      18.352  13.213 -20.172  1.00  0.00     0.005 C 
HETATM   22  C20 UNL     1      18.813  14.491 -19.547  1.00  0.00     0.000 C 
HETATM   23  C21 UNL     1      17.803  15.609 -19.714  1.00  0.00     0.000 C 
HETATM   24  C22 UNL     1      17.492  15.888 -21.168  1.00  0.00     0.000 C 
HETATM   25  C23 UNL     1      18.022  14.781 -22.061  1.00  0.00     0.005 C 
ENDBRANCH  19  20
ENDBRANCH  18  19
ENDBRANCH  15  18
ENDBRANCH   8  12
BRANCH   6  26
HETATM   26  C6  UNL     1       8.492  15.849 -17.775  1.00  0.00     0.018 C 
HETATM   27  C7  UNL     1       8.155  16.551 -16.721  1.00  0.00    -0.054 C 
HETATM   28  C8  UNL     1       6.721  16.557 -16.317  1.00  0.00     0.037 C 
HETATM   29  C11 UNL     1       9.105  17.336 -15.907  1.00  0.00     0.266 C 
HETATM   30  C9  UNL     1       6.581  16.581 -14.832  1.00  0.00     0.032 C 
HETATM   31  C10 UNL     1       7.489  17.575 -14.147  1.00  0.00     0.233 C 
HETATM   32  N1  UNL     1       8.861  17.259 -14.477  1.00  0.00    -0.072 N 
ATOM     33  H12 UNL     1       9.512  17.847 -13.957  1.00  0.00     0.277 HD
ATOM     34  H11 UNL     1       9.132  16.350 -14.103  1.00  0.00     0.277 HD
ENDBRANCH   6  26
TORSDOF 5
ENDMDL
MODEL 5
REMARK VINA RESULT: -7.835070813      3.104      8.113
REMARK  5 active torsions:
REMARK  status: ('A' for Active; 'I' for Inactive)
REMARK    1  A    between atoms: C5_6  and  C6_7 
REMARK    2  A    between atoms: N2_17  and  C13_18 
REMARK    3  A    between atoms: N3_21  and  C16_22 
REMARK    4  A    between atoms: C16_22  and  C17_23 
REMARK    5  A    between atoms: C17_23  and  C18_24 
ROOT
HETATM    1 CL1  UNL     1      10.880  18.976 -18.211  1.00  0.00    -0.082 Cl
HETATM    2  C1  UNL     1      12.224  17.932 -18.512  1.00  0.00     0.058 A 
HETATM    3  C2  UNL     1      13.506  18.390 -18.261  1.00  0.00     0.026 A 
HETATM    4  C3  UNL     1      14.546  17.529 -18.513  1.00  0.00     0.016 A 
HETATM    5  C4  UNL     1      14.299  16.261 -18.998  1.00  0.00     0.004 A 
HETATM    6  C5  UNL     1      15.180  15.279 -19.305  1.00  0.00    -0.007 A 
HETATM    7  C12 UNL     1      14.405  14.231 -19.742  1.00  0.00     0.109 A 
HETATM    8  N2  UNL     1      13.069  14.514 -19.723  1.00  0.00    -0.327 N 
HETATM    9  C26 UNL     1      13.011  15.780 -19.258  1.00  0.00     0.073 A 
HETATM   10  C27 UNL     1      11.988  16.658 -18.998  1.00  0.00     0.083 A 
HETATM   11 CL2  UNL     1      10.343  16.183 -19.270  1.00  0.00    -0.080 Cl
ENDROOT
BRANCH   8  12
HETATM   12  C13 UNL     1      11.951  13.648 -20.122  1.00  0.00    -0.003 C 
HETATM   13  C14 UNL     1      11.265  13.904 -21.383  1.00  0.00     0.072 C 
HETATM   14  C15 UNL     1       9.781  13.478 -21.222  1.00  0.00     0.122 C 
HETATM   15  N3  UNL     1       9.662  12.175 -20.632  1.00  0.00    -0.412 N 
HETATM   16  C24 UNL     1      10.298  12.023 -19.352  1.00  0.00     0.122 C 
HETATM   17  C25 UNL     1      11.810  12.360 -19.425  1.00  0.00     0.072 C 
BRANCH  15  18
HETATM   18  C16 UNL     1       9.809  11.074 -21.526  1.00  0.00     0.117 C 
BRANCH  18  19
HETATM   19  C17 UNL     1       9.673  11.460 -22.978  1.00  0.00     0.024 C 
BRANCH  19  20
HETATM   20  C18 UNL     1      10.977  11.610 -23.689  1.00  0.00    -0.013 C 
HETATM   21  C19 UNL     1      10.881  12.716 -24.731  1.00  0.00     0.005 C 
HETATM   22  C20 UNL     1      10.869  12.184 -26.128  1.00  0.00     0.000 C 
HETATM   23  C21 UNL     1      10.011  10.941 -26.263  1.00  0.00     0.000 C 
HETATM   24  C22 UNL     1      10.468   9.829 -25.346  1.00  0.00     0.000 C 
HETATM   25  C23 UNL     1      11.455  10.342 -24.314  1.00  0.00     0.005 C 
ENDBRANCH  19  20
ENDBRANCH  18  19
ENDBRANCH  15  18
ENDBRANCH   8  12
BRANCH   6  26
HETATM   26  C6  UNL     1      16.629  15.368 -19.204  1.00  0.00     0.018 C 
HETATM   27  C7  UNL     1      17.503  14.958 -20.091  1.00  0.00    -0.054 C 
HETATM   28  C8  UNL     1      18.949  15.152 -19.785  1.00  0.00     0.037 C 
HETATM   29  C11 UNL     1      17.148  14.315 -21.371  1.00  0.00     0.266 C 
HETATM   30  C9  UNL     1      19.764  14.010 -20.291  1.00  0.00     0.032 C 
HETATM   31  C10 UNL     1      19.412  13.583 -21.697  1.00  0.00     0.233 C 
HETATM   32  N1  UNL     1      18.016  13.209 -21.736  1.00  0.00    -0.072 N 
ATOM     33  H12 UNL     1      17.762  12.822 -22.646  1.00  0.00     0.277 HD
ATOM     34  H11 UNL     1      17.836  12.389 -21.157  1.00  0.00     0.277 HD
ENDBRANCH   6  26
TORSDOF 5
ENDMDL
