MODEL 1
REMARK VINA RESULT: -10.114738077      0.000      0.000
REMARK  6 active torsions:
REMARK  status: ('A' for Active; 'I' for Inactive)
REMARK    1  A    between atoms: C2_2  and  C3_3 
REMARK    2  A    between atoms: C3_3  and  C4_4 
REMARK    3  A    between atoms: C7_7  and  C8_8 
REMARK    4  A    between atoms: C8_8  and  N1_9 
REMARK    5  A    between atoms: C9_12  and  C10_13 
REMARK    6  A    between atoms: C26_31  and  O1_32 
ROOT
HETATM    1  N1  UNL     1      10.440  13.964 -20.341  1.00  0.00    -0.291 N 
HETATM    2  N2  UNL     1      10.089  15.225 -20.241  1.00  0.00    -0.293 N 
ATOM      3  H2  UNL     1       9.147  15.574 -20.419  1.00  0.00     0.187 HD
HETATM    4  C9  UNL     1      11.144  16.014 -19.869  1.00  0.00     0.125 A 
HETATM    5  C11 UNL     1      12.210  15.182 -19.734  1.00  0.00     0.008 A 
HETATM    6  C12 UNL     1      11.741  13.891 -20.036  1.00  0.00     0.038 A 
HETATM    7  C13 UNL     1      12.676  12.717 -19.952  1.00  0.00     0.060 C 
HETATM    8  C14 UNL     1      14.006  13.015 -20.526  1.00  0.00     0.012 C 
HETATM    9  C15 UNL     1      14.417  14.470 -20.422  1.00  0.00     0.004 C 
HETATM   10  C16 UNL     1      15.875  14.497 -20.238  1.00  0.00     0.003 C 
HETATM   11  C17 UNL     1      16.431  15.299 -19.125  1.00  0.00    -0.001 C 
HETATM   12  C18 UNL     1      15.675  16.492 -18.724  1.00  0.00     0.007 C 
HETATM   13  C19 UNL     1      14.264  16.582 -19.275  1.00  0.00     0.015 C 
HETATM   14  C20 UNL     1      13.634  15.252 -19.393  1.00  0.00    -0.008 C 
HETATM   15  C21 UNL     1      13.823  14.556 -18.059  1.00  0.00     0.021 C 
HETATM   16  C22 UNL     1      17.647  15.502 -20.000  1.00  0.00    -0.034 C 
HETATM   17  C23 UNL     1      18.421  16.726 -19.896  1.00  0.00     0.016 C 
HETATM   18  C24 UNL     1      18.503  14.254 -20.034  1.00  0.00     0.012 C 
HETATM   19  C25 UNL     1      18.402  13.677 -21.409  1.00  0.00     0.033 C 
HETATM   20  C26 UNL     1      17.497  14.559 -22.210  1.00  0.00     0.123 C 
HETATM   21  C27 UNL     1      16.703  15.354 -21.190  1.00  0.00     0.028 C 
ENDROOT
BRANCH   1  22
HETATM   22  C8  UNL     1       9.567  12.874 -20.740  1.00  0.00     0.187 C 
BRANCH  22  23
HETATM   23  C7  UNL     1       9.912  12.262 -22.013  1.00  0.00    -0.038 A 
HETATM   24  C6  UNL     1       9.684  10.938 -22.255  1.00  0.00     0.009 A 
HETATM   25  C5  UNL     1      10.019  10.370 -23.466  1.00  0.00     0.007 A 
HETATM   26  C4  UNL     1      10.585  11.162 -24.422  1.00  0.00    -0.058 A 
HETATM   27  C29 UNL     1      10.827  12.488 -24.214  1.00  0.00     0.007 A 
HETATM   28  C28 UNL     1      10.488  13.042 -23.000  1.00  0.00     0.009 A 
BRANCH  26  29
HETATM   29  C3  UNL     1      10.940  10.538 -25.721  1.00  0.00     0.038 C 
BRANCH  29  30
HETATM   30  C2  UNL     1      11.530  11.635 -26.592  1.00  0.00     0.000 C 
HETATM   31  C1  UNL     1      10.477  12.312 -27.443  1.00  0.00     0.005 C 
ENDBRANCH  29  30
ENDBRANCH  26  29
ENDBRANCH  22  23
ENDBRANCH   1  22
BRANCH   4  32
HETATM   32  C10 UNL     1      11.081  17.470 -19.640  1.00  0.00     0.295 C 
HETATM   33  F1  UNL     1      11.059  17.845 -18.311  1.00  0.00    -0.170 F 
HETATM   34  F2  UNL     1      11.800  18.260 -20.470  1.00  0.00    -0.170 F 
ENDBRANCH   4  32
BRANCH  20  35
HETATM   35  O1  UNL     1      16.690  13.818 -23.044  1.00  0.00    -0.395 OA
ATOM     36  H1  UNL     1      15.773  14.025 -22.907  1.00  0.00     0.210 HD
ENDBRANCH  20  35
TORSDOF 6
ENDMDL
MODEL 2
REMARK VINA RESULT: -9.494029529      3.454      6.134
REMARK  6 active torsions:
REMARK  status: ('A' for Active; 'I' for Inactive)
REMARK    1  A    between atoms: C2_2  and  C3_3 
REMARK    2  A    between atoms: C3_3  and  C4_4 
REMARK    3  A    between atoms: C7_7  and  C8_8 
REMARK    4  A    between atoms: C8_8  and  N1_9 
REMARK    5  A    between atoms: C9_12  and  C10_13 
REMARK    6  A    between atoms: C26_31  and  O1_32 
ROOT
HETATM    1  N1  UNL     1      10.463  15.515 -19.712  1.00  0.00    -0.291 N 
HETATM    2  N2  UNL     1      10.202  16.117 -20.850  1.00  0.00    -0.293 N 
ATOM      3  H2  UNL     1       9.266  16.218 -21.244  1.00  0.00     0.187 HD
HETATM    4  C9  UNL     1      11.341  16.593 -21.442  1.00  0.00     0.125 A 
HETATM    5  C11 UNL     1      12.365  16.259 -20.615  1.00  0.00     0.008 A 
HETATM    6  C12 UNL     1      11.787  15.580 -19.527  1.00  0.00     0.038 A 
HETATM    7  C13 UNL     1      12.656  15.094 -18.401  1.00  0.00     0.060 C 
HETATM    8  C14 UNL     1      13.912  14.481 -18.883  1.00  0.00     0.012 C 
HETATM    9  C15 UNL     1      14.416  15.046 -20.196  1.00  0.00     0.004 C 
HETATM   10  C16 UNL     1      15.885  15.013 -20.148  1.00  0.00     0.003 C 
HETATM   11  C17 UNL     1      16.630  16.248 -20.482  1.00  0.00    -0.001 C 
HETATM   12  C18 UNL     1      16.004  17.160 -21.447  1.00  0.00     0.007 C 
HETATM   13  C19 UNL     1      14.539  16.892 -21.738  1.00  0.00     0.015 C 
HETATM   14  C20 UNL     1      13.824  16.391 -20.548  1.00  0.00    -0.008 C 
HETATM   15  C21 UNL     1      14.149  17.338 -19.409  1.00  0.00     0.021 C 
HETATM   16  C22 UNL     1      17.728  15.340 -20.987  1.00  0.00    -0.034 C 
HETATM   17  C23 UNL     1      18.577  15.768 -22.084  1.00  0.00     0.016 C 
HETATM   18  C24 UNL     1      18.498  14.730 -19.836  1.00  0.00     0.012 C 
HETATM   19  C25 UNL     1      18.181  13.269 -19.807  1.00  0.00     0.033 C 
HETATM   20  C26 UNL     1      17.229  12.985 -20.925  1.00  0.00     0.123 C 
HETATM   21  C27 UNL     1      16.626  14.328 -21.292  1.00  0.00     0.028 C 
ENDROOT
BRANCH   1  22
HETATM   22  C8  UNL     1       9.484  14.879 -18.849  1.00  0.00     0.187 C 
BRANCH  22  23
HETATM   23  C7  UNL     1       9.070  15.685 -17.712  1.00  0.00    -0.038 A 
HETATM   24  C6  UNL     1       9.945  16.507 -17.062  1.00  0.00     0.009 A 
HETATM   25  C5  UNL     1       9.539  17.263 -15.982  1.00  0.00     0.007 A 
HETATM   26  C4  UNL     1       8.240  17.173 -15.576  1.00  0.00    -0.058 A 
HETATM   27  C29 UNL     1       7.340  16.362 -16.202  1.00  0.00     0.007 A 
HETATM   28  C28 UNL     1       7.758  15.613 -17.278  1.00  0.00     0.009 A 
BRANCH  26  29
HETATM   29  C3  UNL     1       7.817  17.992 -14.413  1.00  0.00     0.038 C 
BRANCH  29  30
HETATM   30  C2  UNL     1       7.713  17.052 -13.224  1.00  0.00     0.000 C 
HETATM   31  C1  UNL     1       6.784  17.587 -12.155  1.00  0.00     0.005 C 
ENDBRANCH  29  30
ENDBRANCH  26  29
ENDBRANCH  22  23
ENDBRANCH   1  22
BRANCH   4  32
HETATM   32  C10 UNL     1      11.392  17.342 -22.711  1.00  0.00     0.295 C 
HETATM   33  F1  UNL     1      12.059  16.697 -23.735  1.00  0.00    -0.170 F 
HETATM   34  F2  UNL     1      10.289  18.039 -23.066  1.00  0.00    -0.170 F 
ENDBRANCH   4  32
BRANCH  20  35
HETATM   35  O1  UNL     1      16.276  12.065 -20.547  1.00  0.00    -0.395 OA
ATOM     36  H1  UNL     1      15.632  12.458 -19.970  1.00  0.00     0.210 HD
ENDBRANCH  20  35
TORSDOF 6
ENDMDL
MODEL 3
REMARK VINA RESULT: -8.855368319      3.761      6.815
REMARK  6 active torsions:
REMARK  status: ('A' for Active; 'I' for Inactive)
REMARK    1  A    between atoms: C2_2  and  C3_3 
REMARK    2  A    between atoms: C3_3  and  C4_4 
REMARK    3  A    between atoms: C7_7  and  C8_8 
REMARK    4  A    between atoms: C8_8  and  N1_9 
REMARK    5  A    between atoms: C9_12  and  C10_13 
REMARK    6  A    between atoms: C26_31  and  O1_32 
ROOT
HETATM    1  N1  UNL     1       9.965  15.164 -19.181  1.00  0.00    -0.291 N 
HETATM    2  N2  UNL     1       9.829  13.913 -18.808  1.00  0.00    -0.293 N 
ATOM      3  H2  UNL     1       9.020  13.550 -18.302  1.00  0.00     0.187 HD
HETATM    4  C9  UNL     1      10.906  13.155 -19.180  1.00  0.00     0.125 A 
HETATM    5  C11 UNL     1      11.757  13.998 -19.822  1.00  0.00     0.008 A 
HETATM    6  C12 UNL     1      11.141  15.262 -19.812  1.00  0.00     0.038 A 
HETATM    7  C13 UNL     1      11.817  16.429 -20.476  1.00  0.00     0.060 C 
HETATM    8  C14 UNL     1      13.268  16.474 -20.194  1.00  0.00     0.012 C 
HETATM    9  C15 UNL     1      13.898  15.116 -19.958  1.00  0.00     0.004 C 
HETATM   10  C16 UNL     1      15.268  15.175 -20.487  1.00  0.00     0.003 C 
HETATM   11  C17 UNL     1      15.715  14.109 -21.412  1.00  0.00    -0.001 C 
HETATM   12  C18 UNL     1      15.115  12.782 -21.234  1.00  0.00     0.007 C 
HETATM   13  C19 UNL     1      13.886  12.739 -20.345  1.00  0.00     0.015 C 
HETATM   14  C20 UNL     1      13.070  13.962 -20.474  1.00  0.00    -0.008 C 
HETATM   15  C21 UNL     1      12.853  14.190 -21.958  1.00  0.00     0.021 C 
HETATM   16  C22 UNL     1      17.102  14.332 -20.853  1.00  0.00    -0.034 C 
HETATM   17  C23 UNL     1      18.040  13.227 -20.777  1.00  0.00     0.016 C 
HETATM   18  C24 UNL     1      17.713  15.600 -21.411  1.00  0.00     0.012 C 
HETATM   19  C25 UNL     1      17.797  16.588 -20.292  1.00  0.00     0.033 C 
HETATM   20  C26 UNL     1      17.247  15.935 -19.063  1.00  0.00     0.123 C 
HETATM   21  C27 UNL     1      16.413  14.771 -19.564  1.00  0.00     0.028 C 
ENDROOT
BRANCH   1  22
HETATM   22  C8  UNL     1       9.015  16.232 -18.920  1.00  0.00     0.187 C 
BRANCH  22  23
HETATM   23  C7  UNL     1       8.727  16.450 -17.512  1.00  0.00    -0.038 A 
HETATM   24  C6  UNL     1       9.668  16.951 -16.659  1.00  0.00     0.009 A 
HETATM   25  C5  UNL     1       9.381  17.149 -15.324  1.00  0.00     0.007 A 
HETATM   26  C4  UNL     1       8.133  16.835 -14.872  1.00  0.00    -0.058 A 
HETATM   27  C29 UNL     1       7.170  16.332 -15.697  1.00  0.00     0.007 A 
HETATM   28  C28 UNL     1       7.469  16.139 -17.026  1.00  0.00     0.009 A 
BRANCH  26  29
HETATM   29  C3  UNL     1       7.839  17.053 -13.435  1.00  0.00     0.038 C 
BRANCH  29  30
HETATM   30  C2  UNL     1       6.655  18.004 -13.364  1.00  0.00     0.000 C 
HETATM   31  C1  UNL     1       6.178  18.214 -11.943  1.00  0.00     0.005 C 
ENDBRANCH  29  30
ENDBRANCH  26  29
ENDBRANCH  22  23
ENDBRANCH   1  22
BRANCH   4  32
HETATM   32  C10 UNL     1      11.055  11.708 -18.940  1.00  0.00     0.295 C 
HETATM   33  F1  UNL     1      12.129  11.362 -18.143  1.00  0.00    -0.170 F 
HETATM   34  F2  UNL     1       9.923  10.990 -18.756  1.00  0.00    -0.170 F 
ENDBRANCH   4  32
BRANCH  20  35
HETATM   35  O1  UNL     1      16.512  16.827 -18.313  1.00  0.00    -0.395 OA
ATOM     36  H1  UNL     1      15.637  16.496 -18.149  1.00  0.00     0.210 HD
ENDBRANCH  20  35
TORSDOF 6
ENDMDL
MODEL 4
REMARK VINA RESULT: -8.708287423      1.478      2.084
REMARK  6 active torsions:
REMARK  status: ('A' for Active; 'I' for Inactive)
REMARK    1  A    between atoms: C2_2  and  C3_3 
REMARK    2  A    between atoms: C3_3  and  C4_4 
REMARK    3  A    between atoms: C7_7  and  C8_8 
REMARK    4  A    between atoms: C8_8  and  N1_9 
REMARK    5  A    between atoms: C9_12  and  C10_13 
REMARK    6  A    between atoms: C26_31  and  O1_32 
ROOT
HETATM    1  N1  UNL     1      10.521  12.197 -20.927  1.00  0.00    -0.291 N 
HETATM    2  N2  UNL     1       9.585  13.049 -20.579  1.00  0.00    -0.293 N 
ATOM      3  H2  UNL     1       8.604  12.965 -20.847  1.00  0.00     0.187 HD
HETATM    4  C9  UNL     1      10.088  14.065 -19.811  1.00  0.00     0.125 A 
HETATM    5  C11 UNL     1      11.418  13.819 -19.683  1.00  0.00     0.008 A 
HETATM    6  C12 UNL     1      11.669  12.632 -20.395  1.00  0.00     0.038 A 
HETATM    7  C13 UNL     1      13.058  12.061 -20.430  1.00  0.00     0.060 C 
HETATM    8  C14 UNL     1      14.091  13.101 -20.627  1.00  0.00     0.012 C 
HETATM    9  C15 UNL     1      13.718  14.461 -20.072  1.00  0.00     0.004 C 
HETATM   10  C16 UNL     1      14.958  15.091 -19.597  1.00  0.00     0.003 C 
HETATM   11  C17 UNL     1      14.986  15.650 -18.227  1.00  0.00    -0.001 C 
HETATM   12  C18 UNL     1      13.718  16.163 -17.693  1.00  0.00     0.007 C 
HETATM   13  C19 UNL     1      12.478  15.770 -18.475  1.00  0.00     0.015 C 
HETATM   14  C20 UNL     1      12.600  14.418 -19.056  1.00  0.00    -0.008 C 
HETATM   15  C21 UNL     1      13.043  13.497 -17.936  1.00  0.00     0.021 C 
HETATM   16  C22 UNL     1      15.982  16.657 -18.756  1.00  0.00    -0.034 C 
HETATM   17  C23 UNL     1      16.038  17.991 -18.187  1.00  0.00     0.016 C 
HETATM   18  C24 UNL     1      17.345  16.025 -18.937  1.00  0.00     0.012 C 
HETATM   19  C25 UNL     1      17.612  15.945 -20.406  1.00  0.00     0.033 C 
HETATM   20  C26 UNL     1      16.429  16.521 -21.118  1.00  0.00     0.123 C 
HETATM   21  C27 UNL     1      15.296  16.487 -20.109  1.00  0.00     0.028 C 
ENDROOT
BRANCH   1  22
HETATM   22  C8  UNL     1      10.327  11.023 -21.760  1.00  0.00     0.187 C 
BRANCH  22  23
HETATM   23  C7  UNL     1      10.460  11.269 -23.187  1.00  0.00    -0.038 A 
HETATM   24  C6  UNL     1      10.525  10.245 -24.087  1.00  0.00     0.009 A 
HETATM   25  C5  UNL     1      10.655  10.493 -25.437  1.00  0.00     0.007 A 
HETATM   26  C4  UNL     1      10.715  11.790 -25.858  1.00  0.00    -0.058 A 
HETATM   27  C29 UNL     1      10.653  12.837 -24.987  1.00  0.00     0.007 A 
HETATM   28  C28 UNL     1      10.524  12.575 -23.641  1.00  0.00     0.009 A 
BRANCH  26  29
HETATM   29  C3  UNL     1      10.854  12.043 -27.313  1.00  0.00     0.038 C 
BRANCH  29  30
HETATM   30  C2  UNL     1       9.855  13.130 -27.671  1.00  0.00     0.000 C 
HETATM   31  C1  UNL     1       9.879  13.461 -29.148  1.00  0.00     0.005 C 
ENDBRANCH  29  30
ENDBRANCH  26  29
ENDBRANCH  22  23
ENDBRANCH   1  22
BRANCH   4  32
HETATM   32  C10 UNL     1       9.298  15.168 -19.233  1.00  0.00     0.295 C 
HETATM   33  F1  UNL     1       8.817  14.929 -17.961  1.00  0.00    -0.170 F 
HETATM   34  F2  UNL     1       9.718  16.429 -19.483  1.00  0.00    -0.170 F 
ENDBRANCH   4  32
BRANCH  20  35
HETATM   35  O1  UNL     1      16.140  15.808 -22.260  1.00  0.00    -0.395 OA
ATOM     36  H1  UNL     1      16.788  15.965 -22.936  1.00  0.00     0.210 HD
ENDBRANCH  20  35
TORSDOF 6
ENDMDL
MODEL 5
REMARK VINA RESULT: -7.735196127      0.608      1.155
REMARK  6 active torsions:
REMARK  status: ('A' for Active; 'I' for Inactive)
REMARK    1  A    between atoms: C2_2  and  C3_3 
REMARK    2  A    between atoms: C3_3  and  C4_4 
REMARK    3  A    between atoms: C7_7  and  C8_8 
REMARK    4  A    between atoms: C8_8  and  N1_9 
REMARK    5  A    between atoms: C9_12  and  C10_13 
REMARK    6  A    between atoms: C26_31  and  O1_32 
ROOT
HETATM    1  N1  UNL     1      10.945  13.303 -20.243  1.00  0.00    -0.291 N 
HETATM    2  N2  UNL     1      10.462  14.518 -20.120  1.00  0.00    -0.293 N 
ATOM      3  H2  UNL     1       9.484  14.765 -20.279  1.00  0.00     0.187 HD
HETATM    4  C9  UNL     1      11.431  15.411 -19.752  1.00  0.00     0.125 A 
HETATM    5  C11 UNL     1      12.582  14.698 -19.644  1.00  0.00     0.008 A 
HETATM    6  C12 UNL     1      12.251  13.367 -19.958  1.00  0.00     0.038 A 
HETATM    7  C13 UNL     1      13.308  12.301 -19.905  1.00  0.00     0.060 C 
HETATM    8  C14 UNL     1      14.589  12.748 -20.494  1.00  0.00     0.012 C 
HETATM    9  C15 UNL     1      14.842  14.237 -20.375  1.00  0.00     0.004 C 
HETATM   10  C16 UNL     1      16.291  14.420 -20.211  1.00  0.00     0.003 C 
HETATM   11  C17 UNL     1      16.775  15.264 -19.095  1.00  0.00    -0.001 C 
HETATM   12  C18 UNL     1      15.902  16.362 -18.666  1.00  0.00     0.007 C 
HETATM   13  C19 UNL     1      14.480  16.306 -19.195  1.00  0.00     0.015 C 
HETATM   14  C20 UNL     1      13.995  14.917 -19.323  1.00  0.00    -0.008 C 
HETATM   15  C21 UNL     1      14.280  14.229 -18.002  1.00  0.00     0.021 C 
HETATM   16  C22 UNL     1      17.948  15.608 -19.984  1.00  0.00    -0.034 C 
HETATM   17  C23 UNL     1      18.586  16.907 -19.875  1.00  0.00     0.016 C 
HETATM   18  C24 UNL     1      18.933  14.460 -20.049  1.00  0.00     0.012 C 
HETATM   19  C25 UNL     1      18.873  13.893 -21.431  1.00  0.00     0.033 C 
HETATM   20  C26 UNL     1      17.865  14.683 -22.206  1.00  0.00     0.123 C 
HETATM   21  C27 UNL     1      17.007  15.374 -21.163  1.00  0.00     0.028 C 
ENDROOT
BRANCH   1  22
HETATM   22  C8  UNL     1      10.189  12.130 -20.645  1.00  0.00     0.187 C 
BRANCH  22  23
HETATM   23  C7  UNL     1      10.251  11.831 -22.066  1.00  0.00    -0.038 A 
HETATM   24  C6  UNL     1      10.390  12.818 -22.999  1.00  0.00     0.009 A 
HETATM   25  C5  UNL     1      10.444  12.521 -24.345  1.00  0.00     0.007 A 
HETATM   26  C4  UNL     1      10.358  11.214 -24.726  1.00  0.00    -0.058 A 
HETATM   27  C29 UNL     1      10.218  10.203 -23.822  1.00  0.00     0.007 A 
HETATM   28  C28 UNL     1      10.166  10.514 -22.482  1.00  0.00     0.009 A 
BRANCH  26  29
HETATM   29  C3  UNL     1      10.417  10.908 -26.177  1.00  0.00     0.038 C 
BRANCH  29  30
HETATM   30  C2  UNL     1      11.223  12.018 -26.831  1.00  0.00     0.000 C 
HETATM   31  C1  UNL     1      11.112  11.988 -28.340  1.00  0.00     0.005 C 
ENDBRANCH  29  30
ENDBRANCH  26  29
ENDBRANCH  22  23
ENDBRANCH   1  22
BRANCH   4  32
HETATM   32  C10 UNL     1      11.215  16.848 -19.501  1.00  0.00     0.295 C 
HETATM   33  F1  UNL     1      11.263  17.645 -20.629  1.00  0.00    -0.170 F 
HETATM   34  F2  UNL     1      10.288  17.184 -18.575  1.00  0.00    -0.170 F 
ENDBRANCH   4  32
BRANCH  20  35
HETATM   35  O1  UNL     1      17.130  13.869 -23.039  1.00  0.00    -0.395 OA
ATOM     36  H1  UNL     1      16.800  14.353 -23.787  1.00  0.00     0.210 HD
ENDBRANCH  20  35
TORSDOF 6
ENDMDL
