MODEL 1
REMARK VINA RESULT: -8.959924113      0.000      0.000
REMARK  5 active torsions:
REMARK  status: ('A' for Active; 'I' for Inactive)
REMARK    1  A    between atoms: C16_17  and  C17_18 
REMARK       I    between atoms: C17_18  and  N2_20 
REMARK    2  A    between atoms: N2_20  and  C19_22 
REMARK    3  A    between atoms: C19_22  and  C20_23 
REMARK    4  A    between atoms: C20_23  and  N3_24 
REMARK    5  A    between atoms: N3_24  and  C21_26 
ROOT
HETATM    1  C1  UNL     1      15.366  11.001 -19.611  1.00  0.00     0.309 C 
HETATM    2  N1  UNL     1      14.725  12.297 -19.400  1.00  0.00     0.084 N 
HETATM    3  C2  UNL     1      13.436  12.166 -18.822  1.00  0.00     0.271 C 
HETATM    4  C3  UNL     1      12.319  12.815 -19.548  1.00  0.00     0.030 C 
HETATM    5  C4  UNL     1      11.007  12.269 -19.060  1.00  0.00     0.002 C 
HETATM    6  C5  UNL     1      10.651  10.942 -19.659  1.00  0.00     0.000 C 
HETATM    7  C6  UNL     1      10.470  10.971 -21.146  1.00  0.00     0.000 C 
HETATM    8  C7  UNL     1       9.314  11.779 -21.605  1.00  0.00     0.000 C 
HETATM    9  C8  UNL     1       9.658  13.050 -22.314  1.00  0.00     0.000 C 
HETATM   10  C9  UNL     1      10.473  12.881 -23.541  1.00  0.00     0.000 C 
HETATM   11  C10 UNL     1      10.991  14.236 -23.979  1.00  0.00     0.000 C 
HETATM   12  C11 UNL     1      12.273  14.529 -23.229  1.00  0.00     0.000 C 
HETATM   13  C12 UNL     1      13.241  15.365 -24.045  1.00  0.00     0.000 C 
HETATM   14  C13 UNL     1      13.696  16.597 -23.346  1.00  0.00     0.000 C 
HETATM   15  C14 UNL     1      14.563  16.420 -22.156  1.00  0.00     0.001 C 
HETATM   16  C15 UNL     1      15.734  15.512 -22.392  1.00  0.00     0.014 C 
HETATM   17  C16 UNL     1      16.388  14.969 -21.182  1.00  0.00     0.080 C 
HETATM   18  C27 UNL     1      16.165  13.497 -20.948  1.00  0.00     0.044 C 
HETATM   19  C28 UNL     1      14.774  13.091 -20.608  1.00  0.00     0.272 C 
ENDROOT
BRANCH  17  20
HETATM   20  C17 UNL     1      16.215  15.738 -19.935  1.00  0.00     0.223 C 
HETATM   21  O1  UNL     1      17.295  16.077 -19.356  1.00  0.00    -0.273 OA
HETATM   22  N2  UNL     1      15.015  16.128 -19.327  1.00  0.00    -0.355 N 
HETATM   23  C18 UNL     1      15.036  16.860 -18.078  1.00  0.00     0.152 C 
BRANCH  22  24
HETATM   24  C19 UNL     1      13.727  15.849 -19.909  1.00  0.00     0.145 C 
BRANCH  24  25
HETATM   25  C20 UNL     1      12.658  16.825 -19.477  1.00  0.00     0.139 C 
BRANCH  25  26
HETATM   26  N3  UNL     1      11.375  16.185 -19.585  1.00  0.00    -0.386 N 
ATOM     27  H3  UNL     1      11.168  15.627 -20.414  1.00  0.00     0.159 HD
BRANCH  26  28
HETATM   28  C21 UNL     1      10.383  16.306 -18.567  1.00  0.00     0.067 A 
HETATM   29  C22 UNL     1      10.546  17.160 -17.512  1.00  0.00     0.035 A 
HETATM   30  C23 UNL     1       9.577  17.268 -16.532  1.00  0.00     0.044 A 
HETATM   31  C24 UNL     1       8.425  16.528 -16.588  1.00  0.00     0.119 A 
HETATM   32  F1  UNL     1       7.471  16.637 -15.619  1.00  0.00    -0.206 F 
HETATM   33  C25 UNL     1       8.261  15.666 -17.653  1.00  0.00     0.086 A 
HETATM   34  C26 UNL     1       9.242  15.557 -18.643  1.00  0.00     0.145 A 
HETATM   35  F2  UNL     1       9.034  14.702 -19.664  1.00  0.00    -0.204 F 
ENDBRANCH  26  28
ENDBRANCH  25  26
ENDBRANCH  24  25
ENDBRANCH  22  24
ENDBRANCH  17  20
TORSDOF 5
ENDMDL
MODEL 2
REMARK VINA RESULT: -8.888146190      1.906      2.575
REMARK  5 active torsions:
REMARK  status: ('A' for Active; 'I' for Inactive)
REMARK    1  A    between atoms: C16_17  and  C17_18 
REMARK       I    between atoms: C17_18  and  N2_20 
REMARK    2  A    between atoms: N2_20  and  C19_22 
REMARK    3  A    between atoms: C19_22  and  C20_23 
REMARK    4  A    between atoms: C20_23  and  N3_24 
REMARK    5  A    between atoms: N3_24  and  C21_26 
ROOT
HETATM    1  C1  UNL     1      15.395  10.878 -21.036  1.00  0.00     0.309 C 
HETATM    2  N1  UNL     1      15.443  12.106 -20.245  1.00  0.00     0.084 N 
HETATM    3  C2  UNL     1      14.503  12.093 -19.183  1.00  0.00     0.271 C 
HETATM    4  C3  UNL     1      13.560  13.235 -19.123  1.00  0.00     0.030 C 
HETATM    5  C4  UNL     1      12.404  12.895 -18.225  1.00  0.00     0.002 C 
HETATM    6  C5  UNL     1      11.362  12.043 -18.886  1.00  0.00     0.000 C 
HETATM    7  C6  UNL     1      10.696  12.693 -20.061  1.00  0.00     0.000 C 
HETATM    8  C7  UNL     1       9.877  13.881 -19.718  1.00  0.00     0.000 C 
HETATM    9  C8  UNL     1      10.424  15.195 -20.178  1.00  0.00     0.000 C 
HETATM   10  C9  UNL     1      10.614  15.315 -21.643  1.00  0.00     0.000 C 
HETATM   11  C10 UNL     1      11.437  16.553 -21.934  1.00  0.00     0.000 C 
HETATM   12  C11 UNL     1      12.904  16.196 -21.823  1.00  0.00     0.000 C 
HETATM   13  C12 UNL     1      13.768  17.007 -22.770  1.00  0.00     0.000 C 
HETATM   14  C13 UNL     1      14.891  17.711 -22.093  1.00  0.00     0.000 C 
HETATM   15  C14 UNL     1      15.975  16.870 -21.528  1.00  0.00     0.001 C 
HETATM   16  C15 UNL     1      16.521  15.861 -22.493  1.00  0.00     0.014 C 
HETATM   17  C16 UNL     1      17.286  14.743 -21.899  1.00  0.00     0.080 C 
HETATM   18  C27 UNL     1      16.593  13.405 -21.949  1.00  0.00     0.044 C 
HETATM   19  C28 UNL     1      15.374  13.267 -21.107  1.00  0.00     0.272 C 
ENDROOT
BRANCH  17  20
HETATM   20  C17 UNL     1      17.885  14.983 -20.573  1.00  0.00     0.223 C 
HETATM   21  O1  UNL     1      19.138  14.777 -20.502  1.00  0.00    -0.273 OA
HETATM   22  N2  UNL     1      17.240  15.402 -19.402  1.00  0.00    -0.355 N 
HETATM   23  C18 UNL     1      17.990  15.558 -18.174  1.00  0.00     0.152 C 
BRANCH  22  24
HETATM   24  C19 UNL     1      15.835  15.715 -19.365  1.00  0.00     0.145 C 
BRANCH  24  25
HETATM   25  C20 UNL     1      15.450  16.567 -18.179  1.00  0.00     0.139 C 
BRANCH  25  26
HETATM   26  N3  UNL     1      14.510  17.567 -18.611  1.00  0.00    -0.386 N 
ATOM     27  H3  UNL     1      14.847  18.362 -19.154  1.00  0.00     0.159 HD
BRANCH  26  28
HETATM   28  C21 UNL     1      13.120  17.478 -18.304  1.00  0.00     0.067 A 
HETATM   29  C22 UNL     1      12.621  16.452 -17.551  1.00  0.00     0.035 A 
HETATM   30  C23 UNL     1      11.272  16.378 -17.260  1.00  0.00     0.044 A 
HETATM   31  C24 UNL     1      10.394  17.328 -17.715  1.00  0.00     0.119 A 
HETATM   32  F1  UNL     1       9.063  17.252 -17.425  1.00  0.00    -0.206 F 
HETATM   33  C25 UNL     1      10.898  18.363 -18.474  1.00  0.00     0.086 A 
HETATM   34  C26 UNL     1      12.263  18.437 -18.768  1.00  0.00     0.145 A 
HETATM   35  F2  UNL     1      12.707  19.468 -19.514  1.00  0.00    -0.204 F 
ENDBRANCH  26  28
ENDBRANCH  25  26
ENDBRANCH  24  25
ENDBRANCH  22  24
ENDBRANCH  17  20
TORSDOF 5
ENDMDL
MODEL 3
REMARK VINA RESULT: -8.577562889      0.879      1.183
REMARK  5 active torsions:
REMARK  status: ('A' for Active; 'I' for Inactive)
REMARK    1  A    between atoms: C16_17  and  C17_18 
REMARK       I    between atoms: C17_18  and  N2_20 
REMARK    2  A    between atoms: N2_20  and  C19_22 
REMARK    3  A    between atoms: C19_22  and  C20_23 
REMARK    4  A    between atoms: C20_23  and  N3_24 
REMARK    5  A    between atoms: N3_24  and  C21_26 
ROOT
HETATM    1  C1  UNL     1      15.448  10.865 -19.721  1.00  0.00     0.309 C 
HETATM    2  N1  UNL     1      14.881  12.187 -19.459  1.00  0.00     0.084 N 
HETATM    3  C2  UNL     1      13.619  12.107 -18.816  1.00  0.00     0.271 C 
HETATM    4  C3  UNL     1      12.499  12.819 -19.475  1.00  0.00     0.030 C 
HETATM    5  C4  UNL     1      11.189  12.328 -18.926  1.00  0.00     0.002 C 
HETATM    6  C5  UNL     1      10.739  11.029 -19.524  1.00  0.00     0.000 C 
HETATM    7  C6  UNL     1      10.485  11.091 -20.999  1.00  0.00     0.000 C 
HETATM    8  C7  UNL     1       9.346  11.959 -21.387  1.00  0.00     0.000 C 
HETATM    9  C8  UNL     1       9.714  13.224 -22.095  1.00  0.00     0.000 C 
HETATM   10  C9  UNL     1      10.456  13.037 -23.365  1.00  0.00     0.000 C 
HETATM   11  C10 UNL     1      11.015  14.373 -23.811  1.00  0.00     0.000 C 
HETATM   12  C11 UNL     1      12.346  14.594 -23.124  1.00  0.00     0.000 C 
HETATM   13  C12 UNL     1      13.310  15.396 -23.978  1.00  0.00     0.000 C 
HETATM   14  C13 UNL     1      13.858  16.594 -23.286  1.00  0.00     0.000 C 
HETATM   15  C14 UNL     1      14.776  16.357 -22.145  1.00  0.00     0.001 C 
HETATM   16  C15 UNL     1      15.888  15.399 -22.454  1.00  0.00     0.014 C 
HETATM   17  C16 UNL     1      16.577  14.806 -21.288  1.00  0.00     0.080 C 
HETATM   18  C27 UNL     1      16.296  13.342 -21.063  1.00  0.00     0.044 C 
HETATM   19  C28 UNL     1      14.906  12.997 -20.657  1.00  0.00     0.272 C 
ENDROOT
BRANCH  17  20
HETATM   20  C17 UNL     1      16.505  15.562 -20.023  1.00  0.00     0.223 C 
HETATM   21  O1  UNL     1      17.627  15.829 -19.489  1.00  0.00    -0.273 OA
HETATM   22  N2  UNL     1      15.358  16.009 -19.354  1.00  0.00    -0.355 N 
HETATM   23  C18 UNL     1      15.478  16.716 -18.097  1.00  0.00     0.152 C 
BRANCH  22  24
HETATM   24  C19 UNL     1      14.031  15.812 -19.879  1.00  0.00     0.145 C 
BRANCH  24  25
HETATM   25  C20 UNL     1      13.038  16.831 -19.374  1.00  0.00     0.139 C 
BRANCH  25  26
HETATM   26  N3  UNL     1      11.712  16.399 -19.724  1.00  0.00    -0.386 N 
ATOM     27  H3  UNL     1      11.529  16.083 -20.676  1.00  0.00     0.159 HD
BRANCH  26  28
HETATM   28  C21 UNL     1      10.644  16.400 -18.777  1.00  0.00     0.067 A 
HETATM   29  C22 UNL     1       9.708  15.403 -18.759  1.00  0.00     0.035 A 
HETATM   30  C23 UNL     1       8.678  15.415 -17.837  1.00  0.00     0.044 A 
HETATM   31  C24 UNL     1       8.563  16.422 -16.915  1.00  0.00     0.119 A 
HETATM   32  F1  UNL     1       7.546  16.431 -16.006  1.00  0.00    -0.206 F 
HETATM   33  C25 UNL     1       9.507  17.428 -16.934  1.00  0.00     0.086 A 
HETATM   34  C26 UNL     1      10.548  17.415 -17.867  1.00  0.00     0.145 A 
HETATM   35  F2  UNL     1      11.446  18.420 -17.845  1.00  0.00    -0.204 F 
ENDBRANCH  26  28
ENDBRANCH  25  26
ENDBRANCH  24  25
ENDBRANCH  22  24
ENDBRANCH  17  20
TORSDOF 5
ENDMDL
MODEL 4
REMARK VINA RESULT: -8.316381041      3.408      5.580
REMARK  5 active torsions:
REMARK  status: ('A' for Active; 'I' for Inactive)
REMARK    1  A    between atoms: C16_17  and  C17_18 
REMARK       I    between atoms: C17_18  and  N2_20 
REMARK    2  A    between atoms: N2_20  and  C19_22 
REMARK    3  A    between atoms: C19_22  and  C20_23 
REMARK    4  A    between atoms: C20_23  and  N3_24 
REMARK    5  A    between atoms: N3_24  and  C21_26 
ROOT
HETATM    1  C1  UNL     1      14.414  12.584 -18.824  1.00  0.00     0.309 C 
HETATM    2  N1  UNL     1      13.362  13.571 -19.060  1.00  0.00     0.084 N 
HETATM    3  C2  UNL     1      12.068  13.034 -18.836  1.00  0.00     0.271 C 
HETATM    4  C3  UNL     1      11.101  13.159 -19.952  1.00  0.00     0.030 C 
HETATM    5  C4  UNL     1       9.947  12.221 -19.735  1.00  0.00     0.002 C 
HETATM    6  C5  UNL     1      10.245  10.805 -20.127  1.00  0.00     0.000 C 
HETATM    7  C6  UNL     1      10.556  10.626 -21.581  1.00  0.00     0.000 C 
HETATM    8  C7  UNL     1       9.417  10.909 -22.489  1.00  0.00     0.000 C 
HETATM    9  C8  UNL     1       9.549  12.145 -23.321  1.00  0.00     0.000 C 
HETATM   10  C9  UNL     1      10.725  12.170 -24.222  1.00  0.00     0.000 C 
HETATM   11  C10 UNL     1      10.898  13.572 -24.769  1.00  0.00     0.000 C 
HETATM   12  C11 UNL     1      11.704  14.382 -23.777  1.00  0.00     0.000 C 
HETATM   13  C12 UNL     1      12.565  15.432 -24.454  1.00  0.00     0.000 C 
HETATM   14  C13 UNL     1      12.353  16.806 -23.922  1.00  0.00     0.000 C 
HETATM   15  C14 UNL     1      12.798  17.071 -22.532  1.00  0.00     0.001 C 
HETATM   16  C15 UNL     1      14.206  16.634 -22.255  1.00  0.00     0.014 C 
HETATM   17  C16 UNL     1      14.570  16.484 -20.830  1.00  0.00     0.080 C 
HETATM   18  C27 UNL     1      14.764  15.061 -20.372  1.00  0.00     0.044 C 
HETATM   19  C28 UNL     1      13.544  14.210 -20.345  1.00  0.00     0.272 C 
ENDROOT
BRANCH  17  20
HETATM   20  C17 UNL     1      13.769  17.251 -19.858  1.00  0.00     0.223 C 
HETATM   21  O1  UNL     1      12.524  17.307 -20.110  1.00  0.00    -0.273 OA
HETATM   22  N2  UNL     1      14.217  17.914 -18.709  1.00  0.00    -0.355 N 
HETATM   23  C18 UNL     1      13.284  18.647 -17.880  1.00  0.00     0.152 C 
BRANCH  22  24
HETATM   24  C19 UNL     1      15.595  17.884 -18.288  1.00  0.00     0.145 C 
BRANCH  24  25
HETATM   25  C20 UNL     1      16.140  16.483 -18.145  1.00  0.00     0.139 C 
BRANCH  25  26
HETATM   26  N3  UNL     1      17.555  16.508 -18.400  1.00  0.00    -0.386 N 
ATOM     27  H3  UNL     1      18.132  17.201 -17.924  1.00  0.00     0.159 HD
BRANCH  26  28
HETATM   28  C21 UNL     1      18.176  15.591 -19.299  1.00  0.00     0.067 A 
HETATM   29  C22 UNL     1      18.774  14.446 -18.849  1.00  0.00     0.035 A 
HETATM   30  C23 UNL     1      19.372  13.566 -19.731  1.00  0.00     0.044 A 
HETATM   31  C24 UNL     1      19.384  13.810 -21.080  1.00  0.00     0.119 A 
HETATM   32  F1  UNL     1      19.975  12.939 -21.947  1.00  0.00    -0.206 F 
HETATM   33  C25 UNL     1      18.781  14.965 -21.533  1.00  0.00     0.086 A 
HETATM   34  C26 UNL     1      18.176  15.855 -20.640  1.00  0.00     0.145 A 
HETATM   35  F2  UNL     1      17.599  16.969 -21.133  1.00  0.00    -0.204 F 
ENDBRANCH  26  28
ENDBRANCH  25  26
ENDBRANCH  24  25
ENDBRANCH  22  24
ENDBRANCH  17  20
TORSDOF 5
ENDMDL
MODEL 5
REMARK VINA RESULT: -8.284172523      3.183      7.000
REMARK  5 active torsions:
REMARK  status: ('A' for Active; 'I' for Inactive)
REMARK    1  A    between atoms: C16_17  and  C17_18 
REMARK       I    between atoms: C17_18  and  N2_20 
REMARK    2  A    between atoms: N2_20  and  C19_22 
REMARK    3  A    between atoms: C19_22  and  C20_23 
REMARK    4  A    between atoms: C20_23  and  N3_24 
REMARK    5  A    between atoms: N3_24  and  C21_26 
ROOT
HETATM    1  C1  UNL     1      13.415  11.507 -19.367  1.00  0.00     0.309 C 
HETATM    2  N1  UNL     1      13.271  12.777 -20.076  1.00  0.00     0.084 N 
HETATM    3  C2  UNL     1      14.132  12.859 -21.200  1.00  0.00     0.271 C 
HETATM    4  C3  UNL     1      15.032  14.036 -21.255  1.00  0.00     0.030 C 
HETATM    5  C4  UNL     1      16.131  13.791 -22.250  1.00  0.00     0.002 C 
HETATM    6  C5  UNL     1      17.244  12.941 -21.716  1.00  0.00     0.000 C 
HETATM    7  C6  UNL     1      17.971  13.545 -20.553  1.00  0.00     0.000 C 
HETATM    8  C7  UNL     1      18.725  14.780 -20.879  1.00  0.00     0.000 C 
HETATM    9  C8  UNL     1      18.170  16.044 -20.304  1.00  0.00     0.000 C 
HETATM   10  C9  UNL     1      18.081  16.073 -18.824  1.00  0.00     0.000 C 
HETATM   11  C10 UNL     1      17.241  17.261 -18.403  1.00  0.00     0.000 C 
HETATM   12  C11 UNL     1      15.782  16.857 -18.433  1.00  0.00     0.000 C 
HETATM   13  C12 UNL     1      14.962  17.580 -17.381  1.00  0.00     0.000 C 
HETATM   14  C13 UNL     1      13.772  18.280 -17.936  1.00  0.00     0.000 C 
HETATM   15  C14 UNL     1      12.678  17.435 -18.474  1.00  0.00     0.001 C 
HETATM   16  C15 UNL     1      12.235  16.352 -17.536  1.00  0.00     0.014 C 
HETATM   17  C16 UNL     1      11.466  15.244 -18.142  1.00  0.00     0.080 C 
HETATM   18  C27 UNL     1      12.203  13.931 -18.222  1.00  0.00     0.044 C 
HETATM   19  C28 UNL     1      13.363  13.887 -19.153  1.00  0.00     0.272 C 
ENDROOT
BRANCH  17  20
HETATM   20  C17 UNL     1      10.767  15.538 -19.407  1.00  0.00     0.223 C 
HETATM   21  O1  UNL     1      10.768  16.761 -19.752  1.00  0.00    -0.273 OA
HETATM   22  N2  UNL     1      10.110  14.636 -20.255  1.00  0.00    -0.355 N 
HETATM   23  C18 UNL     1       9.447  15.112 -21.450  1.00  0.00     0.152 C 
BRANCH  22  24
HETATM   24  C19 UNL     1      10.080  13.219 -20.000  1.00  0.00     0.145 C 
BRANCH  24  25
HETATM   25  C20 UNL     1       9.474  12.427 -21.134  1.00  0.00     0.139 C 
BRANCH  25  26
HETATM   26  N3  UNL     1      10.531  11.771 -21.857  1.00  0.00    -0.386 N 
ATOM     27  H3  UNL     1      11.214  11.217 -21.341  1.00  0.00     0.159 HD
BRANCH  26  28
HETATM   28  C21 UNL     1      10.650  11.871 -23.275  1.00  0.00     0.067 A 
HETATM   29  C22 UNL     1      10.864  13.075 -23.888  1.00  0.00     0.035 A 
HETATM   30  C23 UNL     1      10.978  13.158 -25.263  1.00  0.00     0.044 A 
HETATM   31  C24 UNL     1      10.882  12.042 -26.053  1.00  0.00     0.119 A 
HETATM   32  F1  UNL     1      10.996  12.128 -27.410  1.00  0.00    -0.206 F 
HETATM   33  C25 UNL     1      10.666  10.828 -25.434  1.00  0.00     0.086 A 
HETATM   34  C26 UNL     1      10.551  10.745 -24.043  1.00  0.00     0.145 A 
HETATM   35  F2  UNL     1      10.341   9.536 -23.485  1.00  0.00    -0.204 F 
ENDBRANCH  26  28
ENDBRANCH  25  26
ENDBRANCH  24  25
ENDBRANCH  22  24
ENDBRANCH  17  20
TORSDOF 5
ENDMDL
