MODEL 1
REMARK VINA RESULT: -7.412544810      0.000      0.000
REMARK  7 active torsions:
REMARK  status: ('A' for Active; 'I' for Inactive)
REMARK    1  A    between atoms: C2_2  and  N1_3 
REMARK    2  A    between atoms: N1_3  and  C3_5 
REMARK    3  A    between atoms: N3_16  and  C12_17 
REMARK    4  A    between atoms: C12_17  and  O1_18 
REMARK    5  A    between atoms: C12_17  and  C13_20 
REMARK    6  A    between atoms: C19_30  and  C20_31 
REMARK    7  A    between atoms: C23_34  and  C24_35 
ROOT
HETATM    1  C3  UNL     1       6.514  28.630  59.295  1.00  0.00     0.102 A 
HETATM    2  C4  UNL     1       7.216  29.696  59.870  1.00  0.00     0.062 A 
HETATM    3  C5  UNL     1       7.889  30.534  59.067  1.00  0.00     0.004 A 
HETATM    4  C6  UNL     1       7.883  30.333  57.668  1.00  0.00    -0.023 A 
HETATM    5  C7  UNL     1       7.180  29.275  57.150  1.00  0.00     0.014 A 
HETATM    6  C8  UNL     1       7.168  29.054  55.659  1.00  0.00     0.068 C 
HETATM    7  N2  UNL     1       6.514  28.453  57.970  1.00  0.00    -0.346 N 
ATOM      8  H2  UNL     1       5.994  27.670  57.574  1.00  0.00     0.167 HD
HETATM    9  C9  UNL     1       8.609  31.159  56.631  1.00  0.00     0.043 C 
HETATM   10  C10 UNL     1      10.099  31.125  56.773  1.00  0.00     0.025 C 
HETATM   11  C11 UNL     1      10.636  31.814  58.025  1.00  0.00     0.132 C 
HETATM   12  N3  UNL     1      10.024  31.267  59.197  1.00  0.00    -0.324 N 
HETATM   13  C19 UNL     1       8.664  31.657  59.626  1.00  0.00     0.060 C 
ENDROOT
BRANCH  12  14
HETATM   14  C12 UNL     1      10.665  30.245  59.894  1.00  0.00     0.172 C 
BRANCH  14  15
HETATM   15  O1  UNL     1      11.799  30.507  60.505  1.00  0.00    -0.344 OA
ATOM     16  H1  UNL     1      12.465  31.005  60.045  1.00  0.00     0.219 HD
ENDBRANCH  14  15
BRANCH  14  17
HETATM   17  C13 UNL     1      10.274  28.868  60.072  1.00  0.00     0.107 A 
HETATM   18  N4  UNL     1      10.329  27.905  59.159  1.00  0.00    -0.296 N 
HETATM   19  N5  UNL     1       9.897  26.756  59.629  1.00  0.00    -0.304 N 
ATOM     20  H4  UNL     1      10.667  28.042  58.206  1.00  0.00     0.187 HD
HETATM   21  C14 UNL     1       9.524  26.916  60.917  1.00  0.00     0.034 A 
ATOM     22  H5  UNL     1       9.852  25.883  59.104  1.00  0.00     0.186 HD
HETATM   23  C15 UNL     1       9.759  28.242  61.201  1.00  0.00    -0.002 A 
HETATM   24  C18 UNL     1       8.977  26.207  62.085  1.00  0.00     0.059 C 
HETATM   25  C16 UNL     1       9.376  28.527  62.609  1.00  0.00     0.043 C 
HETATM   26  C17 UNL     1       9.250  27.155  63.232  1.00  0.00     0.011 C 
ENDBRANCH  14  17
ENDBRANCH  12  14
BRANCH  13  27
HETATM   27  C20 UNL     1       8.451  32.221  60.889  1.00  0.00     0.021 A 
HETATM   28  C21 UNL     1       9.228  31.918  61.982  1.00  0.00     0.017 A 
HETATM   29  C22 UNL     1       9.022  32.444  63.224  1.00  0.00     0.009 A 
HETATM   30  C23 UNL     1       8.006  33.325  63.461  1.00  0.00    -0.044 A 
HETATM   31  C26 UNL     1       7.204  33.649  62.379  1.00  0.00     0.016 A 
HETATM   32  C27 UNL     1       6.104  34.475  62.338  1.00  0.00     0.124 A 
HETATM   33  C29 UNL     1       7.400  33.124  61.110  1.00  0.00     0.073 A 
HETATM   34  N6  UNL     1       5.661  34.432  61.073  1.00  0.00    -0.306 N 
HETATM   35  C28 UNL     1       4.478  35.196  60.618  1.00  0.00     0.177 C 
HETATM   36  N7  UNL     1       6.416  33.644  60.356  1.00  0.00    -0.298 N 
ATOM     37  H7  UNL     1       6.278  33.452  59.364  1.00  0.00     0.187 HD
BRANCH  30  38
HETATM   38  C24 UNL     1       7.774  33.907  64.812  1.00  0.00     0.035 C 
HETATM   39  C25 UNL     1       9.050  34.155  65.560  1.00  0.00     0.010 C 
ENDBRANCH  30  38
ENDBRANCH  13  27
BRANCH   1  40
HETATM   40  N1  UNL     1       5.816  27.765  60.152  1.00  0.00    -0.377 N 
ATOM     41  H1  UNL     1       5.768  26.769  59.941  1.00  0.00     0.161 HD
BRANCH  40  42
HETATM   42  C2  UNL     1       5.162  28.286  61.341  1.00  0.00     0.116 C 
HETATM   43  C1  UNL     1       4.990  27.239  62.405  1.00  0.00     0.026 C 
ENDBRANCH  40  42
ENDBRANCH   1  40
TORSDOF 7
ENDMDL
MODEL 2
REMARK VINA RESULT: -7.319557513      1.833      4.046
REMARK  7 active torsions:
REMARK  status: ('A' for Active; 'I' for Inactive)
REMARK    1  A    between atoms: C2_2  and  N1_3 
REMARK    2  A    between atoms: N1_3  and  C3_5 
REMARK    3  A    between atoms: N3_16  and  C12_17 
REMARK    4  A    between atoms: C12_17  and  O1_18 
REMARK    5  A    between atoms: C12_17  and  C13_20 
REMARK    6  A    between atoms: C19_30  and  C20_31 
REMARK    7  A    between atoms: C23_34  and  C24_35 
ROOT
HETATM    1  C3  UNL     1       9.983  28.351  61.588  1.00  0.00     0.102 A 
HETATM    2  C4  UNL     1       9.550  29.682  61.589  1.00  0.00     0.062 A 
HETATM    3  C5  UNL     1       8.781  30.111  60.578  1.00  0.00     0.004 A 
HETATM    4  C6  UNL     1       8.424  29.228  59.534  1.00  0.00    -0.023 A 
HETATM    5  C7  UNL     1       8.872  27.932  59.576  1.00  0.00     0.014 A 
HETATM    6  C8  UNL     1       8.495  26.983  58.468  1.00  0.00     0.068 C 
HETATM    7  N2  UNL     1       9.637  27.525  60.597  1.00  0.00    -0.346 N 
ATOM      8  H2  UNL     1       9.963  26.559  60.618  1.00  0.00     0.167 HD
HETATM    9  C9  UNL     1       7.597  29.556  58.313  1.00  0.00     0.043 C 
HETATM   10  C10 UNL     1       8.225  30.581  57.421  1.00  0.00     0.025 C 
HETATM   11  C11 UNL     1       8.307  31.983  58.021  1.00  0.00     0.132 C 
HETATM   12  N3  UNL     1       8.989  31.950  59.277  1.00  0.00    -0.324 N 
HETATM   13  C19 UNL     1       8.320  31.511  60.521  1.00  0.00     0.060 C 
ENDROOT
BRANCH  12  14
HETATM   14  C12 UNL     1      10.355  32.216  59.325  1.00  0.00     0.172 C 
BRANCH  14  15
HETATM   15  O1  UNL     1      10.809  33.050  60.235  1.00  0.00    -0.344 OA
ATOM     16  H1  UNL     1      10.963  33.956  59.993  1.00  0.00     0.219 HD
ENDBRANCH  14  15
BRANCH  14  17
HETATM   17  C13 UNL     1      11.422  31.702  58.501  1.00  0.00     0.107 A 
HETATM   18  N4  UNL     1      11.778  30.429  58.372  1.00  0.00    -0.296 N 
HETATM   19  N5  UNL     1      12.791  30.284  57.547  1.00  0.00    -0.304 N 
ATOM     20  H4  UNL     1      11.321  29.657  58.856  1.00  0.00     0.187 HD
HETATM   21  C14 UNL     1      13.160  31.496  57.079  1.00  0.00     0.034 A 
ATOM     22  H5  UNL     1      13.229  29.397  57.299  1.00  0.00     0.186 HD
HETATM   23  C15 UNL     1      12.302  32.392  57.675  1.00  0.00    -0.002 A 
HETATM   24  C18 UNL     1      14.116  32.180  56.193  1.00  0.00     0.059 C 
HETATM   25  C16 UNL     1      12.627  33.771  57.226  1.00  0.00     0.043 C 
HETATM   26  C17 UNL     1      13.512  33.556  56.019  1.00  0.00     0.011 C 
ENDBRANCH  14  17
ENDBRANCH  12  14
BRANCH  13  27
HETATM   27  C20 UNL     1       8.237  32.368  61.624  1.00  0.00     0.021 A 
HETATM   28  C21 UNL     1       9.085  32.281  62.703  1.00  0.00     0.017 A 
HETATM   29  C22 UNL     1       9.005  33.096  63.793  1.00  0.00     0.009 A 
HETATM   30  C23 UNL     1       8.052  34.071  63.883  1.00  0.00    -0.044 A 
HETATM   31  C26 UNL     1       7.180  34.181  62.812  1.00  0.00     0.016 A 
HETATM   32  C27 UNL     1       6.119  35.042  62.652  1.00  0.00     0.124 A 
HETATM   33  C29 UNL     1       7.248  33.361  61.695  1.00  0.00     0.073 A 
HETATM   34  N6  UNL     1       5.572  34.731  61.467  1.00  0.00    -0.306 N 
HETATM   35  C28 UNL     1       4.392  35.440  60.924  1.00  0.00     0.177 C 
HETATM   36  N7  UNL     1       6.230  33.751  60.908  1.00  0.00    -0.298 N 
ATOM     37  H7  UNL     1       6.003  33.340  60.003  1.00  0.00     0.187 HD
BRANCH  30  38
HETATM   38  C24 UNL     1       7.958  34.966  65.068  1.00  0.00     0.035 C 
HETATM   39  C25 UNL     1       8.698  34.430  66.257  1.00  0.00     0.010 C 
ENDBRANCH  30  38
ENDBRANCH  13  27
BRANCH   1  40
HETATM   40  N1  UNL     1      10.787  27.921  62.656  1.00  0.00    -0.377 N 
ATOM     41  H1  UNL     1      11.560  28.504  62.978  1.00  0.00     0.161 HD
BRANCH  40  42
HETATM   42  C2  UNL     1      10.520  26.649  63.306  1.00  0.00     0.116 C 
HETATM   43  C1  UNL     1       9.168  26.612  63.960  1.00  0.00     0.026 C 
ENDBRANCH  40  42
ENDBRANCH   1  40
TORSDOF 7
ENDMDL
MODEL 3
REMARK VINA RESULT: -7.304777993      1.280      1.860
REMARK  7 active torsions:
REMARK  status: ('A' for Active; 'I' for Inactive)
REMARK    1  A    between atoms: C2_2  and  N1_3 
REMARK    2  A    between atoms: N1_3  and  C3_5 
REMARK    3  A    between atoms: N3_16  and  C12_17 
REMARK    4  A    between atoms: C12_17  and  O1_18 
REMARK    5  A    between atoms: C12_17  and  C13_20 
REMARK    6  A    between atoms: C19_30  and  C20_31 
REMARK    7  A    between atoms: C23_34  and  C24_35 
ROOT
HETATM    1  C3  UNL     1       7.286  28.120  59.399  1.00  0.00     0.102 A 
HETATM    2  C4  UNL     1       7.747  29.355  59.873  1.00  0.00     0.062 A 
HETATM    3  C5  UNL     1       8.005  30.330  58.989  1.00  0.00     0.004 A 
HETATM    4  C6  UNL     1       7.816  30.103  57.607  1.00  0.00    -0.023 A 
HETATM    5  C7  UNL     1       7.362  28.877  57.190  1.00  0.00     0.014 A 
HETATM    6  C8  UNL     1       7.156  28.627  55.718  1.00  0.00     0.068 C 
HETATM    7  N2  UNL     1       7.109  27.919  58.090  1.00  0.00    -0.346 N 
ATOM      8  H2  UNL     1       6.771  27.012  57.768  1.00  0.00     0.167 HD
HETATM    9  C9  UNL     1       8.088  31.076  56.484  1.00  0.00     0.043 C 
HETATM   10  C10 UNL     1       9.527  31.469  56.365  1.00  0.00     0.025 C 
HETATM   11  C11 UNL     1      10.055  32.311  57.525  1.00  0.00     0.132 C 
HETATM   12  N3  UNL     1       9.835  31.641  58.769  1.00  0.00    -0.324 N 
HETATM   13  C19 UNL     1       8.515  31.639  59.436  1.00  0.00     0.060 C 
ENDROOT
BRANCH  12  14
HETATM   14  C12 UNL     1      10.849  30.859  59.318  1.00  0.00     0.172 C 
BRANCH  14  15
HETATM   15  O1  UNL     1      11.941  31.449  59.754  1.00  0.00    -0.344 OA
ATOM     16  H1  UNL     1      12.351  31.126  60.548  1.00  0.00     0.219 HD
ENDBRANCH  14  15
BRANCH  14  17
HETATM   17  C13 UNL     1      10.910  29.430  59.502  1.00  0.00     0.107 A 
HETATM   18  N4  UNL     1      10.952  28.783  60.661  1.00  0.00    -0.296 N 
HETATM   19  N5  UNL     1      11.007  27.480  60.496  1.00  0.00    -0.304 N 
ATOM     20  H4  UNL     1      10.943  29.243  61.572  1.00  0.00     0.187 HD
HETATM   21  C14 UNL     1      11.004  27.200  59.174  1.00  0.00     0.034 A 
ATOM     22  H5  UNL     1      11.045  26.790  61.246  1.00  0.00     0.186 HD
HETATM   23  C15 UNL     1      10.943  28.423  58.545  1.00  0.00    -0.002 A 
HETATM   24  C18 UNL     1      11.040  26.098  58.200  1.00  0.00     0.059 C 
HETATM   25  C16 UNL     1      10.936  28.227  57.071  1.00  0.00     0.043 C 
HETATM   26  C17 UNL     1      10.618  26.758  56.906  1.00  0.00     0.011 C 
ENDBRANCH  14  17
ENDBRANCH  12  14
BRANCH  13  27
HETATM   27  C20 UNL     1       8.373  32.150  60.732  1.00  0.00     0.021 A 
HETATM   28  C21 UNL     1       9.176  31.763  61.779  1.00  0.00     0.017 A 
HETATM   29  C22 UNL     1       9.038  32.237  63.050  1.00  0.00     0.009 A 
HETATM   30  C23 UNL     1       8.068  33.144  63.368  1.00  0.00    -0.044 A 
HETATM   31  C26 UNL     1       7.241  33.551  62.334  1.00  0.00     0.016 A 
HETATM   32  C27 UNL     1       6.175  34.420  62.376  1.00  0.00     0.124 A 
HETATM   33  C29 UNL     1       7.368  33.080  61.036  1.00  0.00     0.073 A 
HETATM   34  N6  UNL     1       5.684  34.456  61.129  1.00  0.00    -0.306 N 
HETATM   35  C28 UNL     1       4.517  35.287  60.756  1.00  0.00     0.177 C 
HETATM   36  N7  UNL     1       6.378  33.675  60.346  1.00  0.00    -0.298 N 
ATOM     37  H7  UNL     1       6.196  33.536  59.352  1.00  0.00     0.187 HD
BRANCH  30  38
HETATM   38  C24 UNL     1       7.911  33.668  64.753  1.00  0.00     0.035 C 
HETATM   39  C25 UNL     1       9.217  34.067  65.371  1.00  0.00     0.010 C 
ENDBRANCH  30  38
ENDBRANCH  13  27
BRANCH   1  40
HETATM   40  N1  UNL     1       7.021  27.114  60.340  1.00  0.00    -0.377 N 
ATOM     41  H1  UNL     1       7.038  26.134  60.056  1.00  0.00     0.161 HD
BRANCH  40  42
HETATM   42  C2  UNL     1       6.724  27.462  61.719  1.00  0.00     0.116 C 
HETATM   43  C1  UNL     1       5.261  27.337  62.039  1.00  0.00     0.026 C 
ENDBRANCH  40  42
ENDBRANCH   1  40
TORSDOF 7
ENDMDL
MODEL 4
REMARK VINA RESULT: -6.926154706      2.725      6.206
REMARK  7 active torsions:
REMARK  status: ('A' for Active; 'I' for Inactive)
REMARK    1  A    between atoms: C2_2  and  N1_3 
REMARK    2  A    between atoms: N1_3  and  C3_5 
REMARK    3  A    between atoms: N3_16  and  C12_17 
REMARK    4  A    between atoms: C12_17  and  O1_18 
REMARK    5  A    between atoms: C12_17  and  C13_20 
REMARK    6  A    between atoms: C19_30  and  C20_31 
REMARK    7  A    between atoms: C23_34  and  C24_35 
ROOT
HETATM    1  C3  UNL     1       8.612  30.661  61.130  1.00  0.00     0.102 A 
HETATM    2  C4  UNL     1       9.188  29.448  61.525  1.00  0.00     0.062 A 
HETATM    3  C5  UNL     1       9.990  28.803  60.664  1.00  0.00     0.004 A 
HETATM    4  C6  UNL     1      10.237  29.346  59.383  1.00  0.00    -0.023 A 
HETATM    5  C7  UNL     1       9.650  30.538  59.041  1.00  0.00     0.014 A 
HETATM    6  C8  UNL     1       9.910  31.125  57.677  1.00  0.00     0.068 C 
HETATM    7  N2  UNL     1       8.856  31.165  59.917  1.00  0.00    -0.346 N 
ATOM      8  H2  UNL     1       8.425  32.051  59.651  1.00  0.00     0.167 HD
HETATM    9  C9  UNL     1      11.083  28.738  58.289  1.00  0.00     0.043 C 
HETATM   10  C10 UNL     1      10.563  27.427  57.788  1.00  0.00     0.025 C 
HETATM   11  C11 UNL     1      10.642  26.282  58.797  1.00  0.00     0.132 C 
HETATM   12  N3  UNL     1       9.973  26.639  60.010  1.00  0.00    -0.324 N 
HETATM   13  C19 UNL     1      10.602  27.511  61.025  1.00  0.00     0.060 C 
ENDROOT
BRANCH  12  14
HETATM   14  C12 UNL     1       8.644  26.264  60.197  1.00  0.00     0.172 C 
BRANCH  14  15
HETATM   15  O1  UNL     1       8.367  25.000  60.427  1.00  0.00    -0.344 OA
ATOM     16  H1  UNL     1       7.741  24.557  59.865  1.00  0.00     0.219 HD
ENDBRANCH  14  15
BRANCH  14  17
HETATM   17  C13 UNL     1       7.450  27.074  60.184  1.00  0.00     0.107 A 
HETATM   18  N4  UNL     1       7.044  27.867  59.200  1.00  0.00    -0.296 N 
HETATM   19  N5  UNL     1       5.916  28.475  59.493  1.00  0.00    -0.304 N 
ATOM     20  H4  UNL     1       7.547  27.991  58.322  1.00  0.00     0.187 HD
HETATM   21  C14 UNL     1       5.515  28.097  60.726  1.00  0.00     0.034 A 
ATOM     22  H5  UNL     1       5.421  29.129  58.886  1.00  0.00     0.186 HD
HETATM   23  C15 UNL     1       6.476  27.215  61.165  1.00  0.00    -0.002 A 
HETATM   24  C18 UNL     1       4.457  28.281  61.734  1.00  0.00     0.059 C 
HETATM   25  C16 UNL     1       6.129  26.735  62.529  1.00  0.00     0.043 C 
HETATM   26  C17 UNL     1       4.678  27.130  62.690  1.00  0.00     0.011 C 
ENDBRANCH  14  17
ENDBRANCH  12  14
BRANCH  13  27
HETATM   27  C20 UNL     1      10.789  27.056  62.335  1.00  0.00     0.021 A 
HETATM   28  C21 UNL     1       9.853  26.305  63.005  1.00  0.00     0.017 A 
HETATM   29  C22 UNL     1      10.012  25.869  64.288  1.00  0.00     0.009 A 
HETATM   30  C23 UNL     1      11.139  26.163  65.002  1.00  0.00    -0.044 A 
HETATM   31  C26 UNL     1      12.100  26.922  64.354  1.00  0.00     0.016 A 
HETATM   32  C27 UNL     1      13.302  27.385  64.839  1.00  0.00     0.124 A 
HETATM   33  C29 UNL     1      11.955  27.372  63.050  1.00  0.00     0.073 A 
HETATM   34  N6  UNL     1      13.849  28.094  63.841  1.00  0.00    -0.306 N 
HETATM   35  C28 UNL     1      15.162  28.765  63.967  1.00  0.00     0.177 C 
HETATM   36  N7  UNL     1      13.064  28.088  62.798  1.00  0.00    -0.298 N 
ATOM     37  H7  UNL     1      13.265  28.559  61.915  1.00  0.00     0.187 HD
BRANCH  30  38
HETATM   38  C24 UNL     1      11.323  25.692  66.403  1.00  0.00     0.035 C 
HETATM   39  C25 UNL     1      10.073  25.095  66.979  1.00  0.00     0.010 C 
ENDBRANCH  30  38
ENDBRANCH  13  27
BRANCH   1  40
HETATM   40  N1  UNL     1       7.776  31.320  62.046  1.00  0.00    -0.377 N 
ATOM     41  H1  UNL     1       7.047  30.800  62.534  1.00  0.00     0.161 HD
BRANCH  40  42
HETATM   42  C2  UNL     1       7.948  32.740  62.300  1.00  0.00     0.116 C 
HETATM   43  C1  UNL     1       9.130  33.026  63.182  1.00  0.00     0.026 C 
ENDBRANCH  40  42
ENDBRANCH   1  40
TORSDOF 7
ENDMDL
MODEL 5
REMARK VINA RESULT: -6.849636598      3.592      8.075
REMARK  7 active torsions:
REMARK  status: ('A' for Active; 'I' for Inactive)
REMARK    1  A    between atoms: C2_2  and  N1_3 
REMARK    2  A    between atoms: N1_3  and  C3_5 
REMARK    3  A    between atoms: N3_16  and  C12_17 
REMARK    4  A    between atoms: C12_17  and  O1_18 
REMARK    5  A    between atoms: C12_17  and  C13_20 
REMARK    6  A    between atoms: C19_30  and  C20_31 
REMARK    7  A    between atoms: C23_34  and  C24_35 
ROOT
HETATM    1  C3  UNL     1       6.116  25.707  63.627  1.00  0.00     0.102 A 
HETATM    2  C4  UNL     1       7.101  25.627  62.637  1.00  0.00     0.062 A 
HETATM    3  C5  UNL     1       8.248  24.989  62.917  1.00  0.00     0.004 A 
HETATM    4  C6  UNL     1       8.447  24.415  64.193  1.00  0.00    -0.023 A 
HETATM    5  C7  UNL     1       7.451  24.519  65.131  1.00  0.00     0.014 A 
HETATM    6  C8  UNL     1       7.655  23.909  66.494  1.00  0.00     0.068 C 
HETATM    7  N2  UNL     1       6.315  25.158  64.829  1.00  0.00    -0.346 N 
ATOM      8  H2  UNL     1       5.582  25.228  65.535  1.00  0.00     0.167 HD
HETATM    9  C9  UNL     1       9.682  23.695  64.679  1.00  0.00     0.043 C 
HETATM   10  C10 UNL     1      10.903  24.560  64.722  1.00  0.00     0.025 C 
HETATM   11  C11 UNL     1      11.422  24.998  63.354  1.00  0.00     0.132 C 
HETATM   12  N3  UNL     1      10.389  25.653  62.614  1.00  0.00    -0.324 N 
HETATM   13  C19 UNL     1       9.326  24.899  61.915  1.00  0.00     0.060 C 
ENDROOT
BRANCH  12  14
HETATM   14  C12 UNL     1      10.294  27.042  62.648  1.00  0.00     0.172 C 
BRANCH  14  15
HETATM   15  O1  UNL     1      10.235  27.647  63.814  1.00  0.00    -0.344 OA
ATOM     16  H1  UNL     1       9.748  27.238  64.521  1.00  0.00     0.219 HD
ENDBRANCH  14  15
BRANCH  14  17
HETATM   17  C13 UNL     1      10.249  27.988  61.559  1.00  0.00     0.107 A 
HETATM   18  N4  UNL     1      11.259  28.334  60.770  1.00  0.00    -0.296 N 
HETATM   19  N5  UNL     1      10.898  29.224  59.872  1.00  0.00    -0.304 N 
ATOM     20  H4  UNL     1      12.202  27.955  60.851  1.00  0.00     0.187 HD
HETATM   21  C14 UNL     1       9.590  29.514  60.035  1.00  0.00     0.034 A 
ATOM     22  H5  UNL     1      11.510  29.630  59.164  1.00  0.00     0.186 HD
HETATM   23  C15 UNL     1       9.176  28.740  61.095  1.00  0.00    -0.002 A 
HETATM   24  C18 UNL     1       8.485  30.332  59.507  1.00  0.00     0.059 C 
HETATM   25  C16 UNL     1       7.734  28.988  61.363  1.00  0.00     0.043 C 
HETATM   26  C17 UNL     1       7.255  29.699  60.118  1.00  0.00     0.011 C 
ENDBRANCH  14  17
ENDBRANCH  12  14
BRANCH  13  27
HETATM   27  C20 UNL     1       9.145  25.041  60.534  1.00  0.00     0.021 A 
HETATM   28  C21 UNL     1       7.962  25.462  59.976  1.00  0.00     0.017 A 
HETATM   29  C22 UNL     1       7.764  25.587  58.632  1.00  0.00     0.009 A 
HETATM   30  C23 UNL     1       8.754  25.292  57.738  1.00  0.00    -0.044 A 
HETATM   31  C26 UNL     1       9.958  24.862  58.271  1.00  0.00     0.016 A 
HETATM   32  C27 UNL     1      11.101  24.472  57.611  1.00  0.00     0.124 A 
HETATM   33  C29 UNL     1      10.176  24.730  59.634  1.00  0.00     0.073 A 
HETATM   34  N6  UNL     1      11.971  24.115  58.567  1.00  0.00    -0.306 N 
HETATM   35  C28 UNL     1      13.335  23.630  58.262  1.00  0.00     0.177 C 
HETATM   36  N7  UNL     1      11.433  24.265  59.748  1.00  0.00    -0.298 N 
ATOM     37  H7  UNL     1      11.900  24.058  60.631  1.00  0.00     0.187 HD
BRANCH  30  38
HETATM   38  C24 UNL     1       8.547  25.426  56.270  1.00  0.00     0.035 C 
HETATM   39  C25 UNL     1       7.836  24.247  55.677  1.00  0.00     0.010 C 
ENDBRANCH  30  38
ENDBRANCH  13  27
BRANCH   1  40
HETATM   40  N1  UNL     1       4.923  26.378  63.314  1.00  0.00    -0.377 N 
ATOM     41  H1  UNL     1       4.090  26.229  63.883  1.00  0.00     0.161 HD
BRANCH  40  42
HETATM   42  C2  UNL     1       4.872  27.286  62.181  1.00  0.00     0.116 C 
HETATM   43  C1  UNL     1       3.570  28.031  62.101  1.00  0.00     0.026 C 
ENDBRANCH  40  42
ENDBRANCH   1  40
TORSDOF 7
ENDMDL
