MODEL 1
REMARK VINA RESULT: -7.888584040      0.000      0.000
REMARK  6 active torsions:
REMARK  status: ('A' for Active; 'I' for Inactive)
REMARK    1  A    between atoms: C4_4  and  C5_5 
REMARK    2  A    between atoms: C10_13  and  N3_14 
REMARK       I    between atoms: N3_14  and  C12_16 
REMARK    3  A    between atoms: C12_16  and  C13_18 
REMARK    4  A    between atoms: C21_32  and  N7_34 
REMARK    5  A    between atoms: N7_34  and  C23_36 
REMARK    6  A    between atoms: C23_36  and  C24_37 
ROOT
HETATM    1  C13 UNL     1       7.784  29.637  61.435  1.00  0.00     0.228 A 
HETATM    2  N4  UNL     1       6.451  29.484  60.917  1.00  0.00    -0.318 N 
ATOM      3  H4  UNL     1       5.831  30.265  60.701  1.00  0.00     0.181 HD
HETATM    4  N5  UNL     1       6.149  28.315  60.766  1.00  0.00    -0.307 N 
ATOM      5  H5  UNL     1       5.252  27.988  60.406  1.00  0.00     0.186 HD
HETATM    6  C14 UNL     1       7.242  27.452  61.167  1.00  0.00     0.039 A 
HETATM    7  C15 UNL     1       8.221  28.190  61.577  1.00  0.00     0.026 A 
HETATM    8  C16 UNL     1       9.419  27.543  62.109  1.00  0.00     0.051 A 
HETATM    9  N6  UNL     1      10.478  28.316  62.492  1.00  0.00    -0.365 N 
ATOM     10  H6  UNL     1      10.394  29.332  62.433  1.00  0.00     0.165 HD
HETATM   11  C17 UNL     1      11.627  27.782  62.943  1.00  0.00     0.088 A 
HETATM   12  C18 UNL     1      11.739  26.418  63.023  1.00  0.00     0.018 A 
HETATM   13  C19 UNL     1      10.681  25.632  62.642  1.00  0.00     0.013 A 
HETATM   14  C20 UNL     1       9.473  26.174  62.169  1.00  0.00    -0.003 A 
HETATM   15  C21 UNL     1       8.360  25.269  61.819  1.00  0.00     0.060 C 
HETATM   16  C22 UNL     1       8.967  24.252  60.844  1.00  0.00     0.044 C 
HETATM   17  C29 UNL     1       7.313  25.995  61.056  1.00  0.00     0.095 C 
ENDROOT
BRANCH   1  18
HETATM   18  C12 UNL     1       8.648  30.280  60.394  1.00  0.00     0.253 C 
HETATM   19  N3  UNL     1       8.653  31.653  60.094  1.00  0.00    -0.320 N 
HETATM   20  C11 UNL     1       7.629  32.531  60.630  1.00  0.00     0.159 C 
HETATM   21  O1  UNL     1       9.407  29.504  59.765  1.00  0.00    -0.270 OA
BRANCH  19  22
HETATM   22  C10 UNL     1       9.660  32.194  59.209  1.00  0.00     0.042 A 
HETATM   23  C2  UNL     1       9.575  32.119  57.849  1.00  0.00    -0.034 A 
HETATM   24  C1  UNL     1       8.379  31.474  57.195  1.00  0.00     0.050 C 
HETATM   25  C3  UNL     1      10.593  32.640  57.090  1.00  0.00     0.022 A 
HETATM   26  C4  UNL     1      11.703  33.239  57.637  1.00  0.00    -0.012 A 
HETATM   27  C8  UNL     1      11.785  33.315  59.017  1.00  0.00     0.016 A 
HETATM   28  C9  UNL     1      10.749  32.784  59.791  1.00  0.00     0.031 A 
BRANCH  26  29
HETATM   29  C5  UNL     1      12.777  33.772  56.800  1.00  0.00     0.033 C 
HETATM   30  N1  UNL     1      12.880  35.021  56.477  1.00  0.00    -0.307 N 
HETATM   31  N2  UNL     1      13.996  35.224  55.679  1.00  0.00    -0.141 NA
ATOM     32  H1  UNL     1      12.232  35.752  56.768  1.00  0.00     0.182 HD
HETATM   33  C6  UNL     1      14.892  34.093  55.902  1.00  0.00     0.141 C 
HETATM   34  C7  UNL     1      13.881  32.980  56.223  1.00  0.00     0.076 C 
ENDBRANCH  26  29
ENDBRANCH  19  22
ENDBRANCH   1  18
BRANCH  15  35
HETATM   35  N7  UNL     1       7.725  24.648  62.916  1.00  0.00    -0.385 N 
ATOM     36  H7  UNL     1       7.626  23.632  62.922  1.00  0.00     0.160 HD
BRANCH  35  37
HETATM   37  C23 UNL     1       7.228  25.385  63.993  1.00  0.00     0.095 C 
BRANCH  37  38
HETATM   38  C24 UNL     1       7.936  24.970  65.270  1.00  0.00    -0.025 A 
HETATM   39  C25 UNL     1       7.662  23.996  66.105  1.00  0.00    -0.010 A 
HETATM   40  C26 UNL     1       8.649  23.974  67.232  1.00  0.00     0.055 A 
HETATM   41  C27 UNL     1       9.543  25.099  66.917  1.00  0.00    -0.022 A 
HETATM   42  C28 UNL     1       9.129  25.646  65.815  1.00  0.00     0.009 A 
ENDBRANCH  37  38
ENDBRANCH  35  37
ENDBRANCH  15  35
TORSDOF 6
ENDMDL
MODEL 2
REMARK VINA RESULT: -7.884356190      4.306      8.360
REMARK  6 active torsions:
REMARK  status: ('A' for Active; 'I' for Inactive)
REMARK    1  A    between atoms: C4_4  and  C5_5 
REMARK    2  A    between atoms: C10_13  and  N3_14 
REMARK       I    between atoms: N3_14  and  C12_16 
REMARK    3  A    between atoms: C12_16  and  C13_18 
REMARK    4  A    between atoms: C21_32  and  N7_34 
REMARK    5  A    between atoms: N7_34  and  C23_36 
REMARK    6  A    between atoms: C23_36  and  C24_37 
ROOT
HETATM    1  C13 UNL     1       8.251  29.729  60.703  1.00  0.00     0.228 A 
HETATM    2  N4  UNL     1       7.543  28.490  60.884  1.00  0.00    -0.318 N 
ATOM      3  H4  UNL     1       7.389  28.050  61.792  1.00  0.00     0.181 HD
HETATM    4  N5  UNL     1       7.151  28.028  59.829  1.00  0.00    -0.307 N 
ATOM      5  H5  UNL     1       6.625  27.159  59.735  1.00  0.00     0.186 HD
HETATM    6  C14 UNL     1       7.534  28.884  58.725  1.00  0.00     0.039 A 
HETATM    7  C15 UNL     1       8.192  29.894  59.195  1.00  0.00     0.026 A 
HETATM    8  C16 UNL     1       8.754  30.867  58.260  1.00  0.00     0.051 A 
HETATM    9  N6  UNL     1       9.403  31.964  58.754  1.00  0.00    -0.365 N 
ATOM     10  H6  UNL     1       9.514  32.059  59.764  1.00  0.00     0.165 HD
HETATM   11  C17 UNL     1       9.900  32.921  57.951  1.00  0.00     0.088 A 
HETATM   12  C18 UNL     1       9.752  32.793  56.594  1.00  0.00     0.018 A 
HETATM   13  C19 UNL     1       9.104  31.694  56.088  1.00  0.00     0.013 A 
HETATM   14  C20 UNL     1       8.579  30.684  56.913  1.00  0.00    -0.003 A 
HETATM   15  C21 UNL     1       7.932  29.509  56.297  1.00  0.00     0.060 C 
HETATM   16  C22 UNL     1       6.882  30.088  55.342  1.00  0.00     0.044 C 
HETATM   17  C29 UNL     1       7.178  28.731  57.315  1.00  0.00     0.095 C 
ENDROOT
BRANCH   1  18
HETATM   18  C12 UNL     1       7.462  30.843  61.320  1.00  0.00     0.253 C 
HETATM   19  N3  UNL     1       8.017  32.024  61.841  1.00  0.00    -0.320 N 
HETATM   20  C11 UNL     1       9.450  32.148  62.029  1.00  0.00     0.159 C 
HETATM   21  O1  UNL     1       6.219  30.671  61.357  1.00  0.00    -0.270 OA
BRANCH  19  22
HETATM   22  C10 UNL     1       7.152  33.114  62.237  1.00  0.00     0.042 A 
HETATM   23  C2  UNL     1       7.138  33.633  63.499  1.00  0.00    -0.034 A 
HETATM   24  C1  UNL     1       8.070  33.094  64.554  1.00  0.00     0.050 C 
HETATM   25  C3  UNL     1       6.264  34.651  63.788  1.00  0.00     0.022 A 
HETATM   26  C4  UNL     1       5.396  35.179  62.862  1.00  0.00    -0.012 A 
HETATM   27  C8  UNL     1       5.414  34.650  61.583  1.00  0.00     0.016 A 
HETATM   28  C9  UNL     1       6.303  33.612  61.286  1.00  0.00     0.031 A 
BRANCH  26  29
HETATM   29  C5  UNL     1       4.467  36.254  63.206  1.00  0.00     0.033 C 
HETATM   30  N1  UNL     1       3.224  36.267  62.850  1.00  0.00    -0.307 N 
HETATM   31  N2  UNL     1       2.597  37.411  63.322  1.00  0.00    -0.141 NA
ATOM     32  H1  UNL     1       2.769  35.539  62.299  1.00  0.00     0.182 HD
HETATM   33  C6  UNL     1       3.404  37.913  64.430  1.00  0.00     0.141 C 
HETATM   34  C7  UNL     1       4.806  37.451  64.002  1.00  0.00     0.076 C 
ENDBRANCH  26  29
ENDBRANCH  19  22
ENDBRANCH   1  18
BRANCH  15  35
HETATM   35  N7  UNL     1       8.810  28.612  55.650  1.00  0.00    -0.385 N 
ATOM     36  H7  UNL     1       9.623  28.262  56.157  1.00  0.00     0.160 HD
BRANCH  35  37
HETATM   37  C23 UNL     1       8.595  28.191  54.336  1.00  0.00     0.095 C 
BRANCH  37  38
HETATM   38  C24 UNL     1       8.070  26.768  54.331  1.00  0.00    -0.025 A 
HETATM   39  C25 UNL     1       8.199  25.821  55.231  1.00  0.00    -0.010 A 
HETATM   40  C26 UNL     1       7.503  24.571  54.785  1.00  0.00     0.055 A 
HETATM   41  C27 UNL     1       6.949  24.946  53.474  1.00  0.00    -0.022 A 
HETATM   42  C28 UNL     1       7.276  26.179  53.236  1.00  0.00     0.009 A 
ENDBRANCH  37  38
ENDBRANCH  35  37
ENDBRANCH  15  35
TORSDOF 6
ENDMDL
MODEL 3
REMARK VINA RESULT: -7.743315875      3.552      6.843
REMARK  6 active torsions:
REMARK  status: ('A' for Active; 'I' for Inactive)
REMARK    1  A    between atoms: C4_4  and  C5_5 
REMARK    2  A    between atoms: C10_13  and  N3_14 
REMARK       I    between atoms: N3_14  and  C12_16 
REMARK    3  A    between atoms: C12_16  and  C13_18 
REMARK    4  A    between atoms: C21_32  and  N7_34 
REMARK    5  A    between atoms: N7_34  and  C23_36 
REMARK    6  A    between atoms: C23_36  and  C24_37 
ROOT
HETATM    1  C13 UNL     1       8.384  30.206  60.428  1.00  0.00     0.228 A 
HETATM    2  N4  UNL     1       9.822  30.248  60.426  1.00  0.00    -0.318 N 
ATOM      3  H4  UNL     1      10.370  30.960  59.943  1.00  0.00     0.181 HD
HETATM    4  N5  UNL     1      10.307  29.335  61.067  1.00  0.00    -0.307 N 
ATOM      5  H5  UNL     1      11.308  29.183  61.196  1.00  0.00     0.186 HD
HETATM    6  C14 UNL     1       9.267  28.493  61.623  1.00  0.00     0.039 A 
HETATM    7  C15 UNL     1       8.118  28.966  61.263  1.00  0.00     0.026 A 
HETATM    8  C16 UNL     1       6.906  28.240  61.640  1.00  0.00     0.051 A 
HETATM    9  N6  UNL     1       5.688  28.764  61.309  1.00  0.00    -0.365 N 
ATOM     10  H6  UNL     1       5.653  29.631  60.772  1.00  0.00     0.165 HD
HETATM   11  C17 UNL     1       4.535  28.172  61.668  1.00  0.00     0.088 A 
HETATM   12  C18 UNL     1       4.582  27.007  62.389  1.00  0.00     0.018 A 
HETATM   13  C19 UNL     1       5.801  26.472  62.725  1.00  0.00     0.013 A 
HETATM   14  C20 UNL     1       7.015  27.077  62.357  1.00  0.00    -0.003 A 
HETATM   15  C21 UNL     1       8.289  26.422  62.715  1.00  0.00     0.060 C 
HETATM   16  C22 UNL     1       8.195  26.169  64.226  1.00  0.00     0.044 C 
HETATM   17  C29 UNL     1       9.430  27.353  62.525  1.00  0.00     0.095 C 
ENDROOT
BRANCH   1  18
HETATM   18  C12 UNL     1       7.856  31.389  61.179  1.00  0.00     0.253 C 
HETATM   19  N3  UNL     1       7.601  32.649  60.611  1.00  0.00    -0.320 N 
HETATM   20  C11 UNL     1       8.060  32.963  59.270  1.00  0.00     0.159 C 
HETATM   21  O1  UNL     1       7.639  31.203  62.401  1.00  0.00    -0.270 OA
BRANCH  19  22
HETATM   22  C10 UNL     1       6.913  33.662  61.381  1.00  0.00     0.042 A 
HETATM   23  C2  UNL     1       7.499  34.341  62.409  1.00  0.00    -0.034 A 
HETATM   24  C1  UNL     1       8.937  34.076  62.777  1.00  0.00     0.050 C 
HETATM   25  C3  UNL     1       6.758  35.268  63.100  1.00  0.00     0.022 A 
HETATM   26  C4  UNL     1       5.445  35.549  62.803  1.00  0.00    -0.012 A 
HETATM   27  C8  UNL     1       4.855  34.858  61.758  1.00  0.00     0.016 A 
HETATM   28  C9  UNL     1       5.608  33.912  61.054  1.00  0.00     0.031 A 
BRANCH  26  29
HETATM   29  C5  UNL     1       4.680  36.532  63.567  1.00  0.00     0.033 C 
HETATM   30  N1  UNL     1       3.414  36.741  63.399  1.00  0.00    -0.307 N 
HETATM   31  N2  UNL     1       2.968  37.729  64.264  1.00  0.00    -0.141 NA
ATOM     32  H1  UNL     1       2.828  36.249  62.726  1.00  0.00     0.182 HD
HETATM   33  C6  UNL     1       3.937  37.814  65.352  1.00  0.00     0.141 C 
HETATM   34  C7  UNL     1       5.228  37.404  64.625  1.00  0.00     0.076 C 
ENDBRANCH  26  29
ENDBRANCH  19  22
ENDBRANCH   1  18
BRANCH  15  35
HETATM   35  N7  UNL     1       8.582  25.245  61.992  1.00  0.00    -0.385 N 
ATOM     36  H7  UNL     1       9.279  24.598  62.360  1.00  0.00     0.160 HD
BRANCH  35  37
HETATM   37  C23 UNL     1       7.944  24.944  60.787  1.00  0.00     0.095 C 
BRANCH  37  38
HETATM   38  C24 UNL     1       8.700  25.575  59.633  1.00  0.00    -0.025 A 
HETATM   39  C25 UNL     1       9.974  25.507  59.326  1.00  0.00    -0.010 A 
HETATM   40  C26 UNL     1      10.261  26.300  58.087  1.00  0.00     0.055 A 
HETATM   41  C27 UNL     1       8.943  26.844  57.724  1.00  0.00    -0.022 A 
HETATM   42  C28 UNL     1       8.081  26.429  58.602  1.00  0.00     0.009 A 
ENDBRANCH  37  38
ENDBRANCH  35  37
ENDBRANCH  15  35
TORSDOF 6
ENDMDL
MODEL 4
REMARK VINA RESULT: -7.720425504      4.239      8.312
REMARK  6 active torsions:
REMARK  status: ('A' for Active; 'I' for Inactive)
REMARK    1  A    between atoms: C4_4  and  C5_5 
REMARK    2  A    between atoms: C10_13  and  N3_14 
REMARK       I    between atoms: N3_14  and  C12_16 
REMARK    3  A    between atoms: C12_16  and  C13_18 
REMARK    4  A    between atoms: C21_32  and  N7_34 
REMARK    5  A    between atoms: N7_34  and  C23_36 
REMARK    6  A    between atoms: C23_36  and  C24_37 
ROOT
HETATM    1  C13 UNL     1       8.452  29.880  60.794  1.00  0.00     0.228 A 
HETATM    2  N4  UNL     1       7.816  28.608  61.007  1.00  0.00    -0.318 N 
ATOM      3  H4  UNL     1       7.688  28.182  61.925  1.00  0.00     0.181 HD
HETATM    4  N5  UNL     1       7.448  28.100  59.965  1.00  0.00    -0.307 N 
ATOM      5  H5  UNL     1       6.971  27.200  59.893  1.00  0.00     0.186 HD
HETATM    6  C14 UNL     1       7.781  28.949  58.839  1.00  0.00     0.039 A 
HETATM    7  C15 UNL     1       8.382  30.005  59.283  1.00  0.00     0.026 A 
HETATM    8  C16 UNL     1       8.887  30.986  58.324  1.00  0.00     0.051 A 
HETATM    9  N6  UNL     1       9.474  32.129  58.789  1.00  0.00    -0.365 N 
ATOM     10  H6  UNL     1       9.581  32.254  59.796  1.00  0.00     0.165 HD
HETATM   11  C17 UNL     1       9.915  33.093  57.962  1.00  0.00     0.088 A 
HETATM   12  C18 UNL     1       9.772  32.924  56.609  1.00  0.00     0.018 A 
HETATM   13  C19 UNL     1       9.185  31.779  56.131  1.00  0.00     0.013 A 
HETATM   14  C20 UNL     1       8.719  30.761  56.982  1.00  0.00    -0.003 A 
HETATM   15  C21 UNL     1       8.139  29.537  56.396  1.00  0.00     0.060 C 
HETATM   16  C22 UNL     1       7.056  30.034  55.430  1.00  0.00     0.044 C 
HETATM   17  C29 UNL     1       7.431  28.743  57.434  1.00  0.00     0.095 C 
ENDROOT
BRANCH   1  18
HETATM   18  C12 UNL     1       7.603  30.963  61.387  1.00  0.00     0.253 C 
HETATM   19  N3  UNL     1       8.099  32.146  61.958  1.00  0.00    -0.320 N 
HETATM   20  C11 UNL     1       9.517  32.302  62.226  1.00  0.00     0.159 C 
HETATM   21  O1  UNL     1       6.365  30.760  61.353  1.00  0.00    -0.270 OA
BRANCH  19  22
HETATM   22  C10 UNL     1       7.187  33.207  62.326  1.00  0.00     0.042 A 
HETATM   23  C2  UNL     1       7.096  33.705  63.593  1.00  0.00    -0.034 A 
HETATM   24  C1  UNL     1       7.987  33.173  64.687  1.00  0.00     0.050 C 
HETATM   25  C3  UNL     1       6.181  34.695  63.853  1.00  0.00     0.022 A 
HETATM   26  C4  UNL     1       5.347  35.216  62.891  1.00  0.00    -0.012 A 
HETATM   27  C8  UNL     1       5.444  34.708  61.607  1.00  0.00     0.016 A 
HETATM   28  C9  UNL     1       6.375  33.699  61.341  1.00  0.00     0.031 A 
BRANCH  26  29
HETATM   29  C5  UNL     1       4.375  36.261  63.204  1.00  0.00     0.033 C 
HETATM   30  N1  UNL     1       3.152  36.250  62.781  1.00  0.00    -0.307 N 
HETATM   31  N2  UNL     1       2.472  37.369  63.239  1.00  0.00    -0.141 NA
ATOM     32  H1  UNL     1       2.746  35.522  62.194  1.00  0.00     0.182 HD
HETATM   33  C6  UNL     1       3.205  37.870  64.398  1.00  0.00     0.141 C 
HETATM   34  C7  UNL     1       4.639  37.450  64.038  1.00  0.00     0.076 C 
ENDBRANCH  26  29
ENDBRANCH  19  22
ENDBRANCH   1  18
BRANCH  15  35
HETATM   35  N7  UNL     1       9.064  28.676  55.768  1.00  0.00    -0.385 N 
ATOM     36  H7  UNL     1       8.918  28.418  54.791  1.00  0.00     0.160 HD
BRANCH  35  37
HETATM   37  C23 UNL     1      10.174  28.166  56.446  1.00  0.00     0.095 C 
BRANCH  37  38
HETATM   38  C24 UNL     1      11.395  29.015  56.143  1.00  0.00    -0.025 A 
HETATM   39  C25 UNL     1      11.964  29.288  54.993  1.00  0.00    -0.010 A 
HETATM   40  C26 UNL     1      13.155  30.176  55.191  1.00  0.00     0.055 A 
HETATM   41  C27 UNL     1      13.187  30.373  56.649  1.00  0.00    -0.022 A 
HETATM   42  C28 UNL     1      12.194  29.715  57.166  1.00  0.00     0.009 A 
ENDBRANCH  37  38
ENDBRANCH  35  37
ENDBRANCH  15  35
TORSDOF 6
ENDMDL
MODEL 5
REMARK VINA RESULT: -7.638296783      3.914      8.534
REMARK  6 active torsions:
REMARK  status: ('A' for Active; 'I' for Inactive)
REMARK    1  A    between atoms: C4_4  and  C5_5 
REMARK    2  A    between atoms: C10_13  and  N3_14 
REMARK       I    between atoms: N3_14  and  C12_16 
REMARK    3  A    between atoms: C12_16  and  C13_18 
REMARK    4  A    between atoms: C21_32  and  N7_34 
REMARK    5  A    between atoms: N7_34  and  C23_36 
REMARK    6  A    between atoms: C23_36  and  C24_37 
ROOT
HETATM    1  C13 UNL     1      11.511  26.405  62.123  1.00  0.00     0.228 A 
HETATM    2  N4  UNL     1      11.424  24.969  62.081  1.00  0.00    -0.318 N 
ATOM      3  H4  UNL     1      12.225  24.347  62.189  1.00  0.00     0.181 HD
HETATM    4  N5  UNL     1      10.284  24.585  61.900  1.00  0.00    -0.307 N 
ATOM      5  H5  UNL     1      10.003  23.606  61.841  1.00  0.00     0.186 HD
HETATM    6  C14 UNL     1       9.380  25.712  61.780  1.00  0.00     0.039 A 
HETATM    7  C15 UNL     1      10.064  26.803  61.896  1.00  0.00     0.026 A 
HETATM    8  C16 UNL     1       9.381  28.085  61.734  1.00  0.00     0.051 A 
HETATM    9  N6  UNL     1      10.087  29.241  61.910  1.00  0.00    -0.365 N 
ATOM     10  H6  UNL     1      11.086  29.184  62.113  1.00  0.00     0.165 HD
HETATM   11  C17 UNL     1       9.509  30.452  61.823  1.00  0.00     0.088 A 
HETATM   12  C18 UNL     1       8.168  30.530  61.550  1.00  0.00     0.018 A 
HETATM   13  C19 UNL     1       7.449  29.374  61.370  1.00  0.00     0.013 A 
HETATM   14  C20 UNL     1       8.038  28.101  61.456  1.00  0.00    -0.003 A 
HETATM   15  C21 UNL     1       7.213  26.902  61.207  1.00  0.00     0.060 C 
HETATM   16  C22 UNL     1       6.004  27.052  62.139  1.00  0.00     0.044 C 
HETATM   17  C29 UNL     1       7.924  25.675  61.649  1.00  0.00     0.095 C 
ENDROOT
BRANCH   1  18
HETATM   18  C12 UNL     1      11.898  26.836  63.504  1.00  0.00     0.253 C 
HETATM   19  N3  UNL     1      13.211  27.117  63.917  1.00  0.00    -0.320 N 
HETATM   20  C11 UNL     1      14.341  26.780  63.072  1.00  0.00     0.159 C 
HETATM   21  O1  UNL     1      10.953  26.939  64.324  1.00  0.00    -0.270 OA
BRANCH  19  22
HETATM   22  C10 UNL     1      13.448  27.709  65.216  1.00  0.00     0.042 A 
HETATM   23  C2  UNL     1      13.585  26.972  66.356  1.00  0.00    -0.034 A 
HETATM   24  C1  UNL     1      13.521  25.466  66.303  1.00  0.00     0.050 C 
HETATM   25  C3  UNL     1      13.782  27.623  67.548  1.00  0.00     0.022 A 
HETATM   26  C4  UNL     1      13.850  28.993  67.650  1.00  0.00    -0.012 A 
HETATM   27  C8  UNL     1      13.711  29.737  66.491  1.00  0.00     0.016 A 
HETATM   28  C9  UNL     1      13.509  29.074  65.276  1.00  0.00     0.031 A 
BRANCH  26  29
HETATM   29  C5  UNL     1      14.047  29.657  68.938  1.00  0.00     0.033 C 
HETATM   30  N1  UNL     1      15.184  30.134  69.329  1.00  0.00    -0.307 N 
HETATM   31  N2  UNL     1      15.062  30.703  70.589  1.00  0.00    -0.141 NA
ATOM     32  H1  UNL     1      16.048  30.096  68.789  1.00  0.00     0.182 HD
HETATM   33  C6  UNL     1      13.647  30.995  70.789  1.00  0.00     0.141 C 
HETATM   34  C7  UNL     1      12.998  29.882  69.951  1.00  0.00     0.076 C 
ENDBRANCH  26  29
ENDBRANCH  19  22
ENDBRANCH   1  18
BRANCH  15  35
HETATM   35  N7  UNL     1       6.833  26.705  59.862  1.00  0.00    -0.385 N 
ATOM     36  H7  UNL     1       5.841  26.676  59.626  1.00  0.00     0.160 HD
BRANCH  35  37
HETATM   37  C23 UNL     1       7.777  26.549  58.845  1.00  0.00     0.095 C 
BRANCH  37  38
HETATM   38  C24 UNL     1       8.030  27.883  58.168  1.00  0.00    -0.025 A 
HETATM   39  C25 UNL     1       7.182  28.722  57.623  1.00  0.00    -0.010 A 
HETATM   40  C26 UNL     1       7.901  29.919  57.076  1.00  0.00     0.055 A 
HETATM   41  C27 UNL     1       9.309  29.636  57.392  1.00  0.00    -0.022 A 
HETATM   42  C28 UNL     1       9.363  28.492  58.003  1.00  0.00     0.009 A 
ENDBRANCH  37  38
ENDBRANCH  35  37
ENDBRANCH  15  35
TORSDOF 6
ENDMDL
