MODEL 1
REMARK VINA RESULT: -10.322446304      0.000      0.000
REMARK  6 active torsions:
REMARK  status: ('A' for Active; 'I' for Inactive)
REMARK    1  A    between atoms: C5_5  and  N1_6 
REMARK    2  A    between atoms: N1_6  and  C6_8 
REMARK    3  A    between atoms: C6_8  and  C7_9 
REMARK    4  A    between atoms: N2_13  and  C11_14 
REMARK    5  A    between atoms: C23_33  and  C24_34 
REMARK    6  A    between atoms: C24_34  and  N6_35 
ROOT
HETATM    1  C7  UNL     1       8.264  37.156  68.570  1.00  0.00    -0.046 C 
HETATM    2  C8  UNL     1       7.994  36.354  69.802  1.00  0.00     0.039 C 
HETATM    3  C9  UNL     1       8.886  35.130  69.934  1.00  0.00     0.025 C 
HETATM    4  C10 UNL     1       8.821  34.336  68.641  1.00  0.00     0.142 C 
HETATM    5  N2  UNL     1       8.948  35.179  67.489  1.00  0.00    -0.214 N 
HETATM    6  C22 UNL     1       9.377  36.551  67.741  1.00  0.00     0.176 C 
ENDROOT
BRANCH   1   7
HETATM    7  C6  UNL     1       8.226  38.605  68.765  1.00  0.00     0.092 C 
BRANCH   7   8
HETATM    8  N1  UNL     1       7.534  39.471  67.906  1.00  0.00    -0.365 N 
ATOM      9  H1  UNL     1       7.842  40.443  67.927  1.00  0.00     0.165 HD
BRANCH   8  10
HETATM   10  C5  UNL     1       6.467  39.193  67.012  1.00  0.00     0.040 A 
HETATM   11  C4  UNL     1       6.391  38.005  66.316  1.00  0.00     0.030 A 
HETATM   12  C3  UNL     1       5.342  37.688  65.494  1.00  0.00     0.009 A 
HETATM   13  C2  UNL     1       4.294  38.570  65.328  1.00  0.00    -0.061 A 
HETATM   14  C1  UNL     1       3.128  38.257  64.425  1.00  0.00     0.048 C 
HETATM   15  C29 UNL     1       4.336  39.748  66.000  1.00  0.00     0.018 A 
HETATM   16  C23 UNL     1       5.409  40.085  66.853  1.00  0.00    -0.011 A 
BRANCH  16  17
HETATM   17  C24 UNL     1       5.338  41.382  67.523  1.00  0.00     0.189 C 
BRANCH  17  18
HETATM   18  N6  UNL     1       4.841  42.486  66.770  1.00  0.00    -0.299 N 
HETATM   19  C25 UNL     1       5.583  43.218  65.899  1.00  0.00     0.112 A 
HETATM   20  C26 UNL     1       4.766  44.163  65.334  1.00  0.00     0.045 A 
HETATM   21  C27 UNL     1       3.524  43.972  65.889  1.00  0.00     0.023 A 
HETATM   22  C28 UNL     1       2.283  44.755  65.587  1.00  0.00     0.070 C 
HETATM   23  N7  UNL     1       3.623  42.956  66.743  1.00  0.00    -0.303 N 
ATOM     24  H7  UNL     1       2.851  42.594  67.303  1.00  0.00     0.186 HD
ENDBRANCH  17  18
ENDBRANCH  16  17
ENDBRANCH   8  10
ENDBRANCH   7   8
ENDBRANCH   1   7
BRANCH   5  25
HETATM   25  C11 UNL     1       8.655  34.732  66.197  1.00  0.00     0.682 A 
HETATM   26  N3  UNL     1       9.414  33.880  65.439  1.00  0.00    -0.174 N 
HETATM   27  C12 UNL     1       8.843  33.681  64.238  1.00  0.00     0.149 A 
ATOM     28  H3  UNL     1      10.291  33.456  65.743  1.00  0.00     0.186 HD
HETATM   29  N4  UNL     1       9.167  32.961  63.147  1.00  0.00    -0.349 N 
HETATM   30  C16 UNL     1       7.683  34.424  64.213  1.00  0.00     0.100 A 
HETATM   31  C13 UNL     1       8.406  32.935  62.024  1.00  0.00     0.099 A 
ATOM     32  H4  UNL     1      10.025  32.409  63.166  1.00  0.00     0.166 HD
HETATM   33  C14 UNL     1       7.239  33.662  61.950  1.00  0.00    -0.010 A 
HETATM   34  C15 UNL     1       6.902  34.399  63.066  1.00  0.00    -0.015 A 
HETATM   35  C21 UNL     1       6.379  33.663  60.732  1.00  0.00     0.209 C 
HETATM   36  C17 UNL     1       5.651  35.191  63.012  1.00  0.00     0.079 C 
HETATM   37  C18 UNL     1       4.720  34.778  61.925  1.00  0.00     0.058 C 
HETATM   38  C19 UNL     1       4.594  35.915  60.918  1.00  0.00     0.046 C 
HETATM   39  C20 UNL     1       3.343  34.538  62.516  1.00  0.00     0.046 C 
HETATM   40  O1  UNL     1       5.069  33.642  61.228  1.00  0.00    -0.376 OA
HETATM   41  N5  UNL     1       7.600  35.039  65.402  1.00  0.00    -0.187 N 
ATOM     42  H5  UNL     1       6.838  35.660  65.674  1.00  0.00     0.184 HD
ENDBRANCH   5  25
TORSDOF 6
ENDMDL
MODEL 2
REMARK VINA RESULT: -10.228428922      3.215      9.483
REMARK  6 active torsions:
REMARK  status: ('A' for Active; 'I' for Inactive)
REMARK    1  A    between atoms: C5_5  and  N1_6 
REMARK    2  A    between atoms: N1_6  and  C6_8 
REMARK    3  A    between atoms: C6_8  and  C7_9 
REMARK    4  A    between atoms: N2_13  and  C11_14 
REMARK    5  A    between atoms: C23_33  and  C24_34 
REMARK    6  A    between atoms: C24_34  and  N6_35 
ROOT
HETATM    1  C7  UNL     1       4.809  37.710  65.122  1.00  0.00    -0.046 C 
HETATM    2  C8  UNL     1       6.170  37.250  64.710  1.00  0.00     0.039 C 
HETATM    3  C9  UNL     1       7.190  37.290  65.837  1.00  0.00     0.025 C 
HETATM    4  C10 UNL     1       7.158  38.669  66.475  1.00  0.00     0.142 C 
HETATM    5  N2  UNL     1       5.819  39.114  66.720  1.00  0.00    -0.214 N 
HETATM    6  C22 UNL     1       4.771  38.107  66.582  1.00  0.00     0.176 C 
ENDROOT
BRANCH   1   7
HETATM    7  C6  UNL     1       3.707  36.926  64.566  1.00  0.00     0.092 C 
BRANCH   7   8
HETATM    8  N1  UNL     1       3.903  35.734  63.853  1.00  0.00    -0.365 N 
ATOM      9  H1  UNL     1       4.289  34.961  64.395  1.00  0.00     0.165 HD
BRANCH   8  10
HETATM   10  C5  UNL     1       3.645  35.446  62.488  1.00  0.00     0.040 A 
HETATM   11  C4  UNL     1       2.362  35.284  62.007  1.00  0.00     0.030 A 
HETATM   12  C3  UNL     1       2.084  35.066  60.685  1.00  0.00     0.009 A 
HETATM   13  C2  UNL     1       3.103  34.998  59.758  1.00  0.00    -0.061 A 
HETATM   14  C1  UNL     1       2.833  34.751  58.295  1.00  0.00     0.048 C 
HETATM   15  C29 UNL     1       4.378  35.156  60.196  1.00  0.00     0.018 A 
HETATM   16  C23 UNL     1       4.679  35.384  61.556  1.00  0.00    -0.011 A 
BRANCH  16  17
HETATM   17  C24 UNL     1       6.090  35.541  61.903  1.00  0.00     0.189 C 
BRANCH  17  18
HETATM   18  N6  UNL     1       6.843  34.355  62.147  1.00  0.00    -0.299 N 
HETATM   19  C25 UNL     1       7.536  34.106  63.287  1.00  0.00     0.112 A 
HETATM   20  C26 UNL     1       8.097  32.859  63.181  1.00  0.00     0.045 A 
HETATM   21  C27 UNL     1       7.719  32.376  61.953  1.00  0.00     0.023 A 
HETATM   22  C28 UNL     1       8.076  31.043  61.371  1.00  0.00     0.070 C 
HETATM   23  N7  UNL     1       6.969  33.311  61.373  1.00  0.00    -0.303 N 
ATOM     24  H7  UNL     1       6.550  33.223  60.447  1.00  0.00     0.186 HD
ENDBRANCH  17  18
ENDBRANCH  16  17
ENDBRANCH   8  10
ENDBRANCH   7   8
ENDBRANCH   1   7
BRANCH   5  25
HETATM   25  C11 UNL     1       5.517  40.440  67.047  1.00  0.00     0.682 A 
HETATM   26  N3  UNL     1       6.122  41.197  68.016  1.00  0.00    -0.174 N 
HETATM   27  C12 UNL     1       5.568  42.421  68.071  1.00  0.00     0.149 A 
ATOM     28  H3  UNL     1       6.885  40.876  68.612  1.00  0.00     0.186 HD
HETATM   29  N4  UNL     1       5.777  43.517  68.826  1.00  0.00    -0.349 N 
HETATM   30  C16 UNL     1       4.577  42.462  67.116  1.00  0.00     0.100 A 
HETATM   31  C13 UNL     1       5.055  44.658  68.689  1.00  0.00     0.099 A 
ATOM     32  H4  UNL     1       6.512  43.488  69.533  1.00  0.00     0.166 HD
HETATM   33  C14 UNL     1       4.053  44.748  67.749  1.00  0.00    -0.010 A 
HETATM   34  C15 UNL     1       3.837  43.628  66.973  1.00  0.00    -0.015 A 
HETATM   35  C21 UNL     1       3.236  45.981  67.573  1.00  0.00     0.209 C 
HETATM   36  C17 UNL     1       2.765  43.697  65.954  1.00  0.00     0.079 C 
HETATM   37  C18 UNL     1       2.330  45.083  65.626  1.00  0.00     0.058 C 
HETATM   38  C19 UNL     1       0.885  45.271  66.069  1.00  0.00     0.046 C 
HETATM   39  C20 UNL     1       2.374  45.274  64.120  1.00  0.00     0.046 C 
HETATM   40  O1  UNL     1       3.073  46.099  66.187  1.00  0.00    -0.376 OA
HETATM   41  N5  UNL     1       4.575  41.260  66.520  1.00  0.00    -0.187 N 
ATOM     42  H5  UNL     1       3.943  40.996  65.763  1.00  0.00     0.184 HD
ENDBRANCH   5  25
TORSDOF 6
ENDMDL
MODEL 3
REMARK VINA RESULT: -9.931382726      3.200      9.254
REMARK  6 active torsions:
REMARK  status: ('A' for Active; 'I' for Inactive)
REMARK    1  A    between atoms: C5_5  and  N1_6 
REMARK    2  A    between atoms: N1_6  and  C6_8 
REMARK    3  A    between atoms: C6_8  and  C7_9 
REMARK    4  A    between atoms: N2_13  and  C11_14 
REMARK    5  A    between atoms: C23_33  and  C24_34 
REMARK    6  A    between atoms: C24_34  and  N6_35 
ROOT
HETATM    1  C7  UNL     1       5.592  37.975  65.355  1.00  0.00    -0.046 C 
HETATM    2  C8  UNL     1       7.020  37.536  65.405  1.00  0.00     0.039 C 
HETATM    3  C9  UNL     1       7.606  37.539  66.807  1.00  0.00     0.025 C 
HETATM    4  C10 UNL     1       7.342  38.892  67.444  1.00  0.00     0.142 C 
HETATM    5  N2  UNL     1       5.991  39.323  67.245  1.00  0.00    -0.214 N 
HETATM    6  C22 UNL     1       5.064  38.319  66.732  1.00  0.00     0.176 C 
ENDROOT
BRANCH   1   7
HETATM    7  C6  UNL     1       4.749  37.209  64.439  1.00  0.00     0.092 C 
BRANCH   7   8
HETATM    8  N1  UNL     1       4.810  35.811  64.338  1.00  0.00    -0.365 N 
ATOM      9  H1  UNL     1       4.014  35.311  64.733  1.00  0.00     0.165 HD
BRANCH   8  10
HETATM   10  C5  UNL     1       5.817  34.990  63.767  1.00  0.00     0.040 A 
HETATM   11  C4  UNL     1       6.559  34.111  64.528  1.00  0.00     0.030 A 
HETATM   12  C3  UNL     1       7.494  33.267  63.992  1.00  0.00     0.009 A 
HETATM   13  C2  UNL     1       7.736  33.263  62.634  1.00  0.00    -0.061 A 
HETATM   14  C1  UNL     1       8.763  32.353  62.011  1.00  0.00     0.048 C 
HETATM   15  C29 UNL     1       7.021  34.115  61.854  1.00  0.00     0.018 A 
HETATM   16  C23 UNL     1       6.053  34.989  62.394  1.00  0.00    -0.011 A 
BRANCH  16  17
HETATM   17  C24 UNL     1       5.347  35.856  61.451  1.00  0.00     0.189 C 
BRANCH  17  18
HETATM   18  N6  UNL     1       4.242  35.298  60.745  1.00  0.00    -0.299 N 
HETATM   19  C25 UNL     1       3.116  34.820  61.334  1.00  0.00     0.112 A 
HETATM   20  C26 UNL     1       2.262  34.404  60.346  1.00  0.00     0.045 A 
HETATM   21  C27 UNL     1       2.908  34.647  59.159  1.00  0.00     0.023 A 
HETATM   22  C28 UNL     1       2.381  34.370  57.784  1.00  0.00     0.070 C 
HETATM   23  N7  UNL     1       4.090  35.182  59.453  1.00  0.00    -0.303 N 
ATOM     24  H7  UNL     1       4.786  35.464  58.762  1.00  0.00     0.186 HD
ENDBRANCH  17  18
ENDBRANCH  16  17
ENDBRANCH   8  10
ENDBRANCH   7   8
ENDBRANCH   1   7
BRANCH   5  25
HETATM   25  C11 UNL     1       5.577  40.635  67.497  1.00  0.00     0.682 A 
HETATM   26  N3  UNL     1       6.045  41.459  68.487  1.00  0.00    -0.174 N 
HETATM   27  C12 UNL     1       5.411  42.645  68.451  1.00  0.00     0.149 A 
ATOM     28  H3  UNL     1       6.771  41.209  69.157  1.00  0.00     0.186 HD
HETATM   29  N4  UNL     1       5.482  43.775  69.182  1.00  0.00    -0.349 N 
HETATM   30  C16 UNL     1       4.506  42.590  67.413  1.00  0.00     0.100 A 
HETATM   31  C13 UNL     1       4.703  44.860  68.943  1.00  0.00     0.099 A 
ATOM     32  H4  UNL     1       6.152  43.817  69.949  1.00  0.00     0.166 HD
HETATM   33  C14 UNL     1       3.783  44.854  67.918  1.00  0.00    -0.010 A 
HETATM   34  C15 UNL     1       3.708  43.699  67.167  1.00  0.00    -0.015 A 
HETATM   35  C21 UNL     1       2.906  46.024  67.629  1.00  0.00     0.209 C 
HETATM   36  C17 UNL     1       2.727  43.665  66.058  1.00  0.00     0.079 C 
HETATM   37  C18 UNL     1       2.234  45.009  65.645  1.00  0.00     0.058 C 
HETATM   38  C19 UNL     1       0.746  45.112  65.956  1.00  0.00     0.046 C 
HETATM   39  C20 UNL     1       2.397  45.156  64.143  1.00  0.00     0.046 C 
HETATM   40  O1  UNL     1       2.858  46.089  66.230  1.00  0.00    -0.376 OA
HETATM   41  N5  UNL     1       4.634  41.374  66.863  1.00  0.00    -0.187 N 
ATOM     42  H5  UNL     1       4.089  41.045  66.065  1.00  0.00     0.184 HD
ENDBRANCH   5  25
TORSDOF 6
ENDMDL
MODEL 4
REMARK VINA RESULT: -9.837702771      2.957      8.876
REMARK  6 active torsions:
REMARK  status: ('A' for Active; 'I' for Inactive)
REMARK    1  A    between atoms: C5_5  and  N1_6 
REMARK    2  A    between atoms: N1_6  and  C6_8 
REMARK    3  A    between atoms: C6_8  and  C7_9 
REMARK    4  A    between atoms: N2_13  and  C11_14 
REMARK    5  A    between atoms: C23_33  and  C24_34 
REMARK    6  A    between atoms: C24_34  and  N6_35 
ROOT
HETATM    1  C7  UNL     1       7.122  38.095  67.064  1.00  0.00    -0.046 C 
HETATM    2  C8  UNL     1       8.310  38.194  67.965  1.00  0.00     0.039 C 
HETATM    3  C9  UNL     1       8.031  38.953  69.253  1.00  0.00     0.025 C 
HETATM    4  C10 UNL     1       7.393  40.287  68.904  1.00  0.00     0.142 C 
HETATM    5  N2  UNL     1       6.351  40.144  67.932  1.00  0.00    -0.214 N 
HETATM    6  C22 UNL     1       5.910  38.780  67.658  1.00  0.00     0.176 C 
ENDROOT
BRANCH   1   7
HETATM    7  C6  UNL     1       6.959  36.797  66.410  1.00  0.00     0.092 C 
BRANCH   7   8
HETATM    8  N1  UNL     1       6.748  36.661  65.030  1.00  0.00    -0.365 N 
ATOM      9  H1  UNL     1       6.301  37.458  64.577  1.00  0.00     0.165 HD
BRANCH   8  10
HETATM   10  C5  UNL     1       7.064  35.576  64.171  1.00  0.00     0.040 A 
HETATM   11  C4  UNL     1       8.038  34.654  64.490  1.00  0.00     0.030 A 
HETATM   12  C3  UNL     1       8.319  33.566  63.708  1.00  0.00     0.009 A 
HETATM   13  C2  UNL     1       7.621  33.346  62.540  1.00  0.00    -0.061 A 
HETATM   14  C1  UNL     1       7.910  32.163  61.650  1.00  0.00     0.048 C 
HETATM   15  C29 UNL     1       6.653  34.234  62.195  1.00  0.00     0.018 A 
HETATM   16  C23 UNL     1       6.351  35.358  62.995  1.00  0.00    -0.011 A 
BRANCH  16  17
HETATM   17  C24 UNL     1       5.286  36.239  62.519  1.00  0.00     0.189 C 
BRANCH  17  18
HETATM   18  N6  UNL     1       4.269  35.661  61.703  1.00  0.00    -0.299 N 
HETATM   19  C25 UNL     1       3.111  35.134  62.177  1.00  0.00     0.112 A 
HETATM   20  C26 UNL     1       2.366  34.712  61.106  1.00  0.00     0.045 A 
HETATM   21  C27 UNL     1       3.109  35.002  59.989  1.00  0.00     0.023 A 
HETATM   22  C28 UNL     1       2.720  34.738  58.566  1.00  0.00     0.070 C 
HETATM   23  N7  UNL     1       4.241  35.569  60.401  1.00  0.00    -0.303 N 
ATOM     24  H7  UNL     1       4.986  35.888  59.782  1.00  0.00     0.186 HD
ENDBRANCH  17  18
ENDBRANCH  16  17
ENDBRANCH   8  10
ENDBRANCH   7   8
ENDBRANCH   1   7
BRANCH   5  25
HETATM   25  C11 UNL     1       5.800  41.238  67.256  1.00  0.00     0.682 A 
HETATM   26  N3  UNL     1       6.314  41.847  66.141  1.00  0.00    -0.174 N 
HETATM   27  C12 UNL     1       5.537  42.879  65.769  1.00  0.00     0.149 A 
ATOM     28  H3  UNL     1       7.166  41.558  65.660  1.00  0.00     0.186 HD
HETATM   29  N4  UNL     1       5.588  43.788  64.775  1.00  0.00    -0.349 N 
HETATM   30  C16 UNL     1       4.493  42.946  66.665  1.00  0.00     0.100 A 
HETATM   31  C13 UNL     1       4.660  44.766  64.618  1.00  0.00     0.099 A 
ATOM     32  H4  UNL     1       6.360  43.739  64.110  1.00  0.00     0.166 HD
HETATM   33  C14 UNL     1       3.599  44.874  65.489  1.00  0.00    -0.010 A 
HETATM   34  C15 UNL     1       3.542  43.944  66.507  1.00  0.00    -0.015 A 
HETATM   35  C21 UNL     1       2.563  45.937  65.352  1.00  0.00     0.209 C 
HETATM   36  C17 UNL     1       2.411  44.038  67.458  1.00  0.00     0.079 C 
HETATM   37  C18 UNL     1       1.273  44.864  66.966  1.00  0.00     0.058 C 
HETATM   38  C19 UNL     1       1.134  46.099  67.848  1.00  0.00     0.046 C 
HETATM   39  C20 UNL     1      -0.012  44.066  67.094  1.00  0.00     0.046 C 
HETATM   40  O1  UNL     1       1.358  45.293  65.659  1.00  0.00    -0.376 OA
HETATM   41  N5  UNL     1       4.681  41.947  67.540  1.00  0.00    -0.187 N 
ATOM     42  H5  UNL     1       4.058  41.746  68.323  1.00  0.00     0.184 HD
ENDBRANCH   5  25
TORSDOF 6
ENDMDL
MODEL 5
REMARK VINA RESULT: -9.814037030      1.337      3.142
REMARK  6 active torsions:
REMARK  status: ('A' for Active; 'I' for Inactive)
REMARK    1  A    between atoms: C5_5  and  N1_6 
REMARK    2  A    between atoms: N1_6  and  C6_8 
REMARK    3  A    between atoms: C6_8  and  C7_9 
REMARK    4  A    between atoms: N2_13  and  C11_14 
REMARK    5  A    between atoms: C23_33  and  C24_34 
REMARK    6  A    between atoms: C24_34  and  N6_35 
ROOT
HETATM    1  C7  UNL     1       7.970  37.304  68.578  1.00  0.00    -0.046 C 
HETATM    2  C8  UNL     1       7.736  36.511  69.822  1.00  0.00     0.039 C 
HETATM    3  C9  UNL     1       8.727  35.374  70.011  1.00  0.00     0.025 C 
HETATM    4  C10 UNL     1       8.770  34.547  68.738  1.00  0.00     0.142 C 
HETATM    5  N2  UNL     1       8.857  35.370  67.568  1.00  0.00    -0.214 N 
HETATM    6  C22 UNL     1       9.156  36.781  67.795  1.00  0.00     0.176 C 
ENDROOT
BRANCH   1   7
HETATM    7  C6  UNL     1       7.799  38.748  68.733  1.00  0.00     0.092 C 
BRANCH   7   8
HETATM    8  N1  UNL     1       6.541  39.361  68.819  1.00  0.00    -0.365 N 
ATOM      9  H1  UNL     1       5.879  38.909  69.450  1.00  0.00     0.165 HD
BRANCH   8  10
HETATM   10  C5  UNL     1       6.053  40.518  68.156  1.00  0.00     0.040 A 
HETATM   11  C4  UNL     1       5.785  41.688  68.835  1.00  0.00     0.030 A 
HETATM   12  C3  UNL     1       5.371  42.834  68.211  1.00  0.00     0.009 A 
HETATM   13  C2  UNL     1       5.203  42.862  66.842  1.00  0.00    -0.061 A 
HETATM   14  C1  UNL     1       4.741  44.104  66.123  1.00  0.00     0.048 C 
HETATM   15  C29 UNL     1       5.460  41.728  66.141  1.00  0.00     0.018 A 
HETATM   16  C23 UNL     1       5.890  40.540  66.773  1.00  0.00    -0.011 A 
BRANCH  16  17
HETATM   17  C24 UNL     1       6.137  39.386  65.910  1.00  0.00     0.189 C 
BRANCH  17  18
HETATM   18  N6  UNL     1       5.019  38.569  65.569  1.00  0.00    -0.299 N 
HETATM   19  C25 UNL     1       4.297  37.845  66.460  1.00  0.00     0.112 A 
HETATM   20  C26 UNL     1       3.282  37.222  65.780  1.00  0.00     0.045 A 
HETATM   21  C27 UNL     1       3.421  37.596  64.466  1.00  0.00     0.023 A 
HETATM   22  C28 UNL     1       2.545  37.180  63.324  1.00  0.00     0.070 C 
HETATM   23  N7  UNL     1       4.477  38.402  64.393  1.00  0.00    -0.303 N 
ATOM     24  H7  UNL     1       4.817  38.833  63.532  1.00  0.00     0.186 HD
ENDBRANCH  17  18
ENDBRANCH  16  17
ENDBRANCH   8  10
ENDBRANCH   7   8
ENDBRANCH   1   7
BRANCH   5  25
HETATM   25  C11 UNL     1       8.642  34.868  66.280  1.00  0.00     0.682 A 
HETATM   26  N3  UNL     1       9.467  34.018  65.591  1.00  0.00    -0.174 N 
HETATM   27  C12 UNL     1       8.961  33.757  64.373  1.00  0.00     0.149 A 
ATOM     28  H3  UNL     1      10.342  33.637  65.952  1.00  0.00     0.186 HD
HETATM   29  N4  UNL     1       9.364  33.011  63.325  1.00  0.00    -0.349 N 
HETATM   30  C16 UNL     1       7.779  34.456  64.265  1.00  0.00     0.100 A 
HETATM   31  C13 UNL     1       8.658  32.919  62.169  1.00  0.00     0.099 A 
ATOM     32  H4  UNL     1      10.238  32.492  63.404  1.00  0.00     0.166 HD
HETATM   33  C14 UNL     1       7.472  33.599  62.013  1.00  0.00    -0.010 A 
HETATM   34  C15 UNL     1       7.056  34.362  63.085  1.00  0.00    -0.015 A 
HETATM   35  C21 UNL     1       6.673  33.527  60.757  1.00  0.00     0.209 C 
HETATM   36  C17 UNL     1       5.782  35.105  62.943  1.00  0.00     0.079 C 
HETATM   37  C18 UNL     1       4.920  34.622  61.829  1.00  0.00     0.058 C 
HETATM   38  C19 UNL     1       4.803  35.718  60.776  1.00  0.00     0.046 C 
HETATM   39  C20 UNL     1       3.525  34.352  62.363  1.00  0.00     0.046 C 
HETATM   40  O1  UNL     1       5.342  33.476  61.191  1.00  0.00    -0.376 OA
HETATM   41  N5  UNL     1       7.618  35.108  65.426  1.00  0.00    -0.187 N 
ATOM     42  H5  UNL     1       6.822  35.711  65.640  1.00  0.00     0.184 HD
ENDBRANCH   5  25
TORSDOF 6
ENDMDL
