MODEL 1
REMARK VINA RESULT: -11.477683695      0.000      0.000
REMARK  6 active torsions:
REMARK  status: ('A' for Active; 'I' for Inactive)
REMARK    1  A    between atoms: C5_5  and  C6_6 
REMARK    2  A    between atoms: C7_7  and  C8_8 
REMARK       I    between atoms: C8_8  and  N1_10 
REMARK    3  A    between atoms: N1_10  and  C9_12 
REMARK    4  A    between atoms: C11_18  and  N4_19 
REMARK    5  A    between atoms: N4_19  and  C12_21 
REMARK    6  A    between atoms: C12_21  and  C13_22 
ROOT
HETATM    1  C9  UNL     1       7.913  37.987  67.631  1.00  0.00     0.700 A 
HETATM    2  N2  UNL     1       8.474  38.367  68.797  1.00  0.00    -0.186 N 
ATOM      3  H2  UNL     1       8.395  39.339  69.098  1.00  0.00     0.185 HD
HETATM    4  C10 UNL     1       9.137  37.487  69.573  1.00  0.00     0.215 A 
HETATM    5  N3  UNL     1       9.211  36.232  69.137  1.00  0.00    -0.187 N 
ATOM      6  H3  UNL     1       9.709  35.560  69.719  1.00  0.00     0.185 HD
HETATM    7  C11 UNL     1       8.683  35.788  68.001  1.00  0.00     0.697 A 
HETATM    8  N7  UNL     1       8.026  36.719  67.257  1.00  0.00    -0.022 N 
ATOM      9  H7  UNL     1       7.603  36.430  66.375  1.00  0.00     0.203 HD
ENDROOT
BRANCH   7  10
HETATM   10  N4  UNL     1       8.788  34.461  67.586  1.00  0.00    -0.201 N 
ATOM     11  H4  UNL     1       9.414  33.875  68.138  1.00  0.00     0.183 HD
BRANCH  10  12
HETATM   12  C12 UNL     1       8.146  33.821  66.509  1.00  0.00     0.114 C 
BRANCH  12  13
HETATM   13  C13 UNL     1       8.453  34.253  65.123  1.00  0.00    -0.030 C 
HETATM   14  C14 UNL     1       9.766  33.701  64.608  1.00  0.00     0.041 C 
HETATM   15  C15 UNL     1       9.725  33.216  63.201  1.00  0.00     0.011 C 
HETATM   16  C16 UNL     1       8.468  32.438  62.877  1.00  0.00     0.058 C 
HETATM   17  C17 UNL     1       7.342  33.418  63.021  1.00  0.00     0.021 A 
HETATM   18  N5  UNL     1       6.343  33.486  62.128  1.00  0.00    -0.344 N 
HETATM   19  C24 UNL     1       7.372  34.269  64.133  1.00  0.00    -0.005 A 
HETATM   20  C18 UNL     1       5.317  34.360  62.232  1.00  0.00     0.116 A 
ATOM     21  H5  UNL     1       6.359  32.849  61.332  1.00  0.00     0.167 HD
HETATM   22  N6  UNL     1       4.327  34.417  61.334  1.00  0.00    -0.341 N 
HETATM   23  C22 UNL     1       5.288  35.221  63.298  1.00  0.00     0.010 A 
HETATM   24  C19 UNL     1       3.283  35.291  61.420  1.00  0.00     0.040 A 
ATOM     25  H6  UNL     1       4.354  33.773  60.544  1.00  0.00     0.167 HD
HETATM   26  C20 UNL     1       3.219  36.171  62.477  1.00  0.00    -0.012 A 
HETATM   27  C27 UNL     1       2.245  35.459  60.615  1.00  0.00     0.007 A 
HETATM   28  C21 UNL     1       4.231  36.125  63.412  1.00  0.00     0.028 A 
HETATM   29  C25 UNL     1       2.139  36.939  62.394  1.00  0.00    -0.009 A 
HETATM   30  C26 UNL     1       1.400  36.546  61.168  1.00  0.00     0.057 A 
HETATM   31  C23 UNL     1       6.299  35.167  64.224  1.00  0.00     0.029 A 
ENDBRANCH  12  13
ENDBRANCH  10  12
ENDBRANCH   7  10
BRANCH   1  32
HETATM   32  N1  UNL     1       7.224  38.959  66.848  1.00  0.00    -0.155 N 
HETATM   33  C8  UNL     1       6.108  39.651  67.360  1.00  0.00     0.259 C 
HETATM   34  O1  UNL     1       5.757  39.358  68.553  1.00  0.00    -0.268 OA
ATOM     35  H1  UNL     1       7.544  39.157  65.899  1.00  0.00     0.187 HD
BRANCH  33  36
HETATM   36  C7  UNL     1       5.359  40.652  66.620  1.00  0.00     0.075 C 
HETATM   37  C6  UNL     1       5.244  41.875  67.042  1.00  0.00     0.017 C 
BRANCH  37  38
HETATM   38  C5  UNL     1       4.496  42.926  66.328  1.00  0.00    -0.036 A 
HETATM   39  C4  UNL     1       5.119  43.798  65.466  1.00  0.00     0.012 A 
HETATM   40  C3  UNL     1       4.390  44.784  64.801  1.00  0.00     0.007 A 
HETATM   41  C2  UNL     1       3.032  44.908  64.991  1.00  0.00    -0.062 A 
HETATM   42  C1  UNL     1       2.253  45.953  64.289  1.00  0.00     0.048 C 
HETATM   43  C29 UNL     1       2.439  44.029  65.853  1.00  0.00     0.007 A 
HETATM   44  C28 UNL     1       3.132  43.049  66.521  1.00  0.00     0.012 A 
ENDBRANCH  37  38
ENDBRANCH  33  36
ENDBRANCH   1  32
TORSDOF 6
ENDMDL
MODEL 2
REMARK VINA RESULT: -9.936827502      2.295      4.720
REMARK  6 active torsions:
REMARK  status: ('A' for Active; 'I' for Inactive)
REMARK    1  A    between atoms: C5_5  and  C6_6 
REMARK    2  A    between atoms: C7_7  and  C8_8 
REMARK       I    between atoms: C8_8  and  N1_10 
REMARK    3  A    between atoms: N1_10  and  C9_12 
REMARK    4  A    between atoms: C11_18  and  N4_19 
REMARK    5  A    between atoms: N4_19  and  C12_21 
REMARK    6  A    between atoms: C12_21  and  C13_22 
ROOT
HETATM    1  C9  UNL     1       8.169  36.981  68.600  1.00  0.00     0.700 A 
HETATM    2  N2  UNL     1       8.608  36.407  69.739  1.00  0.00    -0.186 N 
ATOM      3  H2  UNL     1       8.575  36.935  70.611  1.00  0.00     0.185 HD
HETATM    4  C10 UNL     1       9.089  35.148  69.747  1.00  0.00     0.215 A 
HETATM    5  N3  UNL     1       9.110  34.501  68.585  1.00  0.00    -0.187 N 
ATOM      6  H3  UNL     1       9.471  33.547  68.583  1.00  0.00     0.185 HD
HETATM    7  C11 UNL     1       8.695  35.003  67.425  1.00  0.00     0.697 A 
HETATM    8  N7  UNL     1       8.220  36.277  67.476  1.00  0.00    -0.022 N 
ATOM      9  H7  UNL     1       7.890  36.710  66.613  1.00  0.00     0.203 HD
ENDROOT
BRANCH   7  10
HETATM   10  N4  UNL     1       8.738  34.284  66.232  1.00  0.00    -0.201 N 
ATOM     11  H4  UNL     1       9.087  33.329  66.305  1.00  0.00     0.183 HD
BRANCH  10  12
HETATM   12  C12 UNL     1       8.364  34.699  64.939  1.00  0.00     0.114 C 
BRANCH  12  13
HETATM   13  C13 UNL     1       7.240  34.013  64.256  1.00  0.00    -0.030 C 
HETATM   14  C14 UNL     1       5.956  34.816  64.276  1.00  0.00     0.041 C 
HETATM   15  C15 UNL     1       5.202  34.811  62.992  1.00  0.00     0.011 C 
HETATM   16  C16 UNL     1       6.095  34.956  61.779  1.00  0.00     0.058 C 
HETATM   17  C17 UNL     1       6.958  33.730  61.767  1.00  0.00     0.021 A 
HETATM   18  N5  UNL     1       7.205  33.048  60.639  1.00  0.00    -0.344 N 
HETATM   19  C24 UNL     1       7.501  33.319  62.991  1.00  0.00    -0.005 A 
HETATM   20  C18 UNL     1       7.978  31.939  60.601  1.00  0.00     0.116 A 
ATOM     21  H5  UNL     1       6.791  33.381  59.769  1.00  0.00     0.167 HD
HETATM   22  N6  UNL     1       8.218  31.268  59.468  1.00  0.00    -0.341 N 
HETATM   23  C22 UNL     1       8.540  31.484  61.765  1.00  0.00     0.010 A 
HETATM   24  C19 UNL     1       8.994  30.148  59.407  1.00  0.00     0.040 A 
ATOM     25  H6  UNL     1       7.798  31.613  58.605  1.00  0.00     0.167 HD
HETATM   26  C20 UNL     1       9.575  29.661  60.556  1.00  0.00    -0.012 A 
HETATM   27  C27 UNL     1       9.314  29.390  58.370  1.00  0.00     0.007 A 
HETATM   28  C21 UNL     1       9.339  30.340  61.732  1.00  0.00     0.028 A 
HETATM   29  C25 UNL     1      10.291  28.571  60.304  1.00  0.00    -0.009 A 
HETATM   30  C26 UNL     1      10.187  28.291  58.850  1.00  0.00     0.057 A 
HETATM   31  C23 UNL     1       8.300  32.168  62.930  1.00  0.00     0.029 A 
ENDBRANCH  12  13
ENDBRANCH  10  12
ENDBRANCH   7  10
BRANCH   1  32
HETATM   32  N1  UNL     1       7.671  38.316  68.647  1.00  0.00    -0.155 N 
HETATM   33  C8  UNL     1       6.431  38.652  68.068  1.00  0.00     0.259 C 
HETATM   34  O1  UNL     1       5.790  37.701  67.506  1.00  0.00    -0.268 OA
ATOM     35  H1  UNL     1       8.222  39.041  69.108  1.00  0.00     0.187 HD
BRANCH  33  36
HETATM   36  C7  UNL     1       5.863  39.989  68.078  1.00  0.00     0.075 C 
HETATM   37  C6  UNL     1       5.925  40.769  67.041  1.00  0.00     0.017 C 
BRANCH  37  38
HETATM   38  C5  UNL     1       5.364  42.133  67.002  1.00  0.00    -0.036 A 
HETATM   39  C4  UNL     1       4.883  42.749  68.135  1.00  0.00     0.012 A 
HETATM   40  C3  UNL     1       4.357  44.040  68.073  1.00  0.00     0.007 A 
HETATM   41  C2  UNL     1       4.307  44.727  66.881  1.00  0.00    -0.062 A 
HETATM   42  C1  UNL     1       3.749  46.097  66.809  1.00  0.00     0.048 C 
HETATM   43  C29 UNL     1       4.791  44.091  65.773  1.00  0.00     0.007 A 
HETATM   44  C28 UNL     1       5.314  42.821  65.803  1.00  0.00     0.012 A 
ENDBRANCH  37  38
ENDBRANCH  33  36
ENDBRANCH   1  32
TORSDOF 6
ENDMDL
MODEL 3
REMARK VINA RESULT: -9.754102577      6.044     10.031
REMARK  6 active torsions:
REMARK  status: ('A' for Active; 'I' for Inactive)
REMARK    1  A    between atoms: C5_5  and  C6_6 
REMARK    2  A    between atoms: C7_7  and  C8_8 
REMARK       I    between atoms: C8_8  and  N1_10 
REMARK    3  A    between atoms: N1_10  and  C9_12 
REMARK    4  A    between atoms: C11_18  and  N4_19 
REMARK    5  A    between atoms: N4_19  and  C12_21 
REMARK    6  A    between atoms: C12_21  and  C13_22 
ROOT
HETATM    1  C9  UNL     1       8.763  31.475  60.803  1.00  0.00     0.700 A 
HETATM    2  N2  UNL     1      10.033  31.582  60.363  1.00  0.00    -0.186 N 
ATOM      3  H2  UNL     1      10.608  32.364  60.677  1.00  0.00     0.185 HD
HETATM    4  C10 UNL     1      10.558  30.675  59.515  1.00  0.00     0.215 A 
HETATM    5  N3  UNL     1       9.769  29.674  59.136  1.00  0.00    -0.187 N 
ATOM      6  H3  UNL     1      10.159  28.983  58.495  1.00  0.00     0.185 HD
HETATM    7  C11 UNL     1       8.510  29.505  59.528  1.00  0.00     0.697 A 
HETATM    8  N7  UNL     1       8.032  30.450  60.383  1.00  0.00    -0.022 N 
ATOM      9  H7  UNL     1       7.070  30.368  60.714  1.00  0.00     0.203 HD
ENDROOT
BRANCH   7  10
HETATM   10  N4  UNL     1       7.721  28.438  59.101  1.00  0.00    -0.201 N 
ATOM     11  H4  UNL     1       7.640  28.327  58.090  1.00  0.00     0.183 HD
BRANCH  10  12
HETATM   12  C12 UNL     1       7.022  27.493  59.876  1.00  0.00     0.114 C 
BRANCH  12  13
HETATM   13  C13 UNL     1       6.463  27.904  61.188  1.00  0.00    -0.030 C 
HETATM   14  C14 UNL     1       5.136  28.624  61.066  1.00  0.00     0.041 C 
HETATM   15  C15 UNL     1       4.118  28.222  62.076  1.00  0.00     0.011 C 
HETATM   16  C16 UNL     1       4.081  26.729  62.319  1.00  0.00     0.058 C 
HETATM   17  C17 UNL     1       5.418  26.384  62.905  1.00  0.00     0.021 A 
HETATM   18  N5  UNL     1       5.540  25.552  63.950  1.00  0.00    -0.344 N 
HETATM   19  C24 UNL     1       6.545  26.969  62.314  1.00  0.00    -0.005 A 
HETATM   20  C18 UNL     1       6.733  25.226  64.498  1.00  0.00     0.116 A 
ATOM     21  H5  UNL     1       4.695  25.148  64.351  1.00  0.00     0.167 HD
HETATM   22  N6  UNL     1       6.842  24.395  65.541  1.00  0.00    -0.341 N 
HETATM   23  C22 UNL     1       7.874  25.765  63.966  1.00  0.00     0.010 A 
HETATM   24  C19 UNL     1       8.034  24.052  66.109  1.00  0.00     0.040 A 
ATOM     25  H6  UNL     1       5.988  23.996  65.931  1.00  0.00     0.167 HD
HETATM   26  C20 UNL     1       9.202  24.574  65.602  1.00  0.00    -0.012 A 
HETATM   27  C27 UNL     1       8.290  23.252  67.132  1.00  0.00     0.007 A 
HETATM   28  C21 UNL     1       9.109  25.432  64.527  1.00  0.00     0.028 A 
HETATM   29  C25 UNL     1      10.256  24.131  66.278  1.00  0.00    -0.009 A 
HETATM   30  C26 UNL     1       9.759  23.224  67.343  1.00  0.00     0.057 A 
HETATM   31  C23 UNL     1       7.771  26.618  62.896  1.00  0.00     0.029 A 
ENDBRANCH  12  13
ENDBRANCH  10  12
ENDBRANCH   7  10
BRANCH   1  32
HETATM   32  N1  UNL     1       8.257  32.462  61.698  1.00  0.00    -0.155 N 
HETATM   33  C8  UNL     1       7.298  33.405  61.277  1.00  0.00     0.259 C 
HETATM   34  O1  UNL     1       6.916  33.323  60.061  1.00  0.00    -0.268 OA
ATOM     35  H1  UNL     1       8.594  32.486  62.661  1.00  0.00     0.187 HD
BRANCH  33  36
HETATM   36  C7  UNL     1       6.739  34.437  62.133  1.00  0.00     0.075 C 
HETATM   37  C6  UNL     1       5.489  34.784  62.063  1.00  0.00     0.017 C 
BRANCH  37  38
HETATM   38  C5  UNL     1       4.876  35.825  62.909  1.00  0.00    -0.036 A 
HETATM   39  C4  UNL     1       5.594  36.483  63.881  1.00  0.00     0.012 A 
HETATM   40  C3  UNL     1       4.992  37.464  64.668  1.00  0.00     0.007 A 
HETATM   41  C2  UNL     1       3.667  37.797  64.494  1.00  0.00    -0.062 A 
HETATM   42  C1  UNL     1       3.023  38.838  65.327  1.00  0.00     0.048 C 
HETATM   43  C29 UNL     1       2.978  37.128  63.522  1.00  0.00     0.007 A 
HETATM   44  C28 UNL     1       3.545  36.158  62.732  1.00  0.00     0.012 A 
ENDBRANCH  37  38
ENDBRANCH  33  36
ENDBRANCH   1  32
TORSDOF 6
ENDMDL
MODEL 4
REMARK VINA RESULT: -9.748659614      4.411      7.292
REMARK  6 active torsions:
REMARK  status: ('A' for Active; 'I' for Inactive)
REMARK    1  A    between atoms: C5_5  and  C6_6 
REMARK    2  A    between atoms: C7_7  and  C8_8 
REMARK       I    between atoms: C8_8  and  N1_10 
REMARK    3  A    between atoms: N1_10  and  C9_12 
REMARK    4  A    between atoms: C11_18  and  N4_19 
REMARK    5  A    between atoms: N4_19  and  C12_21 
REMARK    6  A    between atoms: C12_21  and  C13_22 
ROOT
HETATM    1  C9  UNL     1       5.175  36.063  62.923  1.00  0.00     0.700 A 
HETATM    2  N2  UNL     1       4.060  35.512  62.399  1.00  0.00    -0.186 N 
ATOM      3  H2  UNL     1       3.169  35.998  62.496  1.00  0.00     0.185 HD
HETATM    4  C10 UNL     1       4.103  34.331  61.751  1.00  0.00     0.215 A 
HETATM    5  N3  UNL     1       5.289  33.738  61.651  1.00  0.00    -0.187 N 
ATOM      6  H3  UNL     1       5.330  32.845  61.160  1.00  0.00     0.185 HD
HETATM    7  C11 UNL     1       6.426  34.221  62.142  1.00  0.00     0.697 A 
HETATM    8  N7  UNL     1       6.325  35.415  62.786  1.00  0.00    -0.022 N 
ATOM      9  H7  UNL     1       7.169  35.830  63.182  1.00  0.00     0.203 HD
ENDROOT
BRANCH   7  10
HETATM   10  N4  UNL     1       7.647  33.561  62.012  1.00  0.00    -0.201 N 
ATOM     11  H4  UNL     1       8.424  33.964  62.535  1.00  0.00     0.183 HD
BRANCH  10  12
HETATM   12  C12 UNL     1       7.952  32.413  61.256  1.00  0.00     0.114 C 
BRANCH  12  13
HETATM   13  C13 UNL     1       9.278  31.767  61.423  1.00  0.00    -0.030 C 
HETATM   14  C14 UNL     1       9.228  30.530  62.294  1.00  0.00     0.041 C 
HETATM   15  C15 UNL     1      10.038  29.386  61.792  1.00  0.00     0.011 C 
HETATM   16  C16 UNL     1       9.924  29.189  60.296  1.00  0.00     0.058 C 
HETATM   17  C17 UNL     1      10.512  30.425  59.683  1.00  0.00     0.021 A 
HETATM   18  N5  UNL     1      11.342  30.369  58.631  1.00  0.00    -0.344 N 
HETATM   19  C24 UNL     1      10.158  31.654  60.257  1.00  0.00    -0.005 A 
HETATM   20  C18 UNL     1      11.886  31.467  58.061  1.00  0.00     0.116 A 
ATOM     21  H5  UNL     1      11.574  29.455  58.243  1.00  0.00     0.167 HD
HETATM   22  N6  UNL     1      12.713  31.397  57.011  1.00  0.00    -0.341 N 
HETATM   23  C22 UNL     1      11.581  32.700  58.575  1.00  0.00     0.010 A 
HETATM   24  C19 UNL     1      13.274  32.492  56.420  1.00  0.00     0.040 A 
ATOM     25  H6  UNL     1      12.936  30.477  56.632  1.00  0.00     0.167 HD
HETATM   26  C20 UNL     1      12.990  33.747  56.909  1.00  0.00    -0.012 A 
HETATM   27  C27 UNL     1      14.099  32.573  55.388  1.00  0.00     0.007 A 
HETATM   28  C21 UNL     1      12.140  33.838  57.991  1.00  0.00     0.028 A 
HETATM   29  C25 UNL     1      13.621  34.685  56.212  1.00  0.00    -0.009 A 
HETATM   30  C26 UNL     1      14.407  34.005  55.151  1.00  0.00     0.057 A 
HETATM   31  C23 UNL     1      10.733  32.780  59.651  1.00  0.00     0.029 A 
ENDBRANCH  12  13
ENDBRANCH  10  12
ENDBRANCH   7  10
BRANCH   1  32
HETATM   32  N1  UNL     1       5.074  37.313  63.600  1.00  0.00    -0.155 N 
HETATM   33  C8  UNL     1       4.414  37.419  64.841  1.00  0.00     0.259 C 
HETATM   34  O1  UNL     1       3.918  36.342  65.315  1.00  0.00    -0.268 OA
ATOM     35  H1  UNL     1       5.488  38.146  63.179  1.00  0.00     0.187 HD
BRANCH  33  36
HETATM   36  C7  UNL     1       4.274  38.659  65.586  1.00  0.00     0.075 C 
HETATM   37  C6  UNL     1       5.305  39.345  65.978  1.00  0.00     0.017 C 
BRANCH  37  38
HETATM   38  C5  UNL     1       5.215  40.607  66.736  1.00  0.00    -0.036 A 
HETATM   39  C4  UNL     1       5.624  40.693  68.047  1.00  0.00     0.012 A 
HETATM   40  C3  UNL     1       5.529  41.898  68.743  1.00  0.00     0.007 A 
HETATM   41  C2  UNL     1       5.026  43.027  68.138  1.00  0.00    -0.062 A 
HETATM   42  C1  UNL     1       4.922  44.309  68.873  1.00  0.00     0.048 C 
HETATM   43  C29 UNL     1       4.627  42.913  66.836  1.00  0.00     0.007 A 
HETATM   44  C28 UNL     1       4.709  41.740  66.125  1.00  0.00     0.012 A 
ENDBRANCH  37  38
ENDBRANCH  33  36
ENDBRANCH   1  32
TORSDOF 6
ENDMDL
MODEL 5
REMARK VINA RESULT: -9.694826559      6.168     10.285
REMARK  6 active torsions:
REMARK  status: ('A' for Active; 'I' for Inactive)
REMARK    1  A    between atoms: C5_5  and  C6_6 
REMARK    2  A    between atoms: C7_7  and  C8_8 
REMARK       I    between atoms: C8_8  and  N1_10 
REMARK    3  A    between atoms: N1_10  and  C9_12 
REMARK    4  A    between atoms: C11_18  and  N4_19 
REMARK    5  A    between atoms: N4_19  and  C12_21 
REMARK    6  A    between atoms: C12_21  and  C13_22 
ROOT
HETATM    1  C9  UNL     1       9.206  31.915  60.111  1.00  0.00     0.700 A 
HETATM    2  N2  UNL     1       9.596  32.196  58.851  1.00  0.00    -0.186 N 
ATOM      3  H2  UNL     1       9.487  33.145  58.494  1.00  0.00     0.185 HD
HETATM    4  C10 UNL     1      10.128  31.247  58.056  1.00  0.00     0.215 A 
HETATM    5  N3  UNL     1      10.249  30.026  58.570  1.00  0.00    -0.187 N 
ATOM      6  H3  UNL     1      10.652  29.302  57.975  1.00  0.00     0.185 HD
HETATM    7  C11 UNL     1       9.886  29.677  59.800  1.00  0.00     0.697 A 
HETATM    8  N7  UNL     1       9.356  30.675  60.559  1.00  0.00    -0.022 N 
ATOM      9  H7  UNL     1       9.060  30.460  61.511  1.00  0.00     0.203 HD
ENDROOT
BRANCH   7  10
HETATM   10  N4  UNL     1      10.033  28.382  60.294  1.00  0.00    -0.201 N 
ATOM     11  H4  UNL     1      10.994  28.072  60.440  1.00  0.00     0.183 HD
BRANCH  10  12
HETATM   12  C12 UNL     1       9.036  27.444  60.618  1.00  0.00     0.114 C 
BRANCH  12  13
HETATM   13  C13 UNL     1       8.090  27.744  61.722  1.00  0.00    -0.030 C 
HETATM   14  C14 UNL     1       6.751  28.253  61.231  1.00  0.00     0.041 C 
HETATM   15  C15 UNL     1       5.573  27.685  61.943  1.00  0.00     0.011 C 
HETATM   16  C16 UNL     1       5.699  26.200  62.208  1.00  0.00     0.058 C 
HETATM   17  C17 UNL     1       6.867  26.056  63.138  1.00  0.00     0.021 A 
HETATM   18  N5  UNL     1       6.830  25.239  64.201  1.00  0.00    -0.344 N 
HETATM   19  C24 UNL     1       8.009  26.817  62.853  1.00  0.00    -0.005 A 
HETATM   20  C18 UNL     1       7.867  25.092  65.055  1.00  0.00     0.116 A 
ATOM     21  H5  UNL     1       5.980  24.703  64.372  1.00  0.00     0.167 HD
HETATM   22  N6  UNL     1       7.818  24.272  66.112  1.00  0.00    -0.341 N 
HETATM   23  C22 UNL     1       9.014  25.808  64.833  1.00  0.00     0.010 A 
HETATM   24  C19 UNL     1       8.852  24.108  66.986  1.00  0.00     0.040 A 
ATOM     25  H6  UNL     1       6.962  23.740  66.271  1.00  0.00     0.167 HD
HETATM   26  C20 UNL     1      10.020  24.810  66.795  1.00  0.00    -0.012 A 
HETATM   27  C27 UNL     1       8.944  23.342  68.062  1.00  0.00     0.007 A 
HETATM   28  C21 UNL     1      10.089  25.660  65.711  1.00  0.00     0.028 A 
HETATM   29  C25 UNL     1      10.910  24.525  67.740  1.00  0.00    -0.009 A 
HETATM   30  C26 UNL     1      10.289  23.537  68.658  1.00  0.00     0.057 A 
HETATM   31  C23 UNL     1       9.073  26.650  63.751  1.00  0.00     0.029 A 
ENDBRANCH  12  13
ENDBRANCH  10  12
ENDBRANCH   7  10
BRANCH   1  32
HETATM   32  N1  UNL     1       8.649  32.956  60.910  1.00  0.00    -0.155 N 
HETATM   33  C8  UNL     1       7.381  32.816  61.510  1.00  0.00     0.259 C 
HETATM   34  O1  UNL     1       6.771  31.715  61.298  1.00  0.00    -0.268 OA
ATOM     35  H1  UNL     1       9.177  33.818  61.050  1.00  0.00     0.187 HD
BRANCH  33  36
HETATM   36  C7  UNL     1       6.753  33.833  62.335  1.00  0.00     0.075 C 
HETATM   37  C6  UNL     1       5.742  34.531  61.914  1.00  0.00     0.017 C 
BRANCH  37  38
HETATM   38  C5  UNL     1       5.070  35.574  62.713  1.00  0.00    -0.036 A 
HETATM   39  C4  UNL     1       3.734  35.860  62.550  1.00  0.00     0.012 A 
HETATM   40  C3  UNL     1       3.121  36.851  63.318  1.00  0.00     0.007 A 
HETATM   41  C2  UNL     1       3.836  37.564  64.254  1.00  0.00    -0.062 A 
HETATM   42  C1  UNL     1       3.190  38.617  65.071  1.00  0.00     0.048 C 
HETATM   43  C29 UNL     1       5.160  37.259  64.394  1.00  0.00     0.007 A 
HETATM   44  C28 UNL     1       5.790  36.289  63.652  1.00  0.00     0.012 A 
ENDBRANCH  37  38
ENDBRANCH  33  36
ENDBRANCH   1  32
TORSDOF 6
ENDMDL
