MODEL 1
REMARK VINA RESULT: -11.443317664      0.000      0.000
REMARK  5 active torsions:
REMARK  status: ('A' for Active; 'I' for Inactive)
REMARK    1  A    between atoms: C3_5  and  N2_6 
REMARK    2  A    between atoms: N2_6  and  C4_8 
REMARK    3  A    between atoms: C4_8  and  C5_9 
REMARK    4  A    between atoms: C18_27  and  C19_28 
REMARK    5  A    between atoms: C21_30  and  N5_31 
ROOT
HETATM    1  C1  UNL     1       2.379  35.924  61.654  1.00  0.00     0.089 C 
HETATM    2  C2  UNL     1       3.500  36.138  62.620  1.00  0.00     0.095 A 
HETATM    3  N1  UNL     1       3.466  37.108  63.545  1.00  0.00    -0.181 N 
ATOM      4  H1  UNL     1       2.644  37.711  63.582  1.00  0.00     0.185 HD
HETATM    5  C3  UNL     1       4.453  37.327  64.424  1.00  0.00     0.681 A 
HETATM    6  N4  UNL     1       5.534  36.510  64.355  1.00  0.00    -0.174 N 
ATOM      7  H4  UNL     1       6.303  36.648  65.010  1.00  0.00     0.186 HD
HETATM    8  C18 UNL     1       5.620  35.519  63.444  1.00  0.00     0.149 A 
HETATM    9  N7  UNL     1       4.594  35.351  62.588  1.00  0.00    -0.330 N 
ATOM     10  H7  UNL     1       4.647  34.605  61.894  1.00  0.00     0.168 HD
ENDROOT
BRANCH   5  11
HETATM   11  N2  UNL     1       4.391  38.375  65.409  1.00  0.00    -0.222 N 
ATOM     12  H2  UNL     1       3.495  38.652  65.811  1.00  0.00     0.178 HD
BRANCH  11  13
HETATM   13  C4  UNL     1       5.595  39.023  65.815  1.00  0.00     0.176 C 
BRANCH  13  14
HETATM   14  C5  UNL     1       5.436  40.195  66.669  1.00  0.00    -0.039 A 
HETATM   15  C6  UNL     1       5.726  40.167  68.009  1.00  0.00     0.011 A 
HETATM   16  C7  UNL     1       5.575  41.281  68.816  1.00  0.00     0.031 A 
HETATM   17  C8  UNL     1       5.111  42.472  68.243  1.00  0.00     0.046 A 
HETATM   18  N3  UNL     1       4.966  43.548  69.027  1.00  0.00    -0.322 N 
HETATM   19  C16 UNL     1       4.812  42.519  66.887  1.00  0.00     0.003 A 
HETATM   20  C9  UNL     1       4.528  44.696  68.515  1.00  0.00     0.257 A 
ATOM     21  H3  UNL     1       5.193  43.488  70.020  1.00  0.00     0.169 HD
HETATM   22  O1  UNL     1       4.385  45.722  69.238  1.00  0.00    -0.267 OA
HETATM   23  C10 UNL     1       4.217  44.816  67.200  1.00  0.00     0.043 A 
HETATM   24  C11 UNL     1       3.755  46.016  66.651  1.00  0.00     0.018 A 
HETATM   25  C15 UNL     1       4.352  43.726  66.355  1.00  0.00    -0.008 A 
HETATM   26  C12 UNL     1       3.452  46.099  65.328  1.00  0.00     0.001 A 
HETATM   27  C13 UNL     1       3.593  45.007  64.501  1.00  0.00     0.001 A 
HETATM   28  C14 UNL     1       4.051  43.799  65.025  1.00  0.00     0.013 A 
HETATM   29  C17 UNL     1       4.975  41.385  66.111  1.00  0.00     0.023 A 
ENDBRANCH  13  14
ENDBRANCH  11  13
ENDBRANCH   5  11
BRANCH   8  30
HETATM   30  C19 UNL     1       6.785  34.638  63.372  1.00  0.00     0.079 A 
HETATM   31  C20 UNL     1       7.026  33.812  62.297  1.00  0.00     0.062 A 
HETATM   32  C21 UNL     1       8.124  32.969  62.202  1.00  0.00     0.033 A 
HETATM   33  C28 UNL     1       8.998  32.990  63.270  1.00  0.00     0.046 A 
HETATM   34  C29 UNL     1       8.762  33.815  64.349  1.00  0.00     0.090 A 
HETATM   35  N6  UNL     1       7.669  34.619  64.383  1.00  0.00    -0.363 N 
ATOM     36  H6  UNL     1       7.516  35.220  65.193  1.00  0.00     0.165 HD
BRANCH  32  37
HETATM   37  N5  UNL     1       8.371  32.135  61.102  1.00  0.00    -0.380 N 
HETATM   38  C22 UNL     1       8.016  32.548  59.773  1.00  0.00     0.123 C 
HETATM   39  C23 UNL     1       9.014  32.042  58.751  1.00  0.00     0.020 C 
HETATM   40  C24 UNL     1       9.210  30.557  58.804  1.00  0.00     0.007 C 
HETATM   41  C25 UNL     1       8.758  29.944  60.090  1.00  0.00    -0.001 C 
HETATM   42  C26 UNL     1       7.276  29.613  60.011  1.00  0.00     0.011 C 
HETATM   43  C27 UNL     1       8.980  30.845  61.292  1.00  0.00     0.127 C 
ENDBRANCH  32  37
ENDBRANCH   8  30
TORSDOF 5
ENDMDL
MODEL 2
REMARK VINA RESULT: -11.171200174      3.361     11.184
REMARK  5 active torsions:
REMARK  status: ('A' for Active; 'I' for Inactive)
REMARK    1  A    between atoms: C3_5  and  N2_6 
REMARK    2  A    between atoms: N2_6  and  C4_8 
REMARK    3  A    between atoms: C4_8  and  C5_9 
REMARK    4  A    between atoms: C18_27  and  C19_28 
REMARK    5  A    between atoms: C21_30  and  N5_31 
ROOT
HETATM    1  C1  UNL     1       8.201  37.016  67.668  1.00  0.00     0.089 C 
HETATM    2  C2  UNL     1       6.978  37.789  67.290  1.00  0.00     0.095 A 
HETATM    3  N1  UNL     1       5.867  37.187  66.845  1.00  0.00    -0.181 N 
ATOM      4  H1  UNL     1       5.867  36.170  66.767  1.00  0.00     0.185 HD
HETATM    5  C3  UNL     1       4.754  37.849  66.497  1.00  0.00     0.681 A 
HETATM    6  N4  UNL     1       4.781  39.201  66.612  1.00  0.00    -0.174 N 
ATOM      7  H4  UNL     1       3.951  39.736  66.357  1.00  0.00     0.186 HD
HETATM    8  C18 UNL     1       5.872  39.857  67.054  1.00  0.00     0.149 A 
HETATM    9  N7  UNL     1       6.958  39.133  67.387  1.00  0.00    -0.330 N 
ATOM     10  H7  UNL     1       7.791  39.618  67.723  1.00  0.00     0.168 HD
ENDROOT
BRANCH   5  11
HETATM   11  N2  UNL     1       3.573  37.178  66.023  1.00  0.00    -0.222 N 
ATOM     12  H2  UNL     1       3.040  36.570  66.646  1.00  0.00     0.178 HD
BRANCH  11  13
HETATM   13  C4  UNL     1       3.156  37.371  64.672  1.00  0.00     0.176 C 
BRANCH  13  14
HETATM   14  C5  UNL     1       3.782  36.504  63.679  1.00  0.00    -0.039 A 
HETATM   15  C6  UNL     1       3.200  36.247  62.465  1.00  0.00     0.011 A 
HETATM   16  C7  UNL     1       3.797  35.425  61.524  1.00  0.00     0.031 A 
HETATM   17  C8  UNL     1       5.033  34.843  61.825  1.00  0.00     0.046 A 
HETATM   18  N3  UNL     1       5.608  34.049  60.912  1.00  0.00    -0.322 N 
HETATM   19  C16 UNL     1       5.639  35.092  63.050  1.00  0.00     0.003 A 
HETATM   20  C9  UNL     1       6.784  33.478  61.166  1.00  0.00     0.257 A 
ATOM     21  H3  UNL     1       5.144  33.881  60.020  1.00  0.00     0.169 HD
HETATM   22  O1  UNL     1       7.343  32.727  60.318  1.00  0.00    -0.267 OA
HETATM   23  C10 UNL     1       7.434  33.677  62.340  1.00  0.00     0.043 A 
HETATM   24  C11 UNL     1       8.668  33.083  62.618  1.00  0.00     0.018 A 
HETATM   25  C15 UNL     1       6.873  34.491  63.312  1.00  0.00    -0.008 A 
HETATM   26  C12 UNL     1       9.290  33.306  63.807  1.00  0.00     0.001 A 
HETATM   27  C13 UNL     1       8.719  34.117  64.761  1.00  0.00     0.001 A 
HETATM   28  C14 UNL     1       7.488  34.720  64.508  1.00  0.00     0.013 A 
HETATM   29  C17 UNL     1       5.012  35.918  63.967  1.00  0.00     0.023 A 
ENDBRANCH  13  14
ENDBRANCH  11  13
ENDBRANCH   5  11
BRANCH   8  30
HETATM   30  C19 UNL     1       5.897  41.314  67.178  1.00  0.00     0.079 A 
HETATM   31  C20 UNL     1       4.895  42.120  66.687  1.00  0.00     0.062 A 
HETATM   32  C21 UNL     1       4.894  43.503  66.793  1.00  0.00     0.033 A 
HETATM   33  C28 UNL     1       5.981  44.062  67.434  1.00  0.00     0.046 A 
HETATM   34  C29 UNL     1       6.988  43.261  67.928  1.00  0.00     0.090 A 
HETATM   35  N6  UNL     1       6.932  41.912  67.794  1.00  0.00    -0.363 N 
ATOM     36  H6  UNL     1       7.690  41.340  68.167  1.00  0.00     0.165 HD
BRANCH  32  37
HETATM   37  N5  UNL     1       3.867  44.320  66.300  1.00  0.00    -0.380 N 
HETATM   38  C22 UNL     1       4.130  45.681  65.922  1.00  0.00     0.123 C 
HETATM   39  C23 UNL     1       3.286  46.098  64.733  1.00  0.00     0.020 C 
HETATM   40  C24 UNL     1       1.818  45.887  64.950  1.00  0.00     0.007 C 
HETATM   41  C25 UNL     1       1.512  44.929  66.055  1.00  0.00    -0.001 C 
HETATM   42  C26 UNL     1       1.467  45.669  67.382  1.00  0.00     0.011 C 
HETATM   43  C27 UNL     1       2.529  43.807  66.171  1.00  0.00     0.127 C 
ENDBRANCH  32  37
ENDBRANCH   8  30
TORSDOF 5
ENDMDL
MODEL 3
REMARK VINA RESULT: -11.067866328      2.055      4.278
REMARK  5 active torsions:
REMARK  status: ('A' for Active; 'I' for Inactive)
REMARK    1  A    between atoms: C3_5  and  N2_6 
REMARK    2  A    between atoms: N2_6  and  C4_8 
REMARK    3  A    between atoms: C4_8  and  C5_9 
REMARK    4  A    between atoms: C18_27  and  C19_28 
REMARK    5  A    between atoms: C21_30  and  N5_31 
ROOT
HETATM    1  C1  UNL     1       9.089  34.220  68.429  1.00  0.00     0.089 C 
HETATM    2  C2  UNL     1       8.483  35.143  67.422  1.00  0.00     0.095 A 
HETATM    3  N1  UNL     1       8.332  36.454  67.660  1.00  0.00    -0.181 N 
ATOM      4  H1  UNL     1       8.644  36.820  68.559  1.00  0.00     0.185 HD
HETATM    5  C3  UNL     1       7.792  37.308  66.779  1.00  0.00     0.681 A 
HETATM    6  N4  UNL     1       7.387  36.795  65.591  1.00  0.00    -0.174 N 
ATOM      7  H4  UNL     1       6.973  37.417  64.897  1.00  0.00     0.186 HD
HETATM    8  C18 UNL     1       7.515  35.485  65.300  1.00  0.00     0.149 A 
HETATM    9  N7  UNL     1       8.065  34.678  66.228  1.00  0.00    -0.330 N 
ATOM     10  H7  UNL     1       8.168  33.684  66.020  1.00  0.00     0.168 HD
ENDROOT
BRANCH   5  11
HETATM   11  N2  UNL     1       7.642  38.712  67.059  1.00  0.00    -0.222 N 
ATOM     12  H2  UNL     1       8.258  39.173  67.729  1.00  0.00     0.178 HD
BRANCH  11  13
HETATM   13  C4  UNL     1       6.622  39.451  66.390  1.00  0.00     0.176 C 
BRANCH  13  14
HETATM   14  C5  UNL     1       6.094  40.607  67.107  1.00  0.00    -0.039 A 
HETATM   15  C6  UNL     1       6.052  40.661  68.476  1.00  0.00     0.011 A 
HETATM   16  C7  UNL     1       5.552  41.760  69.153  1.00  0.00     0.031 A 
HETATM   17  C8  UNL     1       5.077  42.849  68.413  1.00  0.00     0.046 A 
HETATM   18  N3  UNL     1       4.594  43.911  69.071  1.00  0.00    -0.322 N 
HETATM   19  C16 UNL     1       5.111  42.814  67.024  1.00  0.00     0.003 A 
HETATM   20  C9  UNL     1       4.134  44.964  68.399  1.00  0.00     0.257 A 
ATOM     21  H3  UNL     1       4.579  43.913  70.091  1.00  0.00     0.169 HD
HETATM   22  O1  UNL     1       3.675  45.975  69.001  1.00  0.00    -0.267 OA
HETATM   23  C10 UNL     1       4.137  44.999  67.042  1.00  0.00     0.043 A 
HETATM   24  C11 UNL     1       3.656  46.099  66.326  1.00  0.00     0.018 A 
HETATM   25  C15 UNL     1       4.627  43.921  66.323  1.00  0.00    -0.008 A 
HETATM   26  C12 UNL     1       3.675  46.099  64.965  1.00  0.00     0.001 A 
HETATM   27  C13 UNL     1       4.166  45.019  64.266  1.00  0.00     0.001 A 
HETATM   28  C14 UNL     1       4.650  43.911  64.958  1.00  0.00     0.013 A 
HETATM   29  C17 UNL     1       5.618  41.697  66.382  1.00  0.00     0.023 A 
ENDBRANCH  13  14
ENDBRANCH  11  13
ENDBRANCH   5  11
BRANCH   8  30
HETATM   30  C19 UNL     1       7.079  34.933  64.018  1.00  0.00     0.079 A 
HETATM   31  C20 UNL     1       5.914  35.327  63.397  1.00  0.00     0.062 A 
HETATM   32  C21 UNL     1       5.478  34.821  62.181  1.00  0.00     0.033 A 
HETATM   33  C28 UNL     1       6.289  33.870  61.595  1.00  0.00     0.046 A 
HETATM   34  C29 UNL     1       7.456  33.472  62.211  1.00  0.00     0.090 A 
HETATM   35  N6  UNL     1       7.829  34.005  63.401  1.00  0.00    -0.363 N 
ATOM     36  H6  UNL     1       8.698  33.694  63.837  1.00  0.00     0.165 HD
BRANCH  32  37
HETATM   37  N5  UNL     1       4.296  35.230  61.548  1.00  0.00    -0.380 N 
HETATM   38  C22 UNL     1       3.080  35.390  62.296  1.00  0.00     0.123 C 
HETATM   39  C23 UNL     1       2.246  36.536  61.760  1.00  0.00     0.020 C 
HETATM   40  C24 UNL     1       1.950  36.415  60.296  1.00  0.00     0.007 C 
HETATM   41  C25 UNL     1       2.868  35.478  59.579  1.00  0.00    -0.001 C 
HETATM   42  C26 UNL     1       2.332  34.059  59.671  1.00  0.00     0.011 C 
HETATM   43  C27 UNL     1       4.282  35.489  60.133  1.00  0.00     0.127 C 
ENDBRANCH  32  37
ENDBRANCH   8  30
TORSDOF 5
ENDMDL
MODEL 4
REMARK VINA RESULT: -10.973348751      6.569     13.223
REMARK  5 active torsions:
REMARK  status: ('A' for Active; 'I' for Inactive)
REMARK    1  A    between atoms: C3_5  and  N2_6 
REMARK    2  A    between atoms: N2_6  and  C4_8 
REMARK    3  A    between atoms: C4_8  and  C5_9 
REMARK    4  A    between atoms: C18_27  and  C19_28 
REMARK    5  A    between atoms: C21_30  and  N5_31 
ROOT
HETATM    1  C1  UNL     1      11.577  31.988  59.038  1.00  0.00     0.089 C 
HETATM    2  C2  UNL     1      10.221  31.691  59.592  1.00  0.00     0.095 A 
HETATM    3  N1  UNL     1       9.583  30.542  59.330  1.00  0.00    -0.181 N 
ATOM      4  H1  UNL     1      10.046  29.857  58.734  1.00  0.00     0.185 HD
HETATM    5  C3  UNL     1       8.367  30.244  59.810  1.00  0.00     0.681 A 
HETATM    6  N4  UNL     1       7.773  31.172  60.602  1.00  0.00    -0.174 N 
ATOM      7  H4  UNL     1       6.848  30.978  60.984  1.00  0.00     0.186 HD
HETATM    8  C18 UNL     1       8.370  32.344  60.897  1.00  0.00     0.149 A 
HETATM    9  N7  UNL     1       9.591  32.583  60.383  1.00  0.00    -0.330 N 
ATOM     10  H7  UNL     1      10.054  33.466  60.598  1.00  0.00     0.168 HD
ENDROOT
BRANCH   5  11
HETATM   11  N2  UNL     1       7.703  29.002  59.514  1.00  0.00    -0.222 N 
ATOM     12  H2  UNL     1       8.180  28.279  58.975  1.00  0.00     0.178 HD
BRANCH  11  13
HETATM   13  C4  UNL     1       6.372  28.793  59.983  1.00  0.00     0.176 C 
BRANCH  13  14
HETATM   14  C5  UNL     1       6.229  27.902  61.129  1.00  0.00    -0.039 A 
HETATM   15  C6  UNL     1       5.020  27.677  61.734  1.00  0.00     0.011 A 
HETATM   16  C7  UNL     1       4.887  26.830  62.820  1.00  0.00     0.031 A 
HETATM   17  C8  UNL     1       6.027  26.182  63.313  1.00  0.00     0.046 A 
HETATM   18  N3  UNL     1       5.895  25.363  64.364  1.00  0.00    -0.322 N 
HETATM   19  C16 UNL     1       7.262  26.397  62.714  1.00  0.00     0.003 A 
HETATM   20  C9  UNL     1       6.958  24.731  64.859  1.00  0.00     0.257 A 
ATOM     21  H3  UNL     1       4.978  25.222  64.787  1.00  0.00     0.169 HD
HETATM   22  O1  UNL     1       6.854  23.954  65.849  1.00  0.00    -0.267 OA
HETATM   23  C10 UNL     1       8.194  24.893  64.324  1.00  0.00     0.043 A 
HETATM   24  C11 UNL     1       9.317  24.235  64.835  1.00  0.00     0.018 A 
HETATM   25  C15 UNL     1       8.374  25.733  63.236  1.00  0.00    -0.008 A 
HETATM   26  C12 UNL     1      10.542  24.422  64.273  1.00  0.00     0.001 A 
HETATM   27  C13 UNL     1      10.703  25.259  63.192  1.00  0.00     0.001 A 
HETATM   28  C14 UNL     1       9.598  25.926  62.665  1.00  0.00     0.013 A 
HETATM   29  C17 UNL     1       7.355  27.252  61.630  1.00  0.00     0.023 A 
ENDBRANCH  13  14
ENDBRANCH  11  13
ENDBRANCH   5  11
BRANCH   8  30
HETATM   30  C19 UNL     1       7.728  33.342  61.752  1.00  0.00     0.079 A 
HETATM   31  C20 UNL     1       6.466  33.833  61.503  1.00  0.00     0.062 A 
HETATM   32  C21 UNL     1       5.834  34.778  62.298  1.00  0.00     0.033 A 
HETATM   33  C28 UNL     1       6.549  35.226  63.390  1.00  0.00     0.046 A 
HETATM   34  C29 UNL     1       7.813  34.739  63.645  1.00  0.00     0.090 A 
HETATM   35  N6  UNL     1       8.378  33.813  62.829  1.00  0.00    -0.363 N 
ATOM     36  H6  UNL     1       9.315  33.468  63.039  1.00  0.00     0.165 HD
BRANCH  32  37
HETATM   37  N5  UNL     1       4.545  35.269  62.047  1.00  0.00    -0.380 N 
HETATM   38  C22 UNL     1       3.576  35.361  63.103  1.00  0.00     0.123 C 
HETATM   39  C23 UNL     1       2.679  36.571  62.929  1.00  0.00     0.020 C 
HETATM   40  C24 UNL     1       2.005  36.617  61.591  1.00  0.00     0.007 C 
HETATM   41  C25 UNL     1       2.663  35.753  60.564  1.00  0.00    -0.001 C 
HETATM   42  C26 UNL     1       2.110  34.339  60.648  1.00  0.00     0.011 C 
HETATM   43  C27 UNL     1       4.172  35.684  60.721  1.00  0.00     0.127 C 
ENDBRANCH  32  37
ENDBRANCH   8  30
TORSDOF 5
ENDMDL
MODEL 5
REMARK VINA RESULT: -10.742186476      4.962      8.245
REMARK  5 active torsions:
REMARK  status: ('A' for Active; 'I' for Inactive)
REMARK    1  A    between atoms: C3_5  and  N2_6 
REMARK    2  A    between atoms: N2_6  and  C4_8 
REMARK    3  A    between atoms: C4_8  and  C5_9 
REMARK    4  A    between atoms: C18_27  and  C19_28 
REMARK    5  A    between atoms: C21_30  and  N5_31 
ROOT
HETATM    1  C1  UNL     1       8.204  30.117  56.872  1.00  0.00     0.089 C 
HETATM    2  C2  UNL     1       7.985  30.371  58.329  1.00  0.00     0.095 A 
HETATM    3  N1  UNL     1       8.286  31.546  58.899  1.00  0.00    -0.181 N 
ATOM      4  H1  UNL     1       8.676  32.283  58.310  1.00  0.00     0.185 HD
HETATM    5  C3  UNL     1       8.103  31.806  60.201  1.00  0.00     0.681 A 
HETATM    6  N4  UNL     1       7.582  30.811  60.961  1.00  0.00    -0.174 N 
ATOM      7  H4  UNL     1       7.429  30.975  61.956  1.00  0.00     0.186 HD
HETATM    8  C18 UNL     1       7.262  29.610  60.440  1.00  0.00     0.149 A 
HETATM    9  N7  UNL     1       7.471  29.411  59.124  1.00  0.00    -0.330 N 
ATOM     10  H7  UNL     1       7.232  28.507  58.716  1.00  0.00     0.168 HD
ENDROOT
BRANCH   5  11
HETATM   11  N2  UNL     1       8.434  33.078  60.787  1.00  0.00    -0.222 N 
ATOM     12  H2  UNL     1       8.619  33.888  60.194  1.00  0.00     0.178 HD
BRANCH  11  13
HETATM   13  C4  UNL     1       8.502  33.194  62.208  1.00  0.00     0.176 C 
BRANCH  13  14
HETATM   14  C5  UNL     1       7.566  34.132  62.819  1.00  0.00    -0.039 A 
HETATM   15  C6  UNL     1       7.847  34.785  63.991  1.00  0.00     0.011 A 
HETATM   16  C7  UNL     1       6.958  35.675  64.568  1.00  0.00     0.031 A 
HETATM   17  C8  UNL     1       5.735  35.914  63.931  1.00  0.00     0.046 A 
HETATM   18  N3  UNL     1       4.877  36.776  64.491  1.00  0.00    -0.322 N 
HETATM   19  C16 UNL     1       5.432  35.263  62.741  1.00  0.00     0.003 A 
HETATM   20  C9  UNL     1       3.704  37.027  63.912  1.00  0.00     0.257 A 
ATOM     21  H3  UNL     1       5.122  37.243  65.364  1.00  0.00     0.169 HD
HETATM   22  O1  UNL     1       2.882  37.837  64.424  1.00  0.00    -0.267 OA
HETATM   23  C10 UNL     1       3.342  36.428  62.750  1.00  0.00     0.043 A 
HETATM   24  C11 UNL     1       2.114  36.683  62.132  1.00  0.00     0.018 A 
HETATM   25  C15 UNL     1       4.201  35.529  62.138  1.00  0.00    -0.008 A 
HETATM   26  C12 UNL     1       1.784  36.063  60.967  1.00  0.00     0.001 A 
HETATM   27  C13 UNL     1       2.649  35.173  60.372  1.00  0.00     0.001 A 
HETATM   28  C14 UNL     1       3.879  34.901  60.969  1.00  0.00     0.013 A 
HETATM   29  C17 UNL     1       6.346  34.378  62.195  1.00  0.00     0.023 A 
ENDBRANCH  13  14
ENDBRANCH  11  13
ENDBRANCH   5  11
BRANCH   8  30
HETATM   30  C19 UNL     1       6.700  28.538  61.261  1.00  0.00     0.079 A 
HETATM   31  C20 UNL     1       7.483  27.631  61.938  1.00  0.00     0.062 A 
HETATM   32  C21 UNL     1       6.976  26.607  62.724  1.00  0.00     0.033 A 
HETATM   33  C28 UNL     1       5.601  26.529  62.803  1.00  0.00     0.046 A 
HETATM   34  C29 UNL     1       4.810  27.434  62.127  1.00  0.00     0.090 A 
HETATM   35  N6  UNL     1       5.366  28.415  61.374  1.00  0.00    -0.363 N 
ATOM     36  H6  UNL     1       4.760  29.073  60.883  1.00  0.00     0.165 HD
BRANCH  32  37
HETATM   37  N5  UNL     1       7.777  25.690  63.420  1.00  0.00    -0.380 N 
HETATM   38  C22 UNL     1       7.911  24.336  62.960  1.00  0.00     0.123 C 
HETATM   39  C23 UNL     1       9.303  23.796  63.224  1.00  0.00     0.020 C 
HETATM   40  C24 UNL     1       9.714  23.906  64.661  1.00  0.00     0.007 C 
HETATM   41  C25 UNL     1       8.903  24.893  65.437  1.00  0.00    -0.001 C 
HETATM   42  C26 UNL     1       7.654  24.220  65.983  1.00  0.00     0.011 C 
HETATM   43  C27 UNL     1       8.474  26.094  64.612  1.00  0.00     0.127 C 
ENDBRANCH  32  37
ENDBRANCH   8  30
TORSDOF 5
ENDMDL
