MODEL 1
REMARK VINA RESULT: -7.060396293      0.000      0.000
REMARK  7 active torsions:
REMARK  status: ('A' for Active; 'I' for Inactive)
REMARK    1  A    between atoms: C2_2  and  C4_4 
REMARK    2  A    between atoms: C4_4  and  N1_5 
REMARK    3  A    between atoms: N1_5  and  C5_7 
REMARK    4  A    between atoms: C10_17  and  C11_18 
REMARK    5  A    between atoms: C11_18  and  C12_19 
REMARK    6  A    between atoms: C17_24  and  C18_25 
REMARK       I    between atoms: C18_25  and  N4_27 
REMARK    7  A    between atoms: N4_27  and  C19_29 
ROOT
HETATM    1  C5  UNL     1     -14.432 -34.888  29.035  1.00  0.00     0.082 C 
HETATM    2  C6  UNL     1     -13.950 -34.055  27.928  1.00  0.00     0.084 C 
HETATM    3  C7  UNL     1     -14.295 -34.364  26.527  1.00  0.00     0.084 C 
HETATM    4  C8  UNL     1     -15.672 -33.846  26.111  1.00  0.00     0.088 A 
HETATM    5  N2  UNL     1     -16.380 -34.298  25.069  1.00  0.00    -0.315 N 
ATOM      6  H2  UNL     1     -16.130 -35.002  24.374  1.00  0.00     0.175 HD
HETATM    7  S1  UNL     1     -17.797 -33.393  25.211  1.00  0.00     0.001 SA
HETATM    8  C9  UNL     1     -17.435 -32.479  26.585  1.00  0.00     0.079 A 
HETATM    9  N3  UNL     1     -16.176 -32.956  26.857  1.00  0.00    -0.342 N 
ATOM     10  H3  UNL     1     -15.651 -32.595  27.654  1.00  0.00     0.167 HD
HETATM   11  C10 UNL     1     -17.944 -31.488  27.587  1.00  0.00     0.094 C 
HETATM   12  C15 UNL     1     -17.842 -32.246  28.902  1.00  0.00     0.022 A 
HETATM   13  C16 UNL     1     -18.824 -32.399  29.818  1.00  0.00     0.043 A 
HETATM   14  C17 UNL     1     -18.591 -33.192  30.939  1.00  0.00     0.037 A 
HETATM   15  C22 UNL     1     -17.343 -33.784  31.043  1.00  0.00     0.065 A 
HETATM   16  C23 UNL     1     -16.371 -33.605  30.090  1.00  0.00     0.107 A 
HETATM   17  N5  UNL     1     -16.675 -32.840  29.067  1.00  0.00    -0.345 N 
ATOM     18  H5  UNL     1     -15.962 -32.695  28.352  1.00  0.00     0.167 HD
HETATM   19  N6  UNL     1     -15.070 -34.244  30.158  1.00  0.00    -0.332 N 
ATOM     20  H6  UNL     1     -14.577 -34.237  31.051  1.00  0.00     0.168 HD
ENDROOT
BRANCH  14  21
HETATM   21  C18 UNL     1     -19.619 -33.398  31.930  1.00  0.00     0.252 C 
HETATM   22  O1  UNL     1     -20.765 -33.739  31.550  1.00  0.00    -0.268 OA
HETATM   23  N4  UNL     1     -19.349 -33.228  33.287  1.00  0.00    -0.352 N 
ATOM     24  H4  UNL     1     -18.408 -32.947  33.565  1.00  0.00     0.163 HD
BRANCH  23  25
HETATM   25  C19 UNL     1     -20.346 -33.431  34.323  1.00  0.00     0.084 A 
HETATM   26  C20 UNL     1     -20.097 -34.520  35.286  1.00  0.00     0.027 A 
HETATM   27  C21 UNL     1     -19.811 -33.106  35.706  1.00  0.00     0.027 A 
ENDBRANCH  23  25
ENDBRANCH  14  21
BRANCH  11  28
HETATM   28  C11 UNL     1     -19.154 -30.760  27.399  1.00  0.00     0.021 C 
BRANCH  28  29
HETATM   29  C12 UNL     1     -19.177 -29.521  26.625  1.00  0.00    -0.022 C 
HETATM   30  C13 UNL     1     -17.960 -28.660  26.672  1.00  0.00     0.009 C 
HETATM   31  C14 UNL     1     -19.393 -29.812  25.116  1.00  0.00     0.009 C 
ENDBRANCH  28  29
ENDBRANCH  11  28
BRANCH   1  32
HETATM   32  N1  UNL     1     -15.035 -36.155  28.740  1.00  0.00    -0.359 N 
ATOM     33  H1  UNL     1     -15.861 -36.236  28.148  1.00  0.00     0.166 HD
BRANCH  32  34
HETATM   34  C4  UNL     1     -14.421 -37.277  29.317  1.00  0.00     0.066 C 
BRANCH  34  35
HETATM   35  C2  UNL     1     -15.073 -38.059  30.372  1.00  0.00     0.016 C 
HETATM   36  C1  UNL     1     -15.096 -37.487  31.745  1.00  0.00     0.015 C 
HETATM   37  C3  UNL     1     -14.323 -39.407  30.436  1.00  0.00     0.015 C 
ENDBRANCH  34  35
ENDBRANCH  32  34
ENDBRANCH   1  32
TORSDOF 7
ENDMDL
MODEL 2
REMARK VINA RESULT: -7.033438149      3.949      7.123
REMARK  7 active torsions:
REMARK  status: ('A' for Active; 'I' for Inactive)
REMARK    1  A    between atoms: C2_2  and  C4_4 
REMARK    2  A    between atoms: C4_4  and  N1_5 
REMARK    3  A    between atoms: N1_5  and  C5_7 
REMARK    4  A    between atoms: C10_17  and  C11_18 
REMARK    5  A    between atoms: C11_18  and  C12_19 
REMARK    6  A    between atoms: C17_24  and  C18_25 
REMARK       I    between atoms: C18_25  and  N4_27 
REMARK    7  A    between atoms: N4_27  and  C19_29 
ROOT
HETATM    1  C5  UNL     1     -19.969 -33.737  33.227  1.00  0.00     0.082 C 
HETATM    2  C6  UNL     1     -19.818 -32.753  34.303  1.00  0.00     0.084 C 
HETATM    3  C7  UNL     1     -18.644 -32.764  35.197  1.00  0.00     0.084 C 
HETATM    4  C8  UNL     1     -17.420 -32.069  34.602  1.00  0.00     0.088 A 
HETATM    5  N2  UNL     1     -16.156 -32.259  35.003  1.00  0.00    -0.315 N 
ATOM      6  H2  UNL     1     -15.801 -32.838  35.765  1.00  0.00     0.175 HD
HETATM    7  S1  UNL     1     -15.310 -31.286  33.915  1.00  0.00     0.001 SA
HETATM    8  C9  UNL     1     -16.590 -30.679  32.995  1.00  0.00     0.079 A 
HETATM    9  N3  UNL     1     -17.643 -31.298  33.623  1.00  0.00    -0.342 N 
ATOM     10  H3  UNL     1     -18.599 -31.136  33.304  1.00  0.00     0.167 HD
HETATM   11  C10 UNL     1     -16.984 -29.857  31.806  1.00  0.00     0.094 C 
HETATM   12  C15 UNL     1     -17.726 -30.853  30.929  1.00  0.00     0.022 A 
HETATM   13  C16 UNL     1     -17.496 -31.096  29.619  1.00  0.00     0.043 A 
HETATM   14  C17 UNL     1     -18.215 -32.102  28.978  1.00  0.00     0.037 A 
HETATM   15  C22 UNL     1     -19.138 -32.801  29.740  1.00  0.00     0.065 A 
HETATM   16  C23 UNL     1     -19.341 -32.525  31.069  1.00  0.00     0.107 A 
HETATM   17  N5  UNL     1     -18.622 -31.559  31.593  1.00  0.00    -0.345 N 
ATOM     18  H5  UNL     1     -18.764 -31.341  32.579  1.00  0.00     0.167 HD
HETATM   19  N6  UNL     1     -20.274 -33.267  31.897  1.00  0.00    -0.332 N 
ATOM     20  H6  UNL     1     -21.199 -33.468  31.517  1.00  0.00     0.168 HD
ENDROOT
BRANCH  14  21
HETATM   21  C18 UNL     1     -17.986 -32.408  27.587  1.00  0.00     0.252 C 
HETATM   22  O1  UNL     1     -17.294 -33.413  27.296  1.00  0.00    -0.268 OA
HETATM   23  N4  UNL     1     -18.524 -31.607  26.580  1.00  0.00    -0.352 N 
ATOM     24  H4  UNL     1     -19.080 -30.795  26.849  1.00  0.00     0.163 HD
BRANCH  23  25
HETATM   25  C19 UNL     1     -18.328 -31.877  25.167  1.00  0.00     0.084 A 
HETATM   26  C20 UNL     1     -19.434 -32.545  24.454  1.00  0.00     0.027 A 
HETATM   27  C21 UNL     1     -19.262 -31.061  24.292  1.00  0.00     0.027 A 
ENDBRANCH  23  25
ENDBRANCH  14  21
BRANCH  11  28
HETATM   28  C11 UNL     1     -16.065 -29.011  31.120  1.00  0.00     0.021 C 
BRANCH  28  29
HETATM   29  C12 UNL     1     -15.321 -27.973  31.828  1.00  0.00    -0.022 C 
HETATM   30  C13 UNL     1     -13.904 -28.267  32.188  1.00  0.00     0.009 C 
HETATM   31  C14 UNL     1     -15.248 -26.670  30.988  1.00  0.00     0.009 C 
ENDBRANCH  28  29
ENDBRANCH  11  28
BRANCH   1  32
HETATM   32  N1  UNL     1     -19.096 -34.874  33.197  1.00  0.00    -0.359 N 
ATOM     33  H1  UNL     1     -18.206 -34.860  32.698  1.00  0.00     0.166 HD
BRANCH  32  34
HETATM   34  C4  UNL     1     -19.538 -36.009  33.894  1.00  0.00     0.066 C 
BRANCH  34  35
HETATM   35  C2  UNL     1     -20.892 -36.097  34.448  1.00  0.00     0.016 C 
HETATM   36  C1  UNL     1     -21.049 -35.962  35.922  1.00  0.00     0.015 C 
HETATM   37  C3  UNL     1     -21.435 -37.484  34.043  1.00  0.00     0.015 C 
ENDBRANCH  34  35
ENDBRANCH  32  34
ENDBRANCH   1  32
TORSDOF 7
ENDMDL
MODEL 3
REMARK VINA RESULT: -6.983871999      3.626      7.525
REMARK  7 active torsions:
REMARK  status: ('A' for Active; 'I' for Inactive)
REMARK    1  A    between atoms: C2_2  and  C4_4 
REMARK    2  A    between atoms: C4_4  and  N1_5 
REMARK    3  A    between atoms: N1_5  and  C5_7 
REMARK    4  A    between atoms: C10_17  and  C11_18 
REMARK    5  A    between atoms: C11_18  and  C12_19 
REMARK    6  A    between atoms: C17_24  and  C18_25 
REMARK       I    between atoms: C18_25  and  N4_27 
REMARK    7  A    between atoms: N4_27  and  C19_29 
ROOT
HETATM    1  C5  UNL     1     -14.400 -31.907  32.051  1.00  0.00     0.082 C 
HETATM    2  C6  UNL     1     -14.465 -32.830  33.189  1.00  0.00     0.084 C 
HETATM    3  C7  UNL     1     -14.970 -32.394  34.505  1.00  0.00     0.084 C 
HETATM    4  C8  UNL     1     -16.495 -32.409  34.607  1.00  0.00     0.088 A 
HETATM    5  N2  UNL     1     -17.212 -31.723  35.506  1.00  0.00    -0.315 N 
ATOM      6  H2  UNL     1     -16.891 -31.129  36.272  1.00  0.00     0.175 HD
HETATM    7  S1  UNL     1     -18.788 -32.100  35.034  1.00  0.00     0.001 SA
HETATM    8  C9  UNL     1     -18.474 -33.111  33.718  1.00  0.00     0.079 A 
HETATM    9  N3  UNL     1     -17.100 -33.093  33.731  1.00  0.00    -0.342 N 
ATOM     10  H3  UNL     1     -16.573 -33.626  33.039  1.00  0.00     0.167 HD
HETATM   11  C10 UNL     1     -19.065 -33.894  32.584  1.00  0.00     0.094 C 
HETATM   12  C15 UNL     1     -18.445 -33.243  31.357  1.00  0.00     0.022 A 
HETATM   13  C16 UNL     1     -19.106 -32.787  30.270  1.00  0.00     0.043 A 
HETATM   14  C17 UNL     1     -18.395 -32.143  29.261  1.00  0.00     0.037 A 
HETATM   15  C22 UNL     1     -17.027 -32.008  29.442  1.00  0.00     0.065 A 
HETATM   16  C23 UNL     1     -16.392 -32.483  30.562  1.00  0.00     0.107 A 
HETATM   17  N5  UNL     1     -17.139 -33.080  31.462  1.00  0.00    -0.345 N 
ATOM     18  H5  UNL     1     -16.681 -33.441  32.298  1.00  0.00     0.167 HD
HETATM   19  N6  UNL     1     -14.968 -32.322  30.791  1.00  0.00    -0.332 N 
ATOM     20  H6  UNL     1     -14.332 -32.513  30.017  1.00  0.00     0.168 HD
ENDROOT
BRANCH  14  21
HETATM   21  C18 UNL     1     -19.065 -31.623  28.095  1.00  0.00     0.252 C 
HETATM   22  O1  UNL     1     -20.210 -31.128  28.226  1.00  0.00    -0.268 OA
HETATM   23  N4  UNL     1     -18.455 -31.664  26.842  1.00  0.00    -0.352 N 
ATOM     24  H4  UNL     1     -17.525 -32.076  26.766  1.00  0.00     0.163 HD
BRANCH  23  25
HETATM   25  C19 UNL     1     -19.085 -31.148  25.639  1.00  0.00     0.084 A 
HETATM   26  C20 UNL     1     -18.738 -29.770  25.242  1.00  0.00     0.027 A 
HETATM   27  C21 UNL     1     -18.084 -30.915  24.521  1.00  0.00     0.027 A 
ENDBRANCH  23  25
ENDBRANCH  14  21
BRANCH  11  28
HETATM   28  C11 UNL     1     -20.459 -34.168  32.486  1.00  0.00     0.021 C 
BRANCH  28  29
HETATM   29  C12 UNL     1     -21.161 -34.894  33.541  1.00  0.00    -0.022 C 
HETATM   30  C13 UNL     1     -22.509 -35.445  33.217  1.00  0.00     0.009 C 
HETATM   31  C14 UNL     1     -20.340 -36.123  34.012  1.00  0.00     0.009 C 
ENDBRANCH  28  29
ENDBRANCH  11  28
BRANCH   1  32
HETATM   32  N1  UNL     1     -14.593 -30.505  32.281  1.00  0.00    -0.359 N 
ATOM     33  H1  UNL     1     -14.853 -30.138  33.197  1.00  0.00     0.166 HD
BRANCH  32  34
HETATM   34  C4  UNL     1     -14.402 -29.668  31.172  1.00  0.00     0.066 C 
BRANCH  34  35
HETATM   35  C2  UNL     1     -15.396 -28.663  30.781  1.00  0.00     0.016 C 
HETATM   36  C1  UNL     1     -15.033 -27.229  30.943  1.00  0.00     0.015 C 
HETATM   37  C3  UNL     1     -16.645 -28.932  31.645  1.00  0.00     0.015 C 
ENDBRANCH  34  35
ENDBRANCH  32  34
ENDBRANCH   1  32
TORSDOF 7
ENDMDL
MODEL 4
REMARK VINA RESULT: -6.963061419      3.653      6.665
REMARK  7 active torsions:
REMARK  status: ('A' for Active; 'I' for Inactive)
REMARK    1  A    between atoms: C2_2  and  C4_4 
REMARK    2  A    between atoms: C4_4  and  N1_5 
REMARK    3  A    between atoms: N1_5  and  C5_7 
REMARK    4  A    between atoms: C10_17  and  C11_18 
REMARK    5  A    between atoms: C11_18  and  C12_19 
REMARK    6  A    between atoms: C17_24  and  C18_25 
REMARK       I    between atoms: C18_25  and  N4_27 
REMARK    7  A    between atoms: N4_27  and  C19_29 
ROOT
HETATM    1  C5  UNL     1     -18.104 -31.089  33.020  1.00  0.00     0.082 C 
HETATM    2  C6  UNL     1     -17.528 -29.847  33.543  1.00  0.00     0.084 C 
HETATM    3  C7  UNL     1     -16.146 -29.798  34.059  1.00  0.00     0.084 C 
HETATM    4  C8  UNL     1     -15.092 -29.641  32.964  1.00  0.00     0.088 A 
HETATM    5  N2  UNL     1     -13.795 -29.948  33.095  1.00  0.00    -0.315 N 
ATOM      6  H2  UNL     1     -13.290 -30.284  33.915  1.00  0.00     0.175 HD
HETATM    7  S1  UNL     1     -13.218 -29.630  31.541  1.00  0.00     0.001 SA
HETATM    8  C9  UNL     1     -14.643 -29.123  30.789  1.00  0.00     0.079 A 
HETATM    9  N3  UNL     1     -15.517 -29.235  31.843  1.00  0.00    -0.342 N 
ATOM     10  H3  UNL     1     -16.501 -28.992  31.723  1.00  0.00     0.167 HD
HETATM   11  C10 UNL     1     -15.288 -28.708  29.501  1.00  0.00     0.094 C 
HETATM   12  C15 UNL     1     -16.365 -29.762  29.300  1.00  0.00     0.022 A 
HETATM   13  C16 UNL     1     -16.572 -30.495  28.183  1.00  0.00     0.043 A 
HETATM   14  C17 UNL     1     -17.556 -31.480  28.188  1.00  0.00     0.037 A 
HETATM   15  C22 UNL     1     -18.274 -31.647  29.361  1.00  0.00     0.065 A 
HETATM   16  C23 UNL     1     -18.033 -30.882  30.476  1.00  0.00     0.107 A 
HETATM   17  N5  UNL     1     -17.088 -29.976  30.383  1.00  0.00    -0.345 N 
ATOM     18  H5  UNL     1     -16.900 -29.398  31.202  1.00  0.00     0.167 HD
HETATM   19  N6  UNL     1     -18.746 -31.063  31.727  1.00  0.00    -0.332 N 
ATOM     20  H6  UNL     1     -19.759 -31.178  31.691  1.00  0.00     0.168 HD
ENDROOT
BRANCH  14  21
HETATM   21  C18 UNL     1     -17.795 -32.298  27.024  1.00  0.00     0.252 C 
HETATM   22  O1  UNL     1     -17.553 -33.527  27.091  1.00  0.00    -0.268 OA
HETATM   23  N4  UNL     1     -18.287 -31.740  25.846  1.00  0.00    -0.352 N 
ATOM     24  H4  UNL     1     -18.471 -30.737  25.821  1.00  0.00     0.163 HD
BRANCH  23  25
HETATM   25  C19 UNL     1     -18.551 -32.522  24.651  1.00  0.00     0.084 A 
HETATM   26  C20 UNL     1     -19.891 -33.127  24.529  1.00  0.00     0.027 A 
HETATM   27  C21 UNL     1     -19.593 -31.872  23.758  1.00  0.00     0.027 A 
ENDBRANCH  23  25
ENDBRANCH  14  21
BRANCH  11  28
HETATM   28  C11 UNL     1     -14.534 -28.380  28.337  1.00  0.00     0.021 C 
BRANCH  28  29
HETATM   29  C12 UNL     1     -14.738 -27.115  27.637  1.00  0.00    -0.022 C 
HETATM   30  C13 UNL     1     -13.550 -26.490  26.986  1.00  0.00     0.009 C 
HETATM   31  C14 UNL     1     -15.773 -27.273  26.492  1.00  0.00     0.009 C 
ENDBRANCH  28  29
ENDBRANCH  11  28
BRANCH   1  32
HETATM   32  N1  UNL     1     -17.410 -32.325  33.240  1.00  0.00    -0.359 N 
ATOM     33  H1  UNL     1     -16.412 -32.424  33.058  1.00  0.00     0.166 HD
BRANCH  32  34
HETATM   34  C4  UNL     1     -18.187 -33.390  33.721  1.00  0.00     0.066 C 
BRANCH  34  35
HETATM   35  C2  UNL     1     -18.631 -34.480  32.847  1.00  0.00     0.016 C 
HETATM   36  C1  UNL     1     -17.962 -34.626  31.526  1.00  0.00     0.015 C 
HETATM   37  C3  UNL     1     -20.134 -34.241  32.588  1.00  0.00     0.015 C 
ENDBRANCH  34  35
ENDBRANCH  32  34
ENDBRANCH   1  32
TORSDOF 7
ENDMDL
MODEL 5
REMARK VINA RESULT: -6.959286595      4.039      6.946
REMARK  7 active torsions:
REMARK  status: ('A' for Active; 'I' for Inactive)
REMARK    1  A    between atoms: C2_2  and  C4_4 
REMARK    2  A    between atoms: C4_4  and  N1_5 
REMARK    3  A    between atoms: N1_5  and  C5_7 
REMARK    4  A    between atoms: C10_17  and  C11_18 
REMARK    5  A    between atoms: C11_18  and  C12_19 
REMARK    6  A    between atoms: C17_24  and  C18_25 
REMARK       I    between atoms: C18_25  and  N4_27 
REMARK    7  A    between atoms: N4_27  and  C19_29 
ROOT
HETATM    1  C5  UNL     1     -18.989 -32.580  33.669  1.00  0.00     0.082 C 
HETATM    2  C6  UNL     1     -18.361 -31.638  34.601  1.00  0.00     0.084 C 
HETATM    3  C7  UNL     1     -17.027 -31.898  35.176  1.00  0.00     0.084 C 
HETATM    4  C8  UNL     1     -15.878 -31.503  34.249  1.00  0.00     0.088 A 
HETATM    5  N2  UNL     1     -14.624 -31.965  34.339  1.00  0.00    -0.315 N 
ATOM      6  H2  UNL     1     -14.216 -32.598  35.028  1.00  0.00     0.175 HD
HETATM    7  S1  UNL     1     -13.899 -31.223  33.009  1.00  0.00     0.001 SA
HETATM    8  C9  UNL     1     -15.213 -30.358  32.392  1.00  0.00     0.079 A 
HETATM    9  N3  UNL     1     -16.176 -30.716  33.304  1.00  0.00    -0.342 N 
ATOM     10  H3  UNL     1     -17.124 -30.350  33.220  1.00  0.00     0.167 HD
HETATM   11  C10 UNL     1     -15.715 -29.486  31.281  1.00  0.00     0.094 C 
HETATM   12  C15 UNL     1     -16.851 -30.304  30.689  1.00  0.00     0.022 A 
HETATM   13  C16 UNL     1     -17.022 -30.612  29.384  1.00  0.00     0.043 A 
HETATM   14  C17 UNL     1     -18.078 -31.441  29.013  1.00  0.00     0.037 A 
HETATM   15  C22 UNL     1     -18.901 -31.905  30.027  1.00  0.00     0.065 A 
HETATM   16  C23 UNL     1     -18.693 -31.570  31.343  1.00  0.00     0.107 A 
HETATM   17  N5  UNL     1     -17.675 -30.782  31.602  1.00  0.00    -0.345 N 
ATOM     18  H5  UNL     1     -17.510 -30.523  32.574  1.00  0.00     0.167 HD
HETATM   19  N6  UNL     1     -19.518 -32.072  32.426  1.00  0.00    -0.332 N 
ATOM     20  H6  UNL     1     -20.530 -32.067  32.301  1.00  0.00     0.168 HD
ENDROOT
BRANCH  14  21
HETATM   21  C18 UNL     1     -18.284 -31.811  27.634  1.00  0.00     0.252 C 
HETATM   22  O1  UNL     1     -18.043 -32.991  27.283  1.00  0.00    -0.268 OA
HETATM   23  N4  UNL     1     -18.745 -30.880  26.705  1.00  0.00    -0.352 N 
ATOM     24  H4  UNL     1     -18.930 -29.927  27.020  1.00  0.00     0.163 HD
BRANCH  23  25
HETATM   25  C19 UNL     1     -18.975 -31.204  25.308  1.00  0.00     0.084 A 
HETATM   26  C20 UNL     1     -19.378 -30.096  24.422  1.00  0.00     0.027 A 
HETATM   27  C21 UNL     1     -17.950 -30.561  24.393  1.00  0.00     0.027 A 
ENDBRANCH  23  25
ENDBRANCH  14  21
BRANCH  11  28
HETATM   28  C11 UNL     1     -14.844 -28.878  30.331  1.00  0.00     0.021 C 
BRANCH  28  29
HETATM   29  C12 UNL     1     -15.030 -27.490  29.918  1.00  0.00    -0.022 C 
HETATM   30  C13 UNL     1     -14.291 -26.442  30.679  1.00  0.00     0.009 C 
HETATM   31  C14 UNL     1     -14.591 -27.284  28.444  1.00  0.00     0.009 C 
ENDBRANCH  28  29
ENDBRANCH  11  28
BRANCH   1  32
HETATM   32  N1  UNL     1     -18.414 -33.883  33.505  1.00  0.00    -0.359 N 
ATOM     33  H1  UNL     1     -17.425 -34.063  33.673  1.00  0.00     0.166 HD
BRANCH  32  34
HETATM   34  C4  UNL     1     -19.295 -34.897  33.100  1.00  0.00     0.066 C 
BRANCH  34  35
HETATM   35  C2  UNL     1     -20.408 -35.340  33.946  1.00  0.00     0.016 C 
HETATM   36  C1  UNL     1     -20.485 -36.785  34.291  1.00  0.00     0.015 C 
HETATM   37  C3  UNL     1     -21.700 -34.967  33.190  1.00  0.00     0.015 C 
ENDBRANCH  34  35
ENDBRANCH  32  34
ENDBRANCH   1  32
TORSDOF 7
ENDMDL
