MODEL 1
REMARK VINA RESULT: -7.247713787      0.000      0.000
REMARK  9 active torsions:
REMARK  status: ('A' for Active; 'I' for Inactive)
REMARK    1  A    between atoms: C4_9  and  C5_10 
REMARK    2  A    between atoms: C5_10  and  O2_11 
REMARK    3  A    between atoms: O2_11  and  C6_12 
REMARK    4  A    between atoms: C9_21  and  C10_22 
REMARK    5  A    between atoms: C15_29  and  C16_30 
REMARK    6  A    between atoms: C16_30  and  C17_31 
REMARK    7  A    between atoms: C16_30  and  N7_35 
REMARK    8  A    between atoms: C17_31  and  C18_32 
REMARK    9  A    between atoms: N7_35  and  C21_37 
ROOT
HETATM    1  C1  UNL     1     -17.332 -33.869  25.533  1.00  0.00     0.064 C 
HETATM    2  C2  UNL     1     -18.111 -32.600  25.370  1.00  0.00    -0.005 C 
HETATM    3  N1  UNL     1     -18.463 -32.380  24.149  1.00  0.00    -0.316 N 
ATOM      4  H1  UNL     1     -18.183 -33.075  23.457  1.00  0.00     0.170 HD
HETATM    5  C3  UNL     1     -19.201 -31.264  23.676  1.00  0.00     0.320 C 
HETATM    6  O1  UNL     1     -19.535 -31.076  22.487  1.00  0.00    -0.247 OA
HETATM    7  N2  UNL     1     -19.538 -30.350  24.740  1.00  0.00    -0.335 N 
ATOM      8  H2  UNL     1     -20.392 -29.793  24.719  1.00  0.00     0.164 HD
HETATM    9  C4  UNL     1     -18.576 -30.262  25.866  1.00  0.00     0.122 C 
HETATM   10  C15 UNL     1     -18.523 -31.675  26.415  1.00  0.00     0.078 C 
ENDROOT
BRANCH   9  11
HETATM   11  C5  UNL     1     -19.222 -29.260  26.789  1.00  0.00     0.203 C 
BRANCH  11  12
HETATM   12  O2  UNL     1     -18.267 -28.297  27.149  1.00  0.00    -0.331 OA
BRANCH  12  13
HETATM   13  C6  UNL     1     -17.140 -27.914  26.467  1.00  0.00     0.187 A 
HETATM   14  N3  UNL     1     -16.880 -27.866  25.157  1.00  0.00    -0.278 N 
HETATM   15  N4  UNL     1     -15.654 -27.433  24.982  1.00  0.00    -0.295 N 
ATOM     16  H3  UNL     1     -17.529 -28.126  24.414  1.00  0.00     0.189 HD
HETATM   17  C7  UNL     1     -15.073 -27.185  26.172  1.00  0.00     0.094 A 
ATOM     18  H4  UNL     1     -15.206 -27.301  24.075  1.00  0.00     0.187 HD
HETATM   19  C8  UNL     1     -13.832 -26.732  26.566  1.00  0.00     0.122 A 
HETATM   20  C14 UNL     1     -15.981 -27.475  27.155  1.00  0.00     0.116 A 
HETATM   21  N5  UNL     1     -13.542 -26.581  27.872  1.00  0.00    -0.353 N 
HETATM   22  C9  UNL     1     -14.453 -26.871  28.845  1.00  0.00     0.089 A 
ATOM     23  H5  UNL     1     -12.618 -26.242  28.141  1.00  0.00     0.166 HD
HETATM   24  N6  UNL     1     -15.663 -27.317  28.446  1.00  0.00    -0.340 N 
ATOM     25  H6  UNL     1     -16.362 -27.542  29.154  1.00  0.00     0.167 HD
BRANCH  22  26
HETATM   26  C10 UNL     1     -14.064 -26.692  30.269  1.00  0.00     0.007 C 
HETATM   27  C11 UNL     1     -15.051 -27.452  31.163  1.00  0.00     0.022 C 
HETATM   28  C12 UNL     1     -14.076 -25.259  30.706  1.00  0.00     0.022 C 
HETATM   29  C13 UNL     1     -12.714 -27.349  30.479  1.00  0.00     0.022 C 
ENDBRANCH  22  26
ENDBRANCH  12  13
ENDBRANCH  11  12
ENDBRANCH   9  11
BRANCH  10  30
HETATM   30  C16 UNL     1     -17.710 -31.753  27.680  1.00  0.00     0.088 C 
BRANCH  30  31
HETATM   31  C17 UNL     1     -18.673 -31.775  28.841  1.00  0.00     0.029 C 
BRANCH  31  32
HETATM   32  C18 UNL     1     -18.181 -32.484  30.056  1.00  0.00    -0.021 C 
HETATM   33  C19 UNL     1     -19.354 -33.188  30.771  1.00  0.00     0.009 C 
HETATM   34  C20 UNL     1     -17.253 -33.630  29.674  1.00  0.00     0.009 C 
ENDBRANCH  31  32
ENDBRANCH  30  31
BRANCH  30  35
HETATM   35  N7  UNL     1     -16.622 -30.931  27.790  1.00  0.00    -0.413 N 
ATOM     36  H7  UNL     1     -16.816 -29.969  28.071  1.00  0.00     0.154 HD
BRANCH  35  37
HETATM   37  C21 UNL     1     -15.289 -31.243  27.567  1.00  0.00     0.068 C 
HETATM   38  C22 UNL     1     -14.247 -30.677  28.463  1.00  0.00     0.031 C 
HETATM   39  C23 UNL     1     -14.821 -30.931  26.148  1.00  0.00     0.031 C 
ENDBRANCH  35  37
ENDBRANCH  30  35
ENDBRANCH  10  30
TORSDOF 9
ENDMDL
MODEL 2
REMARK VINA RESULT: -7.121563119      4.435      8.141
REMARK  9 active torsions:
REMARK  status: ('A' for Active; 'I' for Inactive)
REMARK    1  A    between atoms: C4_9  and  C5_10 
REMARK    2  A    between atoms: C5_10  and  O2_11 
REMARK    3  A    between atoms: O2_11  and  C6_12 
REMARK    4  A    between atoms: C9_21  and  C10_22 
REMARK    5  A    between atoms: C15_29  and  C16_30 
REMARK    6  A    between atoms: C16_30  and  C17_31 
REMARK    7  A    between atoms: C16_30  and  N7_35 
REMARK    8  A    between atoms: C17_31  and  C18_32 
REMARK    9  A    between atoms: N7_35  and  C21_37 
ROOT
HETATM    1  C1  UNL     1     -14.871 -27.811  30.357  1.00  0.00     0.064 C 
HETATM    2  C2  UNL     1     -15.681 -28.097  31.585  1.00  0.00    -0.005 C 
HETATM    3  N1  UNL     1     -16.458 -27.122  31.912  1.00  0.00    -0.316 N 
ATOM      4  H1  UNL     1     -16.436 -26.295  31.315  1.00  0.00     0.170 HD
HETATM    5  C3  UNL     1     -17.340 -27.088  33.023  1.00  0.00     0.320 C 
HETATM    6  O1  UNL     1     -18.088 -26.132  33.317  1.00  0.00    -0.247 OA
HETATM    7  N2  UNL     1     -17.284 -28.306  33.794  1.00  0.00    -0.335 N 
ATOM      8  H2  UNL     1     -18.098 -28.663  34.295  1.00  0.00     0.164 HD
HETATM    9  C4  UNL     1     -15.979 -29.013  33.821  1.00  0.00     0.122 C 
HETATM   10  C15 UNL     1     -15.702 -29.326  32.363  1.00  0.00     0.078 C 
ENDROOT
BRANCH   9  11
HETATM   11  C5  UNL     1     -16.264 -30.223  34.674  1.00  0.00     0.203 C 
BRANCH  11  12
HETATM   12  O2  UNL     1     -17.654 -30.366  34.804  1.00  0.00    -0.331 OA
BRANCH  12  13
HETATM   13  C6  UNL     1     -18.421 -31.485  34.602  1.00  0.00     0.187 A 
HETATM   14  N3  UNL     1     -18.988 -32.329  35.468  1.00  0.00    -0.278 N 
HETATM   15  N4  UNL     1     -19.628 -33.259  34.799  1.00  0.00    -0.295 N 
ATOM     16  H3  UNL     1     -18.934 -32.261  36.484  1.00  0.00     0.189 HD
HETATM   17  C7  UNL     1     -19.496 -33.054  33.474  1.00  0.00     0.094 A 
ATOM     18  H4  UNL     1     -20.150 -34.027  35.222  1.00  0.00     0.187 HD
HETATM   19  C8  UNL     1     -19.944 -33.708  32.346  1.00  0.00     0.122 A 
HETATM   20  C14 UNL     1     -18.734 -31.930  33.293  1.00  0.00     0.116 A 
HETATM   21  N5  UNL     1     -19.639 -33.243  31.119  1.00  0.00    -0.353 N 
HETATM   22  C9  UNL     1     -18.880 -32.122  30.948  1.00  0.00     0.089 A 
ATOM     23  H5  UNL     1     -19.983 -33.740  30.298  1.00  0.00     0.166 HD
HETATM   24  N6  UNL     1     -18.446 -31.494  32.061  1.00  0.00    -0.340 N 
ATOM     25  H6  UNL     1     -17.876 -30.654  31.960  1.00  0.00     0.167 HD
BRANCH  22  26
HETATM   26  C10 UNL     1     -18.572 -31.668  29.566  1.00  0.00     0.007 C 
HETATM   27  C11 UNL     1     -17.871 -32.801  28.807  1.00  0.00     0.022 C 
HETATM   28  C12 UNL     1     -17.666 -30.475  29.527  1.00  0.00     0.022 C 
HETATM   29  C13 UNL     1     -19.881 -31.424  28.842  1.00  0.00     0.022 C 
ENDBRANCH  22  26
ENDBRANCH  12  13
ENDBRANCH  11  12
ENDBRANCH   9  11
BRANCH  10  30
HETATM   30  C16 UNL     1     -14.483 -30.194  32.200  1.00  0.00     0.088 C 
BRANCH  30  31
HETATM   31  C17 UNL     1     -14.956 -31.596  31.903  1.00  0.00     0.029 C 
BRANCH  31  32
HETATM   32  C18 UNL     1     -14.147 -32.333  30.891  1.00  0.00    -0.021 C 
HETATM   33  C19 UNL     1     -14.857 -33.647  30.500  1.00  0.00     0.009 C 
HETATM   34  C20 UNL     1     -14.080 -31.557  29.582  1.00  0.00     0.009 C 
ENDBRANCH  31  32
ENDBRANCH  30  31
BRANCH  30  35
HETATM   35  N7  UNL     1     -13.478 -30.060  33.119  1.00  0.00    -0.413 N 
ATOM     36  H7  UNL     1     -13.584 -30.598  33.980  1.00  0.00     0.154 HD
BRANCH  35  37
HETATM   37  C21 UNL     1     -12.332 -29.282  33.026  1.00  0.00     0.068 C 
HETATM   38  C22 UNL     1     -12.393 -27.845  33.399  1.00  0.00     0.031 C 
HETATM   39  C23 UNL     1     -11.683 -29.320  31.645  1.00  0.00     0.031 C 
ENDBRANCH  35  37
ENDBRANCH  30  35
ENDBRANCH  10  30
TORSDOF 9
ENDMDL
MODEL 3
REMARK VINA RESULT: -7.085995347      2.120      3.841
REMARK  9 active torsions:
REMARK  status: ('A' for Active; 'I' for Inactive)
REMARK    1  A    between atoms: C4_9  and  C5_10 
REMARK    2  A    between atoms: C5_10  and  O2_11 
REMARK    3  A    between atoms: O2_11  and  C6_12 
REMARK    4  A    between atoms: C9_21  and  C10_22 
REMARK    5  A    between atoms: C15_29  and  C16_30 
REMARK    6  A    between atoms: C16_30  and  C17_31 
REMARK    7  A    between atoms: C16_30  and  N7_35 
REMARK    8  A    between atoms: C17_31  and  C18_32 
REMARK    9  A    between atoms: N7_35  and  C21_37 
ROOT
HETATM    1  C1  UNL     1     -19.681 -29.112  26.678  1.00  0.00     0.064 C 
HETATM    2  C2  UNL     1     -19.070 -30.193  25.838  1.00  0.00    -0.005 C 
HETATM    3  N1  UNL     1     -19.682 -30.364  24.717  1.00  0.00    -0.316 N 
ATOM      4  H1  UNL     1     -20.484 -29.761  24.533  1.00  0.00     0.170 HD
HETATM    5  C3  UNL     1     -19.347 -31.310  23.714  1.00  0.00     0.320 C 
HETATM    6  O1  UNL     1     -19.954 -31.454  22.631  1.00  0.00    -0.247 OA
HETATM    7  N2  UNL     1     -18.202 -32.106  24.083  1.00  0.00    -0.335 N 
ATOM      8  H2  UNL     1     -17.553 -32.470  23.385  1.00  0.00     0.164 HD
HETATM    9  C4  UNL     1     -18.017 -32.366  25.532  1.00  0.00     0.122 C 
HETATM   10  C15 UNL     1     -17.886 -30.983  26.140  1.00  0.00     0.078 C 
ENDROOT
BRANCH   9  11
HETATM   11  C5  UNL     1     -16.752 -33.185  25.573  1.00  0.00     0.203 C 
BRANCH  11  12
HETATM   12  O2  UNL     1     -15.909 -32.766  24.533  1.00  0.00    -0.331 OA
BRANCH  12  13
HETATM   13  C6  UNL     1     -14.570 -32.472  24.583  1.00  0.00     0.187 A 
HETATM   14  N3  UNL     1     -13.494 -33.246  24.416  1.00  0.00    -0.278 N 
HETATM   15  N4  UNL     1     -12.416 -32.514  24.561  1.00  0.00    -0.295 N 
ATOM     16  H3  UNL     1     -13.509 -34.245  24.209  1.00  0.00     0.189 HD
HETATM   17  C7  UNL     1     -12.752 -31.237  24.831  1.00  0.00     0.094 A 
ATOM     18  H4  UNL     1     -11.460 -32.860  24.481  1.00  0.00     0.187 HD
HETATM   19  C8  UNL     1     -12.041 -30.081  25.072  1.00  0.00     0.122 A 
HETATM   20  C14 UNL     1     -14.119 -31.156  24.855  1.00  0.00     0.116 A 
HETATM   21  N5  UNL     1     -12.683 -28.922  25.316  1.00  0.00    -0.353 N 
HETATM   22  C9  UNL     1     -14.045 -28.849  25.336  1.00  0.00     0.089 A 
ATOM     23  H5  UNL     1     -12.138 -28.078  25.489  1.00  0.00     0.166 HD
HETATM   24  N6  UNL     1     -14.728 -29.990  25.102  1.00  0.00    -0.340 N 
ATOM     25  H6  UNL     1     -15.748 -29.962  25.112  1.00  0.00     0.167 HD
BRANCH  22  26
HETATM   26  C10 UNL     1     -14.690 -27.540  25.622  1.00  0.00     0.007 C 
HETATM   27  C11 UNL     1     -14.146 -26.986  26.943  1.00  0.00     0.022 C 
HETATM   28  C12 UNL     1     -16.179 -27.634  25.755  1.00  0.00     0.022 C 
HETATM   29  C13 UNL     1     -14.267 -26.558  24.547  1.00  0.00     0.022 C 
ENDBRANCH  22  26
ENDBRANCH  12  13
ENDBRANCH  11  12
ENDBRANCH   9  11
BRANCH  10  30
HETATM   30  C16 UNL     1     -17.528 -31.045  27.601  1.00  0.00     0.088 C 
BRANCH  30  31
HETATM   31  C17 UNL     1     -18.589 -31.860  28.298  1.00  0.00     0.029 C 
BRANCH  31  32
HETATM   32  C18 UNL     1     -18.230 -32.324  29.668  1.00  0.00    -0.021 C 
HETATM   33  C19 UNL     1     -19.477 -32.894  30.378  1.00  0.00     0.009 C 
HETATM   34  C20 UNL     1     -17.279 -33.513  29.604  1.00  0.00     0.009 C 
ENDBRANCH  31  32
ENDBRANCH  30  31
BRANCH  30  35
HETATM   35  N7  UNL     1     -17.135 -29.885  28.211  1.00  0.00    -0.413 N 
ATOM     36  H7  UNL     1     -17.819 -29.128  28.213  1.00  0.00     0.154 HD
BRANCH  35  37
HETATM   37  C21 UNL     1     -15.922 -29.610  28.826  1.00  0.00     0.068 C 
HETATM   38  C22 UNL     1     -14.797 -30.569  28.681  1.00  0.00     0.031 C 
HETATM   39  C23 UNL     1     -16.047 -29.348  30.325  1.00  0.00     0.031 C 
ENDBRANCH  35  37
ENDBRANCH  30  35
ENDBRANCH  10  30
TORSDOF 9
ENDMDL
MODEL 4
REMARK VINA RESULT: -7.055733200      3.691      7.471
REMARK  9 active torsions:
REMARK  status: ('A' for Active; 'I' for Inactive)
REMARK    1  A    between atoms: C4_9  and  C5_10 
REMARK    2  A    between atoms: C5_10  and  O2_11 
REMARK    3  A    between atoms: O2_11  and  C6_12 
REMARK    4  A    between atoms: C9_21  and  C10_22 
REMARK    5  A    between atoms: C15_29  and  C16_30 
REMARK    6  A    between atoms: C16_30  and  C17_31 
REMARK    7  A    between atoms: C16_30  and  N7_35 
REMARK    8  A    between atoms: C17_31  and  C18_32 
REMARK    9  A    between atoms: N7_35  and  C21_37 
ROOT
HETATM    1  C1  UNL     1     -17.660 -31.277  35.431  1.00  0.00     0.064 C 
HETATM    2  C2  UNL     1     -17.604 -30.894  33.983  1.00  0.00    -0.005 C 
HETATM    3  N1  UNL     1     -17.275 -29.661  33.802  1.00  0.00    -0.316 N 
ATOM      4  H1  UNL     1     -17.092 -29.106  34.637  1.00  0.00     0.170 HD
HETATM    5  C3  UNL     1     -17.143 -29.003  32.552  1.00  0.00     0.320 C 
HETATM    6  O1  UNL     1     -16.817 -27.807  32.402  1.00  0.00    -0.247 OA
HETATM    7  N2  UNL     1     -17.426 -29.884  31.445  1.00  0.00    -0.335 N 
ATOM      8  H2  UNL     1     -16.966 -29.776  30.541  1.00  0.00     0.164 HD
HETATM    9  C4  UNL     1     -18.422 -30.956  31.691  1.00  0.00     0.122 C 
HETATM   10  C15 UNL     1     -17.826 -31.757  32.832  1.00  0.00     0.078 C 
ENDROOT
BRANCH   9  11
HETATM   11  C5  UNL     1     -18.468 -31.688  30.374  1.00  0.00     0.203 C 
BRANCH  11  12
HETATM   12  O2  UNL     1     -18.206 -30.775  29.341  1.00  0.00    -0.331 OA
BRANCH  12  13
HETATM   13  C6  UNL     1     -18.481 -30.896  28.003  1.00  0.00     0.187 A 
HETATM   14  N3  UNL     1     -19.268 -30.176  27.199  1.00  0.00    -0.278 N 
HETATM   15  N4  UNL     1     -19.213 -30.676  25.988  1.00  0.00    -0.295 N 
ATOM     16  H3  UNL     1     -19.823 -29.368  27.482  1.00  0.00     0.189 HD
HETATM   17  C7  UNL     1     -18.389 -31.743  25.962  1.00  0.00     0.094 A 
ATOM     18  H4  UNL     1     -19.720 -30.312  25.182  1.00  0.00     0.187 HD
HETATM   19  C8  UNL     1     -17.979 -32.623  24.983  1.00  0.00     0.122 A 
HETATM   20  C14 UNL     1     -17.892 -31.925  27.225  1.00  0.00     0.116 A 
HETATM   21  N5  UNL     1     -17.118 -33.617  25.275  1.00  0.00    -0.353 N 
HETATM   22  C9  UNL     1     -16.627 -33.791  26.536  1.00  0.00     0.089 A 
ATOM     23  H5  UNL     1     -16.826 -34.255  24.535  1.00  0.00     0.166 HD
HETATM   24  N6  UNL     1     -17.040 -32.924  27.485  1.00  0.00    -0.340 N 
ATOM     25  H6  UNL     1     -16.688 -33.033  28.436  1.00  0.00     0.167 HD
BRANCH  22  26
HETATM   26  C10 UNL     1     -15.688 -34.915  26.791  1.00  0.00     0.007 C 
HETATM   27  C11 UNL     1     -14.306 -34.556  26.235  1.00  0.00     0.022 C 
HETATM   28  C12 UNL     1     -16.113 -36.196  26.141  1.00  0.00     0.022 C 
HETATM   29  C13 UNL     1     -15.515 -35.058  28.291  1.00  0.00     0.022 C 
ENDBRANCH  22  26
ENDBRANCH  12  13
ENDBRANCH  11  12
ENDBRANCH   9  11
BRANCH  10  30
HETATM   30  C16 UNL     1     -18.626 -32.998  33.122  1.00  0.00     0.088 C 
BRANCH  30  31
HETATM   31  C17 UNL     1     -18.015 -34.131  32.335  1.00  0.00     0.029 C 
BRANCH  31  32
HETATM   32  C18 UNL     1     -17.726 -35.363  33.122  1.00  0.00    -0.021 C 
HETATM   33  C19 UNL     1     -16.535 -36.123  32.499  1.00  0.00     0.009 C 
HETATM   34  C20 UNL     1     -17.236 -35.008  34.520  1.00  0.00     0.009 C 
ENDBRANCH  31  32
ENDBRANCH  30  31
BRANCH  30  35
HETATM   35  N7  UNL     1     -19.991 -32.895  33.105  1.00  0.00    -0.413 N 
ATOM     36  H7  UNL     1     -20.386 -32.328  32.354  1.00  0.00     0.154 HD
BRANCH  35  37
HETATM   37  C21 UNL     1     -20.903 -33.465  33.982  1.00  0.00     0.068 C 
HETATM   38  C22 UNL     1     -20.525 -33.654  35.406  1.00  0.00     0.031 C 
HETATM   39  C23 UNL     1     -21.430 -34.819  33.514  1.00  0.00     0.031 C 
ENDBRANCH  35  37
ENDBRANCH  30  35
ENDBRANCH  10  30
TORSDOF 9
ENDMDL
MODEL 5
REMARK VINA RESULT: -6.912753357      2.908      5.904
REMARK  9 active torsions:
REMARK  status: ('A' for Active; 'I' for Inactive)
REMARK    1  A    between atoms: C4_9  and  C5_10 
REMARK    2  A    between atoms: C5_10  and  O2_11 
REMARK    3  A    between atoms: O2_11  and  C6_12 
REMARK    4  A    between atoms: C9_21  and  C10_22 
REMARK    5  A    between atoms: C15_29  and  C16_30 
REMARK    6  A    between atoms: C16_30  and  C17_31 
REMARK    7  A    between atoms: C16_30  and  N7_35 
REMARK    8  A    between atoms: C17_31  and  C18_32 
REMARK    9  A    between atoms: N7_35  and  C21_37 
ROOT
HETATM    1  C1  UNL     1     -15.133 -30.776  25.047  1.00  0.00     0.064 C 
HETATM    2  C2  UNL     1     -15.976 -30.378  26.220  1.00  0.00    -0.005 C 
HETATM    3  N1  UNL     1     -15.476 -29.395  26.887  1.00  0.00    -0.316 N 
ATOM      4  H1  UNL     1     -14.595 -29.010  26.549  1.00  0.00     0.170 HD
HETATM    5  C3  UNL     1     -16.035 -28.798  28.046  1.00  0.00     0.320 C 
HETATM    6  O1  UNL     1     -15.534 -27.841  28.673  1.00  0.00    -0.247 OA
HETATM    7  N2  UNL     1     -17.276 -29.424  28.432  1.00  0.00    -0.335 N 
ATOM      8  H2  UNL     1     -18.022 -28.901  28.891  1.00  0.00     0.164 HD
HETATM    9  C4  UNL     1     -17.411 -30.869  28.123  1.00  0.00     0.122 C 
HETATM   10  C15 UNL     1     -17.258 -30.940  26.616  1.00  0.00     0.078 C 
ENDROOT
BRANCH   9  11
HETATM   11  C5  UNL     1     -18.795 -31.197  28.625  1.00  0.00     0.203 C 
BRANCH  11  12
HETATM   12  O2  UNL     1     -18.733 -32.376  29.382  1.00  0.00    -0.331 OA
BRANCH  12  13
HETATM   13  C6  UNL     1     -19.101 -32.573  30.689  1.00  0.00     0.187 A 
HETATM   14  N3  UNL     1     -20.024 -33.373  31.230  1.00  0.00    -0.278 N 
HETATM   15  N4  UNL     1     -20.014 -33.215  32.532  1.00  0.00    -0.295 N 
ATOM     16  H3  UNL     1     -20.638 -34.003  30.715  1.00  0.00     0.189 HD
HETATM   17  C7  UNL     1     -19.084 -32.305  32.884  1.00  0.00     0.094 A 
ATOM     18  H4  UNL     1     -20.621 -33.710  33.185  1.00  0.00     0.187 HD
HETATM   19  C8  UNL     1     -18.662 -31.767  34.081  1.00  0.00     0.122 A 
HETATM   20  C14 UNL     1     -18.470 -31.864  31.742  1.00  0.00     0.116 A 
HETATM   21  N5  UNL     1     -17.678 -30.848  34.109  1.00  0.00    -0.353 N 
HETATM   22  C9  UNL     1     -17.070 -30.416  32.967  1.00  0.00     0.089 A 
ATOM     23  H5  UNL     1     -17.379 -30.467  35.007  1.00  0.00     0.166 HD
HETATM   24  N6  UNL     1     -17.496 -30.948  31.802  1.00  0.00    -0.340 N 
ATOM     25  H6  UNL     1     -17.058 -30.641  30.933  1.00  0.00     0.167 HD
BRANCH  22  26
HETATM   26  C10 UNL     1     -15.998 -29.392  33.069  1.00  0.00     0.007 C 
HETATM   27  C11 UNL     1     -16.214 -28.324  31.991  1.00  0.00     0.022 C 
HETATM   28  C12 UNL     1     -14.624 -29.956  32.870  1.00  0.00     0.022 C 
HETATM   29  C13 UNL     1     -16.143 -28.681  34.400  1.00  0.00     0.022 C 
ENDBRANCH  22  26
ENDBRANCH  12  13
ENDBRANCH  11  12
ENDBRANCH   9  11
BRANCH  10  30
HETATM   30  C16 UNL     1     -17.528 -32.324  26.091  1.00  0.00     0.088 C 
BRANCH  30  31
HETATM   31  C17 UNL     1     -18.858 -32.292  25.379  1.00  0.00     0.029 C 
BRANCH  31  32
HETATM   32  C18 UNL     1     -18.910 -31.410  24.178  1.00  0.00    -0.021 C 
HETATM   33  C19 UNL     1     -19.905 -31.979  23.145  1.00  0.00     0.009 C 
HETATM   34  C20 UNL     1     -19.499 -30.050  24.533  1.00  0.00     0.009 C 
ENDBRANCH  31  32
ENDBRANCH  30  31
BRANCH  30  35
HETATM   35  N7  UNL     1     -17.299 -33.380  26.931  1.00  0.00    -0.413 N 
ATOM     36  H7  UNL     1     -18.054 -33.610  27.577  1.00  0.00     0.154 HD
BRANCH  35  37
HETATM   37  C21 UNL     1     -16.165 -34.177  27.013  1.00  0.00     0.068 C 
HETATM   38  C22 UNL     1     -16.147 -35.493  26.323  1.00  0.00     0.031 C 
HETATM   39  C23 UNL     1     -15.723 -34.459  28.446  1.00  0.00     0.031 C 
ENDBRANCH  35  37
ENDBRANCH  30  35
ENDBRANCH  10  30
TORSDOF 9
ENDMDL
