MODEL 1
REMARK VINA RESULT: -6.755814491      0.000      0.000
REMARK  10 active torsions:
REMARK  status: ('A' for Active; 'I' for Inactive)
REMARK       I    between atoms: N1_2  and  C2_4 
REMARK       I    between atoms: C2_4  and  N2_5 
REMARK       I    between atoms: C2_4  and  N6_31 
REMARK    1  A    between atoms: N2_5  and  C3_7 
REMARK    2  A    between atoms: C4_12  and  S1_13 
REMARK    3  A    between atoms: S1_13  and  C5_14 
REMARK    4  A    between atoms: C5_14  and  C6_15 
REMARK    5  A    between atoms: C6_15  and  C8_17 
REMARK    6  A    between atoms: C8_17  and  N5_18 
REMARK    7  A    between atoms: N5_18  and  C9_20 
REMARK    8  A    between atoms: C9_20  and  S3_22 
REMARK    9  A    between atoms: S3_22  and  C10_23 
REMARK   10  A    between atoms: C10_23  and  C11_24 
ROOT
HETATM    1  S1  UNL     1     -16.965 -31.288  35.242  1.00  0.00    -0.103 SA
ENDROOT
BRANCH   1   2
HETATM    2  C4  UNL     1     -16.819 -29.865  34.142  1.00  0.00     0.130 A 
HETATM    3  N4  UNL     1     -17.133 -28.600  34.376  1.00  0.00    -0.286 N 
HETATM    4  N3  UNL     1     -16.959 -27.720  33.472  1.00  0.00    -0.278 N 
ATOM      5  H4  UNL     1     -17.515 -28.329  35.282  1.00  0.00     0.188 HD
HETATM    6  C3  UNL     1     -16.458 -28.105  32.295  1.00  0.00     0.180 A 
ATOM      7  H3  UNL     1     -17.198 -26.743  33.643  1.00  0.00     0.189 HD
HETATM    8  S4  UNL     1     -16.245 -29.783  32.535  1.00  0.00    -0.026 SA
BRANCH   6   9
HETATM    9  N2  UNL     1     -16.210 -27.358  31.253  1.00  0.00    -0.169 N 
HETATM   10  C2  UNL     1     -14.864 -27.228  30.832  1.00  0.00     0.675 C 
HETATM   11  N1  UNL     1     -14.432 -27.797  29.769  1.00  0.00    -0.231 N 
HETATM   12  N6  UNL     1     -13.984 -26.445  31.612  1.00  0.00    -0.231 N 
HETATM   13  C1  UNL     1     -15.323 -28.590  28.973  1.00  0.00     0.165 C 
ATOM     14  H1  UNL     1     -13.457 -27.686  29.490  1.00  0.00     0.177 HD
HETATM   15  C17 UNL     1     -12.560 -26.588  31.408  1.00  0.00     0.165 C 
ATOM     16  H6  UNL     1     -14.346 -25.791  32.306  1.00  0.00     0.177 HD
ATOM     17  H2  UNL     1     -16.964 -26.883  30.757  1.00  0.00     0.186 HD
ENDBRANCH   6   9
ENDBRANCH   1   2
BRANCH   1  18
HETATM   18  C5  UNL     1     -17.669 -32.683  34.339  1.00  0.00     0.087 C 
BRANCH  18  19
HETATM   19  C6  UNL     1     -19.154 -32.432  34.171  1.00  0.00     0.009 C 
HETATM   20  C7  UNL     1     -19.933 -33.269  35.170  1.00  0.00     0.012 C 
BRANCH  19  21
HETATM   21  C8  UNL     1     -19.528 -32.942  32.788  1.00  0.00     0.126 C 
BRANCH  21  22
HETATM   22  N5  UNL     1     -19.170 -31.963  31.796  1.00  0.00    -0.375 N 
ATOM     23  H5  UNL     1     -19.215 -30.969  32.020  1.00  0.00     0.161 HD
BRANCH  22  24
HETATM   24  C9  UNL     1     -18.752 -32.387  30.501  1.00  0.00     0.134 C 
HETATM   25  S2  UNL     1     -17.617 -33.556  30.431  1.00  0.00    -0.053 SA
BRANCH  24  26
HETATM   26  S3  UNL     1     -19.479 -31.609  29.097  1.00  0.00    -0.096 SA
BRANCH  26  27
HETATM   27  C10 UNL     1     -18.403 -30.746  27.990  1.00  0.00     0.120 C 
BRANCH  27  28
HETATM   28  C11 UNL     1     -18.737 -30.959  26.566  1.00  0.00    -0.049 A 
HETATM   29  C12 UNL     1     -18.817 -32.186  25.957  1.00  0.00     0.008 A 
HETATM   30  C13 UNL     1     -19.162 -32.340  24.613  1.00  0.00     0.001 A 
HETATM   31  C14 UNL     1     -19.439 -31.244  23.839  1.00  0.00     0.000 A 
HETATM   32  C15 UNL     1     -19.364 -30.001  24.428  1.00  0.00     0.001 A 
HETATM   33  C16 UNL     1     -19.024 -29.855  25.750  1.00  0.00     0.008 A 
ENDBRANCH  27  28
ENDBRANCH  26  27
ENDBRANCH  24  26
ENDBRANCH  22  24
ENDBRANCH  21  22
ENDBRANCH  19  21
ENDBRANCH  18  19
ENDBRANCH   1  18
TORSDOF 10
ENDMDL
MODEL 2
REMARK VINA RESULT: -6.703724199      1.559      1.981
REMARK  10 active torsions:
REMARK  status: ('A' for Active; 'I' for Inactive)
REMARK       I    between atoms: N1_2  and  C2_4 
REMARK       I    between atoms: C2_4  and  N2_5 
REMARK       I    between atoms: C2_4  and  N6_31 
REMARK    1  A    between atoms: N2_5  and  C3_7 
REMARK    2  A    between atoms: C4_12  and  S1_13 
REMARK    3  A    between atoms: S1_13  and  C5_14 
REMARK    4  A    between atoms: C5_14  and  C6_15 
REMARK    5  A    between atoms: C6_15  and  C8_17 
REMARK    6  A    between atoms: C8_17  and  N5_18 
REMARK    7  A    between atoms: N5_18  and  C9_20 
REMARK    8  A    between atoms: C9_20  and  S3_22 
REMARK    9  A    between atoms: S3_22  and  C10_23 
REMARK   10  A    between atoms: C10_23  and  C11_24 
ROOT
HETATM    1  S1  UNL     1     -18.352 -32.925  34.359  1.00  0.00    -0.103 SA
ENDROOT
BRANCH   1   2
HETATM    2  C4  UNL     1     -17.702 -31.271  34.045  1.00  0.00     0.130 A 
HETATM    3  N4  UNL     1     -17.646 -30.232  34.865  1.00  0.00    -0.286 N 
HETATM    4  N3  UNL     1     -17.148 -29.131  34.468  1.00  0.00    -0.278 N 
ATOM      5  H4  UNL     1     -18.003 -30.315  35.818  1.00  0.00     0.188 HD
HETATM    6  C3  UNL     1     -16.689 -29.052  33.217  1.00  0.00     0.180 A 
ATOM      7  H3  UNL     1     -17.099 -28.325  35.093  1.00  0.00     0.189 HD
HETATM    8  S4  UNL     1     -17.002 -30.625  32.628  1.00  0.00    -0.026 SA
BRANCH   6   9
HETATM    9  N2  UNL     1     -16.147 -28.018  32.630  1.00  0.00    -0.169 N 
HETATM   10  C2  UNL     1     -14.757 -28.059  32.359  1.00  0.00     0.675 C 
HETATM   11  N1  UNL     1     -14.306 -28.205  31.170  1.00  0.00    -0.231 N 
HETATM   12  N6  UNL     1     -13.854 -27.929  33.438  1.00  0.00    -0.231 N 
HETATM   13  C1  UNL     1     -15.220 -28.333  30.072  1.00  0.00     0.165 C 
ATOM     14  H1  UNL     1     -13.300 -28.231  31.004  1.00  0.00     0.177 HD
HETATM   15  C17 UNL     1     -12.476 -28.319  33.241  1.00  0.00     0.165 C 
ATOM     16  H6  UNL     1     -14.168 -27.568  34.339  1.00  0.00     0.177 HD
ATOM     17  H2  UNL     1     -16.709 -27.206  32.374  1.00  0.00     0.186 HD
ENDBRANCH   6   9
ENDBRANCH   1   2
BRANCH   1  18
HETATM   18  C5  UNL     1     -19.894 -33.154  33.451  1.00  0.00     0.087 C 
BRANCH  18  19
HETATM   19  C6  UNL     1     -19.603 -34.027  32.247  1.00  0.00     0.009 C 
HETATM   20  C7  UNL     1     -18.158 -34.493  32.285  1.00  0.00     0.012 C 
BRANCH  19  21
HETATM   21  C8  UNL     1     -19.743 -33.139  31.020  1.00  0.00     0.126 C 
BRANCH  21  22
HETATM   22  N5  UNL     1     -18.522 -33.166  30.260  1.00  0.00    -0.375 N 
ATOM     23  H5  UNL     1     -17.729 -33.720  30.585  1.00  0.00     0.161 HD
BRANCH  22  24
HETATM   24  C9  UNL     1     -18.424 -32.417  29.050  1.00  0.00     0.134 C 
HETATM   25  S2  UNL     1     -19.572 -31.290  28.778  1.00  0.00    -0.053 SA
BRANCH  24  26
HETATM   26  S3  UNL     1     -17.094 -32.778  27.955  1.00  0.00    -0.096 SA
BRANCH  26  27
HETATM   27  C10 UNL     1     -16.809 -31.661  26.614  1.00  0.00     0.120 C 
BRANCH  27  28
HETATM   28  C11 UNL     1     -17.843 -31.737  25.560  1.00  0.00    -0.049 A 
HETATM   29  C12 UNL     1     -18.564 -32.864  25.252  1.00  0.00     0.008 A 
HETATM   30  C13 UNL     1     -19.550 -32.881  24.264  1.00  0.00     0.001 A 
HETATM   31  C14 UNL     1     -19.838 -31.746  23.552  1.00  0.00     0.000 A 
HETATM   32  C15 UNL     1     -19.126 -30.604  23.843  1.00  0.00     0.001 A 
HETATM   33  C16 UNL     1     -18.156 -30.592  24.815  1.00  0.00     0.008 A 
ENDBRANCH  27  28
ENDBRANCH  26  27
ENDBRANCH  24  26
ENDBRANCH  22  24
ENDBRANCH  21  22
ENDBRANCH  19  21
ENDBRANCH  18  19
ENDBRANCH   1  18
TORSDOF 10
ENDMDL
MODEL 3
REMARK VINA RESULT: -6.618524707      3.733      7.766
REMARK  10 active torsions:
REMARK  status: ('A' for Active; 'I' for Inactive)
REMARK       I    between atoms: N1_2  and  C2_4 
REMARK       I    between atoms: C2_4  and  N2_5 
REMARK       I    between atoms: C2_4  and  N6_31 
REMARK    1  A    between atoms: N2_5  and  C3_7 
REMARK    2  A    between atoms: C4_12  and  S1_13 
REMARK    3  A    between atoms: S1_13  and  C5_14 
REMARK    4  A    between atoms: C5_14  and  C6_15 
REMARK    5  A    between atoms: C6_15  and  C8_17 
REMARK    6  A    between atoms: C8_17  and  N5_18 
REMARK    7  A    between atoms: N5_18  and  C9_20 
REMARK    8  A    between atoms: C9_20  and  S3_22 
REMARK    9  A    between atoms: S3_22  and  C10_23 
REMARK   10  A    between atoms: C10_23  and  C11_24 
ROOT
HETATM    1  S1  UNL     1     -19.585 -31.159  28.419  1.00  0.00    -0.103 SA
ENDROOT
BRANCH   1   2
HETATM    2  C4  UNL     1     -18.690 -31.753  26.970  1.00  0.00     0.130 A 
HETATM    3  N4  UNL     1     -19.170 -32.124  25.792  1.00  0.00    -0.286 N 
HETATM    4  N3  UNL     1     -18.380 -32.520  24.876  1.00  0.00    -0.278 N 
ATOM      5  H4  UNL     1     -20.175 -32.093  25.619  1.00  0.00     0.188 HD
HETATM    6  C3  UNL     1     -17.070 -32.550  25.131  1.00  0.00     0.180 A 
ATOM      7  H3  UNL     1     -18.741 -32.807  23.965  1.00  0.00     0.189 HD
HETATM    8  S4  UNL     1     -17.013 -31.988  26.744  1.00  0.00    -0.026 SA
BRANCH   6   9
HETATM    9  N2  UNL     1     -16.110 -32.922  24.328  1.00  0.00    -0.169 N 
HETATM   10  C2  UNL     1     -15.046 -32.015  24.098  1.00  0.00     0.675 C 
HETATM   11  N1  UNL     1     -13.880 -32.204  24.594  1.00  0.00    -0.231 N 
HETATM   12  N6  UNL     1     -15.288 -30.878  23.295  1.00  0.00    -0.231 N 
HETATM   13  C1  UNL     1     -13.630 -33.359  25.406  1.00  0.00     0.165 C 
ATOM     14  H1  UNL     1     -13.133 -31.535  24.412  1.00  0.00     0.177 HD
HETATM   15  C17 UNL     1     -14.346 -29.782  23.342  1.00  0.00     0.165 C 
ATOM     16  H6  UNL     1     -16.110 -30.830  22.695  1.00  0.00     0.177 HD
ATOM     17  H2  UNL     1     -16.126 -33.838  23.879  1.00  0.00     0.186 HD
ENDBRANCH   6   9
ENDBRANCH   1   2
BRANCH   1  18
HETATM   18  C5  UNL     1     -19.524 -32.405  29.722  1.00  0.00     0.087 C 
BRANCH  18  19
HETATM   19  C6  UNL     1     -18.164 -32.325  30.385  1.00  0.00     0.009 C 
HETATM   20  C7  UNL     1     -17.832 -33.654  31.042  1.00  0.00     0.012 C 
BRANCH  19  21
HETATM   21  C8  UNL     1     -18.284 -31.303  31.505  1.00  0.00     0.126 C 
BRANCH  21  22
HETATM   22  N5  UNL     1     -17.096 -31.330  32.316  1.00  0.00    -0.375 N 
ATOM     23  H5  UNL     1     -16.197 -31.570  31.899  1.00  0.00     0.161 HD
BRANCH  22  24
HETATM   24  C9  UNL     1     -17.180 -31.019  33.706  1.00  0.00     0.134 C 
HETATM   25  S2  UNL     1     -16.972 -29.459  34.133  1.00  0.00    -0.053 SA
BRANCH  24  26
HETATM   26  S3  UNL     1     -17.483 -32.337  34.835  1.00  0.00    -0.096 SA
BRANCH  26  27
HETATM   27  C10 UNL     1     -19.102 -32.459  35.536  1.00  0.00     0.120 C 
BRANCH  27  28
HETATM   28  C11 UNL     1     -19.959 -33.455  34.859  1.00  0.00    -0.049 A 
HETATM   29  C12 UNL     1     -20.389 -33.360  33.559  1.00  0.00     0.008 A 
HETATM   30  C13 UNL     1     -21.177 -34.340  32.952  1.00  0.00     0.001 A 
HETATM   31  C14 UNL     1     -21.557 -35.456  33.652  1.00  0.00     0.000 A 
HETATM   32  C15 UNL     1     -21.137 -35.572  34.958  1.00  0.00     0.001 A 
HETATM   33  C16 UNL     1     -20.363 -34.605  35.550  1.00  0.00     0.008 A 
ENDBRANCH  27  28
ENDBRANCH  26  27
ENDBRANCH  24  26
ENDBRANCH  22  24
ENDBRANCH  21  22
ENDBRANCH  19  21
ENDBRANCH  18  19
ENDBRANCH   1  18
TORSDOF 10
ENDMDL
MODEL 4
REMARK VINA RESULT: -6.476898984      3.308      7.289
REMARK  10 active torsions:
REMARK  status: ('A' for Active; 'I' for Inactive)
REMARK       I    between atoms: N1_2  and  C2_4 
REMARK       I    between atoms: C2_4  and  N2_5 
REMARK       I    between atoms: C2_4  and  N6_31 
REMARK    1  A    between atoms: N2_5  and  C3_7 
REMARK    2  A    between atoms: C4_12  and  S1_13 
REMARK    3  A    between atoms: S1_13  and  C5_14 
REMARK    4  A    between atoms: C5_14  and  C6_15 
REMARK    5  A    between atoms: C6_15  and  C8_17 
REMARK    6  A    between atoms: C8_17  and  N5_18 
REMARK    7  A    between atoms: N5_18  and  C9_20 
REMARK    8  A    between atoms: C9_20  and  S3_22 
REMARK    9  A    between atoms: S3_22  and  C10_23 
REMARK   10  A    between atoms: C10_23  and  C11_24 
ROOT
HETATM    1  S1  UNL     1     -17.680 -31.179  31.040  1.00  0.00    -0.103 SA
ENDROOT
BRANCH   1   2
HETATM    2  C4  UNL     1     -18.170 -31.010  29.311  1.00  0.00     0.130 A 
HETATM    3  N4  UNL     1     -19.006 -31.760  28.609  1.00  0.00    -0.286 N 
HETATM    4  N3  UNL     1     -19.236 -31.489  27.387  1.00  0.00    -0.278 N 
ATOM      5  H4  UNL     1     -19.468 -32.557  29.048  1.00  0.00     0.188 HD
HETATM    6  C3  UNL     1     -18.617 -30.440  26.838  1.00  0.00     0.180 A 
ATOM      7  H3  UNL     1     -19.879 -32.060  26.838  1.00  0.00     0.189 HD
HETATM    8  S4  UNL     1     -17.689 -29.855  28.149  1.00  0.00    -0.026 SA
BRANCH   6   9
HETATM    9  N2  UNL     1     -18.720 -30.006  25.611  1.00  0.00    -0.169 N 
HETATM   10  C2  UNL     1     -17.846 -30.548  24.637  1.00  0.00     0.675 C 
HETATM   11  N1  UNL     1     -18.259 -31.362  23.739  1.00  0.00    -0.231 N 
HETATM   12  N6  UNL     1     -16.484 -30.170  24.664  1.00  0.00    -0.231 N 
HETATM   13  C1  UNL     1     -19.641 -31.745  23.707  1.00  0.00     0.165 C 
ATOM     14  H1  UNL     1     -17.607 -31.738  23.050  1.00  0.00     0.177 HD
HETATM   15  C17 UNL     1     -15.528 -30.965  23.928  1.00  0.00     0.165 C 
ATOM     16  H6  UNL     1     -16.182 -29.352  25.193  1.00  0.00     0.177 HD
ATOM     17  H2  UNL     1     -19.410 -29.297  25.362  1.00  0.00     0.186 HD
ENDBRANCH   6   9
ENDBRANCH   1   2
BRANCH   1  18
HETATM   18  C5  UNL     1     -16.705 -29.745  31.536  1.00  0.00     0.087 C 
BRANCH  18  19
HETATM   19  C6  UNL     1     -17.353 -29.139  32.765  1.00  0.00     0.009 C 
HETATM   20  C7  UNL     1     -17.210 -27.627  32.730  1.00  0.00     0.012 C 
BRANCH  19  21
HETATM   21  C8  UNL     1     -16.553 -29.625  33.964  1.00  0.00     0.126 C 
BRANCH  21  22
HETATM   22  N5  UNL     1     -17.409 -30.371  34.847  1.00  0.00    -0.375 N 
ATOM     23  H5  UNL     1     -18.026 -29.882  35.496  1.00  0.00     0.161 HD
BRANCH  22  24
HETATM   24  C9  UNL     1     -17.392 -31.797  34.813  1.00  0.00     0.134 C 
HETATM   25  S2  UNL     1     -15.958 -32.531  35.070  1.00  0.00    -0.053 SA
BRANCH  24  26
HETATM   26  S3  UNL     1     -18.904 -32.638  34.483  1.00  0.00    -0.096 SA
BRANCH  26  27
HETATM   27  C10 UNL     1     -18.814 -34.178  33.619  1.00  0.00     0.120 C 
BRANCH  27  28
HETATM   28  C11 UNL     1     -20.087 -34.930  33.630  1.00  0.00    -0.049 A 
HETATM   29  C12 UNL     1     -21.261 -34.485  33.077  1.00  0.00     0.008 A 
HETATM   30  C13 UNL     1     -22.434 -35.243  33.089  1.00  0.00     0.001 A 
HETATM   31  C14 UNL     1     -22.451 -36.485  33.667  1.00  0.00     0.000 A 
HETATM   32  C15 UNL     1     -21.284 -36.952  34.229  1.00  0.00     0.001 A 
HETATM   33  C16 UNL     1     -20.133 -36.203  34.215  1.00  0.00     0.008 A 
ENDBRANCH  27  28
ENDBRANCH  26  27
ENDBRANCH  24  26
ENDBRANCH  22  24
ENDBRANCH  21  22
ENDBRANCH  19  21
ENDBRANCH  18  19
ENDBRANCH   1  18
TORSDOF 10
ENDMDL
MODEL 5
REMARK VINA RESULT: -6.465398355      5.162      7.307
REMARK  10 active torsions:
REMARK  status: ('A' for Active; 'I' for Inactive)
REMARK       I    between atoms: N1_2  and  C2_4 
REMARK       I    between atoms: C2_4  and  N2_5 
REMARK       I    between atoms: C2_4  and  N6_31 
REMARK    1  A    between atoms: N2_5  and  C3_7 
REMARK    2  A    between atoms: C4_12  and  S1_13 
REMARK    3  A    between atoms: S1_13  and  C5_14 
REMARK    4  A    between atoms: C5_14  and  C6_15 
REMARK    5  A    between atoms: C6_15  and  C8_17 
REMARK    6  A    between atoms: C8_17  and  N5_18 
REMARK    7  A    between atoms: N5_18  and  C9_20 
REMARK    8  A    between atoms: C9_20  and  S3_22 
REMARK    9  A    between atoms: S3_22  and  C10_23 
REMARK   10  A    between atoms: C10_23  and  C11_24 
ROOT
HETATM    1  S1  UNL     1     -14.172 -31.976  26.143  1.00  0.00    -0.103 SA
ENDROOT
BRANCH   1   2
HETATM    2  C4  UNL     1     -14.431 -31.056  24.612  1.00  0.00     0.130 A 
HETATM    3  N4  UNL     1     -15.381 -31.211  23.702  1.00  0.00    -0.286 N 
HETATM    4  N3  UNL     1     -15.409 -30.463  22.673  1.00  0.00    -0.278 N 
ATOM      5  H4  UNL     1     -16.093 -31.932  23.826  1.00  0.00     0.188 HD
HETATM    6  C3  UNL     1     -14.464 -29.529  22.538  1.00  0.00     0.180 A 
ATOM      7  H3  UNL     1     -16.137 -30.574  21.967  1.00  0.00     0.189 HD
HETATM    8  S4  UNL     1     -13.530 -29.766  23.949  1.00  0.00    -0.026 SA
BRANCH   6   9
HETATM    9  N2  UNL     1     -14.324 -28.672  21.562  1.00  0.00    -0.169 N 
HETATM   10  C2  UNL     1     -13.686 -27.439  21.844  1.00  0.00     0.675 C 
HETATM   11  N1  UNL     1     -12.503 -27.182  21.430  1.00  0.00    -0.231 N 
HETATM   12  N6  UNL     1     -14.387 -26.473  22.601  1.00  0.00    -0.231 N 
HETATM   13  C1  UNL     1     -11.790 -28.159  20.658  1.00  0.00     0.165 C 
ATOM     14  H1  UNL     1     -12.068 -26.286  21.648  1.00  0.00     0.177 HD
HETATM   15  C17 UNL     1     -13.645 -25.383  23.194  1.00  0.00     0.165 C 
ATOM     16  H6  UNL     1     -15.396 -26.543  22.728  1.00  0.00     0.177 HD
ATOM     17  H2  UNL     1     -14.664 -28.886  20.624  1.00  0.00     0.186 HD
ENDBRANCH   6   9
ENDBRANCH   1   2
BRANCH   1  18
HETATM   18  C5  UNL     1     -14.292 -33.746  25.816  1.00  0.00     0.087 C 
BRANCH  18  19
HETATM   19  C6  UNL     1     -15.271 -34.341  26.808  1.00  0.00     0.009 C 
HETATM   20  C7  UNL     1     -16.579 -34.668  26.108  1.00  0.00     0.012 C 
BRANCH  19  21
HETATM   21  C8  UNL     1     -15.580 -33.251  27.823  1.00  0.00     0.126 C 
BRANCH  21  22
HETATM   22  N5  UNL     1     -16.898 -33.451  28.363  1.00  0.00    -0.375 N 
ATOM     23  H5  UNL     1     -17.290 -34.391  28.423  1.00  0.00     0.161 HD
BRANCH  22  24
HETATM   24  C9  UNL     1     -17.655 -32.330  28.816  1.00  0.00     0.134 C 
HETATM   25  S2  UNL     1     -18.775 -32.605  29.970  1.00  0.00    -0.053 SA
BRANCH  24  26
HETATM   26  S3  UNL     1     -17.333 -30.760  28.085  1.00  0.00    -0.096 SA
BRANCH  26  27
HETATM   27  C10 UNL     1     -18.620 -30.024  27.123  1.00  0.00     0.120 C 
BRANCH  27  28
HETATM   28  C11 UNL     1     -18.917 -30.765  25.879  1.00  0.00    -0.049 A 
HETATM   29  C12 UNL     1     -19.200 -32.106  25.817  1.00  0.00     0.008 A 
HETATM   30  C13 UNL     1     -19.501 -32.759  24.620  1.00  0.00     0.001 A 
HETATM   31  C14 UNL     1     -19.524 -32.065  23.438  1.00  0.00     0.000 A 
HETATM   32  C15 UNL     1     -19.241 -30.717  23.476  1.00  0.00     0.001 A 
HETATM   33  C16 UNL     1     -18.946 -30.080  24.656  1.00  0.00     0.008 A 
ENDBRANCH  27  28
ENDBRANCH  26  27
ENDBRANCH  24  26
ENDBRANCH  22  24
ENDBRANCH  21  22
ENDBRANCH  19  21
ENDBRANCH  18  19
ENDBRANCH   1  18
TORSDOF 10
ENDMDL
