MODEL 1
REMARK VINA RESULT: -7.587809294      0.000      0.000
REMARK  15 active torsions:
REMARK  status: ('A' for Active; 'I' for Inactive)
REMARK    1  A    between atoms: C4_4  and  C5_5 
REMARK    2  A    between atoms: C6_6  and  C7_7 
REMARK    3  A    between atoms: C6_6  and  C20_24 
REMARK    4  A    between atoms: C7_7  and  C8_8 
REMARK    5  A    between atoms: C8_8  and  C9_9 
REMARK    6  A    between atoms: C9_9  and  C11_11 
REMARK    7  A    between atoms: C11_11  and  S1_14 
REMARK    8  A    between atoms: S1_14  and  C14_15 
REMARK    9  A    between atoms: C14_15  and  O1_16 
REMARK   10  A    between atoms: C14_15  and  N1_18 
REMARK   11  A    between atoms: N1_18  and  C15_19 
REMARK   12  A    between atoms: C20_24  and  C21_25 
REMARK   13  A    between atoms: C21_25  and  C22_27 
REMARK   14  A    between atoms: C22_27  and  O3_28 
REMARK   15  A    between atoms: C22_27  and  O4_30 
ROOT
HETATM    1  C5  UNL     1     -18.447 -31.812  31.474  1.00  0.00     0.052 C 
HETATM    2  C6  UNL     1     -17.937 -30.708  32.152  1.00  0.00     0.012 C 
ENDROOT
BRANCH   2   3
HETATM    3  C7  UNL     1     -16.692 -30.532  30.934  1.00  0.00    -0.006 C 
BRANCH   3   4
HETATM    4  C8  UNL     1     -16.238 -31.169  30.077  1.00  0.00     0.034 C 
BRANCH   4   5
HETATM    5  C9  UNL     1     -16.156 -30.441  28.708  1.00  0.00     0.003 C 
HETATM    6  C10 UNL     1     -17.529 -29.859  28.394  1.00  0.00     0.012 C 
BRANCH   5   7
HETATM    7  C11 UNL     1     -15.275 -30.939  27.692  1.00  0.00     0.013 C 
HETATM    8  C12 UNL     1     -15.127 -30.330  26.323  1.00  0.00     0.027 C 
HETATM    9  C13 UNL     1     -13.850 -30.779  28.321  1.00  0.00     0.027 C 
BRANCH   7  10
HETATM   10  S1  UNL     1     -15.495 -32.767  27.481  1.00  0.00    -0.062 SA
BRANCH  10  11
HETATM   11  C14 UNL     1     -16.916 -33.310  26.755  1.00  0.00     0.250 C 
BRANCH  11  12
HETATM   12  O1  UNL     1     -16.905 -34.717  26.584  1.00  0.00    -0.330 OA
ATOM     13  H1  UNL     1     -16.566 -34.959  25.731  1.00  0.00     0.221 HD
ENDBRANCH  11  12
BRANCH  11  14
HETATM   14  N1  UNL     1     -18.062 -32.806  26.261  1.00  0.00    -0.413 NA
BRANCH  14  15
HETATM   15  C15 UNL     1     -19.086 -32.138  25.612  1.00  0.00     0.166 C 
HETATM   16  C16 UNL     1     -19.591 -32.896  24.367  1.00  0.00     0.039 C 
HETATM   17  C17 UNL     1     -19.940 -31.812  23.382  1.00  0.00     0.003 C 
HETATM   18  C18 UNL     1     -18.854 -30.789  23.684  1.00  0.00     0.003 C 
HETATM   19  C19 UNL     1     -18.852 -30.789  25.155  1.00  0.00     0.039 C 
ENDBRANCH  14  15
ENDBRANCH  11  14
ENDBRANCH  10  11
ENDBRANCH   7  10
ENDBRANCH   5   7
ENDBRANCH   4   5
ENDBRANCH   3   4
ENDBRANCH   2   3
BRANCH   2  20
HETATM   20  C20 UNL     1     -17.490 -29.750  32.715  1.00  0.00    -0.062 C 
BRANCH  20  21
HETATM   21  C21 UNL     1     -17.005 -28.622  33.365  1.00  0.00     0.249 C 
HETATM   22  O2  UNL     1     -16.253 -28.453  34.386  1.00  0.00    -0.278 OA
BRANCH  21  23
HETATM   23  C22 UNL     1     -17.478 -27.242  32.766  1.00  0.00     0.338 C 
BRANCH  23  24
HETATM   24  O3  UNL     1     -16.515 -26.729  32.053  1.00  0.00    -0.364 OA
ATOM     25  H3  UNL     1     -15.802 -26.475  32.626  1.00  0.00     0.213 HD
ENDBRANCH  23  24
BRANCH  23  26
HETATM   26  O4  UNL     1     -17.664 -26.472  34.008  1.00  0.00    -0.364 OA
ATOM     27  H4  UNL     1     -18.165 -25.737  33.674  1.00  0.00     0.213 HD
ENDBRANCH  23  26
ENDBRANCH  21  23
ENDBRANCH  20  21
ENDBRANCH   2  20
BRANCH   1  28
HETATM   28  C4  UNL     1     -19.138 -32.666  32.404  1.00  0.00     0.059 C 
HETATM   29  C3  UNL     1     -19.882 -33.889  32.217  1.00  0.00     0.079 C 
HETATM   30  C2  UNL     1     -20.896 -33.886  33.333  1.00  0.00     0.088 C 
HETATM   31  C1  UNL     1     -21.130 -35.337  33.781  1.00  0.00     0.021 C 
HETATM   32  C23 UNL     1     -20.111 -33.128  34.422  1.00  0.00     0.268 C 
HETATM   33  O5  UNL     1     -19.174 -32.313  33.767  1.00  0.00    -0.283 OA
HETATM   34  O6  UNL     1     -20.238 -33.175  35.668  1.00  0.00    -0.264 OA
ENDBRANCH   1  28
TORSDOF 15
ENDMDL
MODEL 2
REMARK VINA RESULT: -7.567531784      1.944      2.325
REMARK  15 active torsions:
REMARK  status: ('A' for Active; 'I' for Inactive)
REMARK    1  A    between atoms: C4_4  and  C5_5 
REMARK    2  A    between atoms: C6_6  and  C7_7 
REMARK    3  A    between atoms: C6_6  and  C20_24 
REMARK    4  A    between atoms: C7_7  and  C8_8 
REMARK    5  A    between atoms: C8_8  and  C9_9 
REMARK    6  A    between atoms: C9_9  and  C11_11 
REMARK    7  A    between atoms: C11_11  and  S1_14 
REMARK    8  A    between atoms: S1_14  and  C14_15 
REMARK    9  A    between atoms: C14_15  and  O1_16 
REMARK   10  A    between atoms: C14_15  and  N1_18 
REMARK   11  A    between atoms: N1_18  and  C15_19 
REMARK   12  A    between atoms: C20_24  and  C21_25 
REMARK   13  A    between atoms: C21_25  and  C22_27 
REMARK   14  A    between atoms: C22_27  and  O3_28 
REMARK   15  A    between atoms: C22_27  and  O4_30 
ROOT
HETATM    1  C5  UNL     1     -18.506 -31.843  31.446  1.00  0.00     0.052 C 
HETATM    2  C6  UNL     1     -17.966 -30.751  32.119  1.00  0.00     0.012 C 
ENDROOT
BRANCH   2   3
HETATM    3  C7  UNL     1     -16.749 -30.580  30.871  1.00  0.00    -0.006 C 
BRANCH   3   4
HETATM    4  C8  UNL     1     -16.614 -29.986  29.884  1.00  0.00     0.034 C 
BRANCH   4   5
HETATM    5  C9  UNL     1     -15.949 -30.791  28.735  1.00  0.00     0.003 C 
HETATM    6  C10 UNL     1     -15.818 -32.242  29.183  1.00  0.00     0.012 C 
BRANCH   5   7
HETATM    7  C11 UNL     1     -14.985 -30.152  27.887  1.00  0.00     0.013 C 
HETATM    8  C12 UNL     1     -13.501 -30.149  28.142  1.00  0.00     0.027 C 
HETATM    9  C13 UNL     1     -15.122 -30.911  26.525  1.00  0.00     0.027 C 
BRANCH   7  10
HETATM   10  S1  UNL     1     -15.502 -28.412  27.512  1.00  0.00    -0.062 SA
BRANCH  10  11
HETATM   11  C14 UNL     1     -17.029 -28.173  26.839  1.00  0.00     0.250 C 
BRANCH  11  12
HETATM   12  O1  UNL     1     -17.336 -26.794  26.728  1.00  0.00    -0.330 OA
ATOM     13  H1  UNL     1     -18.274 -26.646  26.730  1.00  0.00     0.221 HD
ENDBRANCH  11  12
BRANCH  11  14
HETATM   14  N1  UNL     1     -18.069 -28.902  26.392  1.00  0.00    -0.413 NA
BRANCH  14  15
HETATM   15  C15 UNL     1     -18.971 -29.846  25.935  1.00  0.00     0.166 C 
HETATM   16  C16 UNL     1     -18.795 -31.215  26.624  1.00  0.00     0.039 C 
HETATM   17  C17 UNL     1     -19.102 -32.221  25.548  1.00  0.00     0.003 C 
HETATM   18  C18 UNL     1     -18.525 -31.520  24.326  1.00  0.00     0.003 C 
HETATM   19  C19 UNL     1     -19.005 -30.144  24.523  1.00  0.00     0.039 C 
ENDBRANCH  14  15
ENDBRANCH  11  14
ENDBRANCH  10  11
ENDBRANCH   7  10
ENDBRANCH   5   7
ENDBRANCH   4   5
ENDBRANCH   3   4
ENDBRANCH   2   3
BRANCH   2  20
HETATM   20  C20 UNL     1     -17.493 -29.802  32.678  1.00  0.00    -0.062 C 
BRANCH  20  21
HETATM   21  C21 UNL     1     -16.976 -28.682  33.316  1.00  0.00     0.249 C 
HETATM   22  O2  UNL     1     -16.204 -28.525  34.323  1.00  0.00    -0.278 OA
BRANCH  21  23
HETATM   23  C22 UNL     1     -17.432 -27.294  32.720  1.00  0.00     0.338 C 
BRANCH  23  24
HETATM   24  O3  UNL     1     -16.444 -26.767  32.054  1.00  0.00    -0.364 OA
ATOM     25  H3  UNL     1     -16.146 -25.984  32.502  1.00  0.00     0.213 HD
ENDBRANCH  23  24
BRANCH  23  26
HETATM   26  O4  UNL     1     -17.670 -26.545  33.966  1.00  0.00    -0.364 OA
ATOM     27  H4  UNL     1     -16.777 -26.315  34.193  1.00  0.00     0.213 HD
ENDBRANCH  23  26
ENDBRANCH  21  23
ENDBRANCH  20  21
ENDBRANCH   2  20
BRANCH   1  28
HETATM   28  C4  UNL     1     -19.184 -32.695  32.385  1.00  0.00     0.059 C 
HETATM   29  C3  UNL     1     -19.926 -33.922  32.211  1.00  0.00     0.079 C 
HETATM   30  C2  UNL     1     -20.929 -33.917  33.337  1.00  0.00     0.088 C 
HETATM   31  C1  UNL     1     -21.153 -35.368  33.793  1.00  0.00     0.021 C 
HETATM   32  C23 UNL     1     -20.134 -33.153  34.416  1.00  0.00     0.268 C 
HETATM   33  O5  UNL     1     -19.207 -32.338  33.748  1.00  0.00    -0.283 OA
HETATM   34  O6  UNL     1     -20.248 -33.196  35.663  1.00  0.00    -0.264 OA
ENDBRANCH   1  28
TORSDOF 15
ENDMDL
MODEL 3
REMARK VINA RESULT: -7.566517387      3.210      8.137
REMARK  15 active torsions:
REMARK  status: ('A' for Active; 'I' for Inactive)
REMARK    1  A    between atoms: C4_4  and  C5_5 
REMARK    2  A    between atoms: C6_6  and  C7_7 
REMARK    3  A    between atoms: C6_6  and  C20_24 
REMARK    4  A    between atoms: C7_7  and  C8_8 
REMARK    5  A    between atoms: C8_8  and  C9_9 
REMARK    6  A    between atoms: C9_9  and  C11_11 
REMARK    7  A    between atoms: C11_11  and  S1_14 
REMARK    8  A    between atoms: S1_14  and  C14_15 
REMARK    9  A    between atoms: C14_15  and  O1_16 
REMARK   10  A    between atoms: C14_15  and  N1_18 
REMARK   11  A    between atoms: N1_18  and  C15_19 
REMARK   12  A    between atoms: C20_24  and  C21_25 
REMARK   13  A    between atoms: C21_25  and  C22_27 
REMARK   14  A    between atoms: C22_27  and  O3_28 
REMARK   15  A    between atoms: C22_27  and  O4_30 
ROOT
HETATM    1  C5  UNL     1     -18.375 -32.274  28.974  1.00  0.00     0.052 C 
HETATM    2  C6  UNL     1     -17.395 -33.168  28.552  1.00  0.00     0.012 C 
ENDROOT
BRANCH   2   3
HETATM    3  C7  UNL     1     -16.997 -33.521  30.220  1.00  0.00    -0.006 C 
BRANCH   3   4
HETATM    4  C8  UNL     1     -17.245 -34.341  31.003  1.00  0.00     0.034 C 
BRANCH   4   5
HETATM    5  C9  UNL     1     -17.447 -33.810  32.448  1.00  0.00     0.003 C 
HETATM    6  C10 UNL     1     -16.125 -33.943  33.195  1.00  0.00     0.012 C 
BRANCH   5   7
HETATM    7  C11 UNL     1     -18.719 -33.970  33.090  1.00  0.00     0.013 C 
HETATM    8  C12 UNL     1     -20.039 -33.614  32.461  1.00  0.00     0.027 C 
HETATM    9  C13 UNL     1     -18.828 -35.514  33.324  1.00  0.00     0.027 C 
BRANCH   7  10
HETATM   10  S1  UNL     1     -18.684 -33.238  34.793  1.00  0.00    -0.062 SA
BRANCH  10  11
HETATM   11  C14 UNL     1     -18.131 -31.653  34.956  1.00  0.00     0.250 C 
BRANCH  11  12
HETATM   12  O1  UNL     1     -18.356 -31.159  36.265  1.00  0.00    -0.330 OA
ATOM     13  H1  UNL     1     -17.539 -30.931  36.694  1.00  0.00     0.221 HD
ENDBRANCH  11  12
BRANCH  11  14
HETATM   14  N1  UNL     1     -17.557 -30.694  34.206  1.00  0.00    -0.413 NA
BRANCH  14  15
HETATM   15  C15 UNL     1     -16.916 -29.899  33.273  1.00  0.00     0.166 C 
HETATM   16  C16 UNL     1     -17.431 -30.139  31.838  1.00  0.00     0.039 C 
HETATM   17  C17 UNL     1     -16.213 -29.980  30.969  1.00  0.00     0.003 C 
HETATM   18  C18 UNL     1     -15.138 -30.576  31.868  1.00  0.00     0.003 C 
HETATM   19  C19 UNL     1     -15.478 -29.977  33.168  1.00  0.00     0.039 C 
ENDBRANCH  14  15
ENDBRANCH  11  14
ENDBRANCH  10  11
ENDBRANCH   7  10
ENDBRANCH   5   7
ENDBRANCH   4   5
ENDBRANCH   3   4
ENDBRANCH   2   3
BRANCH   2  20
HETATM   20  C20 UNL     1     -16.554 -33.949  28.210  1.00  0.00    -0.062 C 
BRANCH  20  21
HETATM   21  C21 UNL     1     -15.604 -34.871  27.787  1.00  0.00     0.249 C 
HETATM   22  O2  UNL     1     -14.537 -35.336  28.317  1.00  0.00    -0.278 OA
BRANCH  21  23
HETATM   23  C22 UNL     1     -15.838 -35.471  26.347  1.00  0.00     0.338 C 
BRANCH  23  24
HETATM   24  O3  UNL     1     -15.766 -36.771  26.406  1.00  0.00    -0.364 OA
ATOM     25  H3  UNL     1     -15.903 -37.132  25.539  1.00  0.00     0.213 HD
ENDBRANCH  23  24
BRANCH  23  26
HETATM   26  O4  UNL     1     -14.665 -34.922  25.645  1.00  0.00    -0.364 OA
ATOM     27  H4  UNL     1     -14.659 -35.477  24.875  1.00  0.00     0.213 HD
ENDBRANCH  23  26
ENDBRANCH  21  23
ENDBRANCH  20  21
ENDBRANCH   2  20
BRANCH   1  28
HETATM   28  C4  UNL     1     -18.593 -31.286  27.950  1.00  0.00     0.059 C 
HETATM   29  C3  UNL     1     -19.074 -31.396  26.593  1.00  0.00     0.079 C 
HETATM   30  C2  UNL     1     -18.421 -30.247  25.869  1.00  0.00     0.088 C 
HETATM   31  C1  UNL     1     -19.395 -29.732  24.797  1.00  0.00     0.021 C 
HETATM   32  C23 UNL     1     -18.319 -29.217  27.013  1.00  0.00     0.268 C 
HETATM   33  O5  UNL     1     -18.284 -29.938  28.217  1.00  0.00    -0.283 OA
HETATM   34  O6  UNL     1     -18.264 -27.967  26.951  1.00  0.00    -0.264 OA
ENDBRANCH   1  28
TORSDOF 15
ENDMDL
MODEL 4
REMARK VINA RESULT: -7.552504303      2.411      3.568
REMARK  15 active torsions:
REMARK  status: ('A' for Active; 'I' for Inactive)
REMARK    1  A    between atoms: C4_4  and  C5_5 
REMARK    2  A    between atoms: C6_6  and  C7_7 
REMARK    3  A    between atoms: C6_6  and  C20_24 
REMARK    4  A    between atoms: C7_7  and  C8_8 
REMARK    5  A    between atoms: C8_8  and  C9_9 
REMARK    6  A    between atoms: C9_9  and  C11_11 
REMARK    7  A    between atoms: C11_11  and  S1_14 
REMARK    8  A    between atoms: S1_14  and  C14_15 
REMARK    9  A    between atoms: C14_15  and  O1_16 
REMARK   10  A    between atoms: C14_15  and  N1_18 
REMARK   11  A    between atoms: N1_18  and  C15_19 
REMARK   12  A    between atoms: C20_24  and  C21_25 
REMARK   13  A    between atoms: C21_25  and  C22_27 
REMARK   14  A    between atoms: C22_27  and  O3_28 
REMARK   15  A    between atoms: C22_27  and  O4_30 
ROOT
HETATM    1  C5  UNL     1     -20.822 -34.144  33.249  1.00  0.00     0.052 C 
HETATM    2  C6  UNL     1     -19.866 -33.151  33.446  1.00  0.00     0.012 C 
ENDROOT
BRANCH   2   3
HETATM    3  C7  UNL     1     -19.815 -32.855  31.721  1.00  0.00    -0.006 C 
BRANCH   3   4
HETATM    4  C8  UNL     1     -19.139 -33.143  30.823  1.00  0.00     0.034 C 
BRANCH   4   5
HETATM    5  C9  UNL     1     -18.761 -31.957  29.895  1.00  0.00     0.003 C 
HETATM    6  C10 UNL     1     -19.936 -31.687  28.963  1.00  0.00     0.012 C 
BRANCH   5   7
HETATM    7  C11 UNL     1     -17.396 -31.780  29.492  1.00  0.00     0.013 C 
HETATM    8  C12 UNL     1     -16.208 -32.068  30.370  1.00  0.00     0.027 C 
HETATM    9  C13 UNL     1     -17.225 -32.780  28.300  1.00  0.00     0.027 C 
BRANCH   7  10
HETATM   10  S1  UNL     1     -17.154 -30.104  28.739  1.00  0.00    -0.062 SA
BRANCH  10  11
HETATM   11  C14 UNL     1     -17.827 -29.819  27.220  1.00  0.00     0.250 C 
BRANCH  11  12
HETATM   12  O1  UNL     1     -18.673 -28.683  27.233  1.00  0.00    -0.330 OA
ATOM     13  H1  UNL     1     -19.380 -28.784  27.860  1.00  0.00     0.221 HD
ENDBRANCH  11  12
BRANCH  11  14
HETATM   14  N1  UNL     1     -17.824 -30.363  25.988  1.00  0.00    -0.413 NA
BRANCH  14  15
HETATM   15  C15 UNL     1     -18.039 -31.036  24.799  1.00  0.00     0.166 C 
HETATM   16  C16 UNL     1     -19.287 -30.528  24.048  1.00  0.00     0.039 C 
HETATM   17  C17 UNL     1     -19.866 -31.759  23.404  1.00  0.00     0.003 C 
HETATM   18  C18 UNL     1     -19.571 -32.807  24.469  1.00  0.00     0.003 C 
HETATM   19  C19 UNL     1     -18.186 -32.472  24.833  1.00  0.00     0.039 C 
ENDBRANCH  14  15
ENDBRANCH  11  14
ENDBRANCH  10  11
ENDBRANCH   7  10
ENDBRANCH   5   7
ENDBRANCH   4   5
ENDBRANCH   3   4
ENDBRANCH   2   3
BRANCH   2  20
HETATM   20  C20 UNL     1     -19.051 -32.286  33.595  1.00  0.00    -0.062 C 
BRANCH  20  21
HETATM   21  C21 UNL     1     -18.123 -31.273  33.801  1.00  0.00     0.249 C 
HETATM   22  O2  UNL     1     -17.637 -30.362  33.047  1.00  0.00    -0.278 OA
BRANCH  21  23
HETATM   23  C22 UNL     1     -17.494 -31.217  35.247  1.00  0.00     0.338 C 
BRANCH  23  24
HETATM   24  O3  UNL     1     -18.447 -31.281  36.133  1.00  0.00    -0.364 OA
ATOM     25  H3  UNL     1     -18.082 -31.549  36.968  1.00  0.00     0.213 HD
ENDBRANCH  23  24
BRANCH  23  26
HETATM   26  O4  UNL     1     -16.908 -29.866  35.220  1.00  0.00    -0.364 OA
ATOM     27  H4  UNL     1     -17.422 -29.448  35.900  1.00  0.00     0.213 HD
ENDBRANCH  23  26
ENDBRANCH  21  23
ENDBRANCH  20  21
ENDBRANCH   2  20
BRANCH   1  28
HETATM   28  C4  UNL     1     -20.758 -35.090  34.330  1.00  0.00     0.059 C 
HETATM   29  C3  UNL     1     -20.945 -36.522  34.369  1.00  0.00     0.079 C 
HETATM   30  C2  UNL     1     -21.451 -36.796  35.763  1.00  0.00     0.088 C 
HETATM   31  C1  UNL     1     -20.904 -38.158  36.218  1.00  0.00     0.021 C 
HETATM   32  C23 UNL     1     -20.745 -35.669  36.544  1.00  0.00     0.268 C 
HETATM   33  O5  UNL     1     -20.495 -34.628  35.635  1.00  0.00    -0.283 OA
HETATM   34  O6  UNL     1     -20.432 -35.621  37.756  1.00  0.00    -0.264 OA
ENDBRANCH   1  28
TORSDOF 15
ENDMDL
MODEL 5
REMARK VINA RESULT: -7.434481030      1.613      3.122
REMARK  15 active torsions:
REMARK  status: ('A' for Active; 'I' for Inactive)
REMARK    1  A    between atoms: C4_4  and  C5_5 
REMARK    2  A    between atoms: C6_6  and  C7_7 
REMARK    3  A    between atoms: C6_6  and  C20_24 
REMARK    4  A    between atoms: C7_7  and  C8_8 
REMARK    5  A    between atoms: C8_8  and  C9_9 
REMARK    6  A    between atoms: C9_9  and  C11_11 
REMARK    7  A    between atoms: C11_11  and  S1_14 
REMARK    8  A    between atoms: S1_14  and  C14_15 
REMARK    9  A    between atoms: C14_15  and  O1_16 
REMARK   10  A    between atoms: C14_15  and  N1_18 
REMARK   11  A    between atoms: N1_18  and  C15_19 
REMARK   12  A    between atoms: C20_24  and  C21_25 
REMARK   13  A    between atoms: C21_25  and  C22_27 
REMARK   14  A    between atoms: C22_27  and  O3_28 
REMARK   15  A    between atoms: C22_27  and  O4_30 
ROOT
HETATM    1  C5  UNL     1     -18.295 -31.722  30.799  1.00  0.00     0.052 C 
HETATM    2  C6  UNL     1     -17.789 -30.534  31.320  1.00  0.00     0.012 C 
ENDROOT
BRANCH   2   3
HETATM    3  C7  UNL     1     -16.682 -30.410  29.969  1.00  0.00    -0.006 C 
BRANCH   3   4
HETATM    4  C8  UNL     1     -16.547 -29.737  29.033  1.00  0.00     0.034 C 
BRANCH   4   5
HETATM    5  C9  UNL     1     -16.837 -30.449  27.683  1.00  0.00     0.003 C 
HETATM    6  C10 UNL     1     -15.508 -30.686  26.975  1.00  0.00     0.012 C 
BRANCH   5   7
HETATM    7  C11 UNL     1     -18.051 -30.161  26.977  1.00  0.00     0.013 C 
HETATM    8  C12 UNL     1     -19.419 -30.161  27.604  1.00  0.00     0.027 C 
HETATM    9  C13 UNL     1     -17.865 -28.680  26.501  1.00  0.00     0.027 C 
BRANCH   7  10
HETATM   10  S1  UNL     1     -18.141 -31.150  25.412  1.00  0.00    -0.062 SA
BRANCH  10  11
HETATM   11  C14 UNL     1     -18.110 -32.830  25.541  1.00  0.00     0.250 C 
BRANCH  11  12
HETATM   12  O1  UNL     1     -19.255 -33.417  24.947  1.00  0.00    -0.330 OA
ATOM     13  H1  UNL     1     -19.696 -34.005  25.550  1.00  0.00     0.221 HD
ENDBRANCH  11  12
BRANCH  11  14
HETATM   14  N1  UNL     1     -17.331 -33.796  26.063  1.00  0.00    -0.413 NA
BRANCH  14  15
HETATM   15  C15 UNL     1     -16.469 -34.611  26.775  1.00  0.00     0.166 C 
HETATM   16  C16 UNL     1     -16.239 -34.113  28.217  1.00  0.00     0.039 C 
HETATM   17  C17 UNL     1     -14.800 -34.448  28.506  1.00  0.00     0.003 C 
HETATM   18  C18 UNL     1     -14.168 -34.204  27.143  1.00  0.00     0.003 C 
HETATM   19  C19 UNL     1     -15.145 -34.845  26.249  1.00  0.00     0.039 C 
ENDBRANCH  14  15
ENDBRANCH  11  14
ENDBRANCH  10  11
ENDBRANCH   7  10
ENDBRANCH   5   7
ENDBRANCH   4   5
ENDBRANCH   3   4
ENDBRANCH   2   3
BRANCH   2  20
HETATM   20  C20 UNL     1     -17.348 -29.505  31.747  1.00  0.00    -0.062 C 
BRANCH  20  21
HETATM   21  C21 UNL     1     -16.851 -28.320  32.276  1.00  0.00     0.249 C 
HETATM   22  O2  UNL     1     -16.291 -27.295  31.757  1.00  0.00    -0.278 OA
BRANCH  21  23
HETATM   23  C22 UNL     1     -16.960 -28.183  33.844  1.00  0.00     0.338 C 
BRANCH  23  24
HETATM   24  O3  UNL     1     -17.682 -29.162  34.312  1.00  0.00    -0.364 OA
ATOM     25  H3  UNL     1     -18.495 -28.814  34.658  1.00  0.00     0.213 HD
ENDBRANCH  23  24
BRANCH  23  26
HETATM   26  O4  UNL     1     -17.694 -26.910  33.940  1.00  0.00    -0.364 OA
ATOM     27  H4  UNL     1     -17.319 -26.563  34.741  1.00  0.00     0.213 HD
ENDBRANCH  23  26
ENDBRANCH  21  23
ENDBRANCH  20  21
ENDBRANCH   2  20
BRANCH   1  28
HETATM   28  C4  UNL     1     -18.838 -32.518  31.866  1.00  0.00     0.059 C 
HETATM   29  C3  UNL     1     -19.477 -33.814  31.872  1.00  0.00     0.079 C 
HETATM   30  C2  UNL     1     -20.409 -33.768  33.057  1.00  0.00     0.088 C 
HETATM   31  C1  UNL     1     -20.476 -35.172  33.676  1.00  0.00     0.021 C 
HETATM   32  C23 UNL     1     -19.624 -32.827  33.993  1.00  0.00     0.268 C 
HETATM   33  O5  UNL     1     -18.813 -32.016  33.182  1.00  0.00    -0.283 OA
HETATM   34  O6  UNL     1     -19.660 -32.741  35.243  1.00  0.00    -0.264 OA
ENDBRANCH   1  28
TORSDOF 15
ENDMDL
