MODEL 1
REMARK VINA RESULT: -7.478076223      0.000      0.000
REMARK  9 active torsions:
REMARK  status: ('A' for Active; 'I' for Inactive)
REMARK    1  A    between atoms: O1_1  and  C1_3 
REMARK    2  A    between atoms: C4_7  and  C5_8 
REMARK    3  A    between atoms: C5_8  and  S1_9 
REMARK    4  A    between atoms: S1_9  and  C6_10 
REMARK    5  A    between atoms: N2_13  and  C7_14 
REMARK    6  A    between atoms: C7_14  and  C8_15 
REMARK    7  A    between atoms: C16_27  and  N5_28 
REMARK    8  A    between atoms: N5_28  and  C17_30 
REMARK    9  A    between atoms: C17_30  and  C18_31 
ROOT
HETATM    1  C6  UNL     1     -18.804 -31.922  29.085  1.00  0.00     0.102 A 
HETATM    2  N1  UNL     1     -19.411 -31.920  30.304  1.00  0.00    -0.289 N 
ATOM      3  H1  UNL     1     -20.211 -31.351  30.583  1.00  0.00     0.188 HD
HETATM    4  N2  UNL     1     -18.771 -32.794  31.055  1.00  0.00    -0.274 N 
HETATM    5  C14 UNL     1     -17.760 -33.377  30.384  1.00  0.00     0.140 A 
HETATM    6  N3  UNL     1     -16.832 -34.294  30.656  1.00  0.00    -0.336 N 
ATOM      7  H3  UNL     1     -16.798 -34.720  31.582  1.00  0.00     0.168 HD
HETATM    8  C15 UNL     1     -15.948 -34.656  29.726  1.00  0.00     0.183 A 
HETATM    9  N4  UNL     1     -15.967 -34.106  28.479  1.00  0.00    -0.338 N 
ATOM     10  H4  UNL     1     -15.275 -34.410  27.794  1.00  0.00     0.168 HD
HETATM   11  C16 UNL     1     -16.866 -33.180  28.125  1.00  0.00     0.119 A 
HETATM   12  C22 UNL     1     -17.775 -32.826  29.129  1.00  0.00     0.088 A 
ENDROOT
BRANCH   1  13
HETATM   13  S1  UNL     1     -19.256 -30.925  27.666  1.00  0.00    -0.107 SA
BRANCH  13  14
HETATM   14  C5  UNL     1     -18.317 -29.384  27.722  1.00  0.00     0.115 C 
BRANCH  14  15
HETATM   15  C4  UNL     1     -17.152 -29.400  26.783  1.00  0.00     0.159 C 
HETATM   16  C1  UNL     1     -17.088 -28.088  26.044  1.00  0.00     0.149 C 
HETATM   17  C2  UNL     1     -15.592 -28.030  25.706  1.00  0.00     0.060 C 
HETATM   18  C3  UNL     1     -15.012 -28.749  26.886  1.00  0.00     0.171 C 
HETATM   19  O2  UNL     1     -15.948 -29.607  27.391  1.00  0.00    -0.382 OA
BRANCH  16  20
HETATM   20  O1  UNL     1     -17.368 -27.009  26.899  1.00  0.00    -0.393 OA
ATOM     21  H1  UNL     1     -17.979 -26.439  26.447  1.00  0.00     0.210 HD
ENDBRANCH  16  20
ENDBRANCH  14  15
ENDBRANCH  13  14
ENDBRANCH   1  13
BRANCH   4  22
HETATM   22  C7  UNL     1     -19.107 -33.091  32.428  1.00  0.00     0.155 C 
BRANCH  22  23
HETATM   23  C8  UNL     1     -19.750 -34.473  32.562  1.00  0.00     0.005 C 
HETATM   24  C9  UNL     1     -21.199 -34.240  32.894  1.00  0.00     0.006 C 
HETATM   25  C10 UNL     1     -21.851 -35.414  33.561  1.00  0.00     0.000 C 
HETATM   26  C11 UNL     1     -21.042 -35.974  34.693  1.00  0.00     0.000 C 
HETATM   27  C12 UNL     1     -19.724 -36.444  34.111  1.00  0.00     0.000 C 
HETATM   28  C13 UNL     1     -19.001 -35.208  33.623  1.00  0.00     0.006 C 
ENDBRANCH  22  23
ENDBRANCH   4  22
BRANCH  11  29
HETATM   29  N5  UNL     1     -16.920 -32.641  26.975  1.00  0.00    -0.371 N 
ATOM     30  H5  UNL     1     -16.813 -31.627  26.943  1.00  0.00     0.161 HD
BRANCH  29  31
HETATM   31  C17 UNL     1     -17.114 -33.294  25.731  1.00  0.00     0.167 C 
BRANCH  31  32
HETATM   32  C18 UNL     1     -18.071 -32.556  24.822  1.00  0.00     0.000 A 
HETATM   33  C19 UNL     1     -17.866 -31.350  24.210  1.00  0.00     0.017 A 
HETATM   34  C20 UNL     1     -18.856 -30.872  23.439  1.00  0.00     0.008 A 
HETATM   35  C21 UNL     1     -19.987 -31.634  23.330  1.00  0.00     0.050 A 
HETATM   36  S2  UNL     1     -19.636 -32.988  24.302  1.00  0.00    -0.105 SA
ENDBRANCH  31  32
ENDBRANCH  29  31
ENDBRANCH  11  29
TORSDOF 9
ENDMDL
MODEL 2
REMARK VINA RESULT: -7.273598645      3.444      5.339
REMARK  9 active torsions:
REMARK  status: ('A' for Active; 'I' for Inactive)
REMARK    1  A    between atoms: O1_1  and  C1_3 
REMARK    2  A    between atoms: C4_7  and  C5_8 
REMARK    3  A    between atoms: C5_8  and  S1_9 
REMARK    4  A    between atoms: S1_9  and  C6_10 
REMARK    5  A    between atoms: N2_13  and  C7_14 
REMARK    6  A    between atoms: C7_14  and  C8_15 
REMARK    7  A    between atoms: C16_27  and  N5_28 
REMARK    8  A    between atoms: N5_28  and  C17_30 
REMARK    9  A    between atoms: C17_30  and  C18_31 
ROOT
HETATM    1  C6  UNL     1     -17.714 -30.799  31.077  1.00  0.00     0.102 A 
HETATM    2  N1  UNL     1     -18.410 -31.789  31.702  1.00  0.00    -0.289 N 
ATOM      3  H1  UNL     1     -18.871 -32.581  31.255  1.00  0.00     0.188 HD
HETATM    4  N2  UNL     1     -18.376 -31.528  32.994  1.00  0.00    -0.274 N 
HETATM    5  C14 UNL     1     -17.685 -30.402  33.253  1.00  0.00     0.140 A 
HETATM    6  N3  UNL     1     -17.355 -29.711  34.343  1.00  0.00    -0.336 N 
ATOM      7  H3  UNL     1     -17.656 -30.037  35.261  1.00  0.00     0.168 HD
HETATM    8  C15 UNL     1     -16.632 -28.594  34.242  1.00  0.00     0.183 A 
HETATM    9  N4  UNL     1     -16.212 -28.131  33.031  1.00  0.00    -0.338 N 
ATOM     10  H4  UNL     1     -15.660 -27.274  32.994  1.00  0.00     0.168 HD
HETATM   11  C16 UNL     1     -16.500 -28.767  31.889  1.00  0.00     0.119 A 
HETATM   12  C22 UNL     1     -17.261 -29.932  32.038  1.00  0.00     0.088 A 
ENDROOT
BRANCH   1  13
HETATM   13  S1  UNL     1     -17.432 -30.641  29.314  1.00  0.00    -0.107 SA
BRANCH  13  14
HETATM   14  C5  UNL     1     -19.009 -30.838  28.459  1.00  0.00     0.115 C 
BRANCH  14  15
HETATM   15  C4  UNL     1     -18.837 -30.943  26.976  1.00  0.00     0.159 C 
HETATM   16  C1  UNL     1     -19.339 -29.680  26.324  1.00  0.00     0.149 C 
HETATM   17  C2  UNL     1     -18.511 -29.685  25.032  1.00  0.00     0.060 C 
HETATM   18  C3  UNL     1     -17.253 -30.345  25.509  1.00  0.00     0.171 C 
HETATM   19  O2  UNL     1     -17.546 -31.145  26.578  1.00  0.00    -0.382 OA
BRANCH  16  20
HETATM   20  O1  UNL     1     -18.966 -28.544  27.060  1.00  0.00    -0.393 OA
ATOM     21  H1  UNL     1     -18.924 -28.798  27.974  1.00  0.00     0.210 HD
ENDBRANCH  16  20
ENDBRANCH  14  15
ENDBRANCH  13  14
ENDBRANCH   1  13
BRANCH   4  22
HETATM   22  C7  UNL     1     -19.002 -32.344  34.007  1.00  0.00     0.155 C 
BRANCH  22  23
HETATM   23  C8  UNL     1     -19.479 -33.681  33.435  1.00  0.00     0.005 C 
HETATM   24  C9  UNL     1     -20.976 -33.700  33.586  1.00  0.00     0.006 C 
HETATM   25  C10 UNL     1     -21.555 -35.083  33.575  1.00  0.00     0.000 C 
HETATM   26  C11 UNL     1     -20.832 -36.033  34.483  1.00  0.00     0.000 C 
HETATM   27  C12 UNL     1     -19.403 -36.125  33.988  1.00  0.00     0.000 C 
HETATM   28  C13 UNL     1     -18.785 -34.760  34.196  1.00  0.00     0.006 C 
ENDBRANCH  22  23
ENDBRANCH   4  22
BRANCH  11  29
HETATM   29  N5  UNL     1     -16.130 -28.371  30.739  1.00  0.00    -0.371 N 
ATOM     30  H5  UNL     1     -16.865 -28.043  30.112  1.00  0.00     0.161 HD
BRANCH  29  31
HETATM   31  C17 UNL     1     -14.806 -28.336  30.231  1.00  0.00     0.167 C 
BRANCH  31  32
HETATM   32  C18 UNL     1     -14.283 -26.928  30.048  1.00  0.00     0.000 A 
HETATM   33  C19 UNL     1     -14.451 -25.867  30.894  1.00  0.00     0.017 A 
HETATM   34  C20 UNL     1     -13.899 -24.697  30.535  1.00  0.00     0.008 A 
HETATM   35  C21 UNL     1     -13.213 -24.666  29.352  1.00  0.00     0.050 A 
HETATM   36  S2  UNL     1     -13.359 -26.264  28.779  1.00  0.00    -0.105 SA
ENDBRANCH  31  32
ENDBRANCH  29  31
ENDBRANCH  11  29
TORSDOF 9
ENDMDL
MODEL 3
REMARK VINA RESULT: -7.210943009      3.790      8.458
REMARK  9 active torsions:
REMARK  status: ('A' for Active; 'I' for Inactive)
REMARK    1  A    between atoms: O1_1  and  C1_3 
REMARK    2  A    between atoms: C4_7  and  C5_8 
REMARK    3  A    between atoms: C5_8  and  S1_9 
REMARK    4  A    between atoms: S1_9  and  C6_10 
REMARK    5  A    between atoms: N2_13  and  C7_14 
REMARK    6  A    between atoms: C7_14  and  C8_15 
REMARK    7  A    between atoms: C16_27  and  N5_28 
REMARK    8  A    between atoms: N5_28  and  C17_30 
REMARK    9  A    between atoms: C17_30  and  C18_31 
ROOT
HETATM    1  C6  UNL     1     -17.889 -31.261  30.120  1.00  0.00     0.102 A 
HETATM    2  N1  UNL     1     -18.153 -32.060  29.049  1.00  0.00    -0.289 N 
ATOM      3  H1  UNL     1     -18.768 -32.873  29.036  1.00  0.00     0.188 HD
HETATM    4  N2  UNL     1     -17.464 -31.582  28.032  1.00  0.00    -0.274 N 
HETATM    5  C14 UNL     1     -16.750 -30.496  28.384  1.00  0.00     0.140 A 
HETATM    6  N3  UNL     1     -15.916 -29.658  27.771  1.00  0.00    -0.336 N 
ATOM      7  H3  UNL     1     -15.701 -29.790  26.783  1.00  0.00     0.168 HD
HETATM    8  C15 UNL     1     -15.360 -28.647  28.440  1.00  0.00     0.183 A 
HETATM    9  N4  UNL     1     -15.628 -28.441  29.761  1.00  0.00    -0.338 N 
ATOM     10  H4  UNL     1     -15.185 -27.656  30.238  1.00  0.00     0.168 HD
HETATM   11  C16 UNL     1     -16.455 -29.237  30.450  1.00  0.00     0.119 A 
HETATM   12  C22 UNL     1     -17.015 -30.286  29.712  1.00  0.00     0.088 A 
ENDROOT
BRANCH   1  13
HETATM   13  S1  UNL     1     -18.555 -31.438  31.774  1.00  0.00    -0.107 SA
BRANCH  13  14
HETATM   14  C5  UNL     1     -18.958 -33.175  32.050  1.00  0.00     0.115 C 
BRANCH  14  15
HETATM   15  C4  UNL     1     -18.722 -33.591  33.468  1.00  0.00     0.159 C 
HETATM   16  C1  UNL     1     -19.756 -32.949  34.356  1.00  0.00     0.149 C 
HETATM   17  C2  UNL     1     -19.784 -33.948  35.520  1.00  0.00     0.060 C 
HETATM   18  C3  UNL     1     -19.479 -35.225  34.798  1.00  0.00     0.171 C 
HETATM   19  O2  UNL     1     -18.765 -34.941  33.668  1.00  0.00    -0.382 OA
BRANCH  16  20
HETATM   20  O1  UNL     1     -21.025 -32.967  33.755  1.00  0.00    -0.393 OA
ATOM     21  H1  UNL     1     -21.583 -32.377  34.248  1.00  0.00     0.210 HD
ENDBRANCH  16  20
ENDBRANCH  14  15
ENDBRANCH  13  14
ENDBRANCH   1  13
BRANCH   4  22
HETATM   22  C7  UNL     1     -17.469 -32.150  26.705  1.00  0.00     0.155 C 
BRANCH  22  23
HETATM   23  C8  UNL     1     -18.734 -31.764  25.934  1.00  0.00     0.005 C 
HETATM   24  C9  UNL     1     -18.980 -32.866  24.940  1.00  0.00     0.006 C 
HETATM   25  C10 UNL     1     -19.828 -32.437  23.779  1.00  0.00     0.000 C 
HETATM   26  C11 UNL     1     -19.381 -31.143  23.167  1.00  0.00     0.000 C 
HETATM   27  C12 UNL     1     -19.492 -30.079  24.240  1.00  0.00     0.000 C 
HETATM   28  C13 UNL     1     -18.481 -30.434  25.307  1.00  0.00     0.006 C 
ENDBRANCH  22  23
ENDBRANCH   4  22
BRANCH  11  29
HETATM   29  N5  UNL     1     -16.732 -29.082  31.681  1.00  0.00    -0.371 N 
ATOM     30  H5  UNL     1     -17.723 -29.043  31.922  1.00  0.00     0.161 HD
BRANCH  29  31
HETATM   31  C17 UNL     1     -15.816 -28.958  32.756  1.00  0.00     0.167 C 
BRANCH  31  32
HETATM   32  C18 UNL     1     -15.938 -30.077  33.766  1.00  0.00     0.000 A 
HETATM   33  C19 UNL     1     -16.758 -30.119  34.860  1.00  0.00     0.017 A 
HETATM   34  C20 UNL     1     -16.707 -31.217  35.630  1.00  0.00     0.008 A 
HETATM   35  C21 UNL     1     -15.838 -32.204  35.254  1.00  0.00     0.050 A 
HETATM   36  S2  UNL     1     -15.122 -31.572  33.843  1.00  0.00    -0.105 SA
ENDBRANCH  31  32
ENDBRANCH  29  31
ENDBRANCH  11  29
TORSDOF 9
ENDMDL
MODEL 4
REMARK VINA RESULT: -7.208825064      3.528      5.665
REMARK  9 active torsions:
REMARK  status: ('A' for Active; 'I' for Inactive)
REMARK    1  A    between atoms: O1_1  and  C1_3 
REMARK    2  A    between atoms: C4_7  and  C5_8 
REMARK    3  A    between atoms: C5_8  and  S1_9 
REMARK    4  A    between atoms: S1_9  and  C6_10 
REMARK    5  A    between atoms: N2_13  and  C7_14 
REMARK    6  A    between atoms: C7_14  and  C8_15 
REMARK    7  A    between atoms: C16_27  and  N5_28 
REMARK    8  A    between atoms: N5_28  and  C17_30 
REMARK    9  A    between atoms: C17_30  and  C18_31 
ROOT
HETATM    1  C6  UNL     1     -17.732 -30.710  30.897  1.00  0.00     0.102 A 
HETATM    2  N1  UNL     1     -18.445 -31.691  31.518  1.00  0.00    -0.289 N 
ATOM      3  H1  UNL     1     -18.938 -32.460  31.066  1.00  0.00     0.188 HD
HETATM    4  N2  UNL     1     -18.376 -31.455  32.813  1.00  0.00    -0.274 N 
HETATM    5  C14 UNL     1     -17.646 -30.356  33.079  1.00  0.00     0.140 A 
HETATM    6  N3  UNL     1     -17.273 -29.696  34.175  1.00  0.00    -0.336 N 
ATOM      7  H3  UNL     1     -17.566 -30.031  35.092  1.00  0.00     0.168 HD
HETATM    8  C15 UNL     1     -16.519 -28.600  34.079  1.00  0.00     0.183 A 
HETATM    9  N4  UNL     1     -16.110 -28.127  32.868  1.00  0.00    -0.338 N 
ATOM     10  H4  UNL     1     -15.533 -27.286  32.835  1.00  0.00     0.168 HD
HETATM   11  C16 UNL     1     -16.441 -28.731  31.721  1.00  0.00     0.119 A 
HETATM   12  C22 UNL     1     -17.233 -29.876  31.864  1.00  0.00     0.088 A 
ENDROOT
BRANCH   1  13
HETATM   13  S1  UNL     1     -17.482 -30.527  29.132  1.00  0.00    -0.107 SA
BRANCH  13  14
HETATM   14  C5  UNL     1     -18.433 -31.801  28.279  1.00  0.00     0.115 C 
BRANCH  14  15
HETATM   15  C4  UNL     1     -18.148 -31.830  26.811  1.00  0.00     0.159 C 
HETATM   16  C1  UNL     1     -16.998 -32.766  26.543  1.00  0.00     0.149 C 
HETATM   17  C2  UNL     1     -17.294 -33.165  25.091  1.00  0.00     0.060 C 
HETATM   18  C3  UNL     1     -18.791 -33.105  25.086  1.00  0.00     0.171 C 
HETATM   19  O2  UNL     1     -19.207 -32.225  26.044  1.00  0.00    -0.382 OA
BRANCH  16  20
HETATM   20  O1  UNL     1     -17.094 -33.927  27.327  1.00  0.00    -0.393 OA
ATOM     21  H1  UNL     1     -17.714 -33.749  28.024  1.00  0.00     0.210 HD
ENDBRANCH  16  20
ENDBRANCH  14  15
ENDBRANCH  13  14
ENDBRANCH   1  13
BRANCH   4  22
HETATM   22  C7  UNL     1     -19.006 -32.272  33.824  1.00  0.00     0.155 C 
BRANCH  22  23
HETATM   23  C8  UNL     1     -19.422 -33.635  33.266  1.00  0.00     0.005 C 
HETATM   24  C9  UNL     1     -20.910 -33.739  33.461  1.00  0.00     0.006 C 
HETATM   25  C10 UNL     1     -21.410 -35.154  33.467  1.00  0.00     0.000 C 
HETATM   26  C11 UNL     1     -20.607 -36.060  34.352  1.00  0.00     0.000 C 
HETATM   27  C12 UNL     1     -19.190 -36.070  33.814  1.00  0.00     0.000 C 
HETATM   28  C13 UNL     1     -18.645 -34.672  34.005  1.00  0.00     0.006 C 
ENDBRANCH  22  23
ENDBRANCH   4  22
BRANCH  11  29
HETATM   29  N5  UNL     1     -16.082 -28.325  30.570  1.00  0.00    -0.371 N 
ATOM     30  H5  UNL     1     -16.825 -27.998  29.952  1.00  0.00     0.161 HD
BRANCH  29  31
HETATM   31  C17 UNL     1     -14.762 -28.276  30.053  1.00  0.00     0.167 C 
BRANCH  31  32
HETATM   32  C18 UNL     1     -14.238 -26.864  29.910  1.00  0.00     0.000 A 
HETATM   33  C19 UNL     1     -14.376 -25.836  30.802  1.00  0.00     0.017 A 
HETATM   34  C20 UNL     1     -13.829 -24.655  30.473  1.00  0.00     0.008 A 
HETATM   35  C21 UNL     1     -13.179 -24.579  29.273  1.00  0.00     0.050 A 
HETATM   36  S2  UNL     1     -13.349 -26.153  28.642  1.00  0.00    -0.105 SA
ENDBRANCH  31  32
ENDBRANCH  29  31
ENDBRANCH  11  29
TORSDOF 9
ENDMDL
MODEL 5
REMARK VINA RESULT: -7.193419369      2.963      5.217
REMARK  9 active torsions:
REMARK  status: ('A' for Active; 'I' for Inactive)
REMARK    1  A    between atoms: O1_1  and  C1_3 
REMARK    2  A    between atoms: C4_7  and  C5_8 
REMARK    3  A    between atoms: C5_8  and  S1_9 
REMARK    4  A    between atoms: S1_9  and  C6_10 
REMARK    5  A    between atoms: N2_13  and  C7_14 
REMARK    6  A    between atoms: C7_14  and  C8_15 
REMARK    7  A    between atoms: C16_27  and  N5_28 
REMARK    8  A    between atoms: N5_28  and  C17_30 
REMARK    9  A    between atoms: C17_30  and  C18_31 
ROOT
HETATM    1  C6  UNL     1     -17.545 -31.172  28.515  1.00  0.00     0.102 A 
HETATM    2  N1  UNL     1     -18.401 -32.204  28.753  1.00  0.00    -0.289 N 
ATOM      3  H1  UNL     1     -18.727 -32.891  28.073  1.00  0.00     0.188 HD
HETATM    4  N2  UNL     1     -18.728 -32.148  30.029  1.00  0.00    -0.274 N 
HETATM    5  C14 UNL     1     -18.123 -31.117  30.650  1.00  0.00     0.140 A 
HETATM    6  N3  UNL     1     -18.104 -30.623  31.887  1.00  0.00    -0.336 N 
ATOM      7  H3  UNL     1     -18.655 -31.069  32.620  1.00  0.00     0.168 HD
HETATM    8  C15 UNL     1     -17.368 -29.548  32.173  1.00  0.00     0.183 A 
HETATM    9  N4  UNL     1     -16.619 -28.929  31.217  1.00  0.00    -0.338 N 
ATOM     10  H4  UNL     1     -16.068 -28.110  31.474  1.00  0.00     0.168 HD
HETATM   11  C16 UNL     1     -16.583 -29.363  29.952  1.00  0.00     0.119 A 
HETATM   12  C22 UNL     1     -17.369 -30.492  29.692  1.00  0.00     0.088 A 
ENDROOT
BRANCH   1  13
HETATM   13  S1  UNL     1     -16.778 -30.761  26.949  1.00  0.00    -0.107 SA
BRANCH  13  14
HETATM   14  C5  UNL     1     -17.957 -29.817  25.960  1.00  0.00     0.115 C 
BRANCH  14  15
HETATM   15  C4  UNL     1     -19.064 -30.675  25.433  1.00  0.00     0.159 C 
HETATM   16  C1  UNL     1     -19.114 -30.560  23.931  1.00  0.00     0.149 C 
HETATM   17  C2  UNL     1     -19.761 -31.903  23.569  1.00  0.00     0.060 C 
HETATM   18  C3  UNL     1     -19.229 -32.773  24.667  1.00  0.00     0.171 C 
HETATM   19  O2  UNL     1     -18.947 -31.997  25.756  1.00  0.00    -0.382 OA
BRANCH  16  20
HETATM   20  O1  UNL     1     -17.824 -30.550  23.378  1.00  0.00    -0.393 OA
ATOM     21  H1  UNL     1     -17.653 -29.668  23.069  1.00  0.00     0.210 HD
ENDBRANCH  16  20
ENDBRANCH  14  15
ENDBRANCH  13  14
ENDBRANCH   1  13
BRANCH   4  22
HETATM   22  C7  UNL     1     -19.623 -33.073  30.683  1.00  0.00     0.155 C 
BRANCH  22  23
HETATM   23  C8  UNL     1     -19.088 -33.500  32.051  1.00  0.00     0.005 C 
HETATM   24  C9  UNL     1     -18.130 -34.632  31.800  1.00  0.00     0.006 C 
HETATM   25  C10 UNL     1     -17.914 -35.504  33.002  1.00  0.00     0.000 C 
HETATM   26  C11 UNL     1     -19.192 -35.915  33.670  1.00  0.00     0.000 C 
HETATM   27  C12 UNL     1     -19.882 -34.649  34.134  1.00  0.00     0.000 C 
HETATM   28  C13 UNL     1     -20.264 -33.882  32.887  1.00  0.00     0.006 C 
ENDBRANCH  22  23
ENDBRANCH   4  22
BRANCH  11  29
HETATM   29  N5  UNL     1     -15.899 -28.817  29.029  1.00  0.00    -0.371 N 
ATOM     30  H5  UNL     1     -16.418 -28.480  28.218  1.00  0.00     0.161 HD
BRANCH  29  31
HETATM   31  C17 UNL     1     -14.494 -28.625  29.003  1.00  0.00     0.167 C 
BRANCH  31  32
HETATM   32  C18 UNL     1     -14.092 -27.189  29.256  1.00  0.00     0.000 A 
HETATM   33  C19 UNL     1     -13.439 -26.349  28.396  1.00  0.00     0.017 A 
HETATM   34  C20 UNL     1     -13.177 -25.105  28.826  1.00  0.00     0.008 A 
HETATM   35  C21 UNL     1     -13.586 -24.782  30.091  1.00  0.00     0.050 A 
HETATM   36  S2  UNL     1     -14.321 -26.219  30.638  1.00  0.00    -0.105 SA
ENDBRANCH  31  32
ENDBRANCH  29  31
ENDBRANCH  11  29
TORSDOF 9
ENDMDL
