MODEL 1
REMARK VINA RESULT: -7.530614663      0.000      0.000
REMARK  11 active torsions:
REMARK  status: ('A' for Active; 'I' for Inactive)
REMARK    1  A    between atoms: C3_3  and  C4_4 
REMARK    2  A    between atoms: C4_4  and  C5_5 
REMARK    3  A    between atoms: C5_5  and  O1_6 
REMARK    4  A    between atoms: N1_8  and  O2_10 
REMARK    5  A    between atoms: C7_13  and  S1_14 
REMARK    6  A    between atoms: S1_14  and  C8_15 
REMARK    7  A    between atoms: C8_15  and  C9_17 
REMARK    8  A    between atoms: C9_17  and  C10_18 
REMARK    9  A    between atoms: C10_18  and  O4_19 
REMARK   10  A    between atoms: N2_21  and  O5_23 
REMARK   11  A    between atoms: C11_25  and  O6_26 
ROOT
HETATM    1  C1  UNL     1      14.527  19.840  11.783  1.00  0.00     0.015 C 
HETATM    2  C2  UNL     1      14.302  19.158  13.089  1.00  0.00     0.041 C 
HETATM    3  C3  UNL     1      13.040  18.395  13.238  1.00  0.00     0.044 C 
HETATM    4  C6  UNL     1      12.214  19.072  14.325  1.00  0.00     0.031 C 
HETATM    5  C7  UNL     1      13.280  19.714  15.196  1.00  0.00     0.105 C 
HETATM    6  C11 UNL     1      14.351  20.168  14.221  1.00  0.00     0.162 C 
HETATM    7  C12 UNL     1      13.969  21.519  13.768  1.00  0.00     0.099 C 
HETATM    8  N3  UNL     1      13.669  22.582  13.412  1.00  0.00    -0.194 NA
ENDROOT
BRANCH   6   9
HETATM    9  O6  UNL     1      15.621  20.143  14.791  1.00  0.00    -0.374 OA
ATOM     10  H6  UNL     1      15.845  21.020  15.080  1.00  0.00     0.212 HD
ENDBRANCH   6   9
BRANCH   5  11
HETATM   11  S1  UNL     1      12.656  21.052  16.205  1.00  0.00    -0.083 SA
BRANCH  11  12
HETATM   12  C8  UNL     1      13.658  21.252  17.669  1.00  0.00     0.194 C 
HETATM   13  O3  UNL     1      13.882  20.328  18.428  1.00  0.00    -0.285 OA
BRANCH  12  14
HETATM   14  C9  UNL     1      14.236  22.613  17.956  1.00  0.00     0.176 C 
BRANCH  14  15
HETATM   15  C10 UNL     1      15.108  23.053  16.858  1.00  0.00     0.143 C 
HETATM   16  N2  UNL     1      14.782  24.069  16.154  1.00  0.00    -0.251 N 
ATOM     17  H2  UNL     1      15.392  24.369  15.394  1.00  0.00     0.196 HD
BRANCH  15  18
HETATM   18  O4  UNL     1      16.276  22.372  16.586  1.00  0.00    -0.348 OA
ATOM     19  H4  UNL     1      16.888  22.712  15.943  1.00  0.00     0.219 HD
ENDBRANCH  15  18
BRANCH  16  20
HETATM   20  O5  UNL     1      13.616  24.768  16.407  1.00  0.00    -0.288 OA
ATOM     21  H5  UNL     1      13.591  25.716  16.350  1.00  0.00     0.244 HD
ENDBRANCH  16  20
ENDBRANCH  14  15
ENDBRANCH  12  14
ENDBRANCH  11  12
ENDBRANCH   5  11
BRANCH   3  22
HETATM   22  C4  UNL     1      12.275  18.110  12.022  1.00  0.00     0.037 C 
HETATM   23  N1  UNL     1      12.566  18.711  10.925  1.00  0.00    -0.275 N 
ATOM     24  H1  UNL     1      13.338  19.377  10.953  1.00  0.00     0.193 HD
BRANCH  22  25
HETATM   25  C5  UNL     1      11.168  17.133  12.057  1.00  0.00     0.219 C 
BRANCH  25  26
HETATM   26  O1  UNL     1       9.977  17.697  11.582  1.00  0.00    -0.395 OA
ATOM     27  H1  UNL     1       9.262  17.556  12.191  1.00  0.00     0.209 HD
ENDBRANCH  25  26
ENDBRANCH  22  25
BRANCH  23  28
HETATM   28  O2  UNL     1      11.942  18.542   9.731  1.00  0.00    -0.290 OA
ATOM     29  H2  UNL     1      12.280  18.060   8.986  1.00  0.00     0.244 HD
ENDBRANCH  23  28
ENDBRANCH   3  22
TORSDOF 11
ENDMDL
MODEL 2
REMARK VINA RESULT: -7.303053031      1.299      1.652
REMARK  11 active torsions:
REMARK  status: ('A' for Active; 'I' for Inactive)
REMARK    1  A    between atoms: C3_3  and  C4_4 
REMARK    2  A    between atoms: C4_4  and  C5_5 
REMARK    3  A    between atoms: C5_5  and  O1_6 
REMARK    4  A    between atoms: N1_8  and  O2_10 
REMARK    5  A    between atoms: C7_13  and  S1_14 
REMARK    6  A    between atoms: S1_14  and  C8_15 
REMARK    7  A    between atoms: C8_15  and  C9_17 
REMARK    8  A    between atoms: C9_17  and  C10_18 
REMARK    9  A    between atoms: C10_18  and  O4_19 
REMARK   10  A    between atoms: N2_21  and  O5_23 
REMARK   11  A    between atoms: C11_25  and  O6_26 
ROOT
HETATM    1  C1  UNL     1      14.564  19.887  11.889  1.00  0.00     0.015 C 
HETATM    2  C2  UNL     1      14.401  19.252  13.227  1.00  0.00     0.041 C 
HETATM    3  C3  UNL     1      13.134  18.525  13.475  1.00  0.00     0.044 C 
HETATM    4  C6  UNL     1      12.390  19.255  14.586  1.00  0.00     0.031 C 
HETATM    5  C7  UNL     1      13.521  19.897  15.371  1.00  0.00     0.105 C 
HETATM    6  C11 UNL     1      14.541  20.295  14.321  1.00  0.00     0.162 C 
HETATM    7  C12 UNL     1      14.163  21.640  13.848  1.00  0.00     0.099 C 
HETATM    8  N3  UNL     1      13.866  22.699  13.477  1.00  0.00    -0.194 NA
ENDROOT
BRANCH   6   9
HETATM    9  O6  UNL     1      15.842  20.256  14.815  1.00  0.00    -0.374 OA
ATOM     10  H6  UNL     1      15.989  21.025  15.353  1.00  0.00     0.212 HD
ENDBRANCH   6   9
BRANCH   5  11
HETATM   11  S1  UNL     1      12.989  21.281  16.372  1.00  0.00    -0.083 SA
BRANCH  11  12
HETATM   12  C8  UNL     1      13.848  21.289  17.937  1.00  0.00     0.194 C 
HETATM   13  O3  UNL     1      14.146  20.260  18.513  1.00  0.00    -0.285 OA
BRANCH  12  14
HETATM   14  C9  UNL     1      14.207  22.619  18.545  1.00  0.00     0.176 C 
BRANCH  14  15
HETATM   15  C10 UNL     1      15.665  22.782  18.623  1.00  0.00     0.143 C 
HETATM   16  N2  UNL     1      16.305  22.321  19.630  1.00  0.00    -0.251 N 
ATOM     17  H2  UNL     1      17.316  22.437  19.678  1.00  0.00     0.196 HD
BRANCH  15  18
HETATM   18  O4  UNL     1      16.345  23.428  17.613  1.00  0.00    -0.348 OA
ATOM     19  H4  UNL     1      16.963  24.121  17.820  1.00  0.00     0.219 HD
ENDBRANCH  15  18
BRANCH  16  20
HETATM   20  O5  UNL     1      15.646  21.668  20.655  1.00  0.00    -0.288 OA
ATOM     21  H5  UNL     1      15.429  22.118  21.463  1.00  0.00     0.244 HD
ENDBRANCH  16  20
ENDBRANCH  14  15
ENDBRANCH  12  14
ENDBRANCH  11  12
ENDBRANCH   5  11
BRANCH   3  22
HETATM   22  C4  UNL     1      12.291  18.221  12.316  1.00  0.00     0.037 C 
HETATM   23  N1  UNL     1      12.686  18.535  11.135  1.00  0.00    -0.275 N 
ATOM     24  H1  UNL     1      13.594  18.994  11.058  1.00  0.00     0.193 HD
BRANCH  22  25
HETATM   25  C5  UNL     1      10.986  17.555  12.504  1.00  0.00     0.219 C 
BRANCH  25  26
HETATM   26  O1  UNL     1      10.964  16.298  11.886  1.00  0.00    -0.395 OA
ATOM     27  H1  UNL     1      10.795  15.607  12.516  1.00  0.00     0.209 HD
ENDBRANCH  25  26
ENDBRANCH  22  25
BRANCH  23  28
HETATM   28  O2  UNL     1      12.009  18.313   9.979  1.00  0.00    -0.290 OA
ATOM     29  H2  UNL     1      11.299  18.843   9.636  1.00  0.00     0.244 HD
ENDBRANCH  23  28
ENDBRANCH   3  22
TORSDOF 11
ENDMDL
MODEL 3
REMARK VINA RESULT: -7.164306843      1.574      2.153
REMARK  11 active torsions:
REMARK  status: ('A' for Active; 'I' for Inactive)
REMARK    1  A    between atoms: C3_3  and  C4_4 
REMARK    2  A    between atoms: C4_4  and  C5_5 
REMARK    3  A    between atoms: C5_5  and  O1_6 
REMARK    4  A    between atoms: N1_8  and  O2_10 
REMARK    5  A    between atoms: C7_13  and  S1_14 
REMARK    6  A    between atoms: S1_14  and  C8_15 
REMARK    7  A    between atoms: C8_15  and  C9_17 
REMARK    8  A    between atoms: C9_17  and  C10_18 
REMARK    9  A    between atoms: C10_18  and  O4_19 
REMARK   10  A    between atoms: N2_21  and  O5_23 
REMARK   11  A    between atoms: C11_25  and  O6_26 
ROOT
HETATM    1  C1  UNL     1      14.826  19.448  11.984  1.00  0.00     0.015 C 
HETATM    2  C2  UNL     1      14.569  19.138  13.420  1.00  0.00     0.041 C 
HETATM    3  C3  UNL     1      13.203  18.684  13.773  1.00  0.00     0.044 C 
HETATM    4  C6  UNL     1      12.587  19.735  14.688  1.00  0.00     0.031 C 
HETATM    5  C7  UNL     1      13.808  20.343  15.358  1.00  0.00     0.105 C 
HETATM    6  C11 UNL     1      14.875  20.350  14.279  1.00  0.00     0.162 C 
HETATM    7  C12 UNL     1      14.713  21.610  13.529  1.00  0.00     0.099 C 
HETATM    8  N3  UNL     1      14.586  22.601  12.940  1.00  0.00    -0.194 NA
ENDROOT
BRANCH   6   9
HETATM    9  O6  UNL     1      16.155  20.214  14.810  1.00  0.00    -0.374 OA
ATOM     10  H6  UNL     1      16.200  20.692  15.629  1.00  0.00     0.212 HD
ENDBRANCH   6   9
BRANCH   5  11
HETATM   11  S1  UNL     1      13.504  21.969  16.037  1.00  0.00    -0.083 SA
BRANCH  11  12
HETATM   12  C8  UNL     1      14.793  22.418  17.188  1.00  0.00     0.194 C 
HETATM   13  O3  UNL     1      15.954  22.528  16.844  1.00  0.00    -0.285 OA
BRANCH  12  14
HETATM   14  C9  UNL     1      14.410  22.663  18.624  1.00  0.00     0.176 C 
BRANCH  14  15
HETATM   15  C10 UNL     1      15.246  21.865  19.531  1.00  0.00     0.143 C 
HETATM   16  N2  UNL     1      14.952  20.642  19.757  1.00  0.00    -0.251 N 
ATOM     17  H2  UNL     1      15.536  20.093  20.388  1.00  0.00     0.196 HD
BRANCH  15  18
HETATM   18  O4  UNL     1      16.347  22.432  20.138  1.00  0.00    -0.348 OA
ATOM     19  H4  UNL     1      16.635  22.123  20.989  1.00  0.00     0.219 HD
ENDBRANCH  15  18
BRANCH  16  20
HETATM   20  O5  UNL     1      13.853  20.050  19.161  1.00  0.00    -0.288 OA
ATOM     21  H5  UNL     1      13.594  19.163  19.381  1.00  0.00     0.244 HD
ENDBRANCH  16  20
ENDBRANCH  14  15
ENDBRANCH  12  14
ENDBRANCH  11  12
ENDBRANCH   5  11
BRANCH   3  22
HETATM   22  C4  UNL     1      12.319  18.281  12.677  1.00  0.00     0.037 C 
HETATM   23  N1  UNL     1      12.618  18.588  11.466  1.00  0.00    -0.275 N 
ATOM     24  H1  UNL     1      13.481  19.113  11.321  1.00  0.00     0.193 HD
BRANCH  22  25
HETATM   25  C5  UNL     1      11.085  17.522  12.962  1.00  0.00     0.219 C 
BRANCH  25  26
HETATM   26  O1  UNL     1      10.946  16.433  12.091  1.00  0.00    -0.395 OA
ATOM     27  H1  UNL     1      10.045  16.130  12.060  1.00  0.00     0.209 HD
ENDBRANCH  25  26
ENDBRANCH  22  25
BRANCH  23  28
HETATM   28  O2  UNL     1      11.893  18.279  10.360  1.00  0.00    -0.290 OA
ATOM     29  H2  UNL     1      11.606  17.411  10.103  1.00  0.00     0.244 HD
ENDBRANCH  23  28
ENDBRANCH   3  22
TORSDOF 11
ENDMDL
MODEL 4
REMARK VINA RESULT: -7.130416706      2.190      7.213
REMARK  11 active torsions:
REMARK  status: ('A' for Active; 'I' for Inactive)
REMARK    1  A    between atoms: C3_3  and  C4_4 
REMARK    2  A    between atoms: C4_4  and  C5_5 
REMARK    3  A    between atoms: C5_5  and  O1_6 
REMARK    4  A    between atoms: N1_8  and  O2_10 
REMARK    5  A    between atoms: C7_13  and  S1_14 
REMARK    6  A    between atoms: S1_14  and  C8_15 
REMARK    7  A    between atoms: C8_15  and  C9_17 
REMARK    8  A    between atoms: C9_17  and  C10_18 
REMARK    9  A    between atoms: C10_18  and  O4_19 
REMARK   10  A    between atoms: N2_21  and  O5_23 
REMARK   11  A    between atoms: C11_25  and  O6_26 
ROOT
HETATM    1  C1  UNL     1      14.965  23.454  18.675  1.00  0.00     0.015 C 
HETATM    2  C2  UNL     1      15.401  23.387  17.251  1.00  0.00     0.041 C 
HETATM    3  C3  UNL     1      14.969  24.494  16.365  1.00  0.00     0.044 C 
HETATM    4  C6  UNL     1      14.044  23.907  15.306  1.00  0.00     0.031 C 
HETATM    5  C7  UNL     1      14.534  22.472  15.201  1.00  0.00     0.105 C 
HETATM    6  C11 UNL     1      14.921  22.094  16.619  1.00  0.00     0.162 C 
HETATM    7  C12 UNL     1      13.701  21.583  17.271  1.00  0.00     0.099 C 
HETATM    8  N3  UNL     1      12.741  21.180  17.784  1.00  0.00    -0.194 NA
ENDROOT
BRANCH   6   9
HETATM    9  O6  UNL     1      15.961  21.168  16.647  1.00  0.00    -0.374 OA
ATOM     10  H6  UNL     1      15.592  20.294  16.705  1.00  0.00     0.212 HD
ENDBRANCH   6   9
BRANCH   5  11
HETATM   11  S1  UNL     1      13.321  21.361  14.499  1.00  0.00    -0.083 SA
BRANCH  11  12
HETATM   12  C8  UNL     1      14.116  19.907  13.835  1.00  0.00     0.194 C 
HETATM   13  O3  UNL     1      15.172  19.492  14.274  1.00  0.00    -0.285 OA
BRANCH  12  14
HETATM   14  C9  UNL     1      13.443  19.186  12.697  1.00  0.00     0.176 C 
BRANCH  14  15
HETATM   15  C10 UNL     1      12.620  18.075  13.195  1.00  0.00     0.143 C 
HETATM   16  N2  UNL     1      11.693  17.590  12.460  1.00  0.00    -0.251 N 
ATOM     17  H2  UNL     1      11.125  16.819  12.812  1.00  0.00     0.196 HD
BRANCH  15  18
HETATM   18  O4  UNL     1      12.845  17.556  14.452  1.00  0.00    -0.348 OA
ATOM     19  H4  UNL     1      12.479  17.984  15.218  1.00  0.00     0.219 HD
ENDBRANCH  15  18
BRANCH  16  20
HETATM   20  O5  UNL     1      11.448  18.093  11.196  1.00  0.00    -0.288 OA
ATOM     21  H5  UNL     1      11.034  17.559  10.528  1.00  0.00     0.244 HD
ENDBRANCH  16  20
ENDBRANCH  14  15
ENDBRANCH  12  14
ENDBRANCH  11  12
ENDBRANCH   5  11
BRANCH   3  22
HETATM   22  C4  UNL     1      14.429  25.698  17.001  1.00  0.00     0.037 C 
HETATM   23  N1  UNL     1      13.183  25.759  17.306  1.00  0.00    -0.275 N 
ATOM     24  H1  UNL     1      12.612  24.943  17.084  1.00  0.00     0.193 HD
BRANCH  22  25
HETATM   25  C5  UNL     1      15.316  26.842  17.291  1.00  0.00     0.219 C 
BRANCH  25  26
HETATM   26  O1  UNL     1      15.048  27.922  16.439  1.00  0.00    -0.395 OA
ATOM     27  H1  UNL     1      14.451  28.540  16.845  1.00  0.00     0.209 HD
ENDBRANCH  25  26
ENDBRANCH  22  25
BRANCH  23  28
HETATM   28  O2  UNL     1      12.554  26.808  17.896  1.00  0.00    -0.290 OA
ATOM     29  H2  UNL     1      11.619  26.974  17.893  1.00  0.00     0.244 HD
ENDBRANCH  23  28
ENDBRANCH   3  22
TORSDOF 11
ENDMDL
MODEL 5
REMARK VINA RESULT: -7.123831706      0.718      1.187
REMARK  11 active torsions:
REMARK  status: ('A' for Active; 'I' for Inactive)
REMARK    1  A    between atoms: C3_3  and  C4_4 
REMARK    2  A    between atoms: C4_4  and  C5_5 
REMARK    3  A    between atoms: C5_5  and  O1_6 
REMARK    4  A    between atoms: N1_8  and  O2_10 
REMARK    5  A    between atoms: C7_13  and  S1_14 
REMARK    6  A    between atoms: S1_14  and  C8_15 
REMARK    7  A    between atoms: C8_15  and  C9_17 
REMARK    8  A    between atoms: C9_17  and  C10_18 
REMARK    9  A    between atoms: C10_18  and  O4_19 
REMARK   10  A    between atoms: N2_21  and  O5_23 
REMARK   11  A    between atoms: C11_25  and  O6_26 
ROOT
HETATM    1  C1  UNL     1      14.706  20.441  11.854  1.00  0.00     0.015 C 
HETATM    2  C2  UNL     1      14.549  19.578  13.059  1.00  0.00     0.041 C 
HETATM    3  C3  UNL     1      13.392  18.654  13.075  1.00  0.00     0.044 C 
HETATM    4  C6  UNL     1      12.471  19.082  14.211  1.00  0.00     0.031 C 
HETATM    5  C7  UNL     1      13.435  19.736  15.186  1.00  0.00     0.105 C 
HETATM    6  C11 UNL     1      14.455  20.436  14.308  1.00  0.00     0.162 C 
HETATM    7  C12 UNL     1      13.913  21.776  14.013  1.00  0.00     0.099 C 
HETATM    8  N3  UNL     1      13.487  22.831  13.781  1.00  0.00    -0.194 NA
ENDROOT
BRANCH   6   9
HETATM    9  O6  UNL     1      15.709  20.496  14.908  1.00  0.00    -0.374 OA
ATOM     10  H6  UNL     1      16.091  21.349  14.736  1.00  0.00     0.212 HD
ENDBRANCH   6   9
BRANCH   5  11
HETATM   11  S1  UNL     1      12.634  20.850  16.333  1.00  0.00    -0.083 SA
BRANCH  11  12
HETATM   12  C8  UNL     1      13.713  21.218  17.707  1.00  0.00     0.194 C 
HETATM   13  O3  UNL     1      14.195  20.341  18.400  1.00  0.00    -0.285 OA
BRANCH  12  14
HETATM   14  C9  UNL     1      14.024  22.662  18.000  1.00  0.00     0.176 C 
BRANCH  14  15
HETATM   15  C10 UNL     1      15.067  23.166  17.096  1.00  0.00     0.143 C 
HETATM   16  N2  UNL     1      14.829  24.178  16.352  1.00  0.00    -0.251 N 
ATOM     17  H2  UNL     1      15.557  24.523  15.726  1.00  0.00     0.196 HD
BRANCH  15  18
HETATM   18  O4  UNL     1      16.300  22.551  17.049  1.00  0.00    -0.348 OA
ATOM     19  H4  UNL     1      17.058  22.970  17.440  1.00  0.00     0.219 HD
ENDBRANCH  15  18
BRANCH  16  20
HETATM   20  O5  UNL     1      13.600  24.812  16.381  1.00  0.00    -0.288 OA
ATOM     21  H5  UNL     1      12.832  24.408  15.996  1.00  0.00     0.244 HD
ENDBRANCH  16  20
ENDBRANCH  14  15
ENDBRANCH  12  14
ENDBRANCH  11  12
ENDBRANCH   5  11
BRANCH   3  22
HETATM   22  C4  UNL     1      12.686  18.432  11.811  1.00  0.00     0.037 C 
HETATM   23  N1  UNL     1      11.459  18.049  11.820  1.00  0.00    -0.275 N 
ATOM     24  H1  UNL     1      11.023  17.914  12.732  1.00  0.00     0.193 HD
BRANCH  22  25
HETATM   25  C5  UNL     1      13.382  18.647  10.527  1.00  0.00     0.219 C 
BRANCH  25  26
HETATM   26  O1  UNL     1      12.589  19.383   9.636  1.00  0.00    -0.395 OA
ATOM     27  H1  UNL     1      12.973  19.400   8.767  1.00  0.00     0.209 HD
ENDBRANCH  25  26
ENDBRANCH  22  25
BRANCH  23  28
HETATM   28  O2  UNL     1      10.689  17.808  10.728  1.00  0.00    -0.290 OA
ATOM     29  H2  UNL     1      10.269  16.984  10.510  1.00  0.00     0.244 HD
ENDBRANCH  23  28
ENDBRANCH   3  22
TORSDOF 11
ENDMDL
