MODEL 1
REMARK VINA RESULT: -10.170116783      0.000      0.000
REMARK  20 active torsions:
REMARK  status: ('A' for Active; 'I' for Inactive)
REMARK    1  A    between atoms: C2_2  and  C3_3 
REMARK    2  A    between atoms: C3_3  and  C4_4 
REMARK    3  A    between atoms: C4_4  and  C5_5 
REMARK    4  A    between atoms: C6_6  and  C7_7 
REMARK    5  A    between atoms: C7_7  and  C8_8 
REMARK    6  A    between atoms: C9_9  and  C10_10 
REMARK    7  A    between atoms: C10_10  and  C11_11 
REMARK    8  A    between atoms: C12_12  and  C13_13 
REMARK    9  A    between atoms: C13_13  and  C14_14 
REMARK   10  A    between atoms: C15_15  and  C16_16 
REMARK   11  A    between atoms: C16_16  and  C17_17 
REMARK   12  A    between atoms: C18_18  and  C19_19 
REMARK   13  A    between atoms: C19_19  and  C20_20 
REMARK   14  A    between atoms: C21_21  and  C22_22 
REMARK   15  A    between atoms: C22_22  and  C23_23 
REMARK   16  A    between atoms: C24_24  and  C25_25 
REMARK   17  A    between atoms: C25_25  and  C26_26 
REMARK   18  A    between atoms: C27_27  and  C28_28 
REMARK   19  A    between atoms: C28_28  and  C29_29 
REMARK   20  A    between atoms: C30_30  and  C31_31 
ROOT
HETATM    1  C31 UNL     1      88.512   7.351   2.567  1.00  0.00     0.150 C 
HETATM    2  C32 UNL     1      89.022   6.853   1.288  1.00  0.00     0.062 C 
HETATM    3  N1  UNL     1      89.435   6.471   0.265  1.00  0.00    -0.197 NA
ENDROOT
BRANCH   1   4
HETATM    4  C30 UNL     1      87.298   8.190   2.396  1.00  0.00    -0.017 C 
HETATM    5  C29 UNL     1      87.041   9.175   3.235  1.00  0.00    -0.026 C 
BRANCH   5   6
HETATM    6  C28 UNL     1      85.806  10.032   3.064  1.00  0.00     0.053 C 
BRANCH   6   7
HETATM    7  C27 UNL     1      84.771   9.638   4.020  1.00  0.00    -0.027 C 
HETATM    8  C26 UNL     1      84.432  10.289   5.085  1.00  0.00    -0.027 C 
BRANCH   8   9
HETATM    9  C25 UNL     1      85.049  11.582   5.527  1.00  0.00     0.053 C 
BRANCH   9  10
HETATM   10  C24 UNL     1      84.208  12.718   5.105  1.00  0.00    -0.027 C 
HETATM   11  C23 UNL     1      84.573  13.912   4.785  1.00  0.00    -0.027 C 
BRANCH  11  12
HETATM   12  C22 UNL     1      85.999  14.370   4.789  1.00  0.00     0.053 C 
BRANCH  12  13
HETATM   13  C21 UNL     1      86.502  14.148   3.424  1.00  0.00    -0.027 C 
HETATM   14  C20 UNL     1      87.470  13.439   2.971  1.00  0.00    -0.027 C 
BRANCH  14  15
HETATM   15  C19 UNL     1      88.475  12.563   3.545  1.00  0.00     0.053 C 
BRANCH  15  16
HETATM   16  C18 UNL     1      88.550  12.488   4.990  1.00  0.00    -0.027 C 
HETATM   17  C17 UNL     1      89.114  11.579   5.711  1.00  0.00    -0.027 C 
BRANCH  17  18
HETATM   18  C16 UNL     1      89.818  10.399   5.199  1.00  0.00     0.053 C 
BRANCH  18  19
HETATM   19  C15 UNL     1      91.283  10.632   5.243  1.00  0.00    -0.027 C 
HETATM   20  C14 UNL     1      92.059  10.214   6.198  1.00  0.00    -0.027 C 
BRANCH  20  21
HETATM   21  C13 UNL     1      91.596   9.445   7.379  1.00  0.00     0.053 C 
BRANCH  21  22
HETATM   22  C12 UNL     1      91.480   8.038   6.936  1.00  0.00    -0.027 C 
HETATM   23  C11 UNL     1      92.300   7.105   7.191  1.00  0.00    -0.027 C 
BRANCH  23  24
HETATM   24  C10 UNL     1      93.543   7.207   7.975  1.00  0.00     0.053 C 
BRANCH  24  25
HETATM   25  C9  UNL     1      94.300   5.951   7.739  1.00  0.00    -0.027 C 
HETATM   26  C8  UNL     1      94.410   4.998   8.588  1.00  0.00    -0.027 C 
BRANCH  26  27
HETATM   27  C7  UNL     1      93.833   4.945   9.931  1.00  0.00     0.053 C 
BRANCH  27  28
HETATM   28  C6  UNL     1      92.729   3.929   9.926  1.00  0.00    -0.027 C 
HETATM   29  C5  UNL     1      92.876   2.713  10.403  1.00  0.00    -0.030 C 
BRANCH  29  30
HETATM   30  C4  UNL     1      91.753   1.746  10.375  1.00  0.00     0.027 C 
BRANCH  30  31
HETATM   31  C3  UNL     1      91.835   0.815   9.184  1.00  0.00     0.003 C 
BRANCH  31  32
HETATM   32  C2  UNL     1      90.549   0.828   8.383  1.00  0.00    -0.004 C 
HETATM   33  C1  UNL     1      89.606   1.891   8.840  1.00  0.00     0.005 C 
ENDBRANCH  31  32
ENDBRANCH  30  31
ENDBRANCH  29  30
ENDBRANCH  27  28
ENDBRANCH  26  27
ENDBRANCH  24  25
ENDBRANCH  23  24
ENDBRANCH  21  22
ENDBRANCH  20  21
ENDBRANCH  18  19
ENDBRANCH  17  18
ENDBRANCH  15  16
ENDBRANCH  14  15
ENDBRANCH  12  13
ENDBRANCH  11  12
ENDBRANCH   9  10
ENDBRANCH   8   9
ENDBRANCH   6   7
ENDBRANCH   5   6
ENDBRANCH   1   4
TORSDOF 20
ENDMDL
MODEL 2
REMARK VINA RESULT: -9.735945989      1.294      2.189
REMARK  20 active torsions:
REMARK  status: ('A' for Active; 'I' for Inactive)
REMARK    1  A    between atoms: C2_2  and  C3_3 
REMARK    2  A    between atoms: C3_3  and  C4_4 
REMARK    3  A    between atoms: C4_4  and  C5_5 
REMARK    4  A    between atoms: C6_6  and  C7_7 
REMARK    5  A    between atoms: C7_7  and  C8_8 
REMARK    6  A    between atoms: C9_9  and  C10_10 
REMARK    7  A    between atoms: C10_10  and  C11_11 
REMARK    8  A    between atoms: C12_12  and  C13_13 
REMARK    9  A    between atoms: C13_13  and  C14_14 
REMARK   10  A    between atoms: C15_15  and  C16_16 
REMARK   11  A    between atoms: C16_16  and  C17_17 
REMARK   12  A    between atoms: C18_18  and  C19_19 
REMARK   13  A    between atoms: C19_19  and  C20_20 
REMARK   14  A    between atoms: C21_21  and  C22_22 
REMARK   15  A    between atoms: C22_22  and  C23_23 
REMARK   16  A    between atoms: C24_24  and  C25_25 
REMARK   17  A    between atoms: C25_25  and  C26_26 
REMARK   18  A    between atoms: C27_27  and  C28_28 
REMARK   19  A    between atoms: C28_28  and  C29_29 
REMARK   20  A    between atoms: C30_30  and  C31_31 
ROOT
HETATM    1  C31 UNL     1      86.947   9.164   2.275  1.00  0.00     0.150 C 
HETATM    2  C32 UNL     1      87.738   7.933   2.225  1.00  0.00     0.062 C 
HETATM    3  N1  UNL     1      88.357   6.944   2.176  1.00  0.00    -0.197 NA
ENDROOT
BRANCH   1   4
HETATM    4  C30 UNL     1      85.866   9.091   3.291  1.00  0.00    -0.017 C 
HETATM    5  C29 UNL     1      85.426  10.187   3.880  1.00  0.00    -0.026 C 
BRANCH   5   6
HETATM    6  C28 UNL     1      84.324  10.118   4.914  1.00  0.00     0.053 C 
BRANCH   6   7
HETATM    7  C27 UNL     1      83.259  11.069   4.595  1.00  0.00    -0.027 C 
HETATM    8  C26 UNL     1      83.274  12.338   4.842  1.00  0.00    -0.027 C 
BRANCH   8   9
HETATM    9  C25 UNL     1      84.405  13.065   5.507  1.00  0.00     0.053 C 
BRANCH   9  10
HETATM   10  C24 UNL     1      85.000  14.040   4.575  1.00  0.00    -0.027 C 
HETATM   11  C23 UNL     1      86.235  14.389   4.457  1.00  0.00    -0.027 C 
BRANCH  11  12
HETATM   12  C22 UNL     1      87.337  13.824   5.301  1.00  0.00     0.053 C 
BRANCH  12  13
HETATM   13  C21 UNL     1      88.273  13.176   4.367  1.00  0.00    -0.027 C 
HETATM   14  C20 UNL     1      88.810  12.012   4.362  1.00  0.00    -0.027 C 
BRANCH  14  15
HETATM   15  C19 UNL     1      88.762  10.839   5.216  1.00  0.00     0.053 C 
BRANCH  15  16
HETATM   16  C18 UNL     1      89.883   9.923   5.158  1.00  0.00    -0.027 C 
HETATM   17  C17 UNL     1      90.974   9.956   5.846  1.00  0.00    -0.027 C 
BRANCH  17  18
HETATM   18  C16 UNL     1      91.312  10.959   6.861  1.00  0.00     0.053 C 
BRANCH  18  19
HETATM   19  C15 UNL     1      90.663  10.607   8.148  1.00  0.00    -0.027 C 
HETATM   20  C14 UNL     1      91.195   9.830   9.044  1.00  0.00    -0.027 C 
BRANCH  20  21
HETATM   21  C13 UNL     1      92.524   9.184   8.912  1.00  0.00     0.053 C 
BRANCH  21  22
HETATM   22  C12 UNL     1      92.783   8.505  10.201  1.00  0.00    -0.027 C 
HETATM   23  C11 UNL     1      92.696   7.259  10.419  1.00  0.00    -0.027 C 
BRANCH  23  24
HETATM   24  C10 UNL     1      92.320   6.214   9.451  1.00  0.00     0.053 C 
BRANCH  24  25
HETATM   25  C9  UNL     1      93.569   5.489   9.100  1.00  0.00    -0.027 C 
HETATM   26  C8  UNL     1      93.902   4.345   9.572  1.00  0.00    -0.027 C 
BRANCH  26  27
HETATM   27  C7  UNL     1      93.148   3.535  10.528  1.00  0.00     0.053 C 
BRANCH  27  28
HETATM   28  C6  UNL     1      92.295   2.573   9.755  1.00  0.00    -0.027 C 
HETATM   29  C5  UNL     1      92.323   1.273   9.955  1.00  0.00    -0.030 C 
BRANCH  29  30
HETATM   30  C4  UNL     1      91.460   0.365   9.165  1.00  0.00     0.027 C 
BRANCH  30  31
HETATM   31  C3  UNL     1      90.265   1.085   8.578  1.00  0.00     0.003 C 
BRANCH  31  32
HETATM   32  C2  UNL     1      89.030   0.898   9.436  1.00  0.00    -0.004 C 
HETATM   33  C1  UNL     1      88.263   2.166   9.612  1.00  0.00     0.005 C 
ENDBRANCH  31  32
ENDBRANCH  30  31
ENDBRANCH  29  30
ENDBRANCH  27  28
ENDBRANCH  26  27
ENDBRANCH  24  25
ENDBRANCH  23  24
ENDBRANCH  21  22
ENDBRANCH  20  21
ENDBRANCH  18  19
ENDBRANCH  17  18
ENDBRANCH  15  16
ENDBRANCH  14  15
ENDBRANCH  12  13
ENDBRANCH  11  12
ENDBRANCH   9  10
ENDBRANCH   8   9
ENDBRANCH   6   7
ENDBRANCH   5   6
ENDBRANCH   1   4
TORSDOF 20
ENDMDL
MODEL 3
REMARK VINA RESULT: -9.647522867      1.720      3.580
REMARK  20 active torsions:
REMARK  status: ('A' for Active; 'I' for Inactive)
REMARK    1  A    between atoms: C2_2  and  C3_3 
REMARK    2  A    between atoms: C3_3  and  C4_4 
REMARK    3  A    between atoms: C4_4  and  C5_5 
REMARK    4  A    between atoms: C6_6  and  C7_7 
REMARK    5  A    between atoms: C7_7  and  C8_8 
REMARK    6  A    between atoms: C9_9  and  C10_10 
REMARK    7  A    between atoms: C10_10  and  C11_11 
REMARK    8  A    between atoms: C12_12  and  C13_13 
REMARK    9  A    between atoms: C13_13  and  C14_14 
REMARK   10  A    between atoms: C15_15  and  C16_16 
REMARK   11  A    between atoms: C16_16  and  C17_17 
REMARK   12  A    between atoms: C18_18  and  C19_19 
REMARK   13  A    between atoms: C19_19  and  C20_20 
REMARK   14  A    between atoms: C21_21  and  C22_22 
REMARK   15  A    between atoms: C22_22  and  C23_23 
REMARK   16  A    between atoms: C24_24  and  C25_25 
REMARK   17  A    between atoms: C25_25  and  C26_26 
REMARK   18  A    between atoms: C27_27  and  C28_28 
REMARK   19  A    between atoms: C28_28  and  C29_29 
REMARK   20  A    between atoms: C30_30  and  C31_31 
ROOT
HETATM    1  C31 UNL     1      87.548   8.475   2.433  1.00  0.00     0.150 C 
HETATM    2  C32 UNL     1      87.983   7.147   2.870  1.00  0.00     0.062 C 
HETATM    3  N1  UNL     1      88.319   6.082   3.209  1.00  0.00    -0.197 NA
ENDROOT
BRANCH   1   4
HETATM    4  C30 UNL     1      86.248   8.864   3.039  1.00  0.00    -0.017 C 
HETATM    5  C29 UNL     1      85.977  10.132   3.284  1.00  0.00    -0.026 C 
BRANCH   5   6
HETATM    6  C28 UNL     1      84.655  10.533   3.900  1.00  0.00     0.053 C 
BRANCH   6   7
HETATM    7  C27 UNL     1      84.849  11.000   5.273  1.00  0.00    -0.027 C 
HETATM    8  C26 UNL     1      85.197  12.194   5.628  1.00  0.00    -0.027 C 
BRANCH   8   9
HETATM    9  C25 UNL     1      85.463  13.323   4.678  1.00  0.00     0.053 C 
BRANCH   9  10
HETATM   10  C24 UNL     1      86.572  14.157   5.177  1.00  0.00    -0.027 C 
HETATM   11  C23 UNL     1      87.823  13.859   5.270  1.00  0.00    -0.027 C 
BRANCH  11  12
HETATM   12  C22 UNL     1      88.389  12.534   4.858  1.00  0.00     0.053 C 
BRANCH  12  13
HETATM   13  C21 UNL     1      88.921  11.921   6.086  1.00  0.00    -0.027 C 
HETATM   14  C20 UNL     1      89.789  10.996   6.276  1.00  0.00    -0.027 C 
BRANCH  14  15
HETATM   15  C19 UNL     1      90.619  10.157   5.430  1.00  0.00     0.053 C 
BRANCH  15  16
HETATM   16  C18 UNL     1      90.558   8.726   5.642  1.00  0.00    -0.027 C 
HETATM   17  C17 UNL     1      91.351   7.991   6.347  1.00  0.00    -0.027 C 
BRANCH  17  18
HETATM   18  C16 UNL     1      92.514   8.472   7.101  1.00  0.00     0.053 C 
BRANCH  18  19
HETATM   19  C15 UNL     1      92.080   8.954   8.435  1.00  0.00    -0.027 C 
HETATM   20  C14 UNL     1      92.183   8.261   9.530  1.00  0.00    -0.027 C 
BRANCH  20  21
HETATM   21  C13 UNL     1      92.747   6.891   9.604  1.00  0.00     0.053 C 
BRANCH  21  22
HETATM   22  C12 UNL     1      91.592   5.966   9.562  1.00  0.00    -0.027 C 
HETATM   23  C11 UNL     1      91.649   4.706   9.433  1.00  0.00    -0.027 C 
BRANCH  23  24
HETATM   24  C10 UNL     1      92.863   3.883   9.296  1.00  0.00     0.053 C 
BRANCH  24  25
HETATM   25  C9  UNL     1      92.811   2.864  10.375  1.00  0.00    -0.027 C 
HETATM   26  C8  UNL     1      92.326   1.685  10.239  1.00  0.00    -0.027 C 
BRANCH  26  27
HETATM   27  C7  UNL     1      91.736   1.112   9.030  1.00  0.00     0.053 C 
BRANCH  27  28
HETATM   28  C6  UNL     1      90.246   1.086   9.202  1.00  0.00    -0.027 C 
HETATM   29  C5  UNL     1      89.431   1.827   8.484  1.00  0.00    -0.030 C 
BRANCH  29  30
HETATM   30  C4  UNL     1      87.966   1.765   8.693  1.00  0.00     0.027 C 
BRANCH  30  31
HETATM   31  C3  UNL     1      87.207   1.724   7.384  1.00  0.00     0.003 C 
BRANCH  31  32
HETATM   32  C2  UNL     1      86.031   0.771   7.457  1.00  0.00    -0.004 C 
HETATM   33  C1  UNL     1      84.756   1.407   7.013  1.00  0.00     0.005 C 
ENDBRANCH  31  32
ENDBRANCH  30  31
ENDBRANCH  29  30
ENDBRANCH  27  28
ENDBRANCH  26  27
ENDBRANCH  24  25
ENDBRANCH  23  24
ENDBRANCH  21  22
ENDBRANCH  20  21
ENDBRANCH  18  19
ENDBRANCH  17  18
ENDBRANCH  15  16
ENDBRANCH  14  15
ENDBRANCH  12  13
ENDBRANCH  11  12
ENDBRANCH   9  10
ENDBRANCH   8   9
ENDBRANCH   6   7
ENDBRANCH   5   6
ENDBRANCH   1   4
TORSDOF 20
ENDMDL
MODEL 4
REMARK VINA RESULT: -9.570936374      3.522     10.479
REMARK  20 active torsions:
REMARK  status: ('A' for Active; 'I' for Inactive)
REMARK    1  A    between atoms: C2_2  and  C3_3 
REMARK    2  A    between atoms: C3_3  and  C4_4 
REMARK    3  A    between atoms: C4_4  and  C5_5 
REMARK    4  A    between atoms: C6_6  and  C7_7 
REMARK    5  A    between atoms: C7_7  and  C8_8 
REMARK    6  A    between atoms: C9_9  and  C10_10 
REMARK    7  A    between atoms: C10_10  and  C11_11 
REMARK    8  A    between atoms: C12_12  and  C13_13 
REMARK    9  A    between atoms: C13_13  and  C14_14 
REMARK   10  A    between atoms: C15_15  and  C16_16 
REMARK   11  A    between atoms: C16_16  and  C17_17 
REMARK   12  A    between atoms: C18_18  and  C19_19 
REMARK   13  A    between atoms: C19_19  and  C20_20 
REMARK   14  A    between atoms: C21_21  and  C22_22 
REMARK   15  A    between atoms: C22_22  and  C23_23 
REMARK   16  A    between atoms: C24_24  and  C25_25 
REMARK   17  A    between atoms: C25_25  and  C26_26 
REMARK   18  A    between atoms: C27_27  and  C28_28 
REMARK   19  A    between atoms: C28_28  and  C29_29 
REMARK   20  A    between atoms: C30_30  and  C31_31 
ROOT
HETATM    1  C31 UNL     1      83.581   1.279   4.736  1.00  0.00     0.150 C 
HETATM    2  C32 UNL     1      82.884   0.292   3.909  1.00  0.00     0.062 C 
HETATM    3  N1  UNL     1      82.315  -0.493   3.259  1.00  0.00    -0.197 NA
ENDROOT
BRANCH   1   4
HETATM    4  C30 UNL     1      83.931   0.740   6.075  1.00  0.00    -0.017 C 
HETATM    5  C29 UNL     1      84.127   1.554   7.095  1.00  0.00    -0.026 C 
BRANCH   5   6
HETATM    6  C28 UNL     1      84.483   1.008   8.460  1.00  0.00     0.053 C 
BRANCH   6   7
HETATM    7  C27 UNL     1      85.335  -0.175   8.333  1.00  0.00    -0.027 C 
HETATM    8  C26 UNL     1      86.565  -0.271   8.720  1.00  0.00    -0.027 C 
BRANCH   8   9
HETATM    9  C25 UNL     1      87.341   0.830   9.378  1.00  0.00     0.053 C 
BRANCH   9  10
HETATM   10  C24 UNL     1      88.291   1.425   8.420  1.00  0.00    -0.027 C 
HETATM   11  C23 UNL     1      89.571   1.279   8.362  1.00  0.00    -0.027 C 
BRANCH  11  12
HETATM   12  C22 UNL     1      90.350   0.429   9.319  1.00  0.00     0.053 C 
BRANCH  12  13
HETATM   13  C21 UNL     1      91.764   0.587   8.944  1.00  0.00    -0.027 C 
HETATM   14  C20 UNL     1      92.637   1.478   9.244  1.00  0.00    -0.027 C 
BRANCH  14  15
HETATM   15  C19 UNL     1      92.657   2.685  10.050  1.00  0.00     0.053 C 
BRANCH  15  16
HETATM   16  C18 UNL     1      91.773   3.764   9.658  1.00  0.00    -0.027 C 
HETATM   17  C17 UNL     1      92.085   4.977   9.350  1.00  0.00    -0.027 C 
BRANCH  17  18
HETATM   18  C16 UNL     1      93.444   5.529   9.332  1.00  0.00     0.053 C 
BRANCH  18  19
HETATM   19  C15 UNL     1      93.932   5.613   7.933  1.00  0.00    -0.027 C 
HETATM   20  C14 UNL     1      93.690   6.610   7.135  1.00  0.00    -0.027 C 
BRANCH  20  21
HETATM   21  C13 UNL     1      92.893   7.806   7.506  1.00  0.00     0.053 C 
BRANCH  21  22
HETATM   22  C12 UNL     1      91.549   7.605   6.918  1.00  0.00    -0.027 C 
HETATM   23  C11 UNL     1      90.915   8.438   6.203  1.00  0.00    -0.027 C 
BRANCH  23  24
HETATM   24  C10 UNL     1      91.364   9.781   5.798  1.00  0.00     0.053 C 
BRANCH  24  25
HETATM   25  C9  UNL     1      90.812  10.734   6.794  1.00  0.00    -0.027 C 
HETATM   26  C8  UNL     1      89.772  11.459   6.608  1.00  0.00    -0.027 C 
BRANCH  26  27
HETATM   27  C7  UNL     1      88.935  11.503   5.410  1.00  0.00     0.053 C 
BRANCH  27  28
HETATM   28  C6  UNL     1      87.607  12.091   5.788  1.00  0.00    -0.027 C 
HETATM   29  C5  UNL     1      86.492  11.804   5.153  1.00  0.00    -0.030 C 
BRANCH  29  30
HETATM   30  C4  UNL     1      85.205  12.412   5.566  1.00  0.00     0.027 C 
BRANCH  30  31
HETATM   31  C3  UNL     1      84.360  12.817   4.378  1.00  0.00     0.003 C 
BRANCH  31  32
HETATM   32  C2  UNL     1      83.656  11.622   3.767  1.00  0.00    -0.004 C 
HETATM   33  C1  UNL     1      84.037  11.406   2.340  1.00  0.00     0.005 C 
ENDBRANCH  31  32
ENDBRANCH  30  31
ENDBRANCH  29  30
ENDBRANCH  27  28
ENDBRANCH  26  27
ENDBRANCH  24  25
ENDBRANCH  23  24
ENDBRANCH  21  22
ENDBRANCH  20  21
ENDBRANCH  18  19
ENDBRANCH  17  18
ENDBRANCH  15  16
ENDBRANCH  14  15
ENDBRANCH  12  13
ENDBRANCH  11  12
ENDBRANCH   9  10
ENDBRANCH   8   9
ENDBRANCH   6   7
ENDBRANCH   5   6
ENDBRANCH   1   4
TORSDOF 20
ENDMDL
MODEL 5
REMARK VINA RESULT: -9.566787238      2.776     10.176
REMARK  20 active torsions:
REMARK  status: ('A' for Active; 'I' for Inactive)
REMARK    1  A    between atoms: C2_2  and  C3_3 
REMARK    2  A    between atoms: C3_3  and  C4_4 
REMARK    3  A    between atoms: C4_4  and  C5_5 
REMARK    4  A    between atoms: C6_6  and  C7_7 
REMARK    5  A    between atoms: C7_7  and  C8_8 
REMARK    6  A    between atoms: C9_9  and  C10_10 
REMARK    7  A    between atoms: C10_10  and  C11_11 
REMARK    8  A    between atoms: C12_12  and  C13_13 
REMARK    9  A    between atoms: C13_13  and  C14_14 
REMARK   10  A    between atoms: C15_15  and  C16_16 
REMARK   11  A    between atoms: C16_16  and  C17_17 
REMARK   12  A    between atoms: C18_18  and  C19_19 
REMARK   13  A    between atoms: C19_19  and  C20_20 
REMARK   14  A    between atoms: C21_21  and  C22_22 
REMARK   15  A    between atoms: C22_22  and  C23_23 
REMARK   16  A    between atoms: C24_24  and  C25_25 
REMARK   17  A    between atoms: C25_25  and  C26_26 
REMARK   18  A    between atoms: C27_27  and  C28_28 
REMARK   19  A    between atoms: C28_28  and  C29_29 
REMARK   20  A    between atoms: C30_30  and  C31_31 
ROOT
HETATM    1  C31 UNL     1      84.263   1.609   4.172  1.00  0.00     0.150 C 
HETATM    2  C32 UNL     1      84.253   2.246   2.854  1.00  0.00     0.062 C 
HETATM    3  N1  UNL     1      84.251   2.740   1.796  1.00  0.00    -0.197 NA
ENDROOT
BRANCH   1   4
HETATM    4  C30 UNL     1      85.620   1.598   4.777  1.00  0.00    -0.017 C 
HETATM    5  C29 UNL     1      85.771   1.676   6.086  1.00  0.00    -0.026 C 
BRANCH   5   6
HETATM    6  C28 UNL     1      87.151   1.665   6.704  1.00  0.00     0.053 C 
BRANCH   6   7
HETATM    7  C27 UNL     1      87.079   2.009   8.125  1.00  0.00    -0.027 C 
HETATM    8  C26 UNL     1      88.078   2.066   8.945  1.00  0.00    -0.027 C 
BRANCH   8   9
HETATM    9  C25 UNL     1      89.504   1.786   8.574  1.00  0.00     0.053 C 
BRANCH   9  10
HETATM   10  C24 UNL     1      89.923   0.481   9.117  1.00  0.00    -0.027 C 
HETATM   11  C23 UNL     1      91.118   0.045   9.328  1.00  0.00    -0.027 C 
BRANCH  11  12
HETATM   12  C22 UNL     1      92.352   0.845   9.040  1.00  0.00     0.053 C 
BRANCH  12  13
HETATM   13  C21 UNL     1      92.645   1.599  10.270  1.00  0.00    -0.027 C 
HETATM   14  C20 UNL     1      92.722   2.857  10.506  1.00  0.00    -0.027 C 
BRANCH  14  15
HETATM   15  C19 UNL     1      92.565   4.073   9.729  1.00  0.00     0.053 C 
BRANCH  15  16
HETATM   16  C18 UNL     1      93.273   5.253  10.186  1.00  0.00    -0.027 C 
HETATM   17  C17 UNL     1      92.905   6.486  10.096  1.00  0.00    -0.027 C 
BRANCH  17  18
HETATM   18  C16 UNL     1      91.655   6.961   9.493  1.00  0.00     0.053 C 
BRANCH  18  19
HETATM   19  C15 UNL     1      91.667   8.443   9.421  1.00  0.00    -0.027 C 
HETATM   20  C14 UNL     1      91.973   9.119   8.354  1.00  0.00    -0.027 C 
BRANCH  20  21
HETATM   21  C13 UNL     1      92.355   8.509   7.057  1.00  0.00     0.053 C 
BRANCH  21  22
HETATM   22  C12 UNL     1      91.094   8.307   6.308  1.00  0.00    -0.027 C 
HETATM   23  C11 UNL     1      90.511   9.168   5.582  1.00  0.00    -0.027 C 
BRANCH  23  24
HETATM   24  C10 UNL     1      90.949  10.550   5.320  1.00  0.00     0.053 C 
BRANCH  24  25
HETATM   25  C9  UNL     1      90.046  11.438   6.096  1.00  0.00    -0.027 C 
HETATM   26  C8  UNL     1      89.060  12.087   5.597  1.00  0.00    -0.027 C 
BRANCH  26  27
HETATM   27  C7  UNL     1      88.629  12.093   4.200  1.00  0.00     0.053 C 
BRANCH  27  28
HETATM   28  C6  UNL     1      87.294  11.412   4.119  1.00  0.00    -0.027 C 
HETATM   29  C5  UNL     1      86.538  11.450   3.044  1.00  0.00    -0.030 C 
BRANCH  29  30
HETATM   30  C4  UNL     1      85.227  10.760   3.014  1.00  0.00     0.027 C 
BRANCH  30  31
HETATM   31  C3  UNL     1      84.070  11.735   3.068  1.00  0.00     0.003 C 
BRANCH  31  32
HETATM   32  C2  UNL     1      83.114  11.398   4.194  1.00  0.00    -0.004 C 
HETATM   33  C1  UNL     1      83.826  11.077   5.466  1.00  0.00     0.005 C 
ENDBRANCH  31  32
ENDBRANCH  30  31
ENDBRANCH  29  30
ENDBRANCH  27  28
ENDBRANCH  26  27
ENDBRANCH  24  25
ENDBRANCH  23  24
ENDBRANCH  21  22
ENDBRANCH  20  21
ENDBRANCH  18  19
ENDBRANCH  17  18
ENDBRANCH  15  16
ENDBRANCH  14  15
ENDBRANCH  12  13
ENDBRANCH  11  12
ENDBRANCH   9  10
ENDBRANCH   8   9
ENDBRANCH   6   7
ENDBRANCH   5   6
ENDBRANCH   1   4
TORSDOF 20
ENDMDL
