MODEL 1
REMARK VINA RESULT: -10.114691248      0.000      0.000
REMARK  6 active torsions:
REMARK  status: ('A' for Active; 'I' for Inactive)
REMARK       I    between atoms: C1_4  and  N3_6 
REMARK    1  A    between atoms: N3_6  and  C2_8 
REMARK    2  A    between atoms: C5_11  and  C6_12 
REMARK    3  A    between atoms: C6_12  and  N4_13 
REMARK    4  A    between atoms: C9_16  and  N5_17 
REMARK       I    between atoms: N5_17  and  C10_19 
REMARK    5  A    between atoms: C10_19  and  C11_21 
REMARK    6  A    between atoms: C23_33  and  O2_34 
ROOT
HETATM    1  N4  UNL     1       5.508  26.907  -7.288  1.00  0.00    -0.389 N 
HETATM    2  C7  UNL     1       4.584  26.334  -6.398  1.00  0.00     0.060 C 
HETATM    3  C8  UNL     1       3.315  27.110  -6.192  1.00  0.00     0.069 C 
HETATM    4  C9  UNL     1       2.674  27.582  -7.468  1.00  0.00     0.090 C 
HETATM    5  C21 UNL     1       3.531  27.403  -8.671  1.00  0.00     0.045 C 
HETATM    6  C22 UNL     1       4.998  27.598  -8.417  1.00  0.00     0.124 C 
ENDROOT
BRANCH   1   7
HETATM    7  C6  UNL     1       6.623  27.576  -6.690  1.00  0.00     0.163 C 
BRANCH   7   8
HETATM    8  C5  UNL     1       6.832  27.253  -5.271  1.00  0.00    -0.007 A 
HETATM    9  C4  UNL     1       7.185  26.018  -4.791  1.00  0.00     0.014 A 
HETATM   10  C3  UNL     1       7.397  25.754  -3.458  1.00  0.00     0.030 A 
HETATM   11  C2  UNL     1       7.262  26.746  -2.514  1.00  0.00     0.037 A 
HETATM   12  C24 UNL     1       6.906  28.012  -2.957  1.00  0.00     0.066 A 
HETATM   13  C23 UNL     1       6.702  28.248  -4.291  1.00  0.00     0.075 A 
BRANCH  11  14
HETATM   14  N3  UNL     1       7.476  26.506  -1.131  1.00  0.00    -0.331 N 
HETATM   15  C1  UNL     1       6.892  27.361  -0.167  1.00  0.00     0.186 C 
HETATM   16  N1  UNL     1       5.646  27.197   0.121  1.00  0.00    -0.373 N 
HETATM   17  N2  UNL     1       7.663  28.372   0.468  1.00  0.00    -0.064 NA
ATOM     18  H12 UNL     1       5.225  27.814   0.816  1.00  0.00     0.158 HD
ATOM     19  H11 UNL     1       5.092  26.471  -0.335  1.00  0.00     0.158 HD
ATOM     20  H3  UNL     1       8.049  25.717  -0.833  1.00  0.00     0.168 HD
ENDBRANCH  11  14
BRANCH  13  21
HETATM   21  O2  UNL     1       6.342  29.522  -4.752  1.00  0.00    -0.360 OA
ATOM     22  H2  UNL     1       6.461  30.237  -4.138  1.00  0.00     0.217 HD
ENDBRANCH  13  21
ENDBRANCH   7   8
ENDBRANCH   1   7
BRANCH   4  23
HETATM   23  N5  UNL     1       2.285  28.962  -7.242  1.00  0.00    -0.355 N 
HETATM   24  C10 UNL     1       0.994  29.367  -6.815  1.00  0.00     0.226 C 
HETATM   25  O1  UNL     1       0.065  28.560  -6.588  1.00  0.00    -0.273 OA
ATOM     26  H5  UNL     1       2.984  29.687  -7.402  1.00  0.00     0.162 HD
BRANCH  24  27
HETATM   27  C11 UNL     1       0.719  30.810  -6.622  1.00  0.00     0.042 C 
HETATM   28  C12 UNL     1       0.819  31.132  -5.151  1.00  0.00     0.024 C 
HETATM   29  C13 UNL     1       0.648  32.597  -4.899  1.00  0.00    -0.013 C 
HETATM   30  C14 UNL     1      -0.783  32.962  -5.289  1.00  0.00     0.009 C 
HETATM   31  C18 UNL     1       1.595  33.405  -5.757  1.00  0.00     0.009 C 
HETATM   32  C15 UNL     1      -1.009  32.561  -6.721  1.00  0.00    -0.013 C 
HETATM   33  C16 UNL     1      -0.106  33.413  -7.607  1.00  0.00     0.009 C 
HETATM   34  C20 UNL     1      -0.717  31.127  -7.017  1.00  0.00     0.024 C 
HETATM   35  C17 UNL     1       1.313  33.124  -7.195  1.00  0.00    -0.013 C 
HETATM   36  C19 UNL     1       1.608  31.670  -7.482  1.00  0.00     0.024 C 
ENDBRANCH  24  27
ENDBRANCH   4  23
TORSDOF 6
ENDMDL
MODEL 2
REMARK VINA RESULT: -10.064769394      1.598      2.026
REMARK  6 active torsions:
REMARK  status: ('A' for Active; 'I' for Inactive)
REMARK       I    between atoms: C1_4  and  N3_6 
REMARK    1  A    between atoms: N3_6  and  C2_8 
REMARK    2  A    between atoms: C5_11  and  C6_12 
REMARK    3  A    between atoms: C6_12  and  N4_13 
REMARK    4  A    between atoms: C9_16  and  N5_17 
REMARK       I    between atoms: N5_17  and  C10_19 
REMARK    5  A    between atoms: C10_19  and  C11_21 
REMARK    6  A    between atoms: C23_33  and  O2_34 
ROOT
HETATM    1  N4  UNL     1       4.246  27.523  -5.143  1.00  0.00    -0.389 N 
HETATM    2  C7  UNL     1       3.387  27.623  -4.036  1.00  0.00     0.060 C 
HETATM    3  C8  UNL     1       2.298  28.651  -4.152  1.00  0.00     0.069 C 
HETATM    4  C9  UNL     1       1.556  28.609  -5.460  1.00  0.00     0.090 C 
HETATM    5  C21 UNL     1       2.188  27.729  -6.480  1.00  0.00     0.045 C 
HETATM    6  C22 UNL     1       3.689  27.710  -6.434  1.00  0.00     0.124 C 
ENDROOT
BRANCH   1   7
HETATM    7  C6  UNL     1       5.528  28.145  -5.001  1.00  0.00     0.163 C 
BRANCH   7   8
HETATM    8  C5  UNL     1       6.109  28.031  -3.655  1.00  0.00    -0.007 A 
HETATM    9  C4  UNL     1       5.928  26.967  -2.810  1.00  0.00     0.014 A 
HETATM   10  C3  UNL     1       6.507  26.881  -1.565  1.00  0.00     0.030 A 
HETATM   11  C2  UNL     1       7.320  27.887  -1.094  1.00  0.00     0.037 A 
HETATM   12  C24 UNL     1       7.530  28.982  -1.919  1.00  0.00     0.066 A 
HETATM   13  C23 UNL     1       6.942  29.043  -3.155  1.00  0.00     0.075 A 
BRANCH  11  14
HETATM   14  N3  UNL     1       7.932  27.826   0.185  1.00  0.00    -0.331 N 
HETATM   15  C1  UNL     1       7.167  28.076   1.348  1.00  0.00     0.186 C 
HETATM   16  N1  UNL     1       6.412  27.132   1.798  1.00  0.00    -0.373 N 
HETATM   17  N2  UNL     1       7.232  29.336   2.002  1.00  0.00    -0.064 NA
ATOM     18  H12 UNL     1       5.860  27.313   2.636  1.00  0.00     0.158 HD
ATOM     19  H11 UNL     1       6.366  26.227   1.328  1.00  0.00     0.158 HD
ATOM     20  H3  UNL     1       8.924  27.602   0.265  1.00  0.00     0.168 HD
ENDBRANCH  11  14
BRANCH  13  21
HETATM   21  O2  UNL     1       7.146  30.145  -3.998  1.00  0.00    -0.360 OA
ATOM     22  H2  UNL     1       7.650  30.862  -3.633  1.00  0.00     0.217 HD
ENDBRANCH  13  21
ENDBRANCH   7   8
ENDBRANCH   1   7
BRANCH   4  23
HETATM   23  N5  UNL     1       1.423  29.987  -5.898  1.00  0.00    -0.355 N 
HETATM   24  C10 UNL     1       0.473  30.901  -5.375  1.00  0.00     0.226 C 
HETATM   25  O1  UNL     1      -0.345  30.598  -4.477  1.00  0.00    -0.273 OA
ATOM     26  H5  UNL     1       2.054  30.319  -6.627  1.00  0.00     0.162 HD
BRANCH  24  27
HETATM   27  C11 UNL     1       0.434  32.283  -5.907  1.00  0.00     0.042 C 
HETATM   28  C12 UNL     1       0.449  33.251  -4.749  1.00  0.00     0.024 C 
HETATM   29  C13 UNL     1       0.511  34.669  -5.222  1.00  0.00    -0.013 C 
HETATM   30  C14 UNL     1      -0.791  34.959  -5.964  1.00  0.00     0.009 C 
HETATM   31  C18 UNL     1       1.661  34.866  -6.185  1.00  0.00     0.009 C 
HETATM   32  C15 UNL     1      -0.948  33.955  -7.073  1.00  0.00    -0.013 C 
HETATM   33  C16 UNL     1       0.168  34.181  -8.088  1.00  0.00     0.009 C 
HETATM   34  C20 UNL     1      -0.881  32.529  -6.633  1.00  0.00     0.024 C 
HETATM   35  C17 UNL     1       1.471  33.969  -7.362  1.00  0.00    -0.013 C 
HETATM   36  C19 UNL     1       1.535  32.531  -6.904  1.00  0.00     0.024 C 
ENDBRANCH  24  27
ENDBRANCH   4  23
TORSDOF 6
ENDMDL
MODEL 3
REMARK VINA RESULT: -9.917142100      3.346      9.015
REMARK  6 active torsions:
REMARK  status: ('A' for Active; 'I' for Inactive)
REMARK       I    between atoms: C1_4  and  N3_6 
REMARK    1  A    between atoms: N3_6  and  C2_8 
REMARK    2  A    between atoms: C5_11  and  C6_12 
REMARK    3  A    between atoms: C6_12  and  N4_13 
REMARK    4  A    between atoms: C9_16  and  N5_17 
REMARK       I    between atoms: N5_17  and  C10_19 
REMARK    5  A    between atoms: C10_19  and  C11_21 
REMARK    6  A    between atoms: C23_33  and  O2_34 
ROOT
HETATM    1  N4  UNL     1       1.385  30.283  -7.470  1.00  0.00    -0.389 N 
HETATM    2  C7  UNL     1       2.100  29.706  -8.533  1.00  0.00     0.060 C 
HETATM    3  C8  UNL     1       3.015  28.575  -8.160  1.00  0.00     0.069 C 
HETATM    4  C9  UNL     1       2.382  27.548  -7.262  1.00  0.00     0.090 C 
HETATM    5  C21 UNL     1       1.059  27.960  -6.719  1.00  0.00     0.045 C 
HETATM    6  C22 UNL     1       0.942  29.429  -6.428  1.00  0.00     0.124 C 
ENDROOT
BRANCH   1   7
HETATM    7  C6  UNL     1       1.886  31.532  -6.983  1.00  0.00     0.163 C 
BRANCH   7   8
HETATM    8  C5  UNL     1       0.895  32.618  -6.975  1.00  0.00    -0.007 A 
HETATM    9  C4  UNL     1       0.286  33.134  -8.090  1.00  0.00     0.014 A 
HETATM   10  C3  UNL     1      -0.656  34.135  -8.045  1.00  0.00     0.030 A 
HETATM   11  C2  UNL     1      -1.045  34.683  -6.844  1.00  0.00     0.037 A 
HETATM   12  C24 UNL     1      -0.454  34.189  -5.690  1.00  0.00     0.066 A 
HETATM   13  C23 UNL     1       0.482  33.191  -5.763  1.00  0.00     0.075 A 
BRANCH  11  14
HETATM   14  N3  UNL     1      -2.016  35.715  -6.765  1.00  0.00    -0.331 N 
HETATM   15  C1  UNL     1      -2.255  36.369  -5.534  1.00  0.00     0.186 C 
HETATM   16  N1  UNL     1      -1.427  37.283  -5.156  1.00  0.00    -0.373 N 
HETATM   17  N2  UNL     1      -3.379  36.024  -4.735  1.00  0.00    -0.064 NA
ATOM     18  H12 UNL     1      -1.599  37.754  -4.268  1.00  0.00     0.158 HD
ATOM     19  H11 UNL     1      -0.620  37.530  -5.730  1.00  0.00     0.158 HD
ATOM     20  H3  UNL     1      -2.542  35.986  -7.596  1.00  0.00     0.168 HD
ENDBRANCH  11  14
BRANCH  13  21
HETATM   21  O2  UNL     1       1.088  32.684  -4.605  1.00  0.00    -0.360 OA
ATOM     22  H2  UNL     1       0.934  33.173  -3.805  1.00  0.00     0.217 HD
ENDBRANCH  13  21
ENDBRANCH   7   8
ENDBRANCH   1   7
BRANCH   4  23
HETATM   23  N5  UNL     1       3.357  27.253  -6.228  1.00  0.00    -0.355 N 
HETATM   24  C10 UNL     1       4.450  26.364  -6.393  1.00  0.00     0.226 C 
HETATM   25  O1  UNL     1       4.675  25.747  -7.458  1.00  0.00    -0.273 OA
ATOM     26  H5  UNL     1       3.250  27.716  -5.326  1.00  0.00     0.162 HD
BRANCH  24  27
HETATM   27  C11 UNL     1       5.378  26.144  -5.258  1.00  0.00     0.042 C 
HETATM   28  C12 UNL     1       4.832  26.849  -4.040  1.00  0.00     0.024 C 
HETATM   29  C13 UNL     1       5.673  26.585  -2.832  1.00  0.00    -0.013 C 
HETATM   30  C14 UNL     1       7.039  27.222  -3.080  1.00  0.00     0.009 C 
HETATM   31  C18 UNL     1       5.872  25.100  -2.628  1.00  0.00     0.009 C 
HETATM   32  C15 UNL     1       7.609  26.659  -4.353  1.00  0.00    -0.013 C 
HETATM   33  C16 UNL     1       7.876  25.171  -4.144  1.00  0.00     0.009 C 
HETATM   34  C20 UNL     1       6.722  26.799  -5.546  1.00  0.00     0.024 C 
HETATM   35  C17 UNL     1       6.551  24.528  -3.828  1.00  0.00    -0.013 C 
HETATM   36  C19 UNL     1       5.646  24.681  -5.028  1.00  0.00     0.024 C 
ENDBRANCH  24  27
ENDBRANCH   4  23
TORSDOF 6
ENDMDL
MODEL 4
REMARK VINA RESULT: -9.844242483      3.583      9.037
REMARK  6 active torsions:
REMARK  status: ('A' for Active; 'I' for Inactive)
REMARK       I    between atoms: C1_4  and  N3_6 
REMARK    1  A    between atoms: N3_6  and  C2_8 
REMARK    2  A    between atoms: C5_11  and  C6_12 
REMARK    3  A    between atoms: C6_12  and  N4_13 
REMARK    4  A    between atoms: C9_16  and  N5_17 
REMARK       I    between atoms: N5_17  and  C10_19 
REMARK    5  A    between atoms: C10_19  and  C11_21 
REMARK    6  A    between atoms: C23_33  and  O2_34 
ROOT
HETATM    1  N4  UNL     1       1.233  30.643  -7.025  1.00  0.00    -0.389 N 
HETATM    2  C7  UNL     1       1.882  30.116  -8.155  1.00  0.00     0.060 C 
HETATM    3  C8  UNL     1       2.802  28.959  -7.892  1.00  0.00     0.069 C 
HETATM    4  C9  UNL     1       2.207  27.891  -7.015  1.00  0.00     0.090 C 
HETATM    5  C21 UNL     1       0.920  28.287  -6.379  1.00  0.00     0.045 C 
HETATM    6  C22 UNL     1       0.838  29.739  -6.007  1.00  0.00     0.124 C 
ENDROOT
BRANCH   1   7
HETATM    7  C6  UNL     1       1.775  31.860  -6.502  1.00  0.00     0.163 C 
BRANCH   7   8
HETATM    8  C5  UNL     1       0.763  32.842  -6.085  1.00  0.00    -0.007 A 
HETATM    9  C4  UNL     1      -0.578  32.583  -5.963  1.00  0.00     0.014 A 
HETATM   10  C3  UNL     1      -1.496  33.519  -5.547  1.00  0.00     0.030 A 
HETATM   11  C2  UNL     1      -1.102  34.797  -5.223  1.00  0.00     0.037 A 
HETATM   12  C24 UNL     1       0.247  35.101  -5.332  1.00  0.00     0.066 A 
HETATM   13  C23 UNL     1       1.141  34.150  -5.749  1.00  0.00     0.075 A 
BRANCH  11  14
HETATM   14  N3  UNL     1      -2.025  35.784  -4.788  1.00  0.00    -0.331 N 
HETATM   15  C1  UNL     1      -2.385  36.844  -5.653  1.00  0.00     0.186 C 
HETATM   16  N1  UNL     1      -3.254  36.611  -6.577  1.00  0.00    -0.373 N 
HETATM   17  N2  UNL     1      -1.803  38.132  -5.503  1.00  0.00    -0.064 NA
ATOM     18  H12 UNL     1      -3.514  37.376  -7.200  1.00  0.00     0.158 HD
ATOM     19  H11 UNL     1      -3.672  35.686  -6.684  1.00  0.00     0.158 HD
ATOM     20  H3  UNL     1      -2.428  35.729  -3.853  1.00  0.00     0.168 HD
ENDBRANCH  11  14
BRANCH  13  21
HETATM   21  O2  UNL     1       2.507  34.444  -5.864  1.00  0.00    -0.360 OA
ATOM     22  H2  UNL     1       2.817  35.188  -5.362  1.00  0.00     0.217 HD
ENDBRANCH  13  21
ENDBRANCH   7   8
ENDBRANCH   1   7
BRANCH   4  23
HETATM   23  N5  UNL     1       3.234  27.534  -6.053  1.00  0.00    -0.355 N 
HETATM   24  C10 UNL     1       4.252  26.576  -6.294  1.00  0.00     0.226 C 
HETATM   25  O1  UNL     1       4.359  25.947  -7.370  1.00  0.00    -0.273 OA
ATOM     26  H5  UNL     1       3.222  28.002  -5.147  1.00  0.00     0.162 HD
BRANCH  24  27
HETATM   27  C11 UNL     1       5.243  26.297  -5.228  1.00  0.00     0.042 C 
HETATM   28  C12 UNL     1       4.764  26.923  -3.941  1.00  0.00     0.024 C 
HETATM   29  C13 UNL     1       5.674  26.594  -2.801  1.00  0.00    -0.013 C 
HETATM   30  C14 UNL     1       7.020  27.255  -3.086  1.00  0.00     0.009 C 
HETATM   31  C18 UNL     1       5.890  25.100  -2.698  1.00  0.00     0.009 C 
HETATM   32  C15 UNL     1       7.520  26.774  -4.420  1.00  0.00    -0.013 C 
HETATM   33  C16 UNL     1       7.805  25.278  -4.317  1.00  0.00     0.009 C 
HETATM   34  C20 UNL     1       6.566  26.978  -5.551  1.00  0.00     0.024 C 
HETATM   35  C17 UNL     1       6.503  24.607  -3.966  1.00  0.00    -0.013 C 
HETATM   36  C19 UNL     1       5.531  24.824  -5.102  1.00  0.00     0.024 C 
ENDBRANCH  24  27
ENDBRANCH   4  23
TORSDOF 6
ENDMDL
MODEL 5
REMARK VINA RESULT: -9.739444200      3.352      9.044
REMARK  6 active torsions:
REMARK  status: ('A' for Active; 'I' for Inactive)
REMARK       I    between atoms: C1_4  and  N3_6 
REMARK    1  A    between atoms: N3_6  and  C2_8 
REMARK    2  A    between atoms: C5_11  and  C6_12 
REMARK    3  A    between atoms: C6_12  and  N4_13 
REMARK    4  A    between atoms: C9_16  and  N5_17 
REMARK       I    between atoms: N5_17  and  C10_19 
REMARK    5  A    between atoms: C10_19  and  C11_21 
REMARK    6  A    between atoms: C23_33  and  O2_34 
ROOT
HETATM    1  N4  UNL     1       1.367  30.309  -7.494  1.00  0.00    -0.389 N 
HETATM    2  C7  UNL     1       2.086  29.712  -8.543  1.00  0.00     0.060 C 
HETATM    3  C8  UNL     1       2.998  28.587  -8.144  1.00  0.00     0.069 C 
HETATM    4  C9  UNL     1       2.359  27.578  -7.230  1.00  0.00     0.090 C 
HETATM    5  C21 UNL     1       1.034  28.002  -6.702  1.00  0.00     0.045 C 
HETATM    6  C22 UNL     1       0.917  29.475  -6.439  1.00  0.00     0.124 C 
ENDROOT
BRANCH   1   7
HETATM    7  C6  UNL     1       1.867  31.567  -7.027  1.00  0.00     0.163 C 
BRANCH   7   8
HETATM    8  C5  UNL     1       0.868  32.646  -7.011  1.00  0.00    -0.007 A 
HETATM    9  C4  UNL     1       0.231  33.143  -8.118  1.00  0.00     0.014 A 
HETATM   10  C3  UNL     1      -0.717  34.138  -8.065  1.00  0.00     0.030 A 
HETATM   11  C2  UNL     1      -1.086  34.697  -6.863  1.00  0.00     0.037 A 
HETATM   12  C24 UNL     1      -0.466  34.222  -5.716  1.00  0.00     0.066 A 
HETATM   13  C23 UNL     1       0.476  33.229  -5.797  1.00  0.00     0.075 A 
BRANCH  11  14
HETATM   14  N3  UNL     1      -2.063  35.723  -6.775  1.00  0.00    -0.331 N 
HETATM   15  C1  UNL     1      -2.294  36.375  -5.541  1.00  0.00     0.186 C 
HETATM   16  N1  UNL     1      -1.469  37.295  -5.171  1.00  0.00    -0.373 N 
HETATM   17  N2  UNL     1      -3.409  36.023  -4.732  1.00  0.00    -0.064 NA
ATOM     18  H12 UNL     1      -1.636  37.765  -4.281  1.00  0.00     0.158 HD
ATOM     19  H11 UNL     1      -0.669  37.547  -5.752  1.00  0.00     0.158 HD
ATOM     20  H3  UNL     1      -2.597  35.990  -7.601  1.00  0.00     0.168 HD
ENDBRANCH  11  14
BRANCH  13  21
HETATM   21  O2  UNL     1       1.110  32.740  -4.646  1.00  0.00    -0.360 OA
ATOM     22  H2  UNL     1       1.792  33.290  -4.280  1.00  0.00     0.217 HD
ENDBRANCH  13  21
ENDBRANCH   7   8
ENDBRANCH   1   7
BRANCH   4  23
HETATM   23  N5  UNL     1       3.329  27.301  -6.186  1.00  0.00    -0.355 N 
HETATM   24  C10 UNL     1       4.426  26.414  -6.332  1.00  0.00     0.226 C 
HETATM   25  O1  UNL     1       4.661  25.785  -7.388  1.00  0.00    -0.273 OA
ATOM     26  H5  UNL     1       3.214  27.775  -5.291  1.00  0.00     0.162 HD
BRANCH  24  27
HETATM   27  C11 UNL     1       5.348  26.214  -5.189  1.00  0.00     0.042 C 
HETATM   28  C12 UNL     1       6.703  26.771  -5.553  1.00  0.00     0.024 C 
HETATM   29  C13 UNL     1       7.655  26.688  -4.402  1.00  0.00    -0.013 C 
HETATM   30  C14 UNL     1       7.898  25.208  -4.117  1.00  0.00     0.009 C 
HETATM   31  C18 UNL     1       7.059  27.319  -3.163  1.00  0.00     0.009 C 
HETATM   32  C15 UNL     1       6.574  24.543  -3.859  1.00  0.00    -0.013 C 
HETATM   33  C16 UNL     1       5.987  25.123  -2.576  1.00  0.00     0.009 C 
HETATM   34  C20 UNL     1       5.565  24.727  -4.945  1.00  0.00     0.024 C 
HETATM   35  C17 UNL     1       5.801  26.599  -2.806  1.00  0.00    -0.013 C 
HETATM   36  C19 UNL     1       4.791  26.789  -3.913  1.00  0.00     0.024 C 
ENDBRANCH  24  27
ENDBRANCH   4  23
TORSDOF 6
ENDMDL
