MODEL 1
REMARK VINA RESULT: -8.398746696      0.000      0.000
REMARK  7 active torsions:
REMARK  status: ('A' for Active; 'I' for Inactive)
REMARK    1  A    between atoms: C7_7  and  C8_8 
REMARK    2  A    between atoms: C8_8  and  C9_9 
REMARK    3  A    between atoms: C20_20  and  N1_21 
REMARK    4  A    between atoms: N1_21  and  C21_23 
REMARK    5  A    between atoms: C21_23  and  C23_25 
REMARK    6  A    between atoms: C23_25  and  N2_26 
REMARK    7  A    between atoms: C23_25  and  C24_30 
ROOT
HETATM    1  C1  UNL     1      -2.948  34.264 -12.040  1.00  0.00     0.068 C 
HETATM    2  C2  UNL     1      -1.997  34.208 -10.913  1.00  0.00     0.008 A 
HETATM    3  C3  UNL     1      -0.927  35.039 -10.618  1.00  0.00     0.040 A 
HETATM    4  C4  UNL     1      -0.326  34.581  -9.446  1.00  0.00     0.017 A 
HETATM    5  C5  UNL     1       0.776  35.057  -8.728  1.00  0.00    -0.034 A 
HETATM    6  C6  UNL     1       1.481  36.266  -9.222  1.00  0.00     0.050 C 
HETATM    7  C7  UNL     1       1.135  34.388  -7.596  1.00  0.00     0.015 A 
HETATM    8  C20 UNL     1       0.356  33.272  -7.257  1.00  0.00     0.114 A 
HETATM    9  N3  UNL     1      -0.689  32.846  -7.964  1.00  0.00    -0.327 N 
ATOM     10  H3  UNL     1      -1.209  32.026  -7.655  1.00  0.00     0.169 HD
HETATM   11  C25 UNL     1      -1.060  33.486  -9.076  1.00  0.00     0.118 A 
HETATM   12  N4  UNL     1      -2.049  33.267  -9.946  1.00  0.00    -0.346 N 
ATOM     13  H4  UNL     1      -2.732  32.512  -9.889  1.00  0.00     0.167 HD
ENDROOT
BRANCH   7  14
HETATM   14  C8  UNL     1       2.290  34.692  -6.777  1.00  0.00     0.028 C 
BRANCH  14  15
HETATM   15  C9  UNL     1       2.409  35.942  -6.061  1.00  0.00    -0.022 A 
HETATM   16  C10 UNL     1       1.553  36.407  -5.095  1.00  0.00    -0.045 A 
HETATM   17  C11 UNL     1       0.320  35.642  -4.726  1.00  0.00     0.049 C 
HETATM   18  C12 UNL     1       1.820  37.606  -4.433  1.00  0.00    -0.049 A 
HETATM   19  C13 UNL     1       0.830  38.064  -3.423  1.00  0.00     0.049 C 
HETATM   20  C14 UNL     1       2.925  38.387  -4.688  1.00  0.00    -0.049 A 
HETATM   21  C15 UNL     1       3.185  39.651  -3.925  1.00  0.00     0.049 C 
HETATM   22  C16 UNL     1       3.787  37.919  -5.661  1.00  0.00    -0.049 A 
HETATM   23  C17 UNL     1       4.987  38.729  -6.023  1.00  0.00     0.049 C 
HETATM   24  C18 UNL     1       3.539  36.737  -6.322  1.00  0.00    -0.045 A 
HETATM   25  C19 UNL     1       4.590  36.291  -7.282  1.00  0.00     0.049 C 
ENDBRANCH  14  15
ENDBRANCH   7  14
BRANCH   8  26
HETATM   26  N1  UNL     1       0.682  32.577  -6.233  1.00  0.00    -0.369 N 
ATOM     27  H1  UNL     1       0.355  32.929  -5.334  1.00  0.00     0.161 HD
BRANCH  26  28
HETATM   28  C21 UNL     1       1.440  31.377  -6.192  1.00  0.00     0.120 C 
HETATM   29  C22 UNL     1       1.696  30.771  -7.546  1.00  0.00     0.035 C 
BRANCH  28  30
HETATM   30  C23 UNL     1       0.634  30.393  -5.329  1.00  0.00     0.305 C 
BRANCH  30  31
HETATM   31  N2  UNL     1       1.360  29.132  -5.213  1.00  0.00    -0.063 N 
ATOM     32  H23 UNL     1       1.023  28.433  -5.875  1.00  0.00     0.275 HD
ATOM     33  H22 UNL     1       2.318  29.207  -5.554  1.00  0.00     0.275 HD
ATOM     34  H21 UNL     1       1.319  28.799  -4.250  1.00  0.00     0.275 HD
ENDBRANCH  30  31
BRANCH  30  35
HETATM   35  C24 UNL     1       0.387  30.976  -4.002  1.00  0.00     0.206 C 
HETATM   36  O1  UNL     1       1.191  30.733  -3.072  1.00  0.00    -0.646 OA
HETATM   37  O2  UNL     1      -0.726  31.775  -3.816  1.00  0.00    -0.646 OA
ENDBRANCH  30  35
ENDBRANCH  28  30
ENDBRANCH  26  28
ENDBRANCH   8  26
TORSDOF 7
ENDMDL
MODEL 2
REMARK VINA RESULT: -8.138062911      2.480      5.509
REMARK  7 active torsions:
REMARK  status: ('A' for Active; 'I' for Inactive)
REMARK    1  A    between atoms: C7_7  and  C8_8 
REMARK    2  A    between atoms: C8_8  and  C9_9 
REMARK    3  A    between atoms: C20_20  and  N1_21 
REMARK    4  A    between atoms: N1_21  and  C21_23 
REMARK    5  A    between atoms: C21_23  and  C23_25 
REMARK    6  A    between atoms: C23_25  and  N2_26 
REMARK    7  A    between atoms: C23_25  and  C24_30 
ROOT
HETATM    1  C1  UNL     1       4.537  38.326  -8.501  1.00  0.00     0.068 C 
HETATM    2  C2  UNL     1       3.542  37.262  -8.263  1.00  0.00     0.008 A 
HETATM    3  C3  UNL     1       2.311  37.053  -8.866  1.00  0.00     0.040 A 
HETATM    4  C4  UNL     1       1.735  35.914  -8.304  1.00  0.00     0.017 A 
HETATM    5  C5  UNL     1       0.515  35.278  -8.556  1.00  0.00    -0.034 A 
HETATM    6  C6  UNL     1      -0.380  35.839  -9.598  1.00  0.00     0.050 C 
HETATM    7  C7  UNL     1       0.219  34.160  -7.834  1.00  0.00     0.015 A 
HETATM    8  C20 UNL     1       1.179  33.751  -6.897  1.00  0.00     0.114 A 
HETATM    9  N3  UNL     1       2.333  34.380  -6.683  1.00  0.00    -0.327 N 
ATOM     10  H3  UNL     1       2.983  34.023  -5.984  1.00  0.00     0.169 HD
HETATM   11  C25 UNL     1       2.644  35.478  -7.379  1.00  0.00     0.118 A 
HETATM   12  N4  UNL     1       3.714  36.277  -7.356  1.00  0.00    -0.346 N 
ATOM     13  H4  UNL     1       4.527  36.162  -6.752  1.00  0.00     0.167 HD
ENDROOT
BRANCH   7  14
HETATM   14  C8  UNL     1      -1.025  33.424  -7.907  1.00  0.00     0.028 C 
BRANCH  14  15
HETATM   15  C9  UNL     1      -2.303  34.063  -7.688  1.00  0.00    -0.022 A 
HETATM   16  C10 UNL     1      -2.683  34.749  -6.563  1.00  0.00    -0.045 A 
HETATM   17  C11 UNL     1      -1.776  34.845  -5.377  1.00  0.00     0.049 C 
HETATM   18  C12 UNL     1      -3.929  35.376  -6.506  1.00  0.00    -0.049 A 
HETATM   19  C13 UNL     1      -4.285  36.072  -5.241  1.00  0.00     0.049 C 
HETATM   20  C14 UNL     1      -4.840  35.356  -7.538  1.00  0.00    -0.049 A 
HETATM   21  C15 UNL     1      -6.152  36.075  -7.440  1.00  0.00     0.049 C 
HETATM   22  C16 UNL     1      -4.456  34.665  -8.671  1.00  0.00    -0.049 A 
HETATM   23  C17 UNL     1      -5.405  34.564  -9.820  1.00  0.00     0.049 C 
HETATM   24  C18 UNL     1      -3.230  34.043  -8.744  1.00  0.00    -0.045 A 
HETATM   25  C19 UNL     1      -2.895  33.410 -10.053  1.00  0.00     0.049 C 
ENDBRANCH  14  15
ENDBRANCH   7  14
BRANCH   8  26
HETATM   26  N1  UNL     1       0.930  32.738  -6.156  1.00  0.00    -0.369 N 
ATOM     27  H1  UNL     1       0.199  32.867  -5.457  1.00  0.00     0.161 HD
BRANCH  26  28
HETATM   28  C21 UNL     1       1.541  31.456  -6.186  1.00  0.00     0.120 C 
HETATM   29  C22 UNL     1       1.672  30.876  -7.569  1.00  0.00     0.035 C 
BRANCH  28  30
HETATM   30  C23 UNL     1       0.657  30.542  -5.323  1.00  0.00     0.305 C 
BRANCH  30  31
HETATM   31  N2  UNL     1       1.367  29.300  -5.036  1.00  0.00    -0.063 N 
ATOM     32  H23 UNL     1       2.036  29.062  -5.768  1.00  0.00     0.275 HD
ATOM     33  H22 UNL     1       2.026  29.403  -4.263  1.00  0.00     0.275 HD
ATOM     34  H21 UNL     1       0.695  28.550  -4.870  1.00  0.00     0.275 HD
ENDBRANCH  30  31
BRANCH  30  35
HETATM   35  C24 UNL     1       0.287  31.231  -4.078  1.00  0.00     0.206 C 
HETATM   36  O1  UNL     1       1.138  31.331  -3.163  1.00  0.00    -0.646 OA
HETATM   37  O2  UNL     1      -0.988  31.749  -3.950  1.00  0.00    -0.646 OA
ENDBRANCH  30  35
ENDBRANCH  28  30
ENDBRANCH  26  28
ENDBRANCH   8  26
TORSDOF 7
ENDMDL
MODEL 3
REMARK VINA RESULT: -8.122023127      6.241      9.284
REMARK  7 active torsions:
REMARK  status: ('A' for Active; 'I' for Inactive)
REMARK    1  A    between atoms: C7_7  and  C8_8 
REMARK    2  A    between atoms: C8_8  and  C9_9 
REMARK    3  A    between atoms: C20_20  and  N1_21 
REMARK    4  A    between atoms: N1_21  and  C21_23 
REMARK    5  A    between atoms: C21_23  and  C23_25 
REMARK    6  A    between atoms: C23_25  and  N2_26 
REMARK    7  A    between atoms: C23_25  and  C24_30 
ROOT
HETATM    1  C1  UNL     1      -0.344  30.670  -6.660  1.00  0.00     0.068 C 
HETATM    2  C2  UNL     1       0.816  29.789  -6.418  1.00  0.00     0.008 A 
HETATM    3  C3  UNL     1       1.408  29.418  -5.220  1.00  0.00     0.040 A 
HETATM    4  C4  UNL     1       2.477  28.569  -5.504  1.00  0.00     0.017 A 
HETATM    5  C5  UNL     1       3.389  27.922  -4.664  1.00  0.00    -0.034 A 
HETATM    6  C6  UNL     1       3.261  28.105  -3.197  1.00  0.00     0.050 C 
HETATM    7  C7  UNL     1       4.345  27.140  -5.244  1.00  0.00     0.015 A 
HETATM    8  C20 UNL     1       4.320  27.061  -6.644  1.00  0.00     0.114 A 
HETATM    9  N3  UNL     1       3.435  27.690  -7.414  1.00  0.00    -0.327 N 
ATOM     10  H3  UNL     1       3.480  27.584  -8.427  1.00  0.00     0.169 HD
HETATM   11  C25 UNL     1       2.490  28.461  -6.869  1.00  0.00     0.118 A 
HETATM   12  N4  UNL     1       1.505  29.184  -7.408  1.00  0.00    -0.346 N 
ATOM     13  H4  UNL     1       1.306  29.265  -8.405  1.00  0.00     0.167 HD
ENDROOT
BRANCH   7  14
HETATM   14  C8  UNL     1       5.411  26.464  -4.537  1.00  0.00     0.028 C 
BRANCH  14  15
HETATM   15  C9  UNL     1       6.095  27.077  -3.420  1.00  0.00    -0.022 A 
HETATM   16  C10 UNL     1       6.664  28.326  -3.405  1.00  0.00    -0.045 A 
HETATM   17  C11 UNL     1       6.676  29.181  -4.633  1.00  0.00     0.049 C 
HETATM   18  C12 UNL     1       7.239  28.825  -2.236  1.00  0.00    -0.049 A 
HETATM   19  C13 UNL     1       7.866  30.171  -2.304  1.00  0.00     0.049 C 
HETATM   20  C14 UNL     1       7.280  28.128  -1.049  1.00  0.00    -0.049 A 
HETATM   21  C15 UNL     1       7.880  28.722   0.189  1.00  0.00     0.049 C 
HETATM   22  C16 UNL     1       6.707  26.870  -1.065  1.00  0.00    -0.049 A 
HETATM   23  C17 UNL     1       6.746  26.036   0.173  1.00  0.00     0.049 C 
HETATM   24  C18 UNL     1       6.133  26.365  -2.209  1.00  0.00    -0.045 A 
HETATM   25  C19 UNL     1       5.466  25.037  -2.075  1.00  0.00     0.049 C 
ENDBRANCH  14  15
ENDBRANCH   7  14
BRANCH   8  26
HETATM   26  N1  UNL     1       5.226  26.383  -7.241  1.00  0.00    -0.369 N 
ATOM     27  H1  UNL     1       5.466  25.488  -6.816  1.00  0.00     0.161 HD
BRANCH  26  28
HETATM   28  C21 UNL     1       5.939  26.720  -8.422  1.00  0.00     0.120 C 
HETATM   29  C22 UNL     1       6.941  27.827  -8.234  1.00  0.00     0.035 C 
BRANCH  28  30
HETATM   30  C23 UNL     1       4.880  27.149  -9.451  1.00  0.00     0.305 C 
BRANCH  30  31
HETATM   31  N2  UNL     1       5.499  27.992 -10.471  1.00  0.00    -0.063 N 
ATOM     32  H23 UNL     1       6.361  28.424 -10.140  1.00  0.00     0.275 HD
ATOM     33  H22 UNL     1       5.893  27.443 -11.235  1.00  0.00     0.275 HD
ATOM     34  H21 UNL     1       4.824  28.682 -10.801  1.00  0.00     0.275 HD
ENDBRANCH  30  31
BRANCH  30  35
HETATM   35  C24 UNL     1       4.262  25.963 -10.061  1.00  0.00     0.206 C 
HETATM   36  O1  UNL     1       3.991  24.978  -9.335  1.00  0.00    -0.646 OA
HETATM   37  O2  UNL     1       3.998  25.965 -11.418  1.00  0.00    -0.646 OA
ENDBRANCH  30  35
ENDBRANCH  28  30
ENDBRANCH  26  28
ENDBRANCH   8  26
TORSDOF 7
ENDMDL
MODEL 4
REMARK VINA RESULT: -7.987362039      1.152      1.162
REMARK  7 active torsions:
REMARK  status: ('A' for Active; 'I' for Inactive)
REMARK    1  A    between atoms: C7_7  and  C8_8 
REMARK    2  A    between atoms: C8_8  and  C9_9 
REMARK    3  A    between atoms: C20_20  and  N1_21 
REMARK    4  A    between atoms: N1_21  and  C21_23 
REMARK    5  A    between atoms: C21_23  and  C23_25 
REMARK    6  A    between atoms: C23_25  and  N2_26 
REMARK    7  A    between atoms: C23_25  and  C24_30 
ROOT
HETATM    1  C1  UNL     1      -4.514  34.853  -9.709  1.00  0.00     0.068 C 
HETATM    2  C2  UNL     1      -3.216  34.755  -9.013  1.00  0.00     0.008 A 
HETATM    3  C3  UNL     1      -2.123  35.608  -9.057  1.00  0.00     0.040 A 
HETATM    4  C4  UNL     1      -1.129  35.091  -8.227  1.00  0.00     0.017 A 
HETATM    5  C5  UNL     1       0.152  35.560  -7.919  1.00  0.00    -0.034 A 
HETATM    6  C6  UNL     1       0.610  36.832  -8.529  1.00  0.00     0.050 C 
HETATM    7  C7  UNL     1       0.909  34.824  -7.057  1.00  0.00     0.015 A 
HETATM    8  C20 UNL     1       0.323  33.652  -6.556  1.00  0.00     0.114 A 
HETATM    9  N3  UNL     1      -0.902  33.235  -6.869  1.00  0.00    -0.327 N 
ATOM     10  H3  UNL     1      -1.262  32.371  -6.464  1.00  0.00     0.169 HD
HETATM   11  C25 UNL     1      -1.662  33.940  -7.711  1.00  0.00     0.118 A 
HETATM   12  N4  UNL     1      -2.898  33.743  -8.178  1.00  0.00    -0.346 N 
ATOM     13  H4  UNL     1      -3.503  32.956  -7.942  1.00  0.00     0.167 HD
ENDROOT
BRANCH   7  14
HETATM   14  C8  UNL     1       2.279  35.116  -6.690  1.00  0.00     0.028 C 
BRANCH  14  15
HETATM   15  C9  UNL     1       2.658  36.383  -6.104  1.00  0.00    -0.022 A 
HETATM   16  C10 UNL     1       2.053  36.993  -5.035  1.00  0.00    -0.045 A 
HETATM   17  C11 UNL     1       0.843  36.394  -4.389  1.00  0.00     0.049 C 
HETATM   18  C12 UNL     1       2.561  38.189  -4.526  1.00  0.00    -0.049 A 
HETATM   19  C13 UNL     1       1.833  38.810  -3.388  1.00  0.00     0.049 C 
HETATM   20  C14 UNL     1       3.669  38.826  -5.038  1.00  0.00    -0.049 A 
HETATM   21  C15 UNL     1       4.196  40.092  -4.433  1.00  0.00     0.049 C 
HETATM   22  C16 UNL     1       4.278  38.210  -6.115  1.00  0.00    -0.049 A 
HETATM   23  C17 UNL     1       5.462  38.859  -6.752  1.00  0.00     0.049 C 
HETATM   24  C18 UNL     1       3.790  37.029  -6.628  1.00  0.00    -0.045 A 
HETATM   25  C19 UNL     1       4.588  36.416  -7.729  1.00  0.00     0.049 C 
ENDBRANCH  14  15
ENDBRANCH   7  14
BRANCH   8  26
HETATM   26  N1  UNL     1       1.010  32.897  -5.784  1.00  0.00    -0.369 N 
ATOM     27  H1  UNL     1       1.185  33.260  -4.847  1.00  0.00     0.161 HD
BRANCH  26  28
HETATM   28  C21 UNL     1       1.558  31.618  -6.067  1.00  0.00     0.120 C 
HETATM   29  C22 UNL     1       1.521  31.250  -7.526  1.00  0.00     0.035 C 
BRANCH  28  30
HETATM   30  C23 UNL     1       0.727  30.610  -5.257  1.00  0.00     0.305 C 
BRANCH  30  31
HETATM   31  N2  UNL     1       1.492  29.381  -5.070  1.00  0.00    -0.063 N 
ATOM     32  H23 UNL     1       1.549  28.830  -5.927  1.00  0.00     0.275 HD
ATOM     33  H22 UNL     1       2.489  29.563  -4.947  1.00  0.00     0.275 HD
ATOM     34  H21 UNL     1       1.100  28.846  -4.295  1.00  0.00     0.275 HD
ENDBRANCH  30  31
BRANCH  30  35
HETATM   35  C24 UNL     1       0.355  31.193  -3.960  1.00  0.00     0.206 C 
HETATM   36  O1  UNL     1       1.180  31.158  -3.018  1.00  0.00    -0.646 OA
HETATM   37  O2  UNL     1      -0.896  31.765  -3.815  1.00  0.00    -0.646 OA
ENDBRANCH  30  35
ENDBRANCH  28  30
ENDBRANCH  26  28
ENDBRANCH   8  26
TORSDOF 7
ENDMDL
MODEL 5
REMARK VINA RESULT: -7.907139241      0.275      1.997
REMARK  7 active torsions:
REMARK  status: ('A' for Active; 'I' for Inactive)
REMARK    1  A    between atoms: C7_7  and  C8_8 
REMARK    2  A    between atoms: C8_8  and  C9_9 
REMARK    3  A    between atoms: C20_20  and  N1_21 
REMARK    4  A    between atoms: N1_21  and  C21_23 
REMARK    5  A    between atoms: C21_23  and  C23_25 
REMARK    6  A    between atoms: C23_25  and  N2_26 
REMARK    7  A    between atoms: C23_25  and  C24_30 
ROOT
HETATM    1  C1  UNL     1      -2.997  34.348 -11.750  1.00  0.00     0.068 C 
HETATM    2  C2  UNL     1      -2.003  34.268 -10.662  1.00  0.00     0.008 A 
HETATM    3  C3  UNL     1      -0.934  35.106 -10.379  1.00  0.00     0.040 A 
HETATM    4  C4  UNL     1      -0.281  34.617  -9.248  1.00  0.00     0.017 A 
HETATM    5  C5  UNL     1       0.840  35.086  -8.555  1.00  0.00    -0.034 A 
HETATM    6  C6  UNL     1       1.506  36.323  -9.032  1.00  0.00     0.050 C 
HETATM    7  C7  UNL     1       1.253  34.382  -7.463  1.00  0.00     0.015 A 
HETATM    8  C20 UNL     1       0.505  33.242  -7.136  1.00  0.00     0.114 A 
HETATM    9  N3  UNL     1      -0.560  32.824  -7.817  1.00  0.00    -0.327 N 
ATOM     10  H3  UNL     1      -1.054  31.984  -7.518  1.00  0.00     0.169 HD
HETATM   11  C25 UNL     1      -0.983  33.497  -8.891  1.00  0.00     0.118 A 
HETATM   12  N4  UNL     1      -2.002  33.293  -9.729  1.00  0.00    -0.346 N 
ATOM     13  H4  UNL     1      -2.671  32.525  -9.674  1.00  0.00     0.167 HD
ENDROOT
BRANCH   7  14
HETATM   14  C8  UNL     1       2.434  34.676  -6.679  1.00  0.00     0.028 C 
BRANCH  14  15
HETATM   15  C9  UNL     1       2.679  35.993  -6.133  1.00  0.00    -0.022 A 
HETATM   16  C10 UNL     1       3.701  36.838  -6.485  1.00  0.00    -0.045 A 
HETATM   17  C11 UNL     1       4.740  36.418  -7.476  1.00  0.00     0.049 C 
HETATM   18  C12 UNL     1       3.785  38.113  -5.925  1.00  0.00    -0.049 A 
HETATM   19  C13 UNL     1       4.939  38.960  -6.328  1.00  0.00     0.049 C 
HETATM   20  C14 UNL     1       2.883  38.605  -5.008  1.00  0.00    -0.049 A 
HETATM   21  C15 UNL     1       2.999  39.996  -4.461  1.00  0.00     0.049 C 
HETATM   22  C16 UNL     1       1.854  37.753  -4.654  1.00  0.00    -0.049 A 
HETATM   23  C17 UNL     1       0.857  38.198  -3.636  1.00  0.00     0.049 C 
HETATM   24  C18 UNL     1       1.755  36.493  -5.199  1.00  0.00    -0.045 A 
HETATM   25  C19 UNL     1       0.550  35.704  -4.809  1.00  0.00     0.049 C 
ENDBRANCH  14  15
ENDBRANCH   7  14
BRANCH   8  26
HETATM   26  N1  UNL     1       0.881  32.516  -6.151  1.00  0.00    -0.369 N 
ATOM     27  H1  UNL     1       0.691  32.893  -5.223  1.00  0.00     0.161 HD
BRANCH  26  28
HETATM   28  C21 UNL     1       1.527  31.253  -6.189  1.00  0.00     0.120 C 
HETATM   29  C22 UNL     1       1.589  30.640  -7.562  1.00  0.00     0.035 C 
BRANCH  28  30
HETATM   30  C23 UNL     1       0.727  30.336  -5.249  1.00  0.00     0.305 C 
BRANCH  30  31
HETATM   31  N2  UNL     1       1.514  29.149  -4.932  1.00  0.00    -0.063 N 
ATOM     32  H23 UNL     1       2.501  29.270  -5.159  1.00  0.00     0.275 HD
ATOM     33  H22 UNL     1       1.612  29.009  -3.926  1.00  0.00     0.275 HD
ATOM     34  H21 UNL     1       1.111  28.335  -5.396  1.00  0.00     0.275 HD
ENDBRANCH  30  31
BRANCH  30  35
HETATM   35  C24 UNL     1       0.367  31.065  -4.024  1.00  0.00     0.206 C 
HETATM   36  O1  UNL     1       1.201  31.135  -3.091  1.00  0.00    -0.646 OA
HETATM   37  O2  UNL     1      -0.881  31.653  -3.934  1.00  0.00    -0.646 OA
ENDBRANCH  30  35
ENDBRANCH  28  30
ENDBRANCH  26  28
ENDBRANCH   8  26
TORSDOF 7
ENDMDL
