MODEL 1
REMARK VINA RESULT: -5.657630815      0.000      0.000
REMARK  14 active torsions:
REMARK  status: ('A' for Active; 'I' for Inactive)
REMARK    1  A    between atoms: C2_2  and  O1_3 
REMARK    2  A    between atoms: O1_3  and  C3_4 
REMARK    3  A    between atoms: C3_4  and  O2_5 
REMARK    4  A    between atoms: C6_8  and  O3_9 
REMARK    5  A    between atoms: C7_11  and  O4_13 
REMARK    6  A    between atoms: C9_15  and  O5_17 
REMARK    7  A    between atoms: C11_19  and  O6_20 
REMARK    8  A    between atoms: C11_19  and  N1_22 
REMARK    9  A    between atoms: N1_22  and  C12_24 
REMARK   10  A    between atoms: C13_26  and  O8_28 
REMARK   11  A    between atoms: N2_31  and  N3_33 
REMARK   12  A    between atoms: C16_36  and  O9_37 
REMARK   13  A    between atoms: C16_36  and  C17_39 
REMARK   14  A    between atoms: C17_39  and  O10_40 
ROOT
HETATM    1  C3  UNL     1      -7.167 -23.573  -4.869  1.00  0.00     0.190 C 
HETATM    2  C5  UNL     1      -8.233 -23.794  -4.071  1.00  0.00     0.067 C 
HETATM    3  C6  UNL     1      -9.627 -23.844  -4.561  1.00  0.00     0.194 C 
HETATM    4  C7  UNL     1     -10.252 -24.823  -3.577  1.00  0.00     0.119 C 
HETATM    5  C8  UNL     1     -11.750 -24.821  -3.657  1.00  0.00     0.052 C 
HETATM    6  C9  UNL     1      -9.749 -24.204  -2.272  1.00  0.00     0.141 C 
HETATM    7  C10 UNL     1     -10.476 -22.909  -2.089  1.00  0.00     0.054 C 
HETATM    8  C11 UNL     1      -8.263 -24.011  -2.601  1.00  0.00     0.198 C 
ENDROOT
BRANCH   8   9
HETATM    9  O6  UNL     1      -7.602 -25.192  -2.332  1.00  0.00    -0.364 OA
ATOM     10  H6  UNL     1      -7.503 -25.264  -1.390  1.00  0.00     0.213 HD
ENDBRANCH   8   9
BRANCH   8  11
HETATM   11  N1  UNL     1      -7.732 -22.844  -1.990  1.00  0.00    -0.338 N 
ATOM     12  H1  UNL     1      -7.924 -21.920  -2.376  1.00  0.00     0.161 HD
BRANCH  11  13
HETATM   13  C12 UNL     1      -6.929 -22.991  -0.835  1.00  0.00     0.375 C 
HETATM   14  O7  UNL     1      -5.564 -23.166  -1.064  1.00  0.00    -0.302 OA
HETATM   15  C13 UNL     1      -4.877 -22.689   0.070  1.00  0.00     0.209 C 
HETATM   16  C14 UNL     1      -5.013 -21.198   0.201  1.00  0.00     0.086 C 
HETATM   17  C15 UNL     1      -5.508 -23.339   1.244  1.00  0.00     0.129 C 
HETATM   18  N2  UNL     1      -5.128 -22.975   2.410  1.00  0.00    -0.305 N 
HETATM   19  C16 UNL     1      -6.524 -24.372   0.988  1.00  0.00     0.234 C 
ATOM     20  H2  UNL     1      -5.576 -23.436   3.202  1.00  0.00     0.186 HD
HETATM   21  O11 UNL     1      -7.437 -23.916   0.045  1.00  0.00    -0.299 OA
BRANCH  15  22
HETATM   22  O8  UNL     1      -3.544 -23.050  -0.075  1.00  0.00    -0.361 OA
ATOM     23  H8  UNL     1      -3.385 -23.780   0.512  1.00  0.00     0.213 HD
ENDBRANCH  15  22
BRANCH  18  24
HETATM   24  N3  UNL     1      -4.174 -22.022   2.705  1.00  0.00    -0.345 N 
ATOM     25  H32 UNL     1      -3.249 -22.383   2.939  1.00  0.00     0.176 HD
ATOM     26  H31 UNL     1      -4.304 -21.011   2.711  1.00  0.00     0.176 HD
ENDBRANCH  18  24
BRANCH  19  27
HETATM   27  O9  UNL     1      -5.845 -25.496   0.502  1.00  0.00    -0.359 OA
ATOM     28  H9  UNL     1      -6.252 -26.256   0.901  1.00  0.00     0.213 HD
ENDBRANCH  19  27
BRANCH  19  29
HETATM   29  C17 UNL     1      -7.297 -24.774   2.209  1.00  0.00     0.239 C 
BRANCH  29  30
HETATM   30  O10 UNL     1      -6.575 -25.591   3.066  1.00  0.00    -0.395 OA
ATOM     31  H10 UNL     1      -7.111 -26.251   3.491  1.00  0.00     0.209 HD
ENDBRANCH  29  30
ENDBRANCH  19  29
ENDBRANCH  11  13
ENDBRANCH   8  11
BRANCH   6  32
HETATM   32  O5  UNL     1      -9.962 -25.139  -1.290  1.00  0.00    -0.382 OA
ATOM     33  H5  UNL     1      -9.461 -24.856  -0.534  1.00  0.00     0.211 HD
ENDBRANCH   6  32
BRANCH   1  34
HETATM   34  O1  UNL     1      -5.919 -23.546  -4.318  1.00  0.00    -0.331 OA
BRANCH  34  35
HETATM   35  C2  UNL     1      -4.948 -22.561  -4.389  1.00  0.00     0.173 C 
HETATM   36  C1  UNL     1      -5.413 -21.179  -4.066  1.00  0.00     0.034 C 
ENDBRANCH  34  35
ENDBRANCH   1  34
BRANCH   1  37
HETATM   37  O2  UNL     1      -7.353 -23.378  -6.211  1.00  0.00    -0.335 OA
HETATM   38  C4  UNL     1      -6.461 -23.470  -7.259  1.00  0.00     0.212 C 
ENDBRANCH   1  37
BRANCH   3  39
HETATM   39  O3  UNL     1      -9.759 -24.271  -5.867  1.00  0.00    -0.388 OA
ATOM     40  H3  UNL     1     -10.115 -23.620  -6.460  1.00  0.00     0.210 HD
ENDBRANCH   3  39
BRANCH   4  41
HETATM   41  O4  UNL     1      -9.680 -26.064  -3.723  1.00  0.00    -0.384 OA
ATOM     42  H4  UNL     1     -10.348 -26.705  -3.931  1.00  0.00     0.210 HD
ENDBRANCH   4  41
TORSDOF 14
ENDMDL
MODEL 2
REMARK VINA RESULT: -5.642870638      2.155      6.179
REMARK  14 active torsions:
REMARK  status: ('A' for Active; 'I' for Inactive)
REMARK    1  A    between atoms: C2_2  and  O1_3 
REMARK    2  A    between atoms: O1_3  and  C3_4 
REMARK    3  A    between atoms: C3_4  and  O2_5 
REMARK    4  A    between atoms: C6_8  and  O3_9 
REMARK    5  A    between atoms: C7_11  and  O4_13 
REMARK    6  A    between atoms: C9_15  and  O5_17 
REMARK    7  A    between atoms: C11_19  and  O6_20 
REMARK    8  A    between atoms: C11_19  and  N1_22 
REMARK    9  A    between atoms: N1_22  and  C12_24 
REMARK   10  A    between atoms: C13_26  and  O8_28 
REMARK   11  A    between atoms: N2_31  and  N3_33 
REMARK   12  A    between atoms: C16_36  and  O9_37 
REMARK   13  A    between atoms: C16_36  and  C17_39 
REMARK   14  A    between atoms: C17_39  and  O10_40 
ROOT
HETATM    1  C3  UNL     1      -5.284 -23.165  -0.702  1.00  0.00     0.190 C 
HETATM    2  C5  UNL     1      -5.866 -22.538  -1.746  1.00  0.00     0.067 C 
HETATM    3  C6  UNL     1      -5.344 -21.294  -2.350  1.00  0.00     0.194 C 
HETATM    4  C7  UNL     1      -5.791 -21.457  -3.797  1.00  0.00     0.119 C 
HETATM    5  C8  UNL     1      -5.656 -20.181  -4.573  1.00  0.00     0.052 C 
HETATM    6  C9  UNL     1      -7.255 -21.828  -3.555  1.00  0.00     0.141 C 
HETATM    7  C10 UNL     1      -7.942 -20.602  -3.043  1.00  0.00     0.054 C 
HETATM    8  C11 UNL     1      -7.100 -22.915  -2.483  1.00  0.00     0.198 C 
ENDROOT
BRANCH   8   9
HETATM    9  O6  UNL     1      -6.868 -24.119  -3.116  1.00  0.00    -0.364 OA
ATOM     10  H6  UNL     1      -6.564 -23.933  -3.996  1.00  0.00     0.213 HD
ENDBRANCH   8   9
BRANCH   8  11
HETATM   11  N1  UNL     1      -8.173 -22.896  -1.551  1.00  0.00    -0.338 N 
ATOM     12  H1  UNL     1      -8.148 -22.278  -0.740  1.00  0.00     0.161 HD
BRANCH  11  13
HETATM   13  C12 UNL     1      -9.276 -23.753  -1.772  1.00  0.00     0.375 C 
HETATM   14  O7  UNL     1      -9.230 -24.981  -1.112  1.00  0.00    -0.302 OA
HETATM   15  C13 UNL     1     -10.558 -25.412  -0.919  1.00  0.00     0.209 C 
HETATM   16  C14 UNL     1     -11.280 -24.527   0.057  1.00  0.00     0.086 C 
HETATM   17  C15 UNL     1     -11.222 -25.320  -2.241  1.00  0.00     0.129 C 
HETATM   18  N2  UNL     1     -12.478 -25.552  -2.301  1.00  0.00    -0.305 N 
HETATM   19  C16 UNL     1     -10.386 -24.977  -3.403  1.00  0.00     0.234 C 
ATOM     20  H2  UNL     1     -12.914 -25.482  -3.221  1.00  0.00     0.186 HD
HETATM   21  O11 UNL     1      -9.583 -23.884  -3.104  1.00  0.00    -0.299 OA
BRANCH  15  22
HETATM   22  O8  UNL     1     -10.502 -26.718  -0.451  1.00  0.00    -0.361 OA
ATOM     23  H8  UNL     1     -11.229 -26.832   0.150  1.00  0.00     0.213 HD
ENDBRANCH  15  22
BRANCH  18  24
HETATM   24  N3  UNL     1     -13.305 -25.887  -1.248  1.00  0.00    -0.345 N 
ATOM     25  H32 UNL     1     -13.141 -25.377  -0.380  1.00  0.00     0.176 HD
ATOM     26  H31 UNL     1     -14.051 -26.582  -1.257  1.00  0.00     0.176 HD
ENDBRANCH  18  24
BRANCH  19  27
HETATM   27  O9  UNL     1      -9.595 -26.100  -3.676  1.00  0.00    -0.359 OA
ATOM     28  H9  UNL     1      -9.585 -26.205  -4.621  1.00  0.00     0.213 HD
ENDBRANCH  19  27
BRANCH  19  29
HETATM   29  C17 UNL     1     -11.173 -24.638  -4.634  1.00  0.00     0.239 C 
BRANCH  29  30
HETATM   30  O10 UNL     1     -10.464 -23.859  -5.536  1.00  0.00    -0.395 OA
ATOM     31  H10 UNL     1     -10.163 -24.346  -6.294  1.00  0.00     0.209 HD
ENDBRANCH  29  30
ENDBRANCH  19  29
ENDBRANCH  11  13
ENDBRANCH   8  11
BRANCH   6  32
HETATM   32  O5  UNL     1      -7.734 -22.315  -4.745  1.00  0.00    -0.382 OA
ATOM     33  H5  UNL     1      -8.320 -23.030  -4.528  1.00  0.00     0.211 HD
ENDBRANCH   6  32
BRANCH   1  34
HETATM   34  O1  UNL     1      -5.846 -24.311  -0.217  1.00  0.00    -0.331 OA
BRANCH  34  35
HETATM   35  C2  UNL     1      -6.441 -24.546   1.010  1.00  0.00     0.173 C 
HETATM   36  C1  UNL     1      -5.697 -25.475   1.914  1.00  0.00     0.034 C 
ENDBRANCH  34  35
ENDBRANCH   1  34
BRANCH   1  37
HETATM   37  O2  UNL     1      -4.147 -22.644  -0.147  1.00  0.00    -0.335 OA
HETATM   38  C4  UNL     1      -3.095 -23.270   0.489  1.00  0.00     0.212 C 
ENDBRANCH   1  37
BRANCH   3  39
HETATM   39  O3  UNL     1      -3.977 -21.138  -2.247  1.00  0.00    -0.388 OA
ATOM     40  H3  UNL     1      -3.704 -20.364  -1.768  1.00  0.00     0.210 HD
ENDBRANCH   3  39
BRANCH   4  41
HETATM   41  O4  UNL     1      -5.153 -22.533  -4.365  1.00  0.00    -0.384 OA
ATOM     42  H4  UNL     1      -5.609 -23.335  -4.140  1.00  0.00     0.210 HD
ENDBRANCH   4  41
TORSDOF 14
ENDMDL
MODEL 3
REMARK VINA RESULT: -5.262022440      2.642      5.563
REMARK  14 active torsions:
REMARK  status: ('A' for Active; 'I' for Inactive)
REMARK    1  A    between atoms: C2_2  and  O1_3 
REMARK    2  A    between atoms: O1_3  and  C3_4 
REMARK    3  A    between atoms: C3_4  and  O2_5 
REMARK    4  A    between atoms: C6_8  and  O3_9 
REMARK    5  A    between atoms: C7_11  and  O4_13 
REMARK    6  A    between atoms: C9_15  and  O5_17 
REMARK    7  A    between atoms: C11_19  and  O6_20 
REMARK    8  A    between atoms: C11_19  and  N1_22 
REMARK    9  A    between atoms: N1_22  and  C12_24 
REMARK   10  A    between atoms: C13_26  and  O8_28 
REMARK   11  A    between atoms: N2_31  and  N3_33 
REMARK   12  A    between atoms: C16_36  and  O9_37 
REMARK   13  A    between atoms: C16_36  and  C17_39 
REMARK   14  A    between atoms: C17_39  and  O10_40 
ROOT
HETATM    1  C3  UNL     1     -10.725 -24.598   0.317  1.00  0.00     0.190 C 
HETATM    2  C5  UNL     1     -10.902 -25.169  -0.893  1.00  0.00     0.067 C 
HETATM    3  C6  UNL     1     -11.818 -26.303  -1.139  1.00  0.00     0.194 C 
HETATM    4  C7  UNL     1     -12.234 -26.041  -2.580  1.00  0.00     0.119 C 
HETATM    5  C8  UNL     1     -12.929 -27.223  -3.187  1.00  0.00     0.052 C 
HETATM    6  C9  UNL     1     -10.850 -25.816  -3.192  1.00  0.00     0.141 C 
HETATM    7  C10 UNL     1     -10.148 -27.138  -3.194  1.00  0.00     0.054 C 
HETATM    8  C11 UNL     1     -10.250 -24.827  -2.184  1.00  0.00     0.198 C 
ENDROOT
BRANCH   8   9
HETATM    9  O6  UNL     1     -10.646 -23.553  -2.537  1.00  0.00    -0.364 OA
ATOM     10  H6  UNL     1     -10.145 -23.291  -3.300  1.00  0.00     0.213 HD
ENDBRANCH   8   9
BRANCH   8  11
HETATM   11  N1  UNL     1      -8.852 -25.022  -2.017  1.00  0.00    -0.338 N 
ATOM     12  H1  UNL     1      -8.497 -25.821  -1.492  1.00  0.00     0.161 HD
BRANCH  11  13
HETATM   13  C12 UNL     1      -7.965 -24.084  -2.593  1.00  0.00     0.375 C 
HETATM   14  O7  UNL     1      -8.052 -22.783  -2.096  1.00  0.00    -0.302 OA
HETATM   15  C13 UNL     1      -6.794 -22.173  -2.274  1.00  0.00     0.209 C 
HETATM   16  C14 UNL     1      -5.753 -22.807  -1.394  1.00  0.00     0.086 C 
HETATM   17  C15 UNL     1      -6.424 -22.387  -3.694  1.00  0.00     0.129 C 
HETATM   18  N2  UNL     1      -5.260 -22.019  -4.075  1.00  0.00    -0.305 N 
HETATM   19  C16 UNL     1      -7.430 -23.000  -4.576  1.00  0.00     0.234 C 
ATOM     20  H2  UNL     1      -5.028 -22.177  -5.055  1.00  0.00     0.186 HD
HETATM   21  O11 UNL     1      -7.975 -24.123  -3.967  1.00  0.00    -0.299 OA
BRANCH  15  22
HETATM   22  O8  UNL     1      -6.943 -20.827  -1.969  1.00  0.00    -0.361 OA
ATOM     23  H8  UNL     1      -6.672 -20.334  -2.735  1.00  0.00     0.213 HD
ENDBRANCH  15  22
BRANCH  18  24
HETATM   24  N3  UNL     1      -4.285 -21.431  -3.294  1.00  0.00    -0.345 N 
ATOM     25  H32 UNL     1      -4.549 -21.247  -2.326  1.00  0.00     0.176 HD
ATOM     26  H31 UNL     1      -3.345 -21.169  -3.589  1.00  0.00     0.176 HD
ENDBRANCH  18  24
BRANCH  19  27
HETATM   27  O9  UNL     1      -8.421 -22.035  -4.791  1.00  0.00    -0.359 OA
ATOM     28  H9  UNL     1      -9.250 -22.497  -4.830  1.00  0.00     0.213 HD
ENDBRANCH  19  27
BRANCH  19  29
HETATM   29  C17 UNL     1      -6.885 -23.428  -5.907  1.00  0.00     0.239 C 
BRANCH  29  30
HETATM   30  O10 UNL     1      -7.822 -24.082  -6.694  1.00  0.00    -0.395 OA
ATOM     31  H10 UNL     1      -8.650 -24.221  -6.250  1.00  0.00     0.209 HD
ENDBRANCH  29  30
ENDBRANCH  19  29
ENDBRANCH  11  13
ENDBRANCH   8  11
BRANCH   6  32
HETATM   32  O5  UNL     1     -11.057 -25.260  -4.429  1.00  0.00    -0.382 OA
ATOM     33  H5  UNL     1     -11.627 -25.856  -4.901  1.00  0.00     0.211 HD
ENDBRANCH   6  32
BRANCH   1  34
HETATM   34  O1  UNL     1      -9.856 -23.553   0.439  1.00  0.00    -0.331 OA
BRANCH  34  35
HETATM   35  C2  UNL     1      -8.832 -23.364   1.352  1.00  0.00     0.173 C 
HETATM   36  C1  UNL     1      -7.772 -24.417   1.352  1.00  0.00     0.034 C 
ENDBRANCH  34  35
ENDBRANCH   1  34
BRANCH   1  37
HETATM   37  O2  UNL     1     -11.416 -25.073   1.399  1.00  0.00    -0.335 OA
HETATM   38  C4  UNL     1     -11.001 -25.870   2.445  1.00  0.00     0.212 C 
ENDBRANCH   1  37
BRANCH   3  39
HETATM   39  O3  UNL     1     -12.904 -26.355  -0.290  1.00  0.00    -0.388 OA
ATOM     40  H3  UNL     1     -13.525 -27.047  -0.486  1.00  0.00     0.210 HD
ENDBRANCH   3  39
BRANCH   4  41
HETATM   41  O4  UNL     1     -12.943 -24.867  -2.656  1.00  0.00    -0.384 OA
ATOM     42  H4  UNL     1     -12.565 -24.303  -3.320  1.00  0.00     0.210 HD
ENDBRANCH   4  41
TORSDOF 14
ENDMDL
MODEL 4
REMARK VINA RESULT: -5.257376079      1.063      2.151
REMARK  14 active torsions:
REMARK  status: ('A' for Active; 'I' for Inactive)
REMARK    1  A    between atoms: C2_2  and  O1_3 
REMARK    2  A    between atoms: O1_3  and  C3_4 
REMARK    3  A    between atoms: C3_4  and  O2_5 
REMARK    4  A    between atoms: C6_8  and  O3_9 
REMARK    5  A    between atoms: C7_11  and  O4_13 
REMARK    6  A    between atoms: C9_15  and  O5_17 
REMARK    7  A    between atoms: C11_19  and  O6_20 
REMARK    8  A    between atoms: C11_19  and  N1_22 
REMARK    9  A    between atoms: N1_22  and  C12_24 
REMARK   10  A    between atoms: C13_26  and  O8_28 
REMARK   11  A    between atoms: N2_31  and  N3_33 
REMARK   12  A    between atoms: C16_36  and  O9_37 
REMARK   13  A    between atoms: C16_36  and  C17_39 
REMARK   14  A    between atoms: C17_39  and  O10_40 
ROOT
HETATM    1  C3  UNL     1      -7.131 -23.603  -4.944  1.00  0.00     0.190 C 
HETATM    2  C5  UNL     1      -8.213 -23.806  -4.164  1.00  0.00     0.067 C 
HETATM    3  C6  UNL     1      -9.593 -23.899  -4.685  1.00  0.00     0.194 C 
HETATM    4  C7  UNL     1     -10.228 -24.845  -3.674  1.00  0.00     0.119 C 
HETATM    5  C8  UNL     1     -11.723 -24.869  -3.791  1.00  0.00     0.052 C 
HETATM    6  C9  UNL     1      -9.767 -24.163  -2.385  1.00  0.00     0.141 C 
HETATM    7  C10 UNL     1     -10.516 -22.872  -2.276  1.00  0.00     0.054 C 
HETATM    8  C11 UNL     1      -8.276 -23.961  -2.687  1.00  0.00     0.198 C 
ENDROOT
BRANCH   8   9
HETATM    9  O6  UNL     1      -7.604 -25.119  -2.352  1.00  0.00    -0.364 OA
ATOM     10  H6  UNL     1      -8.173 -25.855  -2.547  1.00  0.00     0.213 HD
ENDBRANCH   8   9
BRANCH   8  11
HETATM   11  N1  UNL     1      -7.776 -22.761  -2.114  1.00  0.00    -0.338 N 
ATOM     12  H1  UNL     1      -7.934 -21.861  -2.568  1.00  0.00     0.161 HD
BRANCH  11  13
HETATM   13  C12 UNL     1      -7.055 -22.840  -0.900  1.00  0.00     0.375 C 
HETATM   14  O7  UNL     1      -7.523 -23.776   0.022  1.00  0.00    -0.302 OA
HETATM   15  C13 UNL     1      -6.432 -24.168   0.824  1.00  0.00     0.209 C 
HETATM   16  C14 UNL     1      -5.425 -24.948   0.027  1.00  0.00     0.086 C 
HETATM   17  C15 UNL     1      -5.802 -22.917   1.311  1.00  0.00     0.129 C 
HETATM   18  N2  UNL     1      -4.713 -23.010   1.973  1.00  0.00    -0.305 N 
HETATM   19  C16 UNL     1      -6.483 -21.647   1.008  1.00  0.00     0.234 C 
ATOM     20  H2  UNL     1      -4.298 -22.137   2.297  1.00  0.00     0.186 HD
HETATM   21  O11 UNL     1      -6.838 -21.607  -0.334  1.00  0.00    -0.299 OA
BRANCH  15  22
HETATM   22  O8  UNL     1      -6.941 -24.936   1.862  1.00  0.00    -0.361 OA
ATOM     23  H8  UNL     1      -6.200 -25.306   2.328  1.00  0.00     0.213 HD
ENDBRANCH  15  22
BRANCH  18  24
HETATM   24  N3  UNL     1      -4.040 -24.173   2.293  1.00  0.00    -0.345 N 
ATOM     25  H32 UNL     1      -4.244 -24.977   1.700  1.00  0.00     0.176 HD
ATOM     26  H31 UNL     1      -3.372 -24.300   3.053  1.00  0.00     0.176 HD
ENDBRANCH  18  24
BRANCH  19  27
HETATM   27  O9  UNL     1      -7.626 -21.599   1.814  1.00  0.00    -0.359 OA
ATOM     28  H9  UNL     1      -8.329 -21.259   1.273  1.00  0.00     0.213 HD
ENDBRANCH  19  27
BRANCH  19  29
HETATM   29  C17 UNL     1      -5.649 -20.433   1.292  1.00  0.00     0.239 C 
BRANCH  29  30
HETATM   30  O10 UNL     1      -4.501 -20.367   0.515  1.00  0.00    -0.395 OA
ATOM     31  H10 UNL     1      -3.704 -20.494   1.016  1.00  0.00     0.209 HD
ENDBRANCH  29  30
ENDBRANCH  19  29
ENDBRANCH  11  13
ENDBRANCH   8  11
BRANCH   6  32
HETATM   32  O5  UNL     1      -9.990 -25.058  -1.370  1.00  0.00    -0.382 OA
ATOM     33  H5  UNL     1     -10.805 -24.799  -0.956  1.00  0.00     0.211 HD
ENDBRANCH   6  32
BRANCH   1  34
HETATM   34  O1  UNL     1      -5.897 -23.533  -4.365  1.00  0.00    -0.331 OA
BRANCH  34  35
HETATM   35  C2  UNL     1      -5.017 -22.466  -4.298  1.00  0.00     0.173 C 
HETATM   36  C1  UNL     1      -5.650 -21.113  -4.318  1.00  0.00     0.034 C 
ENDBRANCH  34  35
ENDBRANCH   1  34
BRANCH   1  37
HETATM   37  O2  UNL     1      -7.286 -23.469  -6.298  1.00  0.00    -0.335 OA
HETATM   38  C4  UNL     1      -6.348 -23.470  -7.309  1.00  0.00     0.212 C 
ENDBRANCH   1  37
BRANCH   3  39
HETATM   39  O3  UNL     1      -9.687 -24.383  -5.973  1.00  0.00    -0.388 OA
ATOM     40  H3  UNL     1     -10.536 -24.256  -6.381  1.00  0.00     0.210 HD
ENDBRANCH   3  39
BRANCH   4  41
HETATM   41  O4  UNL     1      -9.635 -26.081  -3.754  1.00  0.00    -0.384 OA
ATOM     42  H4  UNL     1      -9.340 -26.354  -2.894  1.00  0.00     0.210 HD
ENDBRANCH   4  41
TORSDOF 14
ENDMDL
MODEL 5
REMARK VINA RESULT: -5.216374804      4.195      7.549
REMARK  14 active torsions:
REMARK  status: ('A' for Active; 'I' for Inactive)
REMARK    1  A    between atoms: C2_2  and  O1_3 
REMARK    2  A    between atoms: O1_3  and  C3_4 
REMARK    3  A    between atoms: C3_4  and  O2_5 
REMARK    4  A    between atoms: C6_8  and  O3_9 
REMARK    5  A    between atoms: C7_11  and  O4_13 
REMARK    6  A    between atoms: C9_15  and  O5_17 
REMARK    7  A    between atoms: C11_19  and  O6_20 
REMARK    8  A    between atoms: C11_19  and  N1_22 
REMARK    9  A    between atoms: N1_22  and  C12_24 
REMARK   10  A    between atoms: C13_26  and  O8_28 
REMARK   11  A    between atoms: N2_31  and  N3_33 
REMARK   12  A    between atoms: C16_36  and  O9_37 
REMARK   13  A    between atoms: C16_36  and  C17_39 
REMARK   14  A    between atoms: C17_39  and  O10_40 
ROOT
HETATM    1  C3  UNL     1     -16.265 -24.863  -2.206  1.00  0.00     0.190 C 
HETATM    2  C5  UNL     1     -15.328 -25.832  -2.257  1.00  0.00     0.067 C 
HETATM    3  C6  UNL     1     -15.550 -27.215  -1.785  1.00  0.00     0.194 C 
HETATM    4  C7  UNL     1     -14.632 -27.997  -2.713  1.00  0.00     0.119 C 
HETATM    5  C8  UNL     1     -14.430 -29.408  -2.245  1.00  0.00     0.052 C 
HETATM    6  C9  UNL     1     -13.363 -27.157  -2.559  1.00  0.00     0.141 C 
HETATM    7  C10 UNL     1     -12.847 -27.386  -1.174  1.00  0.00     0.054 C 
HETATM    8  C11 UNL     1     -13.931 -25.745  -2.757  1.00  0.00     0.198 C 
ENDROOT
BRANCH   8   9
HETATM    9  O6  UNL     1     -13.978 -25.482  -4.111  1.00  0.00    -0.364 OA
ATOM     10  H6  UNL     1     -13.101 -25.250  -4.395  1.00  0.00     0.213 HD
ENDBRANCH   8   9
BRANCH   8  11
HETATM   11  N1  UNL     1     -13.254 -24.785  -1.957  1.00  0.00    -0.338 N 
ATOM     12  H1  UNL     1     -13.758 -24.246  -1.252  1.00  0.00     0.161 HD
BRANCH  11  13
HETATM   13  C12 UNL     1     -11.868 -24.592  -2.159  1.00  0.00     0.375 C 
HETATM   14  O7  UNL     1     -11.266 -23.629  -1.350  1.00  0.00    -0.302 OA
HETATM   15  C13 UNL     1      -9.906 -23.974  -1.215  1.00  0.00     0.209 C 
HETATM   16  C14 UNL     1      -9.743 -25.238  -0.420  1.00  0.00     0.086 C 
HETATM   17  C15 UNL     1      -9.394 -24.195  -2.589  1.00  0.00     0.129 C 
HETATM   18  N2  UNL     1      -8.200 -24.634  -2.722  1.00  0.00    -0.305 N 
HETATM   19  C16 UNL     1     -10.293 -23.883  -3.711  1.00  0.00     0.234 C 
ATOM     20  H2  UNL     1      -7.870 -24.778  -3.677  1.00  0.00     0.186 HD
HETATM   21  O11 UNL     1     -11.545 -24.441  -3.486  1.00  0.00    -0.299 OA
BRANCH  15  22
HETATM   22  O8  UNL     1      -9.273 -22.911  -0.585  1.00  0.00    -0.361 OA
ATOM     23  H8  UNL     1      -8.489 -23.255  -0.172  1.00  0.00     0.213 HD
ENDBRANCH  15  22
BRANCH  18  24
HETATM   24  N3  UNL     1      -7.313 -24.931  -1.707  1.00  0.00    -0.345 N 
ATOM     25  H32 UNL     1      -7.670 -24.805  -0.760  1.00  0.00     0.176 HD
ATOM     26  H31 UNL     1      -6.354 -25.261  -1.814  1.00  0.00     0.176 HD
ENDBRANCH  18  24
BRANCH  19  27
HETATM   27  O9  UNL     1     -10.388 -22.487  -3.776  1.00  0.00    -0.359 OA
ATOM     28  H9  UNL     1     -11.196 -22.247  -3.337  1.00  0.00     0.213 HD
ENDBRANCH  19  27
BRANCH  19  29
HETATM   29  C17 UNL     1      -9.803 -24.389  -5.036  1.00  0.00     0.239 C 
BRANCH  29  30
HETATM   30  O10 UNL     1      -8.705 -23.689  -5.514  1.00  0.00    -0.395 OA
ATOM     31  H10 UNL     1      -8.730 -23.554  -6.454  1.00  0.00     0.209 HD
ENDBRANCH  29  30
ENDBRANCH  19  29
ENDBRANCH  11  13
ENDBRANCH   8  11
BRANCH   6  32
HETATM   32  O5  UNL     1     -12.518 -27.540  -3.570  1.00  0.00    -0.382 OA
ATOM     33  H5  UNL     1     -12.453 -28.487  -3.524  1.00  0.00     0.211 HD
ENDBRANCH   6  32
BRANCH   1  34
HETATM   34  O1  UNL     1     -15.960 -23.617  -2.670  1.00  0.00    -0.331 OA
BRANCH  34  35
HETATM   35  C2  UNL     1     -16.806 -22.600  -3.081  1.00  0.00     0.173 C 
HETATM   36  C1  UNL     1     -16.947 -22.443  -4.560  1.00  0.00     0.034 C 
ENDBRANCH  34  35
ENDBRANCH   1  34
BRANCH   1  37
HETATM   37  O2  UNL     1     -17.502 -25.143  -1.690  1.00  0.00    -0.335 OA
HETATM   38  C4  UNL     1     -18.086 -24.748  -0.504  1.00  0.00     0.212 C 
ENDBRANCH   1  37
BRANCH   3  39
HETATM   39  O3  UNL     1     -16.858 -27.645  -1.870  1.00  0.00    -0.388 OA
ATOM     40  H3  UNL     1     -17.150 -27.847  -2.752  1.00  0.00     0.210 HD
ENDBRANCH   3  39
BRANCH   4  41
HETATM   41  O4  UNL     1     -15.075 -27.890  -4.009  1.00  0.00    -0.384 OA
ATOM     42  H4  UNL     1     -14.479 -27.348  -4.511  1.00  0.00     0.210 HD
ENDBRANCH   4  41
TORSDOF 14
ENDMDL
