MODEL 1
REMARK VINA RESULT: -7.803365321      0.000      0.000
REMARK  9 active torsions:
REMARK  status: ('A' for Active; 'I' for Inactive)
REMARK    1  A    between atoms: C3_4  and  N2_5 
REMARK    2  A    between atoms: N2_5  and  C4_7 
REMARK    3  A    between atoms: C6_13  and  O1_14 
REMARK    4  A    between atoms: C8_17  and  C9_18 
REMARK    5  A    between atoms: C10_21  and  N5_22 
REMARK    6  A    between atoms: N5_22  and  N6_24 
REMARK       I    between atoms: N6_24  and  C11_26 
REMARK    7  A    between atoms: C11_26  and  C12_28 
REMARK    8  A    between atoms: C12_28  and  O5_29 
REMARK    9  A    between atoms: C12_28  and  N7_31 
ROOT
HETATM    1  N1  UNL     1      -9.226 -23.992  -5.619  1.00  0.00    -0.100 NA
HETATM    2  C1  UNL     1      -9.451 -24.388  -4.266  1.00  0.00     0.077 A 
HETATM    3  C2  UNL     1     -10.647 -24.933  -3.860  1.00  0.00     0.058 A 
HETATM    4  C3  UNL     1     -10.866 -25.324  -2.535  1.00  0.00     0.032 A 
HETATM    5  C7  UNL     1      -9.824 -25.135  -1.658  1.00  0.00     0.050 A 
HETATM    6  C8  UNL     1      -8.629 -24.587  -2.081  1.00  0.00     0.072 A 
HETATM    7  C10 UNL     1      -8.406 -24.200  -3.377  1.00  0.00     0.089 A 
ENDROOT
BRANCH   7   8
HETATM    8  N5  UNL     1      -7.178 -23.623  -3.775  1.00  0.00    -0.295 N 
ATOM      9  H5  UNL     1      -6.421 -24.256  -4.031  1.00  0.00     0.187 HD
BRANCH   8  10
HETATM   10  N6  UNL     1      -6.930 -22.282  -3.842  1.00  0.00    -0.262 N 
HETATM   11  C11 UNL     1      -6.570 -21.677  -5.108  1.00  0.00     0.312 C 
HETATM   12  O4  UNL     1      -6.503 -22.404  -6.129  1.00  0.00    -0.262 OA
ATOM     13  H6  UNL     1      -6.996 -21.707  -3.002  1.00  0.00     0.190 HD
BRANCH  11  14
HETATM   14  C12 UNL     1      -6.294 -20.265  -5.198  1.00  0.00     0.236 C 
BRANCH  14  15
HETATM   15  O5  UNL     1      -5.652 -19.792  -4.170  1.00  0.00    -0.341 OA
ATOM     16  H5  UNL     1      -5.965 -18.942  -3.883  1.00  0.00     0.219 HD
ENDBRANCH  14  15
BRANCH  14  17
HETATM   17  N7  UNL     1      -6.611 -19.355  -6.214  1.00  0.00    -0.184 N 
HETATM   18  N8  UNL     1      -6.533 -19.639  -7.490  1.00  0.00    -0.239 N 
HETATM   19  C13 UNL     1      -6.851 -18.693  -8.425  1.00  0.00     0.342 A 
ATOM     20  H8  UNL     1      -6.234 -20.568  -7.787  1.00  0.00     0.192 HD
HETATM   21  O6  UNL     1      -6.756 -19.029  -9.643  1.00  0.00    -0.245 OA
HETATM   22  N9  UNL     1      -7.249 -17.459  -8.079  1.00  0.00    -0.270 N 
HETATM   23  C14 UNL     1      -7.338 -17.140  -6.778  1.00  0.00     0.319 A 
ATOM     24  H9  UNL     1      -7.482 -16.772  -8.796  1.00  0.00     0.174 HD
HETATM   25  O7  UNL     1      -7.712 -15.976  -6.439  1.00  0.00    -0.262 OA
HETATM   26  C15 UNL     1      -7.018 -18.088  -5.838  1.00  0.00     0.337 A 
HETATM   27  O8  UNL     1      -7.106 -17.773  -4.620  1.00  0.00    -0.260 OA
ENDBRANCH  14  17
ENDBRANCH  11  14
ENDBRANCH   8  10
ENDBRANCH   7   8
BRANCH   6  28
HETATM   28  C9  UNL     1      -7.548 -24.416  -1.116  1.00  0.00     0.211 C 
HETATM   29  O2  UNL     1      -7.614 -23.604  -0.143  1.00  0.00    -0.644 OA
HETATM   30  O3  UNL     1      -6.374 -25.147  -1.220  1.00  0.00    -0.644 OA
ENDBRANCH   6  28
BRANCH   4  31
HETATM   31  N2  UNL     1     -12.107 -25.881  -2.168  1.00  0.00    -0.365 N 
ATOM     32  H2  UNL     1     -12.384 -25.879  -1.186  1.00  0.00     0.162 HD
BRANCH  31  33
HETATM   33  C4  UNL     1     -12.989 -26.449  -3.143  1.00  0.00     0.231 C 
HETATM   34  N3  UNL     1     -13.010 -27.899  -3.090  1.00  0.00    -0.361 N 
HETATM   35  C5  UNL     1     -14.212 -28.346  -3.181  1.00  0.00     0.175 C 
ATOM     36  H3  UNL     1     -12.182 -28.485  -2.994  1.00  0.00     0.162 HD
HETATM   37  N4  UNL     1     -15.131 -27.265  -3.304  1.00  0.00    -0.357 N 
HETATM   38  C6  UNL     1     -14.435 -26.107  -2.830  1.00  0.00     0.261 C 
ATOM     39  H4  UNL     1     -16.087 -27.307  -3.657  1.00  0.00     0.162 HD
BRANCH  38  40
HETATM   40  O1  UNL     1     -14.805 -24.931  -3.476  1.00  0.00    -0.373 OA
ATOM     41  H1  UNL     1     -14.816 -24.206  -2.861  1.00  0.00     0.212 HD
ENDBRANCH  38  40
ENDBRANCH  31  33
ENDBRANCH   4  31
TORSDOF 9
ENDMDL
MODEL 2
REMARK VINA RESULT: -7.760506918      2.875      8.971
REMARK  9 active torsions:
REMARK  status: ('A' for Active; 'I' for Inactive)
REMARK    1  A    between atoms: C3_4  and  N2_5 
REMARK    2  A    between atoms: N2_5  and  C4_7 
REMARK    3  A    between atoms: C6_13  and  O1_14 
REMARK    4  A    between atoms: C8_17  and  C9_18 
REMARK    5  A    between atoms: C10_21  and  N5_22 
REMARK    6  A    between atoms: N5_22  and  N6_24 
REMARK       I    between atoms: N6_24  and  C11_26 
REMARK    7  A    between atoms: C11_26  and  C12_28 
REMARK    8  A    between atoms: C12_28  and  O5_29 
REMARK    9  A    between atoms: C12_28  and  N7_31 
ROOT
HETATM    1  N1  UNL     1      -6.583 -18.797  -7.548  1.00  0.00    -0.100 NA
HETATM    2  C1  UNL     1      -6.958 -17.948  -6.462  1.00  0.00     0.077 A 
HETATM    3  C2  UNL     1      -7.663 -16.784  -6.663  1.00  0.00     0.058 A 
HETATM    4  C3  UNL     1      -8.031 -15.954  -5.599  1.00  0.00     0.032 A 
HETATM    5  C7  UNL     1      -7.653 -16.361  -4.341  1.00  0.00     0.050 A 
HETATM    6  C8  UNL     1      -6.946 -17.533  -4.157  1.00  0.00     0.072 A 
HETATM    7  C10 UNL     1      -6.579 -18.351  -5.194  1.00  0.00     0.089 A 
ENDROOT
BRANCH   7   8
HETATM    8  N5  UNL     1      -5.837 -19.535  -4.973  1.00  0.00    -0.295 N 
ATOM      9  H5  UNL     1      -4.847 -19.436  -4.749  1.00  0.00     0.187 HD
BRANCH   8  10
HETATM   10  N6  UNL     1      -6.346 -20.801  -5.039  1.00  0.00    -0.262 N 
HETATM   11  C11 UNL     1      -5.644 -21.894  -4.398  1.00  0.00     0.312 C 
HETATM   12  O4  UNL     1      -4.578 -21.651  -3.782  1.00  0.00    -0.262 OA
ATOM     13  H6  UNL     1      -7.218 -20.976  -5.538  1.00  0.00     0.190 HD
BRANCH  11  14
HETATM   14  C12 UNL     1      -6.159 -23.239  -4.463  1.00  0.00     0.236 C 
BRANCH  14  15
HETATM   15  O5  UNL     1      -5.446 -24.034  -5.206  1.00  0.00    -0.341 OA
ATOM     16  H5  UNL     1      -5.966 -24.625  -5.740  1.00  0.00     0.219 HD
ENDBRANCH  14  15
BRANCH  14  17
HETATM   17  N7  UNL     1      -7.290 -23.794  -3.852  1.00  0.00    -0.184 N 
HETATM   18  N8  UNL     1      -7.335 -24.135  -2.589  1.00  0.00    -0.239 N 
HETATM   19  C13 UNL     1      -8.474 -24.682  -2.066  1.00  0.00     0.342 A 
ATOM     20  H8  UNL     1      -6.519 -23.994  -1.994  1.00  0.00     0.192 HD
HETATM   21  O6  UNL     1      -8.456 -24.990  -0.836  1.00  0.00    -0.245 OA
HETATM   22  N9  UNL     1      -9.571 -24.886  -2.811  1.00  0.00    -0.270 N 
HETATM   23  C14 UNL     1      -9.553 -24.546  -4.110  1.00  0.00     0.319 A 
ATOM     24  H9  UNL     1     -10.409 -25.294  -2.397  1.00  0.00     0.174 HD
HETATM   25  O7  UNL     1     -10.583 -24.735  -4.825  1.00  0.00    -0.262 OA
HETATM   26  C15 UNL     1      -8.410 -23.998  -4.637  1.00  0.00     0.337 A 
HETATM   27  O8  UNL     1      -8.408 -23.684  -5.858  1.00  0.00    -0.260 OA
ENDBRANCH  14  17
ENDBRANCH  11  14
ENDBRANCH   8  10
ENDBRANCH   7   8
BRANCH   6  28
HETATM   28  C9  UNL     1      -6.576 -17.929  -2.803  1.00  0.00     0.211 C 
HETATM   29  O2  UNL     1      -5.998 -17.147  -1.988  1.00  0.00    -0.644 OA
HETATM   30  O3  UNL     1      -6.843 -19.207  -2.333  1.00  0.00    -0.644 OA
ENDBRANCH   6  28
BRANCH   4  31
HETATM   31  N2  UNL     1      -8.756 -14.773  -5.855  1.00  0.00    -0.365 N 
ATOM     32  H2  UNL     1      -8.394 -13.882  -5.514  1.00  0.00     0.162 HD
BRANCH  31  33
HETATM   33  C4  UNL     1      -9.990 -14.795  -6.583  1.00  0.00     0.231 C 
HETATM   34  N3  UNL     1     -11.059 -14.113  -5.879  1.00  0.00    -0.361 N 
HETATM   35  C5  UNL     1     -11.737 -13.370  -6.678  1.00  0.00     0.175 C 
ATOM     36  H3  UNL     1     -11.247 -14.211  -4.881  1.00  0.00     0.162 HD
HETATM   37  N4  UNL     1     -11.212 -13.461  -7.999  1.00  0.00    -0.357 N 
HETATM   38  C6  UNL     1      -9.882 -13.972  -7.855  1.00  0.00     0.261 C 
ATOM     39  H4  UNL     1     -11.686 -13.215  -8.868  1.00  0.00     0.162 HD
BRANCH  38  40
HETATM   40  O1  UNL     1      -9.474 -14.773  -8.917  1.00  0.00    -0.373 OA
ATOM     41  H1  UNL     1      -9.976 -15.580  -8.934  1.00  0.00     0.212 HD
ENDBRANCH  38  40
ENDBRANCH  31  33
ENDBRANCH   4  31
TORSDOF 9
ENDMDL
MODEL 3
REMARK VINA RESULT: -7.697449423      3.983      8.886
REMARK  9 active torsions:
REMARK  status: ('A' for Active; 'I' for Inactive)
REMARK    1  A    between atoms: C3_4  and  N2_5 
REMARK    2  A    between atoms: N2_5  and  C4_7 
REMARK    3  A    between atoms: C6_13  and  O1_14 
REMARK    4  A    between atoms: C8_17  and  C9_18 
REMARK    5  A    between atoms: C10_21  and  N5_22 
REMARK    6  A    between atoms: N5_22  and  N6_24 
REMARK       I    between atoms: N6_24  and  C11_26 
REMARK    7  A    between atoms: C11_26  and  C12_28 
REMARK    8  A    between atoms: C12_28  and  O5_29 
REMARK    9  A    between atoms: C12_28  and  N7_31 
ROOT
HETATM    1  N1  UNL     1      -6.034 -25.549  -1.407  1.00  0.00    -0.100 NA
HETATM    2  C1  UNL     1      -5.558 -24.206  -1.319  1.00  0.00     0.077 A 
HETATM    3  C2  UNL     1      -4.901 -23.742  -0.202  1.00  0.00     0.058 A 
HETATM    4  C3  UNL     1      -4.432 -22.428  -0.116  1.00  0.00     0.032 A 
HETATM    5  C7  UNL     1      -4.661 -21.620  -1.206  1.00  0.00     0.050 A 
HETATM    6  C8  UNL     1      -5.321 -22.101  -2.319  1.00  0.00     0.072 A 
HETATM    7  C10 UNL     1      -5.786 -23.388  -2.412  1.00  0.00     0.089 A 
ENDROOT
BRANCH   7   8
HETATM    8  N5  UNL     1      -6.476 -23.843  -3.558  1.00  0.00    -0.295 N 
ATOM      9  H5  UNL     1      -5.931 -24.001  -4.405  1.00  0.00     0.187 HD
BRANCH   8  10
HETATM   10  N6  UNL     1      -7.819 -24.088  -3.617  1.00  0.00    -0.262 N 
HETATM   11  C11 UNL     1      -8.512 -24.007  -4.887  1.00  0.00     0.312 C 
HETATM   12  O4  UNL     1      -7.856 -23.720  -5.917  1.00  0.00    -0.262 OA
ATOM     13  H6  UNL     1      -8.333 -24.327  -2.769  1.00  0.00     0.190 HD
BRANCH  11  14
HETATM   14  C12 UNL     1      -9.930 -24.252  -4.969  1.00  0.00     0.236 C 
BRANCH  14  15
HETATM   15  O5  UNL     1     -10.507 -23.647  -5.966  1.00  0.00    -0.341 OA
ATOM     16  H5  UNL     1     -11.137 -24.188  -6.427  1.00  0.00     0.219 HD
ENDBRANCH  14  15
BRANCH  14  17
HETATM   17  N7  UNL     1     -10.751 -25.033  -4.147  1.00  0.00    -0.184 N 
HETATM   18  N8  UNL     1     -11.092 -26.266  -4.426  1.00  0.00    -0.239 N 
HETATM   19  C13 UNL     1     -11.907 -26.962  -3.577  1.00  0.00     0.342 A 
ATOM     20  H8  UNL     1     -10.748 -26.708  -5.279  1.00  0.00     0.192 HD
HETATM   21  O6  UNL     1     -12.199 -28.152  -3.902  1.00  0.00    -0.245 OA
HETATM   22  N9  UNL     1     -12.382 -26.421  -2.444  1.00  0.00    -0.270 N 
HETATM   23  C14 UNL     1     -12.049 -25.158  -2.134  1.00  0.00     0.319 A 
ATOM     24  H9  UNL     1     -12.987 -26.962  -1.828  1.00  0.00     0.174 HD
HETATM   25  O7  UNL     1     -12.493 -24.635  -1.066  1.00  0.00    -0.262 OA
HETATM   26  C15 UNL     1     -11.232 -24.457  -2.985  1.00  0.00     0.337 A 
HETATM   27  O8  UNL     1     -10.929 -23.272  -2.679  1.00  0.00    -0.260 OA
ENDBRANCH  14  17
ENDBRANCH  11  14
ENDBRANCH   8  10
ENDBRANCH   7   8
BRANCH   6  28
HETATM   28  C9  UNL     1      -5.532 -21.210  -3.456  1.00  0.00     0.211 C 
HETATM   29  O2  UNL     1      -4.596 -20.539  -3.989  1.00  0.00    -0.644 OA
HETATM   30  O3  UNL     1      -6.790 -21.053  -4.018  1.00  0.00    -0.644 OA
ENDBRANCH   6  28
BRANCH   4  31
HETATM   31  N2  UNL     1      -3.762 -22.001   1.047  1.00  0.00    -0.365 N 
ATOM     32  H2  UNL     1      -4.028 -21.116   1.480  1.00  0.00     0.162 HD
BRANCH  31  33
HETATM   33  C4  UNL     1      -2.716 -22.782   1.638  1.00  0.00     0.231 C 
HETATM   34  N3  UNL     1      -1.508 -22.009   1.858  1.00  0.00    -0.361 N 
HETATM   35  C5  UNL     1      -1.006 -22.259   3.015  1.00  0.00     0.175 C 
ATOM     36  H3  UNL     1      -1.110 -21.355   1.185  1.00  0.00     0.162 HD
HETATM   37  N4  UNL     1      -1.806 -23.216   3.702  1.00  0.00    -0.357 N 
HETATM   38  C6  UNL     1      -3.082 -23.195   3.052  1.00  0.00     0.261 C 
ATOM     39  H4  UNL     1      -1.527 -23.797   4.492  1.00  0.00     0.162 HD
BRANCH  38  40
HETATM   40  O1  UNL     1      -3.725 -24.430   3.045  1.00  0.00    -0.373 OA
ATOM     41  H1  UNL     1      -4.662 -24.315   3.151  1.00  0.00     0.212 HD
ENDBRANCH  38  40
ENDBRANCH  31  33
ENDBRANCH   4  31
TORSDOF 9
ENDMDL
MODEL 4
REMARK VINA RESULT: -7.696232257      4.040      9.086
REMARK  9 active torsions:
REMARK  status: ('A' for Active; 'I' for Inactive)
REMARK    1  A    between atoms: C3_4  and  N2_5 
REMARK    2  A    between atoms: N2_5  and  C4_7 
REMARK    3  A    between atoms: C6_13  and  O1_14 
REMARK    4  A    between atoms: C8_17  and  C9_18 
REMARK    5  A    between atoms: C10_21  and  N5_22 
REMARK    6  A    between atoms: N5_22  and  N6_24 
REMARK       I    between atoms: N6_24  and  C11_26 
REMARK    7  A    between atoms: C11_26  and  C12_28 
REMARK    8  A    between atoms: C12_28  and  O5_29 
REMARK    9  A    between atoms: C12_28  and  N7_31 
ROOT
HETATM    1  N1  UNL     1      -5.967 -25.566  -1.298  1.00  0.00    -0.100 NA
HETATM    2  C1  UNL     1      -5.499 -24.220  -1.215  1.00  0.00     0.077 A 
HETATM    3  C2  UNL     1      -4.828 -23.753  -0.108  1.00  0.00     0.058 A 
HETATM    4  C3  UNL     1      -4.368 -22.435  -0.028  1.00  0.00     0.032 A 
HETATM    5  C7  UNL     1      -4.621 -21.628  -1.112  1.00  0.00     0.050 A 
HETATM    6  C8  UNL     1      -5.295 -22.112  -2.216  1.00  0.00     0.072 A 
HETATM    7  C10 UNL     1      -5.751 -23.402  -2.302  1.00  0.00     0.089 A 
ENDROOT
BRANCH   7   8
HETATM    8  N5  UNL     1      -6.457 -23.861  -3.438  1.00  0.00    -0.295 N 
ATOM      9  H5  UNL     1      -5.919 -24.042  -4.286  1.00  0.00     0.187 HD
BRANCH   8  10
HETATM   10  N6  UNL     1      -7.804 -24.080  -3.487  1.00  0.00    -0.262 N 
HETATM   11  C11 UNL     1      -8.514 -23.936  -4.741  1.00  0.00     0.312 C 
HETATM   12  O4  UNL     1      -7.867 -23.619  -5.770  1.00  0.00    -0.262 OA
ATOM     13  H6  UNL     1      -8.310 -24.345  -2.641  1.00  0.00     0.190 HD
BRANCH  11  14
HETATM   14  C12 UNL     1      -9.937 -24.154  -4.812  1.00  0.00     0.236 C 
BRANCH  14  15
HETATM   15  O5  UNL     1     -10.473 -23.737  -5.922  1.00  0.00    -0.341 OA
ATOM     16  H5  UNL     1      -9.973 -23.966  -6.697  1.00  0.00     0.219 HD
ENDBRANCH  14  15
BRANCH  14  17
HETATM   17  N7  UNL     1     -10.799 -24.737  -3.877  1.00  0.00    -0.184 N 
HETATM   18  N8  UNL     1     -11.193 -24.137  -2.782  1.00  0.00    -0.239 N 
HETATM   19  C13 UNL     1     -12.030 -24.776  -1.911  1.00  0.00     0.342 A 
ATOM     20  H8  UNL     1     -10.874 -23.190  -2.579  1.00  0.00     0.192 HD
HETATM   21  O6  UNL     1     -12.376 -24.141  -0.869  1.00  0.00    -0.245 OA
HETATM   22  N9  UNL     1     -12.475 -26.022  -2.138  1.00  0.00    -0.270 N 
HETATM   23  C14 UNL     1     -12.087 -26.662  -3.252  1.00  0.00     0.319 A 
ATOM     24  H9  UNL     1     -13.100 -26.477  -1.472  1.00  0.00     0.174 HD
HETATM   25  O7  UNL     1     -12.500 -27.841  -3.477  1.00  0.00    -0.262 OA
HETATM   26  C15 UNL     1     -11.246 -26.022  -4.128  1.00  0.00     0.337 A 
HETATM   27  O8  UNL     1     -10.890 -26.637  -5.170  1.00  0.00    -0.260 OA
ENDBRANCH  14  17
ENDBRANCH  11  14
ENDBRANCH   8  10
ENDBRANCH   7   8
BRANCH   6  28
HETATM   28  C9  UNL     1      -5.531 -21.221  -3.347  1.00  0.00     0.211 C 
HETATM   29  O2  UNL     1      -4.601 -20.580  -3.926  1.00  0.00    -0.644 OA
HETATM   30  O3  UNL     1      -6.808 -21.031  -3.853  1.00  0.00    -0.644 OA
ENDBRANCH   6  28
BRANCH   4  31
HETATM   31  N2  UNL     1      -3.683 -22.005   1.126  1.00  0.00    -0.365 N 
ATOM     32  H2  UNL     1      -3.944 -21.120   1.560  1.00  0.00     0.162 HD
BRANCH  31  33
HETATM   33  C4  UNL     1      -2.627 -22.783   1.703  1.00  0.00     0.231 C 
HETATM   34  N3  UNL     1      -1.410 -22.014   1.883  1.00  0.00    -0.361 N 
HETATM   35  C5  UNL     1      -0.882 -22.249   3.031  1.00  0.00     0.175 C 
ATOM     36  H3  UNL     1      -1.025 -21.372   1.191  1.00  0.00     0.162 HD
HETATM   37  N4  UNL     1      -1.670 -23.192   3.751  1.00  0.00    -0.357 N 
HETATM   38  C6  UNL     1      -2.961 -23.173   3.132  1.00  0.00     0.261 C 
ATOM     39  H4  UNL     1      -1.376 -23.762   4.544  1.00  0.00     0.162 HD
BRANCH  38  40
HETATM   40  O1  UNL     1      -3.610 -24.404   3.158  1.00  0.00    -0.373 OA
ATOM     41  H1  UNL     1      -4.152 -24.475   3.935  1.00  0.00     0.212 HD
ENDBRANCH  38  40
ENDBRANCH  31  33
ENDBRANCH   4  31
TORSDOF 9
ENDMDL
MODEL 5
REMARK VINA RESULT: -7.654511940      2.919      9.275
REMARK  9 active torsions:
REMARK  status: ('A' for Active; 'I' for Inactive)
REMARK    1  A    between atoms: C3_4  and  N2_5 
REMARK    2  A    between atoms: N2_5  and  C4_7 
REMARK    3  A    between atoms: C6_13  and  O1_14 
REMARK    4  A    between atoms: C8_17  and  C9_18 
REMARK    5  A    between atoms: C10_21  and  N5_22 
REMARK    6  A    between atoms: N5_22  and  N6_24 
REMARK       I    between atoms: N6_24  and  C11_26 
REMARK    7  A    between atoms: C11_26  and  C12_28 
REMARK    8  A    between atoms: C12_28  and  O5_29 
REMARK    9  A    between atoms: C12_28  and  N7_31 
ROOT
HETATM    1  N1  UNL     1      -6.730 -18.024  -2.951  1.00  0.00    -0.100 NA
HETATM    2  C1  UNL     1      -7.084 -17.554  -4.252  1.00  0.00     0.077 A 
HETATM    3  C2  UNL     1      -7.802 -16.394  -4.432  1.00  0.00     0.058 A 
HETATM    4  C3  UNL     1      -8.147 -15.932  -5.706  1.00  0.00     0.032 A 
HETATM    5  C7  UNL     1      -7.733 -16.697  -6.771  1.00  0.00     0.050 A 
HETATM    6  C8  UNL     1      -7.013 -17.859  -6.573  1.00  0.00     0.072 A 
HETATM    7  C10 UNL     1      -6.671 -18.320  -5.328  1.00  0.00     0.089 A 
ENDROOT
BRANCH   7   8
HETATM    8  N5  UNL     1      -5.951 -19.524  -5.158  1.00  0.00    -0.295 N 
ATOM      9  H5  UNL     1      -4.932 -19.468  -5.157  1.00  0.00     0.187 HD
BRANCH   8  10
HETATM   10  N6  UNL     1      -6.515 -20.757  -4.996  1.00  0.00    -0.262 N 
HETATM   11  C11 UNL     1      -5.761 -21.818  -4.359  1.00  0.00     0.312 C 
HETATM   12  O4  UNL     1      -4.596 -21.577  -3.958  1.00  0.00    -0.262 OA
ATOM     13  H6  UNL     1      -7.466 -20.932  -5.322  1.00  0.00     0.190 HD
BRANCH  11  14
HETATM   14  C12 UNL     1      -6.335 -23.129  -4.187  1.00  0.00     0.236 C 
BRANCH  14  15
HETATM   15  O5  UNL     1      -5.775 -24.044  -4.923  1.00  0.00    -0.341 OA
ATOM     16  H5  UNL     1      -6.354 -24.411  -5.582  1.00  0.00     0.219 HD
ENDBRANCH  14  15
BRANCH  14  17
HETATM   17  N7  UNL     1      -7.383 -23.544  -3.357  1.00  0.00    -0.184 N 
HETATM   18  N8  UNL     1      -7.206 -24.010  -2.147  1.00  0.00    -0.239 N 
HETATM   19  C13 UNL     1      -8.281 -24.405  -1.399  1.00  0.00     0.342 A 
ATOM     20  H8  UNL     1      -6.265 -24.079  -1.760  1.00  0.00     0.192 HD
HETATM   21  O6  UNL     1      -8.044 -24.847  -0.234  1.00  0.00    -0.245 OA
HETATM   22  N9  UNL     1      -9.537 -24.332  -1.867  1.00  0.00    -0.270 N 
HETATM   23  C14 UNL     1      -9.748 -23.859  -3.105  1.00  0.00     0.319 A 
ATOM     24  H9  UNL     1     -10.321 -24.633  -1.288  1.00  0.00     0.174 HD
HETATM   25  O7  UNL     1     -10.930 -23.786  -3.558  1.00  0.00    -0.262 OA
HETATM   26  C15 UNL     1      -8.670 -23.462  -3.858  1.00  0.00     0.337 A 
HETATM   27  O8  UNL     1      -8.884 -23.020  -5.019  1.00  0.00    -0.260 OA
ENDBRANCH  14  17
ENDBRANCH  11  14
ENDBRANCH   8  10
ENDBRANCH   7   8
BRANCH   6  28
HETATM   28  C9  UNL     1      -6.585 -18.633  -7.734  1.00  0.00     0.211 C 
HETATM   29  O2  UNL     1      -6.052 -18.104  -8.758  1.00  0.00    -0.644 OA
HETATM   30  O3  UNL     1      -6.744 -20.010  -7.774  1.00  0.00    -0.644 OA
ENDBRANCH   6  28
BRANCH   4  31
HETATM   31  N2  UNL     1      -8.880 -14.736  -5.840  1.00  0.00    -0.365 N 
ATOM     32  H2  UNL     1      -8.534 -13.887  -5.393  1.00  0.00     0.162 HD
BRANCH  31  33
HETATM   33  C4  UNL     1     -10.100 -14.686  -6.589  1.00  0.00     0.231 C 
HETATM   34  N3  UNL     1     -11.131 -13.920  -5.914  1.00  0.00    -0.361 N 
HETATM   35  C5  UNL     1     -11.743 -13.146  -6.737  1.00  0.00     0.175 C 
ATOM     36  H3  UNL     1     -11.341 -13.987  -4.918  1.00  0.00     0.162 HD
HETATM   37  N4  UNL     1     -11.205 -13.296  -8.047  1.00  0.00    -0.357 N 
HETATM   38  C6  UNL     1      -9.916 -13.894  -7.871  1.00  0.00     0.261 C 
ATOM     39  H4  UNL     1     -11.646 -13.033  -8.927  1.00  0.00     0.162 HD
BRANCH  38  40
HETATM   40  O1  UNL     1      -9.547 -14.740  -8.913  1.00  0.00    -0.373 OA
ATOM     41  H1  UNL     1      -8.601 -14.756  -9.006  1.00  0.00     0.212 HD
ENDBRANCH  38  40
ENDBRANCH  31  33
ENDBRANCH   4  31
TORSDOF 9
ENDMDL
