MODEL 1
REMARK VINA RESULT: -5.901510233      0.000      0.000
REMARK  1 active torsions:
REMARK  status: ('A' for Active; 'I' for Inactive)
REMARK       I    between atoms: N1_2  and  C2_4 
REMARK       I    between atoms: C2_4  and  N3_8 
REMARK    1  A    between atoms: N3_8  and  C3_10 
ROOT
HETATM    1  C1  UNL     1      -4.108  18.127  -7.989  1.00  0.00     0.165 C 
HETATM    2  N1  UNL     1      -4.970  19.006  -8.756  1.00  0.00    -0.231 N 
ATOM      3  H1  UNL     1      -5.234  18.792  -9.718  1.00  0.00     0.177 HD
HETATM    4  C2  UNL     1      -5.426  20.170  -8.105  1.00  0.00     0.669 C 
HETATM    5  N2  UNL     1      -6.636  20.228  -7.712  1.00  0.00    -0.235 N 
ATOM      6  H21 UNL     1      -6.966  21.070  -7.240  1.00  0.00     0.174 HD
ATOM      7  H22 UNL     1      -7.287  19.456  -7.853  1.00  0.00     0.174 HD
HETATM    8  N3  UNL     1      -4.526  21.235  -7.910  1.00  0.00    -0.198 N 
ATOM      9  H3  UNL     1      -3.705  21.066  -7.328  1.00  0.00     0.180 HD
ENDROOT
BRANCH   8  10
HETATM   10  C3  UNL     1      -4.693  22.547  -8.480  1.00  0.00     0.262 C 
HETATM   11  C4  UNL     1      -3.769  23.569  -7.854  1.00  0.00     0.073 C 
HETATM   12  C5  UNL     1      -3.790  24.629  -8.937  1.00  0.00     0.124 C 
HETATM   13  N4  UNL     1      -4.415  23.942 -10.063  1.00  0.00    -0.199 NA
HETATM   14  C6  UNL     1      -3.748  24.343 -11.276  1.00  0.00     0.143 C 
HETATM   15  O1  UNL     1      -4.296  22.619  -9.809  1.00  0.00    -0.277 OA
ENDBRANCH   8  10
TORSDOF 1
ENDMDL
MODEL 2
REMARK VINA RESULT: -5.895852088      0.994      1.091
REMARK  1 active torsions:
REMARK  status: ('A' for Active; 'I' for Inactive)
REMARK       I    between atoms: N1_2  and  C2_4 
REMARK       I    between atoms: C2_4  and  N3_8 
REMARK    1  A    between atoms: N3_8  and  C3_10 
ROOT
HETATM    1  C1  UNL     1      -3.600  18.244  -6.379  1.00  0.00     0.165 C 
HETATM    2  N1  UNL     1      -3.646  18.939  -7.652  1.00  0.00    -0.231 N 
ATOM      3  H1  UNL     1      -2.892  18.858  -8.334  1.00  0.00     0.177 HD
HETATM    4  C2  UNL     1      -4.784  19.731  -7.898  1.00  0.00     0.669 C 
HETATM    5  N2  UNL     1      -5.666  19.313  -8.718  1.00  0.00    -0.235 N 
ATOM      6  H21 UNL     1      -6.490  19.887  -8.896  1.00  0.00     0.174 HD
ATOM      7  H22 UNL     1      -5.573  18.421  -9.202  1.00  0.00     0.174 HD
HETATM    8  N3  UNL     1      -4.912  20.963  -7.230  1.00  0.00    -0.198 N 
ATOM      9  H3  UNL     1      -4.974  20.951  -6.212  1.00  0.00     0.180 HD
ENDROOT
BRANCH   8  10
HETATM   10  C3  UNL     1      -4.961  22.241  -7.893  1.00  0.00     0.262 C 
HETATM   11  C4  UNL     1      -4.021  23.250  -7.271  1.00  0.00     0.073 C 
HETATM   12  C5  UNL     1      -3.906  24.233  -8.419  1.00  0.00     0.124 C 
HETATM   13  N4  UNL     1      -4.496  23.507  -9.539  1.00  0.00    -0.199 NA
HETATM   14  C6  UNL     1      -3.728  23.787 -10.725  1.00  0.00     0.143 C 
HETATM   15  O1  UNL     1      -4.474  22.200  -9.193  1.00  0.00    -0.277 OA
ENDBRANCH   8  10
TORSDOF 1
ENDMDL
MODEL 3
REMARK VINA RESULT: -5.886285093      1.258      1.319
REMARK  1 active torsions:
REMARK  status: ('A' for Active; 'I' for Inactive)
REMARK       I    between atoms: N1_2  and  C2_4 
REMARK       I    between atoms: C2_4  and  N3_8 
REMARK    1  A    between atoms: N3_8  and  C3_10 
ROOT
HETATM    1  C1  UNL     1      -4.261  16.845  -8.397  1.00  0.00     0.165 C 
HETATM    2  N1  UNL     1      -5.322  17.834  -8.353  1.00  0.00    -0.231 N 
ATOM      3  H1  UNL     1      -6.190  17.712  -8.874  1.00  0.00     0.177 HD
HETATM    4  C2  UNL     1      -5.092  18.972  -7.554  1.00  0.00     0.669 C 
HETATM    5  N2  UNL     1      -5.694  19.077  -6.436  1.00  0.00    -0.235 N 
ATOM      6  H21 UNL     1      -5.527  19.901  -5.857  1.00  0.00     0.174 HD
ATOM      7  H22 UNL     1      -6.340  18.363  -6.101  1.00  0.00     0.174 HD
HETATM    8  N3  UNL     1      -4.201  19.958  -8.017  1.00  0.00    -0.198 N 
ATOM      9  H3  UNL     1      -3.226  19.693  -8.159  1.00  0.00     0.180 HD
ENDROOT
BRANCH   8  10
HETATM   10  C3  UNL     1      -4.579  21.318  -8.302  1.00  0.00     0.262 C 
HETATM   11  C4  UNL     1      -3.984  22.301  -7.317  1.00  0.00     0.073 C 
HETATM   12  C5  UNL     1      -4.105  23.577  -8.127  1.00  0.00     0.124 C 
HETATM   13  N4  UNL     1      -4.423  23.092  -9.466  1.00  0.00    -0.199 NA
HETATM   14  C6  UNL     1      -3.719  23.901 -10.428  1.00  0.00     0.143 C 
HETATM   15  O1  UNL     1      -4.050  21.793  -9.495  1.00  0.00    -0.277 OA
ENDBRANCH   8  10
TORSDOF 1
ENDMDL
MODEL 4
REMARK VINA RESULT: -5.886018724      2.658      5.194
REMARK  1 active torsions:
REMARK  status: ('A' for Active; 'I' for Inactive)
REMARK       I    between atoms: N1_2  and  C2_4 
REMARK       I    between atoms: C2_4  and  N3_8 
REMARK    1  A    between atoms: N3_8  and  C3_10 
ROOT
HETATM    1  C1  UNL     1      -3.011  23.349 -12.476  1.00  0.00     0.165 C 
HETATM    2  N1  UNL     1      -2.802  21.927 -12.273  1.00  0.00    -0.231 N 
ATOM      3  H1  UNL     1      -3.102  21.238 -12.962  1.00  0.00     0.177 HD
HETATM    4  C2  UNL     1      -2.163  21.548 -11.076  1.00  0.00     0.669 C 
HETATM    5  N2  UNL     1      -0.949  21.163 -11.116  1.00  0.00    -0.235 N 
ATOM      6  H21 UNL     1      -0.486  20.889 -10.249  1.00  0.00     0.174 HD
ATOM      7  H22 UNL     1      -0.424  21.121 -11.989  1.00  0.00     0.174 HD
HETATM    8  N3  UNL     1      -2.887  21.606  -9.871  1.00  0.00    -0.198 N 
ATOM      9  H3  UNL     1      -3.227  22.516  -9.561  1.00  0.00     0.180 HD
ENDROOT
BRANCH   8  10
HETATM   10  C3  UNL     1      -3.180  20.460  -9.050  1.00  0.00     0.262 C 
HETATM   11  C4  UNL     1      -4.557  20.535  -8.426  1.00  0.00     0.073 C 
HETATM   12  C5  UNL     1      -4.766  19.070  -8.094  1.00  0.00     0.124 C 
HETATM   13  N4  UNL     1      -3.692  18.407  -8.826  1.00  0.00    -0.199 NA
HETATM   14  C6  UNL     1      -4.201  17.176  -9.375  1.00  0.00     0.143 C 
HETATM   15  O1  UNL     1      -3.288  19.281  -9.775  1.00  0.00    -0.277 OA
ENDBRANCH   8  10
TORSDOF 1
ENDMDL
MODEL 5
REMARK VINA RESULT: -5.681195829      1.945      2.386
REMARK  1 active torsions:
REMARK  status: ('A' for Active; 'I' for Inactive)
REMARK       I    between atoms: N1_2  and  C2_4 
REMARK       I    between atoms: C2_4  and  N3_8 
REMARK    1  A    between atoms: N3_8  and  C3_10 
ROOT
HETATM    1  C1  UNL     1      -2.952  20.122  -4.523  1.00  0.00     0.165 C 
HETATM    2  N1  UNL     1      -2.442  20.903  -5.634  1.00  0.00    -0.231 N 
ATOM      3  H1  UNL     1      -1.591  21.459  -5.553  1.00  0.00     0.177 HD
HETATM    4  C2  UNL     1      -3.181  20.854  -6.832  1.00  0.00     0.669 C 
HETATM    5  N2  UNL     1      -2.730  20.178  -7.813  1.00  0.00    -0.235 N 
ATOM      6  H21 UNL     1      -3.265  20.142  -8.681  1.00  0.00     0.174 HD
ATOM      7  H22 UNL     1      -1.848  19.670  -7.759  1.00  0.00     0.174 HD
HETATM    8  N3  UNL     1      -4.400  21.555  -6.908  1.00  0.00    -0.198 N 
ATOM      9  H3  UNL     1      -5.150  21.280  -6.274  1.00  0.00     0.180 HD
ENDROOT
BRANCH   8  10
HETATM   10  C3  UNL     1      -4.652  22.637  -7.824  1.00  0.00     0.262 C 
HETATM   11  C4  UNL     1      -3.868  23.883  -7.474  1.00  0.00     0.073 C 
HETATM   12  C5  UNL     1      -3.921  24.601  -8.809  1.00  0.00     0.124 C 
HETATM   13  N4  UNL     1      -4.410  23.571  -9.720  1.00  0.00    -0.199 NA
HETATM   14  C6  UNL     1      -3.712  23.697 -10.974  1.00  0.00     0.143 C 
HETATM   15  O1  UNL     1      -4.184  22.388  -9.107  1.00  0.00    -0.277 OA
ENDBRANCH   8  10
TORSDOF 1
ENDMDL
