MODEL 1
REMARK VINA RESULT: -6.038091727      0.000      0.000
REMARK  3 active torsions:
REMARK  status: ('A' for Active; 'I' for Inactive)
REMARK       I    between atoms: N1_2  and  C2_4 
REMARK       I    between atoms: C2_4  and  N2_5 
REMARK    1  A    between atoms: N3_7  and  N4_9 
REMARK    2  A    between atoms: C3_11  and  O1_13 
REMARK    3  A    between atoms: N5_15  and  N6_17 
ROOT
HETATM    1  C1  UNL     1      -3.574  23.397  -6.569  1.00  0.00     0.165 C 
HETATM    2  N1  UNL     1      -4.364  22.327  -5.992  1.00  0.00    -0.228 N 
ATOM      3  H1  UNL     1      -5.303  22.504  -5.634  1.00  0.00     0.177 HD
HETATM    4  C2  UNL     1      -3.797  21.031  -5.940  1.00  0.00     0.709 C 
HETATM    5  N2  UNL     1      -4.169  20.088  -6.934  1.00  0.00    -0.116 N 
ATOM      6  H2  UNL     1      -4.008  20.266  -7.925  1.00  0.00     0.207 HD
HETATM    7  N3  UNL     1      -4.712  19.014  -6.530  1.00  0.00    -0.227 N 
ATOM      8  H3  UNL     1      -4.873  18.839  -5.538  1.00  0.00     0.209 HD
HETATM    9  N5  UNL     1      -2.974  20.720  -5.022  1.00  0.00    -0.117 N 
ATOM     10  H5  UNL     1      -2.742  21.436  -4.333  1.00  0.00     0.207 HD
ENDROOT
BRANCH   9  11
HETATM   11  N6  UNL     1      -2.367  19.481  -4.887  1.00  0.00    -0.235 N 
HETATM   12  N7  UNL     1      -1.308  19.244  -5.519  1.00  0.00    -0.330 N 
ATOM     13  H72 UNL     1      -0.911  19.966  -6.121  1.00  0.00     0.178 HD
ATOM     14  H71 UNL     1      -0.862  18.333  -5.420  1.00  0.00     0.178 HD
ATOM     15  H6  UNL     1      -2.777  18.770  -4.282  1.00  0.00     0.208 HD
ENDBRANCH   9  11
BRANCH   7  16
HETATM   16  N4  UNL     1      -5.085  18.068  -7.516  1.00  0.00    -0.269 N 
HETATM   17  C3  UNL     1      -4.199  17.276  -8.022  1.00  0.00     0.127 C 
HETATM   18  C4  UNL     1      -4.620  16.303  -9.045  1.00  0.00     0.098 C 
ATOM     19  H4  UNL     1      -6.055  18.013  -7.828  1.00  0.00     0.190 HD
BRANCH  17  20
HETATM   20  O1  UNL     1      -2.880  17.363  -7.587  1.00  0.00    -0.349 OA
ATOM     21  H1  UNL     1      -2.410  16.569  -7.361  1.00  0.00     0.219 HD
ENDBRANCH  17  20
ENDBRANCH   7  16
TORSDOF 3
ENDMDL
MODEL 2
REMARK VINA RESULT: -5.982838407      3.427      5.935
REMARK  3 active torsions:
REMARK  status: ('A' for Active; 'I' for Inactive)
REMARK       I    between atoms: N1_2  and  C2_4 
REMARK       I    between atoms: C2_4  and  N2_5 
REMARK    1  A    between atoms: N3_7  and  N4_9 
REMARK    2  A    between atoms: C3_11  and  O1_13 
REMARK    3  A    between atoms: N5_15  and  N6_17 
ROOT
HETATM    1  C1  UNL     1      -1.858  19.419  -5.625  1.00  0.00     0.165 C 
HETATM    2  N1  UNL     1      -2.876  20.313  -5.107  1.00  0.00    -0.228 N 
ATOM      3  H1  UNL     1      -2.983  20.460  -4.103  1.00  0.00     0.177 HD
HETATM    4  C2  UNL     1      -3.717  20.977  -6.033  1.00  0.00     0.709 C 
HETATM    5  N2  UNL     1      -3.422  22.323  -6.372  1.00  0.00    -0.116 N 
ATOM      6  H2  UNL     1      -2.530  22.586  -6.788  1.00  0.00     0.207 HD
HETATM    7  N3  UNL     1      -4.324  23.184  -6.131  1.00  0.00    -0.227 N 
ATOM      8  H3  UNL     1      -5.216  22.919  -5.713  1.00  0.00     0.209 HD
HETATM    9  N5  UNL     1      -4.714  20.377  -6.549  1.00  0.00    -0.117 N 
ATOM     10  H5  UNL     1      -4.879  19.410  -6.270  1.00  0.00     0.207 HD
ENDROOT
BRANCH   9  11
HETATM   11  N6  UNL     1      -5.592  20.940  -7.461  1.00  0.00    -0.235 N 
HETATM   12  N7  UNL     1      -6.622  20.303  -7.795  1.00  0.00    -0.330 N 
ATOM     13  H72 UNL     1      -6.796  19.383  -7.389  1.00  0.00     0.178 HD
ATOM     14  H71 UNL     1      -7.267  20.717  -8.467  1.00  0.00     0.178 HD
ATOM     15  H6  UNL     1      -5.403  21.860  -7.858  1.00  0.00     0.208 HD
ENDBRANCH   9  11
BRANCH   7  16
HETATM   16  N4  UNL     1      -4.038  24.531  -6.467  1.00  0.00    -0.269 N 
HETATM   17  C3  UNL     1      -4.469  25.490  -5.718  1.00  0.00     0.127 C 
HETATM   18  C4  UNL     1      -4.154  26.879  -6.094  1.00  0.00     0.098 C 
ATOM     19  H4  UNL     1      -3.491  24.742  -7.302  1.00  0.00     0.190 HD
BRANCH  17  20
HETATM   20  O1  UNL     1      -5.215  25.186  -4.582  1.00  0.00    -0.349 OA
ATOM     21  H1  UNL     1      -5.017  24.396  -4.094  1.00  0.00     0.219 HD
ENDBRANCH  17  20
ENDBRANCH   7  16
TORSDOF 3
ENDMDL
MODEL 3
REMARK VINA RESULT: -5.971373328      3.149      5.543
REMARK  3 active torsions:
REMARK  status: ('A' for Active; 'I' for Inactive)
REMARK       I    between atoms: N1_2  and  C2_4 
REMARK       I    between atoms: C2_4  and  N2_5 
REMARK    1  A    between atoms: N3_7  and  N4_9 
REMARK    2  A    between atoms: C3_11  and  O1_13 
REMARK    3  A    between atoms: N5_15  and  N6_17 
ROOT
HETATM    1  C1  UNL     1      -1.781  19.648  -5.430  1.00  0.00     0.165 C 
HETATM    2  N1  UNL     1      -2.962  20.363  -4.989  1.00  0.00    -0.228 N 
ATOM      3  H1  UNL     1      -3.216  20.397  -4.001  1.00  0.00     0.177 HD
HETATM    4  C2  UNL     1      -3.754  21.014  -5.966  1.00  0.00     0.709 C 
HETATM    5  N2  UNL     1      -3.591  22.413  -6.148  1.00  0.00    -0.116 N 
ATOM      6  H2  UNL     1      -2.693  22.816  -6.412  1.00  0.00     0.207 HD
HETATM    7  N3  UNL     1      -4.618  23.137  -5.967  1.00  0.00    -0.227 N 
ATOM      8  H3  UNL     1      -5.516  22.731  -5.701  1.00  0.00     0.209 HD
HETATM    9  N5  UNL     1      -4.591  20.358  -6.664  1.00  0.00    -0.117 N 
ATOM     10  H5  UNL     1      -4.667  19.356  -6.492  1.00  0.00     0.207 HD
ENDROOT
BRANCH   9  11
HETATM   11  N6  UNL     1      -5.408  20.904  -7.642  1.00  0.00    -0.235 N 
HETATM   12  N7  UNL     1      -6.571  20.455  -7.790  1.00  0.00    -0.330 N 
ATOM     13  H72 UNL     1      -6.897  19.697  -7.189  1.00  0.00     0.178 HD
ATOM     14  H71 UNL     1      -7.172  20.856  -8.510  1.00  0.00     0.178 HD
ATOM     15  H6  UNL     1      -5.068  21.661  -8.234  1.00  0.00     0.208 HD
ENDBRANCH   9  11
BRANCH   7  16
HETATM   16  N4  UNL     1      -4.464  24.533  -6.147  1.00  0.00    -0.269 N 
HETATM   17  C3  UNL     1      -4.427  25.032  -7.338  1.00  0.00     0.127 C 
HETATM   18  C4  UNL     1      -4.267  26.488  -7.492  1.00  0.00     0.098 C 
ATOM     19  H4  UNL     1      -4.382  25.146  -5.336  1.00  0.00     0.190 HD
BRANCH  17  20
HETATM   20  O1  UNL     1      -4.540  24.183  -8.436  1.00  0.00    -0.349 OA
ATOM     21  H1  UNL     1      -4.585  23.245  -8.296  1.00  0.00     0.219 HD
ENDBRANCH  17  20
ENDBRANCH   7  16
TORSDOF 3
ENDMDL
MODEL 4
REMARK VINA RESULT: -5.869988613      3.040      4.735
REMARK  3 active torsions:
REMARK  status: ('A' for Active; 'I' for Inactive)
REMARK       I    between atoms: N1_2  and  C2_4 
REMARK       I    between atoms: C2_4  and  N2_5 
REMARK    1  A    between atoms: N3_7  and  N4_9 
REMARK    2  A    between atoms: C3_11  and  O1_13 
REMARK    3  A    between atoms: N5_15  and  N6_17 
ROOT
HETATM    1  C1  UNL     1      -5.795  25.412  -5.373  1.00  0.00     0.165 C 
HETATM    2  N1  UNL     1      -4.436  25.083  -5.757  1.00  0.00    -0.228 N 
ATOM      3  H1  UNL     1      -3.644  25.377  -5.186  1.00  0.00     0.177 HD
HETATM    4  C2  UNL     1      -4.239  24.342  -6.947  1.00  0.00     0.709 C 
HETATM    5  N2  UNL     1      -4.013  22.944  -6.846  1.00  0.00    -0.116 N 
ATOM      6  H2  UNL     1      -4.695  22.323  -6.412  1.00  0.00     0.207 HD
HETATM    7  N3  UNL     1      -2.920  22.505  -7.321  1.00  0.00    -0.227 N 
ATOM      8  H3  UNL     1      -2.239  23.129  -7.754  1.00  0.00     0.209 HD
HETATM    9  N5  UNL     1      -4.264  24.918  -8.082  1.00  0.00    -0.117 N 
ATOM     10  H5  UNL     1      -4.431  25.925  -8.096  1.00  0.00     0.207 HD
ENDROOT
BRANCH   9  11
HETATM   11  N6  UNL     1      -4.083  24.281  -9.298  1.00  0.00    -0.235 N 
HETATM   12  N7  UNL     1      -3.840  24.968 -10.321  1.00  0.00    -0.330 N 
ATOM     13  H72 UNL     1      -3.779  25.983 -10.240  1.00  0.00     0.178 HD
ATOM     14  H71 UNL     1      -3.707  24.499 -11.216  1.00  0.00     0.178 HD
ATOM     15  H6  UNL     1      -4.147  23.265  -9.363  1.00  0.00     0.208 HD
ENDBRANCH   9  11
BRANCH   7  16
HETATM   16  N4  UNL     1      -2.687  21.111  -7.224  1.00  0.00    -0.269 N 
HETATM   17  C3  UNL     1      -2.519  20.562  -6.068  1.00  0.00     0.127 C 
HETATM   18  C4  UNL     1      -2.280  19.110  -6.001  1.00  0.00     0.098 C 
ATOM     19  H4  UNL     1      -2.652  20.541  -8.069  1.00  0.00     0.190 HD
BRANCH  17  20
HETATM   20  O1  UNL     1      -2.570  21.354  -4.923  1.00  0.00    -0.349 OA
ATOM     21  H1  UNL     1      -2.094  21.081  -4.148  1.00  0.00     0.219 HD
ENDBRANCH  17  20
ENDBRANCH   7  16
TORSDOF 3
ENDMDL
MODEL 5
REMARK VINA RESULT: -5.868552212      3.719      5.090
REMARK  3 active torsions:
REMARK  status: ('A' for Active; 'I' for Inactive)
REMARK       I    between atoms: N1_2  and  C2_4 
REMARK       I    between atoms: C2_4  and  N2_5 
REMARK    1  A    between atoms: N3_7  and  N4_9 
REMARK    2  A    between atoms: C3_11  and  O1_13 
REMARK    3  A    between atoms: N5_15  and  N6_17 
ROOT
HETATM    1  C1  UNL     1      -2.127  19.515  -5.642  1.00  0.00     0.165 C 
HETATM    2  N1  UNL     1      -2.407  20.865  -6.090  1.00  0.00    -0.228 N 
ATOM      3  H1  UNL     1      -1.912  21.663  -5.692  1.00  0.00     0.177 HD
HETATM    4  C2  UNL     1      -3.387  21.046  -7.096  1.00  0.00     0.709 C 
HETATM    5  N2  UNL     1      -2.957  21.230  -8.436  1.00  0.00    -0.116 N 
ATOM      6  H2  UNL     1      -2.397  20.527  -8.918  1.00  0.00     0.207 HD
HETATM    7  N3  UNL     1      -3.302  22.311  -9.005  1.00  0.00    -0.227 N 
ATOM      8  H3  UNL     1      -3.862  23.013  -8.520  1.00  0.00     0.209 HD
HETATM    9  N5  UNL     1      -4.625  21.043  -6.803  1.00  0.00    -0.117 N 
ATOM     10  H5  UNL     1      -4.879  20.907  -5.824  1.00  0.00     0.207 HD
ENDROOT
BRANCH   9  11
HETATM   11  N6  UNL     1      -5.656  21.211  -7.714  1.00  0.00    -0.235 N 
HETATM   12  N7  UNL     1      -6.530  20.316  -7.823  1.00  0.00    -0.330 N 
ATOM     13  H72 UNL     1      -6.469  19.481  -7.240  1.00  0.00     0.178 HD
ATOM     14  H71 UNL     1      -7.288  20.440  -8.493  1.00  0.00     0.178 HD
ATOM     15  H6  UNL     1      -5.703  22.052  -8.289  1.00  0.00     0.208 HD
ENDBRANCH   9  11
BRANCH   7  16
HETATM   16  N4  UNL     1      -2.877  22.502 -10.343  1.00  0.00    -0.269 N 
HETATM   17  C3  UNL     1      -3.544  23.280 -11.129  1.00  0.00     0.127 C 
HETATM   18  C4  UNL     1      -3.076  23.457 -12.515  1.00  0.00     0.098 C 
ATOM     19  H4  UNL     1      -2.044  22.024 -10.686  1.00  0.00     0.190 HD
BRANCH  17  20
HETATM   20  O1  UNL     1      -4.680  23.925 -10.647  1.00  0.00    -0.349 OA
ATOM     21  H1  UNL     1      -5.399  24.107 -11.241  1.00  0.00     0.219 HD
ENDBRANCH  17  20
ENDBRANCH   7  16
TORSDOF 3
ENDMDL
