MODEL 1
REMARK VINA RESULT: -5.471888994      0.000      0.000
REMARK  4 active torsions:
REMARK  status: ('A' for Active; 'I' for Inactive)
REMARK    1  A    between atoms: C4_5  and  O1_6 
REMARK    2  A    between atoms: C5_8  and  O2_9 
REMARK    3  A    between atoms: C6_11  and  C7_12 
REMARK    4  A    between atoms: C7_12  and  N2_13 
ROOT
HETATM    1  C1  UNL     1      -2.731  20.860  -7.444  1.00  0.00     0.143 C 
HETATM    2  N1  UNL     1      -3.556  19.990  -6.677  1.00  0.00    -0.408 N 
HETATM    3  C2  UNL     1      -2.867  18.975  -5.961  1.00  0.00     0.119 C 
HETATM    4  C3  UNL     1      -2.697  17.685  -6.683  1.00  0.00     0.053 C 
HETATM    5  C4  UNL     1      -3.787  17.330  -7.623  1.00  0.00     0.150 C 
HETATM    6  C5  UNL     1      -4.360  18.517  -8.373  1.00  0.00     0.170 C 
HETATM    7  C6  UNL     1      -4.746  19.540  -7.346  1.00  0.00     0.135 C 
ENDROOT
BRANCH   7   8
HETATM    8  C7  UNL     1      -5.478  20.665  -7.986  1.00  0.00     0.257 C 
BRANCH   8   9
HETATM    9  N2  UNL     1      -6.885  20.447  -8.130  1.00  0.00    -0.077 N 
ATOM     10  H23 UNL     1      -7.061  19.632  -8.718  1.00  0.00     0.274 HD
ATOM     11  H22 UNL     1      -7.286  20.119  -7.251  1.00  0.00     0.274 HD
ATOM     12  H21 UNL     1      -7.402  21.255  -8.478  1.00  0.00     0.274 HD
ENDBRANCH   8   9
ENDBRANCH   7   8
BRANCH   6  13
HETATM   13  O2  UNL     1      -5.499  18.087  -9.045  1.00  0.00    -0.391 OA
ATOM     14  H2  UNL     1      -6.201  18.012  -8.410  1.00  0.00     0.210 HD
ENDBRANCH   6  13
BRANCH   5  15
HETATM   15  O1  UNL     1      -3.317  16.406  -8.557  1.00  0.00    -0.393 OA
ATOM     16  H1  UNL     1      -3.900  16.387  -9.307  1.00  0.00     0.210 HD
ENDBRANCH   5  15
TORSDOF 4
ENDMDL
MODEL 2
REMARK VINA RESULT: -5.352221883      1.541      1.925
REMARK  4 active torsions:
REMARK  status: ('A' for Active; 'I' for Inactive)
REMARK    1  A    between atoms: C4_5  and  O1_6 
REMARK    2  A    between atoms: C5_8  and  O2_9 
REMARK    3  A    between atoms: C6_11  and  C7_12 
REMARK    4  A    between atoms: C7_12  and  N2_13 
ROOT
HETATM    1  C1  UNL     1      -3.390  21.909  -7.418  1.00  0.00     0.143 C 
HETATM    2  N1  UNL     1      -3.893  21.002  -6.442  1.00  0.00    -0.408 N 
HETATM    3  C2  UNL     1      -3.121  20.898  -5.255  1.00  0.00     0.119 C 
HETATM    4  C3  UNL     1      -2.075  19.839  -5.261  1.00  0.00     0.053 C 
HETATM    5  C4  UNL     1      -2.397  18.628  -6.055  1.00  0.00     0.150 C 
HETATM    6  C5  UNL     1      -3.151  18.919  -7.337  1.00  0.00     0.170 C 
HETATM    7  C6  UNL     1      -4.348  19.744  -6.966  1.00  0.00     0.135 C 
ENDROOT
BRANCH   7   8
HETATM    8  C7  UNL     1      -5.237  19.925  -8.144  1.00  0.00     0.257 C 
BRANCH   8   9
HETATM    9  N2  UNL     1      -6.571  20.327  -7.820  1.00  0.00    -0.077 N 
ATOM     10  H23 UNL     1      -7.114  19.528  -7.490  1.00  0.00     0.274 HD
ATOM     11  H22 UNL     1      -6.575  20.900  -6.976  1.00  0.00     0.274 HD
ATOM     12  H21 UNL     1      -7.063  20.803  -8.576  1.00  0.00     0.274 HD
ENDBRANCH   8   9
ENDBRANCH   7   8
BRANCH   6  13
HETATM   13  O2  UNL     1      -3.574  17.705  -7.867  1.00  0.00    -0.391 OA
ATOM     14  H2  UNL     1      -3.058  17.532  -8.646  1.00  0.00     0.210 HD
ENDBRANCH   6  13
BRANCH   5  15
HETATM   15  O1  UNL     1      -1.220  17.956  -6.380  1.00  0.00    -0.393 OA
ATOM     16  H1  UNL     1      -0.885  17.508  -5.611  1.00  0.00     0.210 HD
ENDBRANCH   5  15
TORSDOF 4
ENDMDL
MODEL 3
REMARK VINA RESULT: -5.351488255      1.820      2.271
REMARK  4 active torsions:
REMARK  status: ('A' for Active; 'I' for Inactive)
REMARK    1  A    between atoms: C4_5  and  O1_6 
REMARK    2  A    between atoms: C5_8  and  O2_9 
REMARK    3  A    between atoms: C6_11  and  C7_12 
REMARK    4  A    between atoms: C7_12  and  N2_13 
ROOT
HETATM    1  C1  UNL     1      -2.228  19.692  -5.603  1.00  0.00     0.143 C 
HETATM    2  N1  UNL     1      -3.610  19.540  -5.907  1.00  0.00    -0.408 N 
HETATM    3  C2  UNL     1      -4.027  18.211  -6.185  1.00  0.00     0.119 C 
HETATM    4  C3  UNL     1      -3.978  17.810  -7.618  1.00  0.00     0.053 C 
HETATM    5  C4  UNL     1      -4.234  18.896  -8.594  1.00  0.00     0.150 C 
HETATM    6  C5  UNL     1      -3.649  20.234  -8.189  1.00  0.00     0.170 C 
HETATM    7  C6  UNL     1      -4.143  20.528  -6.804  1.00  0.00     0.135 C 
ENDROOT
BRANCH   7   8
HETATM    8  C7  UNL     1      -3.758  21.907  -6.398  1.00  0.00     0.257 C 
BRANCH   8   9
HETATM    9  N2  UNL     1      -4.816  22.865  -6.486  1.00  0.00    -0.077 N 
ATOM     10  H23 UNL     1      -5.697  22.452  -6.179  1.00  0.00     0.274 HD
ATOM     11  H22 UNL     1      -4.704  23.586  -5.773  1.00  0.00     0.274 HD
ATOM     12  H21 UNL     1      -4.923  23.290  -7.407  1.00  0.00     0.274 HD
ENDBRANCH   8   9
ENDBRANCH   7   8
BRANCH   6  13
HETATM   13  O2  UNL     1      -4.139  21.196  -9.067  1.00  0.00    -0.391 OA
ATOM     14  H2  UNL     1      -4.079  22.040  -8.635  1.00  0.00     0.210 HD
ENDBRANCH   6  13
BRANCH   5  15
HETATM   15  O1  UNL     1      -3.704  18.543  -9.835  1.00  0.00    -0.393 OA
ATOM     16  H1  UNL     1      -3.946  19.195 -10.482  1.00  0.00     0.210 HD
ENDBRANCH   5  15
TORSDOF 4
ENDMDL
MODEL 4
REMARK VINA RESULT: -5.347087274      3.463      4.683
REMARK  4 active torsions:
REMARK  status: ('A' for Active; 'I' for Inactive)
REMARK    1  A    between atoms: C4_5  and  O1_6 
REMARK    2  A    between atoms: C5_8  and  O2_9 
REMARK    3  A    between atoms: C6_11  and  C7_12 
REMARK    4  A    between atoms: C7_12  and  N2_13 
ROOT
HETATM    1  C1  UNL     1      -3.027  21.241  -9.237  1.00  0.00     0.143 C 
HETATM    2  N1  UNL     1      -4.204  21.843  -8.710  1.00  0.00    -0.408 N 
HETATM    3  C2  UNL     1      -4.272  23.256  -8.839  1.00  0.00     0.119 C 
HETATM    4  C3  UNL     1      -3.727  24.031  -7.691  1.00  0.00     0.053 C 
HETATM    5  C4  UNL     1      -3.872  23.392  -6.362  1.00  0.00     0.150 C 
HETATM    6  C5  UNL     1      -3.686  21.888  -6.382  1.00  0.00     0.170 C 
HETATM    7  C6  UNL     1      -4.615  21.344  -7.427  1.00  0.00     0.135 C 
ENDROOT
BRANCH   7   8
HETATM    8  C7  UNL     1      -4.624  19.857  -7.390  1.00  0.00     0.257 C 
BRANCH   8   9
HETATM    9  N2  UNL     1      -5.684  19.293  -6.613  1.00  0.00    -0.077 N 
ATOM     10  H23 UNL     1      -5.311  18.824  -5.787  1.00  0.00     0.274 HD
ATOM     11  H22 UNL     1      -6.228  20.030  -6.165  1.00  0.00     0.274 HD
ATOM     12  H21 UNL     1      -6.298  18.665  -7.132  1.00  0.00     0.274 HD
ENDBRANCH   8   9
ENDBRANCH   7   8
BRANCH   6  13
HETATM   13  O2  UNL     1      -4.057  21.396  -5.135  1.00  0.00    -0.391 OA
ATOM     14  H2  UNL     1      -4.036  20.447  -5.178  1.00  0.00     0.210 HD
ENDBRANCH   6  13
BRANCH   5  15
HETATM   15  O1  UNL     1      -2.942  23.937  -5.477  1.00  0.00    -0.393 OA
ATOM     16  H1  UNL     1      -3.383  24.526  -4.874  1.00  0.00     0.210 HD
ENDBRANCH   5  15
TORSDOF 4
ENDMDL
MODEL 5
REMARK VINA RESULT: -5.283730948      2.844      3.548
REMARK  4 active torsions:
REMARK  status: ('A' for Active; 'I' for Inactive)
REMARK    1  A    between atoms: C4_5  and  O1_6 
REMARK    2  A    between atoms: C5_8  and  O2_9 
REMARK    3  A    between atoms: C6_11  and  C7_12 
REMARK    4  A    between atoms: C7_12  and  N2_13 
ROOT
HETATM    1  C1  UNL     1      -5.953  20.166  -8.059  1.00  0.00     0.143 C 
HETATM    2  N1  UNL     1      -4.620  19.676  -7.968  1.00  0.00    -0.408 N 
HETATM    3  C2  UNL     1      -4.485  18.391  -7.379  1.00  0.00     0.119 C 
HETATM    4  C3  UNL     1      -4.269  18.379  -5.907  1.00  0.00     0.053 C 
HETATM    5  C4  UNL     1      -3.518  19.536  -5.362  1.00  0.00     0.150 C 
HETATM    6  C5  UNL     1      -3.839  20.851  -6.043  1.00  0.00     0.170 C 
HETATM    7  C6  UNL     1      -3.653  20.639  -7.517  1.00  0.00     0.135 C 
ENDROOT
BRANCH   7   8
HETATM    8  C7  UNL     1      -3.778  21.930  -8.245  1.00  0.00     0.257 C 
BRANCH   8   9
HETATM    9  N2  UNL     1      -2.560  22.674  -8.341  1.00  0.00    -0.077 N 
ATOM     10  H23 UNL     1      -2.217  22.918  -7.411  1.00  0.00     0.274 HD
ATOM     11  H22 UNL     1      -1.799  22.071  -8.655  1.00  0.00     0.274 HD
ATOM     12  H21 UNL     1      -2.620  23.506  -8.928  1.00  0.00     0.274 HD
ENDBRANCH   8   9
ENDBRANCH   7   8
BRANCH   6  13
HETATM   13  O2  UNL     1      -2.924  21.798  -5.594  1.00  0.00    -0.391 OA
ATOM     14  H2  UNL     1      -2.812  22.443  -6.283  1.00  0.00     0.210 HD
ENDBRANCH   6  13
BRANCH   5  15
HETATM   15  O1  UNL     1      -3.788  19.669  -4.000  1.00  0.00    -0.393 OA
ATOM     16  H1  UNL     1      -3.901  18.809  -3.612  1.00  0.00     0.210 HD
ENDBRANCH   5  15
TORSDOF 4
ENDMDL
