MODEL 1
REMARK VINA RESULT: -6.331532750      0.000      0.000
REMARK  1 active torsions:
REMARK  status: ('A' for Active; 'I' for Inactive)
REMARK       I    between atoms: C2_4  and  N2_5 
REMARK       I    between atoms: C2_4  and  N4_9 
REMARK    1  A    between atoms: N4_9  and  N5_11 
ROOT
HETATM    1  C1  UNL     1      -4.674  16.712  -9.593  1.00  0.00     0.165 C 
HETATM    2  N1  UNL     1      -4.913  17.134  -8.229  1.00  0.00    -0.229 N 
ATOM      3  H1  UNL     1      -5.014  16.414  -7.514  1.00  0.00     0.177 HD
HETATM    4  C2  UNL     1      -5.005  18.361  -7.868  1.00  0.00     0.701 C 
HETATM    5  N2  UNL     1      -4.880  19.438  -8.773  1.00  0.00    -0.125 N 
ATOM      6  H2  UNL     1      -5.683  20.029  -8.990  1.00  0.00     0.197 HD
HETATM    7  C3  UNL     1      -3.642  19.680  -9.366  1.00  0.00     0.196 C 
HETATM    8  N3  UNL     1      -2.613  19.885  -9.865  1.00  0.00    -0.171 NA
HETATM    9  N4  UNL     1      -5.239  18.658  -6.516  1.00  0.00    -0.131 N 
ATOM     10  H4  UNL     1      -5.928  18.126  -5.984  1.00  0.00     0.205 HD
ENDROOT
BRANCH   9  11
HETATM   11  N5  UNL     1      -4.528  19.680  -5.910  1.00  0.00    -0.277 N 
HETATM   12  C4  UNL     1      -3.341  19.485  -5.457  1.00  0.00     0.104 C 
HETATM   13  C5  UNL     1      -2.602  20.600  -4.812  1.00  0.00     0.086 C 
HETATM   14  N6  UNL     1      -2.760  18.208  -5.584  1.00  0.00    -0.087 NA
ATOM     15  H5  UNL     1      -4.953  20.603  -5.823  1.00  0.00     0.188 HD
ENDBRANCH   9  11
TORSDOF 1
ENDMDL
MODEL 2
REMARK VINA RESULT: -6.155250107      3.075      4.532
REMARK  1 active torsions:
REMARK  status: ('A' for Active; 'I' for Inactive)
REMARK       I    between atoms: C2_4  and  N2_5 
REMARK       I    between atoms: C2_4  and  N4_9 
REMARK    1  A    between atoms: N4_9  and  N5_11 
ROOT
HETATM    1  C1  UNL     1      -4.983  24.891  -6.228  1.00  0.00     0.165 C 
HETATM    2  N1  UNL     1      -4.877  23.504  -5.828  1.00  0.00    -0.229 N 
ATOM      3  H1  UNL     1      -5.433  23.190  -5.032  1.00  0.00     0.177 HD
HETATM    4  C2  UNL     1      -4.126  22.647  -6.415  1.00  0.00     0.701 C 
HETATM    5  N2  UNL     1      -3.316  22.972  -7.526  1.00  0.00    -0.125 N 
ATOM      6  H2  UNL     1      -2.299  22.967  -7.445  1.00  0.00     0.197 HD
HETATM    7  C3  UNL     1      -3.930  23.299  -8.734  1.00  0.00     0.196 C 
HETATM    8  N3  UNL     1      -4.435  23.574  -9.743  1.00  0.00    -0.171 NA
HETATM    9  N4  UNL     1      -4.099  21.326  -5.942  1.00  0.00    -0.131 N 
ATOM     10  H4  UNL     1      -4.059  21.139  -4.940  1.00  0.00     0.205 HD
ENDROOT
BRANCH   9  11
HETATM   11  N5  UNL     1      -4.129  20.278  -6.846  1.00  0.00    -0.277 N 
HETATM   12  C4  UNL     1      -4.331  19.069  -6.457  1.00  0.00     0.104 C 
HETATM   13  C5  UNL     1      -4.357  17.966  -7.450  1.00  0.00     0.086 C 
HETATM   14  N6  UNL     1      -4.527  18.815  -5.085  1.00  0.00    -0.087 NA
ATOM     15  H5  UNL     1      -3.988  20.469  -7.838  1.00  0.00     0.188 HD
ENDBRANCH   9  11
TORSDOF 1
ENDMDL
MODEL 3
REMARK VINA RESULT: -6.147804900      1.434      4.128
REMARK  1 active torsions:
REMARK  status: ('A' for Active; 'I' for Inactive)
REMARK       I    between atoms: C2_4  and  N2_5 
REMARK       I    between atoms: C2_4  and  N4_9 
REMARK    1  A    between atoms: N4_9  and  N5_11 
ROOT
HETATM    1  C1  UNL     1      -3.401  22.286  -6.127  1.00  0.00     0.165 C 
HETATM    2  N1  UNL     1      -4.341  21.362  -6.725  1.00  0.00    -0.229 N 
ATOM      3  H1  UNL     1      -4.922  21.698  -7.493  1.00  0.00     0.177 HD
HETATM    4  C2  UNL     1      -4.485  20.146  -6.345  1.00  0.00     0.701 C 
HETATM    5  N2  UNL     1      -3.733  19.577  -5.294  1.00  0.00    -0.125 N 
ATOM      6  H2  UNL     1      -4.184  19.310  -4.419  1.00  0.00     0.197 HD
HETATM    7  C3  UNL     1      -2.364  19.384  -5.473  1.00  0.00     0.196 C 
HETATM    8  N3  UNL     1      -1.222  19.223  -5.616  1.00  0.00    -0.171 NA
HETATM    9  N4  UNL     1      -5.429  19.336  -6.997  1.00  0.00    -0.131 N 
ATOM     10  H4  UNL     1      -6.354  19.703  -7.221  1.00  0.00     0.205 HD
ENDROOT
BRANCH   9  11
HETATM   11  N5  UNL     1      -5.094  18.035  -7.331  1.00  0.00    -0.277 N 
HETATM   12  C4  UNL     1      -4.307  17.784  -8.316  1.00  0.00     0.104 C 
HETATM   13  C5  UNL     1      -3.965  16.379  -8.653  1.00  0.00     0.086 C 
HETATM   14  N6  UNL     1      -3.779  18.856  -9.062  1.00  0.00    -0.087 NA
ATOM     15  H5  UNL     1      -5.478  17.263  -6.787  1.00  0.00     0.188 HD
ENDBRANCH   9  11
TORSDOF 1
ENDMDL
MODEL 4
REMARK VINA RESULT: -6.123919642      3.382      4.772
REMARK  1 active torsions:
REMARK  status: ('A' for Active; 'I' for Inactive)
REMARK       I    between atoms: C2_4  and  N2_5 
REMARK       I    between atoms: C2_4  and  N4_9 
REMARK    1  A    between atoms: N4_9  and  N5_11 
ROOT
HETATM    1  C1  UNL     1      -4.077  18.787  -7.257  1.00  0.00     0.165 C 
HETATM    2  N1  UNL     1      -3.925  20.155  -7.702  1.00  0.00    -0.229 N 
ATOM      3  H1  UNL     1      -4.459  20.458  -8.517  1.00  0.00     0.177 HD
HETATM    4  C2  UNL     1      -3.160  21.011  -7.131  1.00  0.00     0.701 C 
HETATM    5  N2  UNL     1      -2.377  20.702  -5.997  1.00  0.00    -0.125 N 
ATOM      6  H2  UNL     1      -1.359  20.676  -6.060  1.00  0.00     0.197 HD
HETATM    7  C3  UNL     1      -3.019  20.433  -4.789  1.00  0.00     0.196 C 
HETATM    8  N3  UNL     1      -3.548  20.207  -3.779  1.00  0.00    -0.171 NA
HETATM    9  N4  UNL     1      -3.089  22.314  -7.648  1.00  0.00    -0.131 N 
ATOM     10  H4  UNL     1      -3.027  22.466  -8.655  1.00  0.00     0.205 HD
ENDROOT
BRANCH   9  11
HETATM   11  N5  UNL     1      -3.103  23.392  -6.780  1.00  0.00    -0.277 N 
HETATM   12  C4  UNL     1      -3.648  24.508  -7.114  1.00  0.00     0.104 C 
HETATM   13  C5  UNL     1      -3.648  25.648  -6.162  1.00  0.00     0.086 C 
HETATM   14  N6  UNL     1      -4.240  24.627  -8.387  1.00  0.00    -0.087 NA
ATOM     15  H5  UNL     1      -2.675  23.300  -5.859  1.00  0.00     0.188 HD
ENDBRANCH   9  11
TORSDOF 1
ENDMDL
MODEL 5
REMARK VINA RESULT: -6.060363621      2.642      4.892
REMARK  1 active torsions:
REMARK  status: ('A' for Active; 'I' for Inactive)
REMARK       I    between atoms: C2_4  and  N2_5 
REMARK       I    between atoms: C2_4  and  N4_9 
REMARK    1  A    between atoms: N4_9  and  N5_11 
ROOT
HETATM    1  C1  UNL     1      -4.258  17.815  -9.215  1.00  0.00     0.165 C 
HETATM    2  N1  UNL     1      -3.527  18.917  -9.803  1.00  0.00    -0.229 N 
ATOM      3  H1  UNL     1      -2.986  18.738 -10.649  1.00  0.00     0.177 HD
HETATM    4  C2  UNL     1      -3.521  20.106  -9.323  1.00  0.00     0.701 C 
HETATM    5  N2  UNL     1      -4.235  20.467  -8.159  1.00  0.00    -0.125 N 
ATOM      6  H2  UNL     1      -3.739  20.726  -7.306  1.00  0.00     0.197 HD
HETATM    7  C3  UNL     1      -5.628  20.462  -8.195  1.00  0.00     0.196 C 
HETATM    8  N3  UNL     1      -6.790  20.459  -8.219  1.00  0.00    -0.171 NA
HETATM    9  N4  UNL     1      -2.775  21.101  -9.976  1.00  0.00    -0.131 N 
ATOM     10  H4  UNL     1      -1.836  20.899 -10.317  1.00  0.00     0.205 HD
ENDROOT
BRANCH   9  11
HETATM   11  N5  UNL     1      -3.326  22.359 -10.153  1.00  0.00    -0.277 N 
HETATM   12  C4  UNL     1      -3.159  23.009 -11.249  1.00  0.00     0.104 C 
HETATM   13  C5  UNL     1      -3.762  24.357 -11.411  1.00  0.00     0.086 C 
HETATM   14  N6  UNL     1      -2.402  22.426 -12.284  1.00  0.00    -0.087 NA
ATOM     15  H5  UNL     1      -3.875  22.776  -9.401  1.00  0.00     0.188 HD
ENDBRANCH   9  11
TORSDOF 1
ENDMDL
