MODEL 1
REMARK VINA RESULT: -5.459406193      0.000      0.000
REMARK  7 active torsions:
REMARK  status: ('A' for Active; 'I' for Inactive)
REMARK    1  A    between atoms: C2_5  and  N3_6 
REMARK    2  A    between atoms: C2_5  and  N4_10 
REMARK       I    between atoms: N4_10  and  C3_12 
REMARK    3  A    between atoms: C3_12  and  C4_14 
REMARK    4  A    between atoms: C4_14  and  N5_15 
REMARK       I    between atoms: N5_15  and  C5_17 
REMARK    5  A    between atoms: C5_17  and  C6_19 
REMARK    6  A    between atoms: C9_26  and  C10_27 
REMARK    7  A    between atoms: C10_27  and  O3_28 
ROOT
HETATM    1  N1  UNL     1      52.073  18.720   9.839  1.00  0.00    -0.063 NA
HETATM    2  C1  UNL     1      53.153  18.215  10.612  1.00  0.00     0.193 C 
HETATM    3  N2  UNL     1      53.599  17.061  10.336  1.00  0.00    -0.313 N 
ATOM      4  H2  UNL     1      53.094  16.637   9.558  1.00  0.00     0.166 HD
HETATM    5  C2  UNL     1      54.620  16.204  10.830  1.00  0.00     0.299 C 
HETATM    6  C9  UNL     1      54.727  16.182  12.331  1.00  0.00     0.186 C 
HETATM    7  N8  UNL     1      54.917  17.462  12.924  1.00  0.00    -0.352 N 
ATOM      8  H8  UNL     1      55.560  17.444  13.716  1.00  0.00     0.162 HD
HETATM    9  C11 UNL     1      54.404  18.765  12.649  1.00  0.00     0.191 C 
HETATM   10  N9  UNL     1      54.727  19.832  13.514  1.00  0.00    -0.063 NA
HETATM   11  N10 UNL     1      53.651  19.070  11.657  1.00  0.00    -0.305 N 
ATOM     12  H10 UNL     1      53.368  20.049  11.599  1.00  0.00     0.171 HD
ENDROOT
BRANCH   5  13
HETATM   13  N3  UNL     1      54.420  14.807  10.414  1.00  0.00    -0.031 N 
ATOM     14  H33 UNL     1      54.834  14.159  11.085  1.00  0.00     0.279 HD
ATOM     15  H32 UNL     1      53.442  14.531  10.504  1.00  0.00     0.279 HD
ATOM     16  H31 UNL     1      54.768  14.633   9.471  1.00  0.00     0.279 HD
ENDBRANCH   5  13
BRANCH   5  17
HETATM   17  N4  UNL     1      55.883  16.619  10.268  1.00  0.00    -0.308 N 
HETATM   18  C3  UNL     1      56.037  16.598   8.863  1.00  0.00     0.238 C 
HETATM   19  O1  UNL     1      55.090  16.224   8.132  1.00  0.00    -0.272 OA
ATOM     20  H4  UNL     1      56.648  16.921  10.872  1.00  0.00     0.166 HD
BRANCH  18  21
HETATM   21  C4  UNL     1      57.307  17.010   8.192  1.00  0.00     0.225 C 
BRANCH  21  22
HETATM   22  N5  UNL     1      57.722  16.013   7.235  1.00  0.00    -0.347 N 
HETATM   23  C5  UNL     1      58.965  15.342   7.463  1.00  0.00     0.270 C 
HETATM   24  O2  UNL     1      59.681  15.601   8.461  1.00  0.00    -0.266 OA
ATOM     25  H5  UNL     1      57.147  15.795   6.421  1.00  0.00     0.163 HD
BRANCH  23  26
HETATM   26  C6  UNL     1      59.432  14.331   6.534  1.00  0.00     0.117 A 
HETATM   27  C7  UNL     1      59.114  14.205   5.206  1.00  0.00     0.124 A 
HETATM   28  N6  UNL     1      59.749  13.142   4.686  1.00  0.00    -0.360 N 
HETATM   29  C8  UNL     1      60.472  12.582   5.669  1.00  0.00     0.180 A 
ATOM     30  H6  UNL     1      59.692  12.818   3.721  1.00  0.00     0.166 HD
HETATM   31  N7  UNL     1      60.283  13.296   6.781  1.00  0.00    -0.347 N 
ATOM     32  H7  UNL     1      60.712  13.096   7.685  1.00  0.00     0.167 HD
ENDBRANCH  23  26
ENDBRANCH  21  22
ENDBRANCH  18  21
ENDBRANCH   5  17
BRANCH   6  33
HETATM   33  C10 UNL     1      55.760  15.204  12.818  1.00  0.00     0.195 C 
BRANCH  33  34
HETATM   34  O3  UNL     1      57.010  15.820  12.715  1.00  0.00    -0.399 OA
ATOM     35  H3  UNL     1      57.530  15.317  12.100  1.00  0.00     0.209 HD
ENDBRANCH  33  34
ENDBRANCH   6  33
TORSDOF 7
ENDMDL
MODEL 2
REMARK VINA RESULT: -5.431979865      1.375      1.848
REMARK  7 active torsions:
REMARK  status: ('A' for Active; 'I' for Inactive)
REMARK    1  A    between atoms: C2_5  and  N3_6 
REMARK    2  A    between atoms: C2_5  and  N4_10 
REMARK       I    between atoms: N4_10  and  C3_12 
REMARK    3  A    between atoms: C3_12  and  C4_14 
REMARK    4  A    between atoms: C4_14  and  N5_15 
REMARK       I    between atoms: N5_15  and  C5_17 
REMARK    5  A    between atoms: C5_17  and  C6_19 
REMARK    6  A    between atoms: C9_26  and  C10_27 
REMARK    7  A    between atoms: C10_27  and  O3_28 
ROOT
HETATM    1  N1  UNL     1      52.286  15.103   9.420  1.00  0.00    -0.063 NA
HETATM    2  C1  UNL     1      53.077  16.013  10.172  1.00  0.00     0.193 C 
HETATM    3  N2  UNL     1      54.102  15.564  10.769  1.00  0.00    -0.313 N 
ATOM      4  H2  UNL     1      54.219  14.563  10.616  1.00  0.00     0.166 HD
HETATM    5  C2  UNL     1      55.130  16.094  11.595  1.00  0.00     0.299 C 
HETATM    6  C9  UNL     1      54.644  17.094  12.610  1.00  0.00     0.186 C 
HETATM    7  N8  UNL     1      53.930  18.193  12.055  1.00  0.00    -0.352 N 
ATOM      8  H8  UNL     1      54.133  19.078  12.521  1.00  0.00     0.162 HD
HETATM    9  C11 UNL     1      52.992  18.325  10.987  1.00  0.00     0.191 C 
HETATM   10  N9  UNL     1      52.382  19.575  10.754  1.00  0.00    -0.063 NA
HETATM   11  N10 UNL     1      52.639  17.383  10.191  1.00  0.00    -0.305 N 
ATOM     12  H10 UNL     1      51.957  17.639   9.477  1.00  0.00     0.171 HD
ENDROOT
BRANCH   5  13
HETATM   13  N3  UNL     1      55.826  15.044  12.357  1.00  0.00    -0.031 N 
ATOM     14  H33 UNL     1      55.370  14.139  12.239  1.00  0.00     0.279 HD
ATOM     15  H32 UNL     1      56.731  14.825  11.941  1.00  0.00     0.279 HD
ATOM     16  H31 UNL     1      55.919  15.284  13.344  1.00  0.00     0.279 HD
ENDBRANCH   5  13
BRANCH   5  17
HETATM   17  N4  UNL     1      56.126  16.715  10.754  1.00  0.00    -0.308 N 
HETATM   18  C3  UNL     1      56.808  15.912   9.811  1.00  0.00     0.238 C 
HETATM   19  O1  UNL     1      56.546  14.690   9.719  1.00  0.00    -0.272 OA
ATOM     20  H4  UNL     1      56.332  17.710  10.838  1.00  0.00     0.166 HD
BRANCH  18  21
HETATM   21  C4  UNL     1      57.853  16.467   8.899  1.00  0.00     0.225 C 
BRANCH  21  22
HETATM   22  N5  UNL     1      58.056  15.592   7.770  1.00  0.00    -0.347 N 
HETATM   23  C5  UNL     1      59.347  14.992   7.611  1.00  0.00     0.270 C 
HETATM   24  O2  UNL     1      60.279  15.211   8.421  1.00  0.00    -0.266 OA
ATOM     25  H5  UNL     1      57.304  15.406   7.105  1.00  0.00     0.163 HD
BRANCH  23  26
HETATM   26  C6  UNL     1      59.609  14.104   6.494  1.00  0.00     0.117 A 
HETATM   27  C7  UNL     1      59.218  14.264   5.189  1.00  0.00     0.124 A 
HETATM   28  N6  UNL     1      59.655  13.228   4.455  1.00  0.00    -0.360 N 
HETATM   29  C8  UNL     1      60.322  12.402   5.277  1.00  0.00     0.180 A 
ATOM     30  H6  UNL     1      59.506  13.092   3.455  1.00  0.00     0.166 HD
HETATM   31  N7  UNL     1      60.295  12.928   6.504  1.00  0.00    -0.347 N 
ATOM     32  H7  UNL     1      60.726  12.510   7.328  1.00  0.00     0.167 HD
ENDBRANCH  23  26
ENDBRANCH  21  22
ENDBRANCH  18  21
ENDBRANCH   5  17
BRANCH   6  33
HETATM   33  C10 UNL     1      55.743  17.569  13.519  1.00  0.00     0.195 C 
BRANCH  33  34
HETATM   34  O3  UNL     1      56.366  18.656  12.899  1.00  0.00    -0.399 OA
ATOM     35  H3  UNL     1      56.681  19.236  13.582  1.00  0.00     0.209 HD
ENDBRANCH  33  34
ENDBRANCH   6  33
TORSDOF 7
ENDMDL
MODEL 3
REMARK VINA RESULT: -5.405611776      3.834      6.040
REMARK  7 active torsions:
REMARK  status: ('A' for Active; 'I' for Inactive)
REMARK    1  A    between atoms: C2_5  and  N3_6 
REMARK    2  A    between atoms: C2_5  and  N4_10 
REMARK       I    between atoms: N4_10  and  C3_12 
REMARK    3  A    between atoms: C3_12  and  C4_14 
REMARK    4  A    between atoms: C4_14  and  N5_15 
REMARK       I    between atoms: N5_15  and  C5_17 
REMARK    5  A    between atoms: C5_17  and  C6_19 
REMARK    6  A    between atoms: C9_26  and  C10_27 
REMARK    7  A    between atoms: C10_27  and  O3_28 
ROOT
HETATM    1  N1  UNL     1      47.791  13.655  11.542  1.00  0.00    -0.063 NA
HETATM    2  C1  UNL     1      48.684  14.425  10.750  1.00  0.00     0.193 C 
HETATM    3  N2  UNL     1      49.396  15.299  11.329  1.00  0.00    -0.313 N 
ATOM      4  H2  UNL     1      49.217  15.328  12.332  1.00  0.00     0.166 HD
HETATM    5  C2  UNL     1      50.379  16.252  10.943  1.00  0.00     0.299 C 
HETATM    6  C9  UNL     1      50.063  16.969   9.657  1.00  0.00     0.186 C 
HETATM    7  N8  UNL     1      49.839  16.108   8.546  1.00  0.00    -0.352 N 
ATOM      8  H8  UNL     1      50.226  16.472   7.674  1.00  0.00     0.162 HD
HETATM    9  C11 UNL     1      49.190  14.846   8.387  1.00  0.00     0.191 C 
HETATM   10  N9  UNL     1      49.054  14.297   7.095  1.00  0.00    -0.063 NA
HETATM   11  N10 UNL     1      48.703  14.140   9.340  1.00  0.00    -0.305 N 
ATOM     12  H10 UNL     1      48.271  13.258   9.061  1.00  0.00     0.171 HD
ENDROOT
BRANCH   5  13
HETATM   13  N3  UNL     1      50.566  17.299  11.959  1.00  0.00    -0.031 N 
ATOM     14  H33 UNL     1      50.796  18.195  11.529  1.00  0.00     0.279 HD
ATOM     15  H32 UNL     1      49.680  17.551  12.397  1.00  0.00     0.279 HD
ATOM     16  H31 UNL     1      51.262  17.036  12.658  1.00  0.00     0.279 HD
ENDBRANCH   5  13
BRANCH   5  17
HETATM   17  N4  UNL     1      51.649  15.578  10.813  1.00  0.00    -0.308 N 
HETATM   18  C3  UNL     1      52.177  14.909  11.941  1.00  0.00     0.238 C 
HETATM   19  O1  UNL     1      51.546  14.910  13.025  1.00  0.00    -0.272 OA
ATOM     20  H4  UNL     1      52.154  15.585   9.927  1.00  0.00     0.166 HD
BRANCH  18  21
HETATM   21  C4  UNL     1      53.483  14.185  11.901  1.00  0.00     0.225 C 
BRANCH  21  22
HETATM   22  N5  UNL     1      54.308  14.687  10.829  1.00  0.00    -0.347 N 
HETATM   23  C5  UNL     1      55.663  15.037  11.134  1.00  0.00     0.270 C 
HETATM   24  O2  UNL     1      56.130  14.915  12.292  1.00  0.00    -0.266 OA
ATOM     25  H5  UNL     1      53.938  14.790   9.884  1.00  0.00     0.163 HD
BRANCH  23  26
HETATM   26  C6  UNL     1      56.538  15.548  10.097  1.00  0.00     0.117 A 
HETATM   27  C7  UNL     1      56.539  15.216   8.765  1.00  0.00     0.124 A 
HETATM   28  N6  UNL     1      57.501  15.903   8.128  1.00  0.00    -0.360 N 
HETATM   29  C8  UNL     1      58.119  16.674   9.038  1.00  0.00     0.180 A 
ATOM     30  H6  UNL     1      57.723  15.850   7.134  1.00  0.00     0.166 HD
HETATM   31  N7  UNL     1      57.541  16.461  10.222  1.00  0.00    -0.347 N 
ATOM     32  H7  UNL     1      57.811  16.916  11.095  1.00  0.00     0.167 HD
ENDBRANCH  23  26
ENDBRANCH  21  22
ENDBRANCH  18  21
ENDBRANCH   5  17
BRANCH   6  33
HETATM   33  C10 UNL     1      51.081  18.024   9.325  1.00  0.00     0.195 C 
BRANCH  33  34
HETATM   34  O3  UNL     1      50.509  19.268   9.604  1.00  0.00    -0.399 OA
ATOM     35  H3  UNL     1      50.474  19.759   8.791  1.00  0.00     0.209 HD
ENDBRANCH  33  34
ENDBRANCH   6  33
TORSDOF 7
ENDMDL
MODEL 4
REMARK VINA RESULT: -5.400230934      3.045      5.631
REMARK  7 active torsions:
REMARK  status: ('A' for Active; 'I' for Inactive)
REMARK    1  A    between atoms: C2_5  and  N3_6 
REMARK    2  A    between atoms: C2_5  and  N4_10 
REMARK       I    between atoms: N4_10  and  C3_12 
REMARK    3  A    between atoms: C3_12  and  C4_14 
REMARK    4  A    between atoms: C4_14  and  N5_15 
REMARK       I    between atoms: N5_15  and  C5_17 
REMARK    5  A    between atoms: C5_17  and  C6_19 
REMARK    6  A    between atoms: C9_26  and  C10_27 
REMARK    7  A    between atoms: C10_27  and  O3_28 
ROOT
HETATM    1  N1  UNL     1      56.339  15.459  12.918  1.00  0.00    -0.063 NA
HETATM    2  C1  UNL     1      56.563  16.559  12.046  1.00  0.00     0.193 C 
HETATM    3  N2  UNL     1      57.443  16.437  11.143  1.00  0.00    -0.313 N 
ATOM      4  H2  UNL     1      57.890  15.521  11.172  1.00  0.00     0.166 HD
HETATM    5  C2  UNL     1      57.971  17.247  10.099  1.00  0.00     0.299 C 
HETATM    6  C9  UNL     1      58.182  18.685  10.490  1.00  0.00     0.186 C 
HETATM    7  N8  UNL     1      57.017  19.334  10.989  1.00  0.00    -0.352 N 
ATOM      8  H8  UNL     1      56.937  20.304  10.683  1.00  0.00     0.162 HD
HETATM    9  C11 UNL     1      55.937  18.920  11.826  1.00  0.00     0.191 C 
HETATM   10  N9  UNL     1      54.967  19.866  12.221  1.00  0.00    -0.063 NA
HETATM   11  N10 UNL     1      55.757  17.730  12.269  1.00  0.00    -0.305 N 
ATOM     12  H10 UNL     1      54.934  17.595  12.856  1.00  0.00     0.171 HD
ENDROOT
BRANCH   5  13
HETATM   13  N3  UNL     1      59.275  16.758   9.623  1.00  0.00    -0.031 N 
ATOM     14  H33 UNL     1      59.231  16.486   8.641  1.00  0.00     0.279 HD
ATOM     15  H32 UNL     1      59.951  17.518   9.552  1.00  0.00     0.279 HD
ATOM     16  H31 UNL     1      59.633  15.997  10.201  1.00  0.00     0.279 HD
ENDBRANCH   5  13
BRANCH   5  17
HETATM   17  N4  UNL     1      57.076  17.186   8.969  1.00  0.00    -0.308 N 
HETATM   18  C3  UNL     1      56.813  15.927   8.383  1.00  0.00     0.238 C 
HETATM   19  O1  UNL     1      57.352  14.893   8.844  1.00  0.00    -0.272 OA
ATOM     20  H4  UNL     1      56.642  18.033   8.601  1.00  0.00     0.166 HD
BRANCH  18  21
HETATM   21  C4  UNL     1      55.899  15.766   7.212  1.00  0.00     0.225 C 
BRANCH  21  22
HETATM   22  N5  UNL     1      54.629  15.225   7.629  1.00  0.00    -0.347 N 
HETATM   23  C5  UNL     1      53.654  16.132   8.155  1.00  0.00     0.270 C 
HETATM   24  O2  UNL     1      53.884  17.362   8.254  1.00  0.00    -0.266 OA
ATOM     25  H5  UNL     1      54.431  14.227   7.552  1.00  0.00     0.163 HD
BRANCH  23  26
HETATM   26  C6  UNL     1      52.360  15.644   8.591  1.00  0.00     0.117 A 
HETATM   27  C7  UNL     1      51.260  16.386   8.939  1.00  0.00     0.124 A 
HETATM   28  N6  UNL     1      50.252  15.569   9.286  1.00  0.00    -0.360 N 
HETATM   29  C8  UNL     1      50.695  14.307   9.164  1.00  0.00     0.180 A 
ATOM     30  H6  UNL     1      49.321  15.853   9.587  1.00  0.00     0.166 HD
HETATM   31  N7  UNL     1      51.962  14.351   8.746  1.00  0.00    -0.347 N 
ATOM     32  H7  UNL     1      52.548  13.534   8.569  1.00  0.00     0.167 HD
ENDBRANCH  23  26
ENDBRANCH  21  22
ENDBRANCH  18  21
ENDBRANCH   5  17
BRANCH   6  33
HETATM   33  C10 UNL     1      58.817  19.491   9.390  1.00  0.00     0.195 C 
BRANCH  33  34
HETATM   34  O3  UNL     1      60.139  19.747   9.762  1.00  0.00    -0.399 OA
ATOM     35  H3  UNL     1      60.445  20.486   9.248  1.00  0.00     0.209 HD
ENDBRANCH  33  34
ENDBRANCH   6  33
TORSDOF 7
ENDMDL
MODEL 5
REMARK VINA RESULT: -5.387195330      4.270      7.844
REMARK  7 active torsions:
REMARK  status: ('A' for Active; 'I' for Inactive)
REMARK    1  A    between atoms: C2_5  and  N3_6 
REMARK    2  A    between atoms: C2_5  and  N4_10 
REMARK       I    between atoms: N4_10  and  C3_12 
REMARK    3  A    between atoms: C3_12  and  C4_14 
REMARK    4  A    between atoms: C4_14  and  N5_15 
REMARK       I    between atoms: N5_15  and  C5_17 
REMARK    5  A    between atoms: C5_17  and  C6_19 
REMARK    6  A    between atoms: C9_26  and  C10_27 
REMARK    7  A    between atoms: C10_27  and  O3_28 
ROOT
HETATM    1  N1  UNL     1      53.645  16.210   7.044  1.00  0.00    -0.063 NA
HETATM    2  C1  UNL     1      54.503  16.034   8.162  1.00  0.00     0.193 C 
HETATM    3  N2  UNL     1      54.161  16.551   9.267  1.00  0.00    -0.313 N 
ATOM      4  H2  UNL     1      53.272  17.046   9.194  1.00  0.00     0.166 HD
HETATM    5  C2  UNL     1      54.694  16.622  10.584  1.00  0.00     0.299 C 
HETATM    6  C9  UNL     1      56.182  16.849  10.629  1.00  0.00     0.186 C 
HETATM    7  N8  UNL     1      56.944  15.887   9.908  1.00  0.00    -0.352 N 
ATOM      8  H8  UNL     1      57.815  15.635  10.376  1.00  0.00     0.162 HD
HETATM    9  C11 UNL     1      56.753  15.200   8.671  1.00  0.00     0.191 C 
HETATM   10  N9  UNL     1      57.777  14.362   8.181  1.00  0.00    -0.063 NA
HETATM   11  N10 UNL     1      55.704  15.273   7.938  1.00  0.00    -0.305 N 
ATOM     12  H10 UNL     1      55.722  14.718   7.082  1.00  0.00     0.171 HD
ENDROOT
BRANCH   5  13
HETATM   13  N3  UNL     1      54.091  17.710  11.369  1.00  0.00    -0.031 N 
ATOM     14  H33 UNL     1      54.668  18.551  11.339  1.00  0.00     0.279 HD
ATOM     15  H32 UNL     1      53.253  18.072  10.914  1.00  0.00     0.279 HD
ATOM     16  H31 UNL     1      53.898  17.429  12.331  1.00  0.00     0.279 HD
ENDBRANCH   5  13
BRANCH   5  17
HETATM   17  N4  UNL     1      54.379  15.396  11.277  1.00  0.00    -0.308 N 
HETATM   18  C3  UNL     1      53.019  15.045  11.442  1.00  0.00     0.238 C 
HETATM   19  O1  UNL     1      52.118  15.791  10.994  1.00  0.00    -0.272 OA
ATOM     20  H4  UNL     1      55.120  14.796  11.639  1.00  0.00     0.166 HD
BRANCH  18  21
HETATM   21  C4  UNL     1      52.597  13.796  12.145  1.00  0.00     0.225 C 
BRANCH  21  22
HETATM   22  N5  UNL     1      51.349  13.310  11.609  1.00  0.00    -0.347 N 
HETATM   23  C5  UNL     1      50.150  13.593  12.340  1.00  0.00     0.270 C 
HETATM   24  O2  UNL     1      50.171  14.243  13.412  1.00  0.00    -0.266 OA
ATOM     25  H5  UNL     1      51.321  12.780  10.737  1.00  0.00     0.163 HD
BRANCH  23  26
HETATM   26  C6  UNL     1      48.867  13.129  11.849  1.00  0.00     0.117 A 
HETATM   27  C7  UNL     1      48.304  11.890  12.022  1.00  0.00     0.124 A 
HETATM   28  N6  UNL     1      47.105  11.849  11.417  1.00  0.00    -0.360 N 
HETATM   29  C8  UNL     1      46.893  13.050  10.857  1.00  0.00     0.180 A 
ATOM     30  H6  UNL     1      46.471  11.051  11.389  1.00  0.00     0.166 HD
HETATM   31  N7  UNL     1      47.952  13.821  11.115  1.00  0.00    -0.347 N 
ATOM     32  H7  UNL     1      48.060  14.788  10.808  1.00  0.00     0.167 HD
ENDBRANCH  23  26
ENDBRANCH  21  22
ENDBRANCH  18  21
ENDBRANCH   5  17
BRANCH   6  33
HETATM   33  C10 UNL     1      56.696  17.001  12.034  1.00  0.00     0.195 C 
BRANCH  33  34
HETATM   34  O3  UNL     1      56.987  15.723  12.519  1.00  0.00    -0.399 OA
ATOM     35  H3  UNL     1      57.779  15.786  13.040  1.00  0.00     0.209 HD
ENDBRANCH  33  34
ENDBRANCH   6  33
TORSDOF 7
ENDMDL
