MODEL 1
REMARK VINA RESULT: -6.241876519      0.000      0.000
REMARK  8 active torsions:
REMARK  status: ('A' for Active; 'I' for Inactive)
REMARK    1  A    between atoms: C2_2  and  C3_3 
REMARK    2  A    between atoms: C3_3  and  N1_4 
REMARK    3  A    between atoms: C3_3  and  C11_32 
REMARK       I    between atoms: N1_4  and  C4_6 
REMARK    4  A    between atoms: C4_6  and  C5_8 
REMARK    5  A    between atoms: C8_17  and  N6_18 
REMARK    6  A    between atoms: C10_27  and  N10_28 
REMARK    7  A    between atoms: C11_32  and  O3_33 
REMARK    8  A    between atoms: C11_32  and  O4_35 
ROOT
HETATM    1  C5  UNL     1      58.470  16.825   7.260  1.00  0.00     0.224 C 
HETATM    2  C6  UNL     1      58.041  16.117   8.515  1.00  0.00     0.276 C 
HETATM    3  O2  UNL     1      57.789  14.899   8.670  1.00  0.00    -0.270 OA
HETATM    4  N2  UNL     1      57.955  17.066   9.568  1.00  0.00    -0.042 N 
HETATM    5  C7  UNL     1      57.282  16.890  10.816  1.00  0.00     0.738 A 
HETATM    6  N3  UNL     1      56.667  15.967  11.565  1.00  0.00    -0.112 N 
ATOM      7  H3  UNL     1      56.463  14.972  11.461  1.00  0.00     0.203 HD
HETATM    8  N4  UNL     1      56.434  16.876  12.497  1.00  0.00     0.013 NA
HETATM    9  N5  UNL     1      57.037  17.810  11.778  1.00  0.00    -0.055 N 
HETATM   10  C8  UNL     1      57.348  19.196  11.867  1.00  0.00     0.426 C 
HETATM   11  N7  UNL     1      58.334  19.702  11.013  1.00  0.00    -0.318 N 
ATOM     12  H7  UNL     1      58.698  20.586  11.366  1.00  0.00     0.166 HD
HETATM   13  C9  UNL     1      58.912  19.380   9.920  1.00  0.00     0.211 C 
HETATM   14  N8  UNL     1      59.899  20.255   9.415  1.00  0.00    -0.062 NA
HETATM   15  N9  UNL     1      58.656  18.226   9.161  1.00  0.00    -0.208 N 
HETATM   16  C10 UNL     1      59.104  18.065   7.788  1.00  0.00     0.330 C 
ENDROOT
BRANCH   1  17
HETATM   17  C4  UNL     1      59.313  16.007   6.404  1.00  0.00     0.235 C 
HETATM   18  N1  UNL     1      58.902  14.686   6.075  1.00  0.00    -0.351 N 
ATOM     19  H1  UNL     1      58.020  14.334   6.448  1.00  0.00     0.163 HD
HETATM   20  O1  UNL     1      60.389  16.488   5.971  1.00  0.00    -0.272 OA
BRANCH  18  21
HETATM   21  C3  UNL     1      59.705  13.821   5.220  1.00  0.00     0.139 C 
BRANCH  21  22
HETATM   22  C2  UNL     1      59.026  13.538   3.911  1.00  0.00     0.025 C 
HETATM   23  C1  UNL     1      59.288  14.580   2.867  1.00  0.00     0.007 C 
ENDBRANCH  21  22
BRANCH  21  24
HETATM   24  C11 UNL     1      60.095  12.549   5.945  1.00  0.00     0.276 C 
BRANCH  24  25
HETATM   25  O3  UNL     1      59.470  11.468   5.326  1.00  0.00    -0.369 OA
ATOM     26  H3  UNL     1      60.099  10.763   5.230  1.00  0.00     0.212 HD
ENDBRANCH  24  25
BRANCH  24  27
HETATM   27  O4  UNL     1      59.644  12.615   7.244  1.00  0.00    -0.369 OA
ATOM     28  H4  UNL     1      59.051  11.890   7.404  1.00  0.00     0.212 HD
ENDBRANCH  24  27
ENDBRANCH  21  24
ENDBRANCH  18  21
ENDBRANCH   1  17
BRANCH  16  29
HETATM   29  N10 UNL     1      58.593  19.241   7.066  1.00  0.00    -0.055 N 
ATOM     30 3H10 UNL     1      58.710  19.150   6.056  1.00  0.00     0.276 HD
ATOM     31 2H10 UNL     1      57.575  19.293   7.094  1.00  0.00     0.276 HD
ATOM     32 1H10 UNL     1      59.028  20.091   7.426  1.00  0.00     0.276 HD
ENDBRANCH  16  29
BRANCH  10  33
HETATM   33  N6  UNL     1      56.107  19.955  11.642  1.00  0.00    -0.038 N 
ATOM     34  H63 UNL     1      55.465  19.483  11.007  1.00  0.00     0.279 HD
ATOM     35  H62 UNL     1      55.500  19.972  12.462  1.00  0.00     0.279 HD
ATOM     36  H61 UNL     1      56.364  20.889  11.322  1.00  0.00     0.279 HD
ENDBRANCH  10  33
TORSDOF 8
ENDMDL
MODEL 2
REMARK VINA RESULT: -6.073052414      1.381      1.756
REMARK  8 active torsions:
REMARK  status: ('A' for Active; 'I' for Inactive)
REMARK    1  A    between atoms: C2_2  and  C3_3 
REMARK    2  A    between atoms: C3_3  and  N1_4 
REMARK    3  A    between atoms: C3_3  and  C11_32 
REMARK       I    between atoms: N1_4  and  C4_6 
REMARK    4  A    between atoms: C4_6  and  C5_8 
REMARK    5  A    between atoms: C8_17  and  N6_18 
REMARK    6  A    between atoms: C10_27  and  N10_28 
REMARK    7  A    between atoms: C11_32  and  O3_33 
REMARK    8  A    between atoms: C11_32  and  O4_35 
ROOT
HETATM    1  C5  UNL     1      57.498  16.714   8.224  1.00  0.00     0.224 C 
HETATM    2  C6  UNL     1      57.109  15.727   9.290  1.00  0.00     0.276 C 
HETATM    3  O2  UNL     1      57.021  14.481   9.196  1.00  0.00    -0.270 OA
HETATM    4  N2  UNL     1      56.839  16.435  10.490  1.00  0.00    -0.042 N 
HETATM    5  C7  UNL     1      56.135  15.938  11.629  1.00  0.00     0.738 A 
HETATM    6  N3  UNL     1      55.618  14.816  12.146  1.00  0.00    -0.112 N 
ATOM      7  H3  UNL     1      55.559  13.843  11.844  1.00  0.00     0.203 HD
HETATM    8  N4  UNL     1      55.214  15.490  13.210  1.00  0.00     0.013 NA
HETATM    9  N5  UNL     1      55.716  16.615  12.724  1.00  0.00    -0.055 N 
HETATM   10  C8  UNL     1      55.828  17.985  13.092  1.00  0.00     0.426 C 
HETATM   11  N7  UNL     1      56.775  18.768  12.424  1.00  0.00    -0.318 N 
ATOM     12  H7  UNL     1      56.995  19.606  12.961  1.00  0.00     0.166 HD
HETATM   13  C9  UNL     1      57.446  18.739  11.337  1.00  0.00     0.211 C 
HETATM   14  N8  UNL     1      58.327  19.814  11.080  1.00  0.00    -0.062 NA
HETATM   15  N9  UNL     1      57.392  17.732  10.360  1.00  0.00    -0.208 N 
HETATM   16  C10 UNL     1      57.926  17.898   9.019  1.00  0.00     0.330 C 
ENDROOT
BRANCH   1  17
HETATM   17  C4  UNL     1      58.488  16.191   7.297  1.00  0.00     0.235 C 
HETATM   18  N1  UNL     1      58.315  14.890   6.749  1.00  0.00    -0.351 N 
ATOM     19  H1  UNL     1      57.496  14.344   7.019  1.00  0.00     0.163 HD
HETATM   20  O1  UNL     1      59.478  16.903   6.998  1.00  0.00    -0.272 OA
BRANCH  18  21
HETATM   21  C3  UNL     1      59.273  14.314   5.815  1.00  0.00     0.139 C 
BRANCH  21  22
HETATM   22  C2  UNL     1      58.594  13.583   4.693  1.00  0.00     0.025 C 
HETATM   23  C1  UNL     1      59.546  12.860   3.791  1.00  0.00     0.007 C 
ENDBRANCH  21  22
BRANCH  21  24
HETATM   24  C11 UNL     1      60.280  13.442   6.536  1.00  0.00     0.276 C 
BRANCH  24  25
HETATM   25  O3  UNL     1      59.598  12.440   7.224  1.00  0.00    -0.369 OA
ATOM     26  H3  UNL     1      59.700  11.620   6.755  1.00  0.00     0.212 HD
ENDBRANCH  24  25
BRANCH  24  27
HETATM   27  O4  UNL     1      60.959  14.206   7.458  1.00  0.00    -0.369 OA
ATOM     28  H4  UNL     1      61.386  13.631   8.083  1.00  0.00     0.212 HD
ENDBRANCH  24  27
ENDBRANCH  21  24
ENDBRANCH  18  21
ENDBRANCH   1  17
BRANCH  16  29
HETATM   29  N10 UNL     1      57.294  19.118   8.491  1.00  0.00    -0.055 N 
ATOM     30 3H10 UNL     1      56.606  18.908   7.767  1.00  0.00     0.276 HD
ATOM     31 2H10 UNL     1      56.669  19.549   9.171  1.00  0.00     0.276 HD
ATOM     32 1H10 UNL     1      58.007  19.769   8.162  1.00  0.00     0.276 HD
ENDBRANCH  16  29
BRANCH  10  33
HETATM   33  N6  UNL     1      54.506  18.610  12.918  1.00  0.00    -0.038 N 
ATOM     34  H63 UNL     1      53.749  17.929  12.881  1.00  0.00     0.279 HD
ATOM     35  H62 UNL     1      54.195  19.114  13.749  1.00  0.00     0.279 HD
ATOM     36  H61 UNL     1      54.545  19.203  12.089  1.00  0.00     0.279 HD
ENDBRANCH  10  33
TORSDOF 8
ENDMDL
MODEL 3
REMARK VINA RESULT: -5.961529419      2.630      3.696
REMARK  8 active torsions:
REMARK  status: ('A' for Active; 'I' for Inactive)
REMARK    1  A    between atoms: C2_2  and  C3_3 
REMARK    2  A    between atoms: C3_3  and  N1_4 
REMARK    3  A    between atoms: C3_3  and  C11_32 
REMARK       I    between atoms: N1_4  and  C4_6 
REMARK    4  A    between atoms: C4_6  and  C5_8 
REMARK    5  A    between atoms: C8_17  and  N6_18 
REMARK    6  A    between atoms: C10_27  and  N10_28 
REMARK    7  A    between atoms: C11_32  and  O3_33 
REMARK    8  A    between atoms: C11_32  and  O4_35 
ROOT
HETATM    1  C5  UNL     1      57.276  16.878   8.519  1.00  0.00     0.224 C 
HETATM    2  C6  UNL     1      56.036  16.151   8.079  1.00  0.00     0.276 C 
HETATM    3  O2  UNL     1      55.713  15.802   6.920  1.00  0.00    -0.270 OA
HETATM    4  N2  UNL     1      55.228  15.895   9.218  1.00  0.00    -0.042 N 
HETATM    5  C7  UNL     1      53.847  15.532   9.216  1.00  0.00     0.738 A 
HETATM    6  N3  UNL     1      52.850  15.172   8.398  1.00  0.00    -0.112 N 
ATOM      7  H3  UNL     1      52.758  15.029   7.392  1.00  0.00     0.203 HD
HETATM    8  N4  UNL     1      52.032  15.079   9.433  1.00  0.00     0.013 NA
HETATM    9  N5  UNL     1      52.999  15.432  10.266  1.00  0.00    -0.055 N 
HETATM   10  C8  UNL     1      53.186  15.648  11.660  1.00  0.00     0.426 C 
HETATM   11  N7  UNL     1      54.497  15.665  12.150  1.00  0.00    -0.318 N 
ATOM     12  H7  UNL     1      54.507  15.504  13.156  1.00  0.00     0.166 HD
HETATM   13  C9  UNL     1      55.684  15.824  11.705  1.00  0.00     0.211 C 
HETATM   14  N8  UNL     1      56.748  15.753  12.631  1.00  0.00    -0.062 NA
HETATM   15  N9  UNL     1      56.038  16.065  10.367  1.00  0.00    -0.208 N 
HETATM   16  C10 UNL     1      57.350  16.545   9.969  1.00  0.00     0.330 C 
ENDROOT
BRANCH   1  17
HETATM   17  C4  UNL     1      58.450  16.530   7.736  1.00  0.00     0.235 C 
HETATM   18  N1  UNL     1      58.450  15.330   6.973  1.00  0.00    -0.351 N 
ATOM     19  H1  UNL     1      57.622  14.733   6.989  1.00  0.00     0.163 HD
HETATM   20  O1  UNL     1      59.442  17.299   7.751  1.00  0.00    -0.272 OA
BRANCH  18  21
HETATM   21  C3  UNL     1      59.596  14.928   6.169  1.00  0.00     0.139 C 
BRANCH  21  22
HETATM   22  C2  UNL     1      59.186  14.437   4.810  1.00  0.00     0.025 C 
HETATM   23  C1  UNL     1      59.359  15.459   3.730  1.00  0.00     0.007 C 
ENDBRANCH  21  22
BRANCH  21  24
HETATM   24  C11 UNL     1      60.452  13.919   6.905  1.00  0.00     0.276 C 
BRANCH  24  25
HETATM   25  O3  UNL     1      59.666  12.816   7.234  1.00  0.00    -0.369 OA
ATOM     26  H3  UNL     1      58.832  12.887   6.784  1.00  0.00     0.212 HD
ENDBRANCH  24  25
BRANCH  24  27
HETATM   27  O4  UNL     1      60.906  14.482   8.076  1.00  0.00    -0.369 OA
ATOM     28  H4  UNL     1      61.624  13.960   8.414  1.00  0.00     0.212 HD
ENDBRANCH  24  27
ENDBRANCH  21  24
ENDBRANCH  18  21
ENDBRANCH   1  17
BRANCH  16  29
HETATM   29  N10 UNL     1      57.580  17.767  10.758  1.00  0.00    -0.055 N 
ATOM     30 3H10 UNL     1      57.080  17.746  11.647  1.00  0.00     0.276 HD
ATOM     31 2H10 UNL     1      58.531  17.813  11.121  1.00  0.00     0.276 HD
ATOM     32 1H10 UNL     1      57.342  18.591  10.206  1.00  0.00     0.276 HD
ENDBRANCH  16  29
BRANCH  10  33
HETATM   33  N6  UNL     1      52.545  16.926  12.012  1.00  0.00    -0.038 N 
ATOM     34  H63 UNL     1      53.207  17.617  12.362  1.00  0.00     0.279 HD
ATOM     35  H62 UNL     1      52.226  17.446  11.194  1.00  0.00     0.279 HD
ATOM     36  H61 UNL     1      51.793  16.729  12.673  1.00  0.00     0.279 HD
ENDBRANCH  10  33
TORSDOF 8
ENDMDL
MODEL 4
REMARK VINA RESULT: -5.789331666      3.131      4.222
REMARK  8 active torsions:
REMARK  status: ('A' for Active; 'I' for Inactive)
REMARK    1  A    between atoms: C2_2  and  C3_3 
REMARK    2  A    between atoms: C3_3  and  N1_4 
REMARK    3  A    between atoms: C3_3  and  C11_32 
REMARK       I    between atoms: N1_4  and  C4_6 
REMARK    4  A    between atoms: C4_6  and  C5_8 
REMARK    5  A    between atoms: C8_17  and  N6_18 
REMARK    6  A    between atoms: C10_27  and  N10_28 
REMARK    7  A    between atoms: C11_32  and  O3_33 
REMARK    8  A    between atoms: C11_32  and  O4_35 
ROOT
HETATM    1  C5  UNL     1      57.181  16.509   8.070  1.00  0.00     0.224 C 
HETATM    2  C6  UNL     1      55.927  16.151   7.321  1.00  0.00     0.276 C 
HETATM    3  O2  UNL     1      55.741  16.142   6.082  1.00  0.00    -0.270 OA
HETATM    4  N2  UNL     1      54.920  15.802   8.259  1.00  0.00    -0.042 N 
HETATM    5  C7  UNL     1      53.516  15.719   8.006  1.00  0.00     0.738 A 
HETATM    6  N3  UNL     1      52.617  15.752   7.014  1.00  0.00    -0.112 N 
ATOM      7  H3  UNL     1      52.664  15.861   6.001  1.00  0.00     0.203 HD
HETATM    8  N4  UNL     1      51.642  15.585   7.892  1.00  0.00     0.013 NA
HETATM    9  N5  UNL     1      52.508  15.548   8.892  1.00  0.00    -0.055 N 
HETATM   10  C8  UNL     1      52.504  15.402  10.308  1.00  0.00     0.426 C 
HETATM   11  N7  UNL     1      53.707  15.057  10.934  1.00  0.00    -0.318 N 
ATOM     12  H7  UNL     1      53.533  14.672  11.862  1.00  0.00     0.166 HD
HETATM   13  C9  UNL     1      54.960  15.083  10.683  1.00  0.00     0.211 C 
HETATM   14  N8  UNL     1      55.840  14.602  11.678  1.00  0.00    -0.062 NA
HETATM   15  N9  UNL     1      55.554  15.549   9.499  1.00  0.00    -0.208 N 
HETATM   16  C10 UNL     1      56.972  15.847   9.388  1.00  0.00     0.330 C 
ENDROOT
BRANCH   1  17
HETATM   17  C4  UNL     1      58.394  16.129   7.365  1.00  0.00     0.235 C 
HETATM   18  N1  UNL     1      58.395  14.961   6.554  1.00  0.00    -0.351 N 
ATOM     19  H1  UNL     1      57.540  14.408   6.481  1.00  0.00     0.163 HD
HETATM   20  O1  UNL     1      59.419  16.843   7.489  1.00  0.00    -0.272 OA
BRANCH  18  21
HETATM   21  C3  UNL     1      59.580  14.531   5.823  1.00  0.00     0.139 C 
BRANCH  21  22
HETATM   22  C2  UNL     1      59.231  13.920   4.496  1.00  0.00     0.025 C 
HETATM   23  C1  UNL     1      57.766  13.662   4.326  1.00  0.00     0.007 C 
ENDBRANCH  21  22
BRANCH  21  24
HETATM   24  C11 UNL     1      60.436  13.610   6.667  1.00  0.00     0.276 C 
BRANCH  24  25
HETATM   25  O3  UNL     1      59.628  12.607   7.201  1.00  0.00    -0.369 OA
ATOM     26  H3  UNL     1      60.127  12.123   7.848  1.00  0.00     0.212 HD
ENDBRANCH  24  25
BRANCH  24  27
HETATM   27  O4  UNL     1      60.972  14.327   7.713  1.00  0.00    -0.369 OA
ATOM     28  H4  UNL     1      61.534  13.756   8.224  1.00  0.00     0.212 HD
ENDBRANCH  24  27
ENDBRANCH  21  24
ENDBRANCH  18  21
ENDBRANCH   1  17
BRANCH  16  29
HETATM   29  N10 UNL     1      57.263  16.791  10.480  1.00  0.00    -0.055 N 
ATOM     30 3H10 UNL     1      58.109  16.535  10.989  1.00  0.00     0.276 HD
ATOM     31 2H10 UNL     1      57.568  17.698  10.128  1.00  0.00     0.276 HD
ATOM     32 1H10 UNL     1      56.456  16.873  11.097  1.00  0.00     0.276 HD
ENDBRANCH  16  29
BRANCH  10  33
HETATM   33  N6  UNL     1      52.025  16.665  10.893  1.00  0.00    -0.038 N 
ATOM     34  H63 UNL     1      52.282  17.481  10.338  1.00  0.00     0.279 HD
ATOM     35  H62 UNL     1      51.012  16.771  10.828  1.00  0.00     0.279 HD
ATOM     36  H61 UNL     1      52.366  16.717  11.853  1.00  0.00     0.279 HD
ENDBRANCH  10  33
TORSDOF 8
ENDMDL
MODEL 5
REMARK VINA RESULT: -5.756296265      2.631      7.126
REMARK  8 active torsions:
REMARK  status: ('A' for Active; 'I' for Inactive)
REMARK    1  A    between atoms: C2_2  and  C3_3 
REMARK    2  A    between atoms: C3_3  and  N1_4 
REMARK    3  A    between atoms: C3_3  and  C11_32 
REMARK       I    between atoms: N1_4  and  C4_6 
REMARK    4  A    between atoms: C4_6  and  C5_8 
REMARK    5  A    between atoms: C8_17  and  N6_18 
REMARK    6  A    between atoms: C10_27  and  N10_28 
REMARK    7  A    between atoms: C11_32  and  O3_33 
REMARK    8  A    between atoms: C11_32  and  O4_35 
ROOT
HETATM    1  C5  UNL     1      58.523  16.693   7.886  1.00  0.00     0.224 C 
HETATM    2  C6  UNL     1      59.357  15.444   7.816  1.00  0.00     0.276 C 
HETATM    3  O2  UNL     1      60.319  15.114   8.548  1.00  0.00    -0.270 OA
HETATM    4  N2  UNL     1      58.884  14.639   6.747  1.00  0.00    -0.042 N 
HETATM    5  C7  UNL     1      59.578  13.552   6.131  1.00  0.00     0.738 A 
HETATM    6  N3  UNL     1      60.668  12.785   6.259  1.00  0.00    -0.112 N 
ATOM      7  H3  UNL     1      61.442  12.736   6.923  1.00  0.00     0.203 HD
HETATM    8  N4  UNL     1      60.329  12.119   5.168  1.00  0.00     0.013 NA
HETATM    9  N5  UNL     1      59.243  12.861   5.017  1.00  0.00    -0.055 N 
HETATM   10  C8  UNL     1      58.141  12.978   4.123  1.00  0.00     0.426 C 
HETATM   11  N7  UNL     1      57.016  13.685   4.560  1.00  0.00    -0.318 N 
ATOM     12  H7  UNL     1      56.198  13.441   4.002  1.00  0.00     0.166 HD
HETATM   13  C9  UNL     1      56.713  14.547   5.453  1.00  0.00     0.211 C 
HETATM   14  N8  UNL     1      55.373  14.990   5.511  1.00  0.00    -0.062 NA
HETATM   15  N9  UNL     1      57.595  15.105   6.394  1.00  0.00    -0.208 N 
HETATM   16  C10 UNL     1      57.280  16.293   7.168  1.00  0.00     0.330 C 
ENDROOT
BRANCH   1  17
HETATM   17  C4  UNL     1      58.332  17.176   9.243  1.00  0.00     0.235 C 
HETATM   18  N1  UNL     1      57.308  16.608  10.050  1.00  0.00    -0.351 N 
ATOM     19  H1  UNL     1      56.722  15.868   9.660  1.00  0.00     0.163 HD
HETATM   20  O1  UNL     1      59.079  18.087   9.676  1.00  0.00    -0.272 OA
BRANCH  18  21
HETATM   21  C3  UNL     1      57.070  17.050  11.418  1.00  0.00     0.139 C 
BRANCH  21  22
HETATM   22  C2  UNL     1      56.392  15.993  12.241  1.00  0.00     0.025 C 
HETATM   23  C1  UNL     1      55.758  14.914  11.419  1.00  0.00     0.007 C 
ENDBRANCH  21  22
BRANCH  21  24
HETATM   24  C11 UNL     1      56.314  18.362  11.442  1.00  0.00     0.276 C 
BRANCH  24  25
HETATM   25  O3  UNL     1      57.209  19.394  11.720  1.00  0.00    -0.369 OA
ATOM     26  H3  UNL     1      57.191  20.018  11.005  1.00  0.00     0.212 HD
ENDBRANCH  24  25
BRANCH  24  27
HETATM   27  O4  UNL     1      55.381  18.325  12.454  1.00  0.00    -0.369 OA
ATOM     28  H4  UNL     1      55.239  19.206  12.778  1.00  0.00     0.212 HD
ENDBRANCH  24  27
ENDBRANCH  21  24
ENDBRANCH  18  21
ENDBRANCH   1  17
BRANCH  16  29
HETATM   29  N10 UNL     1      56.914  17.321   6.180  1.00  0.00    -0.055 N 
ATOM     30 3H10 UNL     1      56.859  18.250   6.599  1.00  0.00     0.276 HD
ATOM     31 2H10 UNL     1      57.668  17.500   5.518  1.00  0.00     0.276 HD
ATOM     32 1H10 UNL     1      56.047  17.063   5.710  1.00  0.00     0.276 HD
ENDBRANCH  16  29
BRANCH  10  33
HETATM   33  N6  UNL     1      58.628  13.604   2.883  1.00  0.00    -0.038 N 
ATOM     34  H63 UNL     1      59.643  13.707   2.864  1.00  0.00     0.279 HD
ATOM     35  H62 UNL     1      58.538  12.993   2.071  1.00  0.00     0.279 HD
ATOM     36  H61 UNL     1      58.140  14.492   2.766  1.00  0.00     0.279 HD
ENDBRANCH  10  33
TORSDOF 8
ENDMDL
