MODEL 1
REMARK VINA RESULT: -6.090922074      0.000      0.000
REMARK  9 active torsions:
REMARK  status: ('A' for Active; 'I' for Inactive)
REMARK       I    between atoms: N1_2  and  C2_3 
REMARK    1  A    between atoms: N1_2  and  C6_13 
REMARK    2  A    between atoms: C2_3  and  O2_5 
REMARK    3  A    between atoms: O2_5  and  C3_6 
REMARK    4  A    between atoms: C3_6  and  C4_7 
REMARK    5  A    between atoms: C4_7  and  O3_8 
REMARK    6  A    between atoms: C4_7  and  C5_10 
REMARK    7  A    between atoms: C5_10  and  O4_11 
REMARK       I    between atoms: N4_18  and  C8_19 
REMARK       I    between atoms: C8_19  and  N5_21 
REMARK    8  A    between atoms: N5_21  and  N6_23 
REMARK    9  A    between atoms: N6_23  and  N7_24 
ROOT
HETATM    1  C6  UNL     1      58.856  15.270   6.967  1.00  0.00     0.150 C 
HETATM    2  C7  UNL     1      58.216  15.269   5.805  1.00  0.00     0.164 C 
HETATM    3  N2  UNL     1      57.049  16.047   5.691  1.00  0.00    -0.079 NA
HETATM    4  N3  UNL     1      58.511  14.580   4.575  1.00  0.00    -0.271 N 
ATOM      5  H3  UNL     1      58.158  15.035   3.733  1.00  0.00     0.189 HD
HETATM    6  N4  UNL     1      59.213  13.376   4.351  1.00  0.00    -0.150 N 
HETATM    7  C8  UNL     1      59.343  12.938   3.034  1.00  0.00     0.362 C 
HETATM    8  O5  UNL     1      58.760  13.636   2.121  1.00  0.00    -0.243 OA
HETATM    9  N5  UNL     1      60.039  11.826   2.602  1.00  0.00    -0.234 N 
ATOM     10  H5  UNL     1      60.519  11.252   3.295  1.00  0.00     0.189 HD
HETATM   11  C9  UNL     1      59.764  12.597   5.406  1.00  0.00     0.352 C 
HETATM   12  O6  UNL     1      59.735  11.356   5.279  1.00  0.00    -0.244 OA
HETATM   13  N8  UNL     1      60.345  13.130   6.590  1.00  0.00    -0.272 N 
ATOM     14  H8  UNL     1      61.065  12.566   7.043  1.00  0.00     0.174 HD
HETATM   15  C10 UNL     1      60.017  14.389   7.217  1.00  0.00     0.280 C 
HETATM   16  O7  UNL     1      60.851  14.713   8.061  1.00  0.00    -0.265 OA
ENDROOT
BRANCH   1  17
HETATM   17  N1  UNL     1      58.395  16.004   8.059  1.00  0.00    -0.290 N 
HETATM   18  C1  UNL     1      58.875  17.420   8.153  1.00  0.00     0.162 C 
HETATM   19  C2  UNL     1      57.355  15.684   8.949  1.00  0.00     0.367 C 
HETATM   20  O1  UNL     1      56.937  14.542   9.145  1.00  0.00    -0.238 OA
BRANCH  19  21
HETATM   21  O2  UNL     1      56.713  16.699   9.686  1.00  0.00    -0.301 OA
BRANCH  21  22
HETATM   22  C3  UNL     1      55.344  16.609   9.917  1.00  0.00     0.214 C 
BRANCH  22  23
HETATM   23  C4  UNL     1      55.020  16.255  11.324  1.00  0.00     0.166 C 
BRANCH  23  24
HETATM   24  O3  UNL     1      54.997  14.866  11.461  1.00  0.00    -0.391 OA
ATOM     25  H3  UNL     1      54.132  14.541  11.243  1.00  0.00     0.210 HD
ENDBRANCH  23  24
BRANCH  23  26
HETATM   26  C5  UNL     1      56.108  16.755  12.292  1.00  0.00     0.198 C 
BRANCH  26  27
HETATM   27  O4  UNL     1      57.014  15.757  12.607  1.00  0.00    -0.398 OA
ATOM     28  H4  UNL     1      56.654  15.138  13.232  1.00  0.00     0.209 HD
ENDBRANCH  26  27
ENDBRANCH  23  26
ENDBRANCH  22  23
ENDBRANCH  21  22
ENDBRANCH  19  21
ENDBRANCH   1  17
BRANCH   9  29
HETATM   29  N6  UNL     1      60.118  11.446   1.242  1.00  0.00    -0.026 NA
BRANCH  29  30
HETATM   30  N7  UNL     1      60.957  12.306   0.529  1.00  0.00    -0.329 N 
ATOM     31  H72 UNL     1      61.437  13.102   0.947  1.00  0.00     0.174 HD
ATOM     32  H71 UNL     1      61.020  12.028  -0.450  1.00  0.00     0.174 HD
ENDBRANCH  29  30
ENDBRANCH   9  29
TORSDOF 9
ENDMDL
MODEL 2
REMARK VINA RESULT: -5.927052369      4.754      9.470
REMARK  9 active torsions:
REMARK  status: ('A' for Active; 'I' for Inactive)
REMARK       I    between atoms: N1_2  and  C2_3 
REMARK    1  A    between atoms: N1_2  and  C6_13 
REMARK    2  A    between atoms: C2_3  and  O2_5 
REMARK    3  A    between atoms: O2_5  and  C3_6 
REMARK    4  A    between atoms: C3_6  and  C4_7 
REMARK    5  A    between atoms: C4_7  and  O3_8 
REMARK    6  A    between atoms: C4_7  and  C5_10 
REMARK    7  A    between atoms: C5_10  and  O4_11 
REMARK       I    between atoms: N4_18  and  C8_19 
REMARK       I    between atoms: C8_19  and  N5_21 
REMARK    8  A    between atoms: N5_21  and  N6_23 
REMARK    9  A    between atoms: N6_23  and  N7_24 
ROOT
HETATM    1  C6  UNL     1      55.955  17.537   9.788  1.00  0.00     0.150 C 
HETATM    2  C7  UNL     1      55.989  18.203  10.934  1.00  0.00     0.164 C 
HETATM    3  N2  UNL     1      56.876  17.759  11.932  1.00  0.00    -0.079 NA
HETATM    4  N3  UNL     1      55.245  19.358  11.369  1.00  0.00    -0.271 N 
ATOM      5  H3  UNL     1      55.711  19.929  12.073  1.00  0.00     0.189 HD
HETATM    6  N4  UNL     1      53.971  19.821  10.973  1.00  0.00    -0.150 N 
HETATM    7  C8  UNL     1      53.490  20.983  11.575  1.00  0.00     0.362 C 
HETATM    8  O5  UNL     1      54.221  21.516  12.494  1.00  0.00    -0.243 OA
HETATM    9  N5  UNL     1      52.304  21.630  11.286  1.00  0.00    -0.234 N 
ATOM     10  H5  UNL     1      51.703  21.241  10.559  1.00  0.00     0.189 HD
HETATM   11  C9  UNL     1      53.168  19.146  10.014  1.00  0.00     0.352 C 
HETATM   12  O6  UNL     1      51.933  19.149  10.195  1.00  0.00    -0.244 OA
HETATM   13  N8  UNL     1      53.669  18.468   8.868  1.00  0.00    -0.272 N 
ATOM     14  H8  UNL     1      53.048  18.409   8.061  1.00  0.00     0.174 HD
HETATM   15  C10 UNL     1      54.970  17.855   8.732  1.00  0.00     0.280 C 
HETATM   16  O7  UNL     1      55.230  17.584   7.561  1.00  0.00    -0.265 OA
ENDROOT
BRANCH   1  17
HETATM   17  N1  UNL     1      56.758  16.420   9.563  1.00  0.00    -0.290 N 
HETATM   18  C1  UNL     1      56.113  15.086   9.789  1.00  0.00     0.162 C 
HETATM   19  C2  UNL     1      58.008  16.359   8.924  1.00  0.00     0.367 C 
HETATM   20  O1  UNL     1      58.770  17.318   8.798  1.00  0.00    -0.238 OA
BRANCH  19  21
HETATM   21  O2  UNL     1      58.465  15.145   8.371  1.00  0.00    -0.301 OA
BRANCH  21  22
HETATM   22  C3  UNL     1      58.826  15.104   7.028  1.00  0.00     0.214 C 
BRANCH  22  23
HETATM   23  C4  UNL     1      60.225  14.643   6.823  1.00  0.00     0.166 C 
BRANCH  23  24
HETATM   24  O3  UNL     1      60.898  14.639   8.047  1.00  0.00    -0.391 OA
ATOM     25  H3  UNL     1      61.460  13.875   8.096  1.00  0.00     0.210 HD
ENDBRANCH  23  24
BRANCH  23  26
HETATM   26  C5  UNL     1      60.267  13.191   6.315  1.00  0.00     0.198 C 
BRANCH  26  27
HETATM   27  O4  UNL     1      59.605  12.327   7.169  1.00  0.00    -0.398 OA
ATOM     28  H4  UNL     1      59.962  11.447   7.128  1.00  0.00     0.209 HD
ENDBRANCH  26  27
ENDBRANCH  23  26
ENDBRANCH  22  23
ENDBRANCH  21  22
ENDBRANCH  19  21
ENDBRANCH   1  17
BRANCH   9  29
HETATM   29  N6  UNL     1      51.886  22.806  11.949  1.00  0.00    -0.026 NA
BRANCH  29  30
HETATM   30  N7  UNL     1      51.408  22.516  13.229  1.00  0.00    -0.329 N 
ATOM     31  H72 UNL     1      50.575  22.944  13.632  1.00  0.00     0.174 HD
ATOM     32  H71 UNL     1      52.001  21.829  13.695  1.00  0.00     0.174 HD
ENDBRANCH  29  30
ENDBRANCH   9  29
TORSDOF 9
ENDMDL
MODEL 3
REMARK VINA RESULT: -5.837654828      0.629      1.151
REMARK  9 active torsions:
REMARK  status: ('A' for Active; 'I' for Inactive)
REMARK       I    between atoms: N1_2  and  C2_3 
REMARK    1  A    between atoms: N1_2  and  C6_13 
REMARK    2  A    between atoms: C2_3  and  O2_5 
REMARK    3  A    between atoms: O2_5  and  C3_6 
REMARK    4  A    between atoms: C3_6  and  C4_7 
REMARK    5  A    between atoms: C4_7  and  O3_8 
REMARK    6  A    between atoms: C4_7  and  C5_10 
REMARK    7  A    between atoms: C5_10  and  O4_11 
REMARK       I    between atoms: N4_18  and  C8_19 
REMARK       I    between atoms: C8_19  and  N5_21 
REMARK    8  A    between atoms: N5_21  and  N6_23 
REMARK    9  A    between atoms: N6_23  and  N7_24 
ROOT
HETATM    1  C6  UNL     1      58.858  15.243   6.851  1.00  0.00     0.150 C 
HETATM    2  C7  UNL     1      58.269  15.277   5.663  1.00  0.00     0.164 C 
HETATM    3  N2  UNL     1      57.119  16.075   5.516  1.00  0.00    -0.079 NA
HETATM    4  N3  UNL     1      58.607  14.611   4.431  1.00  0.00    -0.271 N 
ATOM      5  H3  UNL     1      58.296  15.089   3.585  1.00  0.00     0.189 HD
HETATM    6  N4  UNL     1      59.300  13.401   4.211  1.00  0.00    -0.150 N 
HETATM    7  C8  UNL     1      59.480  12.991   2.891  1.00  0.00     0.362 C 
HETATM    8  O5  UNL     1      58.948  13.718   1.969  1.00  0.00    -0.243 OA
HETATM    9  N5  UNL     1      60.179  11.878   2.463  1.00  0.00    -0.234 N 
ATOM     10  H5  UNL     1      60.620  11.282   3.164  1.00  0.00     0.189 HD
HETATM   11  C9  UNL     1      59.795  12.592   5.270  1.00  0.00     0.352 C 
HETATM   12  O6  UNL     1      59.753  11.354   5.114  1.00  0.00    -0.244 OA
HETATM   13  N8  UNL     1      60.331  13.090   6.490  1.00  0.00    -0.272 N 
ATOM     14  H8  UNL     1      61.022  12.505   6.960  1.00  0.00     0.174 HD
HETATM   15  C10 UNL     1      59.995  14.340   7.131  1.00  0.00     0.280 C 
HETATM   16  O7  UNL     1      60.796  14.632   8.016  1.00  0.00    -0.265 OA
ENDROOT
BRANCH   1  17
HETATM   17  N1  UNL     1      58.360  15.960   7.938  1.00  0.00    -0.290 N 
HETATM   18  C1  UNL     1      58.789  17.392   8.038  1.00  0.00     0.162 C 
HETATM   19  C2  UNL     1      57.323  15.603   8.818  1.00  0.00     0.367 C 
HETATM   20  O1  UNL     1      56.944  14.447   9.009  1.00  0.00    -0.238 OA
BRANCH  19  21
HETATM   21  O2  UNL     1      56.639  16.595   9.549  1.00  0.00    -0.301 OA
BRANCH  21  22
HETATM   22  C3  UNL     1      56.825  16.673  10.926  1.00  0.00     0.214 C 
BRANCH  22  23
HETATM   23  C4  UNL     1      56.219  15.527  11.653  1.00  0.00     0.166 C 
BRANCH  23  24
HETATM   24  O3  UNL     1      56.460  15.664  13.022  1.00  0.00    -0.391 OA
ATOM     25  H3  UNL     1      56.656  16.572  13.219  1.00  0.00     0.210 HD
ENDBRANCH  23  24
BRANCH  23  26
HETATM   26  C5  UNL     1      54.688  15.509  11.496  1.00  0.00     0.198 C 
BRANCH  26  27
HETATM   27  O4  UNL     1      54.293  14.784  10.385  1.00  0.00    -0.398 OA
ATOM     28  H4  UNL     1      53.450  15.073  10.057  1.00  0.00     0.209 HD
ENDBRANCH  26  27
ENDBRANCH  23  26
ENDBRANCH  22  23
ENDBRANCH  21  22
ENDBRANCH  19  21
ENDBRANCH   1  17
BRANCH   9  29
HETATM   29  N6  UNL     1      60.311  11.527   1.100  1.00  0.00    -0.026 NA
BRANCH  29  30
HETATM   30  N7  UNL     1      59.061  11.326   0.511  1.00  0.00    -0.329 N 
ATOM     31  H72 UNL     1      58.203  11.765   0.842  1.00  0.00     0.174 HD
ATOM     32  H71 UNL     1      59.128  10.688  -0.282  1.00  0.00     0.174 HD
ENDBRANCH  29  30
ENDBRANCH   9  29
TORSDOF 9
ENDMDL
MODEL 4
REMARK VINA RESULT: -5.718254117      2.149      3.110
REMARK  9 active torsions:
REMARK  status: ('A' for Active; 'I' for Inactive)
REMARK       I    between atoms: N1_2  and  C2_3 
REMARK    1  A    between atoms: N1_2  and  C6_13 
REMARK    2  A    between atoms: C2_3  and  O2_5 
REMARK    3  A    between atoms: O2_5  and  C3_6 
REMARK    4  A    between atoms: C3_6  and  C4_7 
REMARK    5  A    between atoms: C4_7  and  O3_8 
REMARK    6  A    between atoms: C4_7  and  C5_10 
REMARK    7  A    between atoms: C5_10  and  O4_11 
REMARK       I    between atoms: N4_18  and  C8_19 
REMARK       I    between atoms: C8_19  and  N5_21 
REMARK    8  A    between atoms: N5_21  and  N6_23 
REMARK    9  A    between atoms: N6_23  and  N7_24 
ROOT
HETATM    1  C6  UNL     1      59.035  15.452   6.722  1.00  0.00     0.150 C 
HETATM    2  C7  UNL     1      58.511  15.500   5.505  1.00  0.00     0.164 C 
HETATM    3  N2  UNL     1      57.466  16.412   5.269  1.00  0.00    -0.079 NA
HETATM    4  N3  UNL     1      58.833  14.751   4.317  1.00  0.00    -0.271 N 
ATOM      5  H3  UNL     1      58.619  15.224   3.439  1.00  0.00     0.189 HD
HETATM    6  N4  UNL     1      59.398  13.464   4.178  1.00  0.00    -0.150 N 
HETATM    7  C8  UNL     1      59.595  12.982   2.885  1.00  0.00     0.362 C 
HETATM    8  O5  UNL     1      59.192  13.723   1.911  1.00  0.00    -0.243 OA
HETATM    9  N5  UNL     1      60.186  11.783   2.536  1.00  0.00    -0.234 N 
ATOM     10  H5  UNL     1      60.524  11.172   3.280  1.00  0.00     0.189 HD
HETATM   11  C9  UNL     1      59.748  12.651   5.290  1.00  0.00     0.352 C 
HETATM   12  O6  UNL     1      59.576  11.420   5.177  1.00  0.00    -0.244 OA
HETATM   13  N8  UNL     1      60.276  13.138   6.518  1.00  0.00    -0.272 N 
ATOM     14  H8  UNL     1      60.875  12.502   7.045  1.00  0.00     0.174 HD
HETATM   15  C10 UNL     1      60.050  14.443   7.095  1.00  0.00     0.280 C 
HETATM   16  O7  UNL     1      60.834  14.683   8.010  1.00  0.00    -0.265 OA
ENDROOT
BRANCH   1  17
HETATM   17  N1  UNL     1      58.568  16.264   7.755  1.00  0.00    -0.290 N 
HETATM   18  C1  UNL     1      57.579  15.639   8.692  1.00  0.00     0.162 C 
HETATM   19  C2  UNL     1      59.072  17.503   8.187  1.00  0.00     0.367 C 
HETATM   20  O1  UNL     1      59.761  18.251   7.492  1.00  0.00    -0.238 OA
BRANCH  19  21
HETATM   21  O2  UNL     1      58.804  17.964   9.492  1.00  0.00    -0.301 OA
BRANCH  21  22
HETATM   22  C3  UNL     1      58.169  19.190   9.662  1.00  0.00     0.214 C 
BRANCH  22  23
HETATM   23  C4  UNL     1      59.036  20.199  10.325  1.00  0.00     0.166 C 
BRANCH  23  24
HETATM   24  O3  UNL     1      60.178  19.572  10.830  1.00  0.00    -0.391 OA
ATOM     25  H3  UNL     1      60.535  20.091  11.541  1.00  0.00     0.210 HD
ENDBRANCH  23  24
BRANCH  23  26
HETATM   26  C5  UNL     1      59.543  21.250   9.321  1.00  0.00     0.198 C 
BRANCH  26  27
HETATM   27  O4  UNL     1      60.808  20.944   8.851  1.00  0.00    -0.398 OA
ATOM     28  H4  UNL     1      60.842  20.074   8.471  1.00  0.00     0.209 HD
ENDBRANCH  26  27
ENDBRANCH  23  26
ENDBRANCH  22  23
ENDBRANCH  21  22
ENDBRANCH  19  21
ENDBRANCH   1  17
BRANCH   9  29
HETATM   29  N6  UNL     1      60.344  11.363   1.195  1.00  0.00    -0.026 NA
BRANCH  29  30
HETATM   30  N7  UNL     1      59.110  11.275   0.548  1.00  0.00    -0.329 N 
ATOM     31  H72 UNL     1      58.894  10.580  -0.165  1.00  0.00     0.174 HD
ATOM     32  H71 UNL     1      58.468  11.993   0.885  1.00  0.00     0.174 HD
ENDBRANCH  29  30
ENDBRANCH   9  29
TORSDOF 9
ENDMDL
MODEL 5
REMARK VINA RESULT: -5.698700401      1.267      1.729
REMARK  9 active torsions:
REMARK  status: ('A' for Active; 'I' for Inactive)
REMARK       I    between atoms: N1_2  and  C2_3 
REMARK    1  A    between atoms: N1_2  and  C6_13 
REMARK    2  A    between atoms: C2_3  and  O2_5 
REMARK    3  A    between atoms: O2_5  and  C3_6 
REMARK    4  A    between atoms: C3_6  and  C4_7 
REMARK    5  A    between atoms: C4_7  and  O3_8 
REMARK    6  A    between atoms: C4_7  and  C5_10 
REMARK    7  A    between atoms: C5_10  and  O4_11 
REMARK       I    between atoms: N4_18  and  C8_19 
REMARK       I    between atoms: C8_19  and  N5_21 
REMARK    8  A    between atoms: N5_21  and  N6_23 
REMARK    9  A    between atoms: N6_23  and  N7_24 
ROOT
HETATM    1  C6  UNL     1      58.701  15.202   6.982  1.00  0.00     0.150 C 
HETATM    2  C7  UNL     1      58.104  15.245   5.799  1.00  0.00     0.164 C 
HETATM    3  N2  UNL     1      56.929  16.009   5.677  1.00  0.00    -0.079 NA
HETATM    4  N3  UNL     1      58.456  14.619   4.550  1.00  0.00    -0.271 N 
ATOM      5  H3  UNL     1      58.125  15.106   3.717  1.00  0.00     0.189 HD
HETATM    6  N4  UNL     1      59.186  13.437   4.298  1.00  0.00    -0.150 N 
HETATM    7  C8  UNL     1      59.371  13.063   2.968  1.00  0.00     0.362 C 
HETATM    8  O5  UNL     1      58.810  13.794   2.066  1.00  0.00    -0.243 OA
HETATM    9  N5  UNL     1      60.102  11.984   2.511  1.00  0.00    -0.234 N 
ATOM     10  H5  UNL     1      60.567  11.386   3.195  1.00  0.00     0.189 HD
HETATM   11  C9  UNL     1      59.712  12.619   5.335  1.00  0.00     0.352 C 
HETATM   12  O6  UNL     1      59.708  11.385   5.150  1.00  0.00    -0.244 OA
HETATM   13  N8  UNL     1      60.239  13.106   6.564  1.00  0.00    -0.272 N 
ATOM     14  H8  UNL     1      60.952  12.532   7.016  1.00  0.00     0.174 HD
HETATM   15  C10 UNL     1      59.868  14.329   7.235  1.00  0.00     0.280 C 
HETATM   16  O7  UNL     1      60.664  14.626   8.123  1.00  0.00    -0.265 OA
ENDROOT
BRANCH   1  17
HETATM   17  N1  UNL     1      58.187  15.877   8.089  1.00  0.00    -0.290 N 
HETATM   18  C1  UNL     1      57.111  15.170   8.854  1.00  0.00     0.162 C 
HETATM   19  C2  UNL     1      58.702  17.017   8.731  1.00  0.00     0.367 C 
HETATM   20  O1  UNL     1      59.466  17.825   8.201  1.00  0.00    -0.238 OA
BRANCH  19  21
HETATM   21  O2  UNL     1      58.354  17.298  10.067  1.00  0.00    -0.301 OA
BRANCH  21  22
HETATM   22  C3  UNL     1      57.498  18.360  10.338  1.00  0.00     0.214 C 
BRANCH  22  23
HETATM   23  C4  UNL     1      56.909  18.289  11.702  1.00  0.00     0.166 C 
BRANCH  23  24
HETATM   24  O3  UNL     1      55.899  19.247  11.823  1.00  0.00    -0.391 OA
ATOM     25  H3  UNL     1      55.521  19.199  12.693  1.00  0.00     0.210 HD
ENDBRANCH  23  24
BRANCH  23  26
HETATM   26  C5  UNL     1      56.231  16.930  11.950  1.00  0.00     0.198 C 
BRANCH  26  27
HETATM   27  O4  UNL     1      57.123  15.990  12.435  1.00  0.00    -0.398 OA
ATOM     28  H4  UNL     1      57.657  15.619  11.742  1.00  0.00     0.209 HD
ENDBRANCH  26  27
ENDBRANCH  23  26
ENDBRANCH  22  23
ENDBRANCH  21  22
ENDBRANCH  19  21
ENDBRANCH   1  17
BRANCH   9  29
HETATM   29  N6  UNL     1      60.237  11.669   1.139  1.00  0.00    -0.026 NA
BRANCH  29  30
HETATM   30  N7  UNL     1      58.991  11.440   0.552  1.00  0.00    -0.329 N 
ATOM     31  H72 UNL     1      58.695  10.535   0.190  1.00  0.00     0.174 HD
ATOM     32  H71 UNL     1      58.430  12.292   0.538  1.00  0.00     0.174 HD
ENDBRANCH  29  30
ENDBRANCH   9  29
TORSDOF 9
ENDMDL
