MODEL 1
REMARK VINA RESULT: -5.042614437      0.000      0.000
REMARK  10 active torsions:
REMARK  status: ('A' for Active; 'I' for Inactive)
REMARK    1  A    between atoms: N1_1  and  C1_5 
REMARK    2  A    between atoms: C1_5  and  N2_6 
REMARK    3  A    between atoms: C1_5  and  C2_10 
REMARK    4  A    between atoms: C2_10  and  O1_11 
REMARK    5  A    between atoms: C2_10  and  C3_13 
REMARK    6  A    between atoms: C4_14  and  C5_15 
REMARK    7  A    between atoms: C7_21  and  C8_22 
REMARK    8  A    between atoms: C9_25  and  C10_26 
REMARK    9  A    between atoms: C10_26  and  O7_27 
REMARK   10  A    between atoms: C10_26  and  O8_29 
ROOT
HETATM    1  C3  UNL     1      54.646  17.190  10.521  1.00  0.00     0.058 C 
HETATM    2  C4  UNL     1      55.836  16.732  10.912  1.00  0.00     0.123 C 
HETATM    3  N3  UNL     1      56.549  16.361   9.733  1.00  0.00    -0.329 N 
HETATM    4  C6  UNL     1      55.964  17.123   8.613  1.00  0.00     0.301 C 
HETATM    5  O4  UNL     1      56.229  16.401   7.491  1.00  0.00    -0.341 OA
HETATM    6  C7  UNL     1      56.895  15.248   7.804  1.00  0.00     0.253 C 
HETATM    7  C9  UNL     1      57.563  15.575   9.134  1.00  0.00     0.182 C 
HETATM    8  C11 UNL     1      54.540  17.144   9.051  1.00  0.00     0.209 C 
HETATM    9  O9  UNL     1      53.535  17.124   8.346  1.00  0.00    -0.288 OA
ENDROOT
BRANCH   1  10
HETATM   10  C2  UNL     1      53.558  17.695  11.370  1.00  0.00     0.215 C 
BRANCH  10  11
HETATM   11  C1  UNL     1      53.258  19.169  11.178  1.00  0.00     0.410 C 
BRANCH  11  12
HETATM   12  N1  UNL     1      52.211  19.411  10.224  1.00  0.00    -0.048 N 
ATOM     13  H13 UNL     1      51.301  19.115  10.579  1.00  0.00     0.276 HD
ATOM     14  H12 UNL     1      52.019  20.408  10.121  1.00  0.00     0.276 HD
ATOM     15  H11 UNL     1      52.425  18.975   9.327  1.00  0.00     0.276 HD
ENDBRANCH  11  12
BRANCH  11  16
HETATM   16  N2  UNL     1      52.994  19.842  12.410  1.00  0.00    -0.048 N 
ATOM     17  H23 UNL     1      52.848  20.841  12.269  1.00  0.00     0.276 HD
ATOM     18  H22 UNL     1      52.073  19.603  12.780  1.00  0.00     0.276 HD
ATOM     19  H21 UNL     1      53.731  19.662  13.091  1.00  0.00     0.276 HD
ENDBRANCH  11  16
ENDBRANCH  10  11
BRANCH  10  20
HETATM   20  O1  UNL     1      52.343  17.030  11.097  1.00  0.00    -0.387 OA
ATOM     21  H1  UNL     1      52.458  16.643  10.238  1.00  0.00     0.210 HD
ENDBRANCH  10  20
ENDBRANCH   1  10
BRANCH   2  22
HETATM   22  C5  UNL     1      56.360  16.616  12.267  1.00  0.00     0.227 C 
HETATM   23  O2  UNL     1      56.696  17.689  12.857  1.00  0.00    -0.643 OA
HETATM   24  O3  UNL     1      56.530  15.463  12.982  1.00  0.00    -0.643 OA
ENDBRANCH   2  22
BRANCH   7  25
HETATM   25  C10 UNL     1      58.797  16.414   8.968  1.00  0.00     0.279 C 
BRANCH  25  26
HETATM   26  O7  UNL     1      59.954  15.727   8.723  1.00  0.00    -0.369 OA
ATOM     27  H7  UNL     1      59.920  14.791   8.884  1.00  0.00     0.212 HD
ENDBRANCH  25  26
BRANCH  25  28
HETATM   28  O8  UNL     1      58.958  17.218  10.078  1.00  0.00    -0.369 OA
ATOM     29  H8  UNL     1      59.777  17.693  10.007  1.00  0.00     0.212 HD
ENDBRANCH  25  28
ENDBRANCH   7  25
BRANCH   6  30
HETATM   30  C8  UNL     1      57.795  14.745   6.780  1.00  0.00     0.205 C 
HETATM   31  O5  UNL     1      57.900  15.290   5.654  1.00  0.00    -0.646 OA
HETATM   32  O6  UNL     1      58.578  13.630   7.025  1.00  0.00    -0.646 OA
ENDBRANCH   6  30
TORSDOF 10
ENDMDL
MODEL 2
REMARK VINA RESULT: -4.912636863      4.060      5.372
REMARK  10 active torsions:
REMARK  status: ('A' for Active; 'I' for Inactive)
REMARK    1  A    between atoms: N1_1  and  C1_5 
REMARK    2  A    between atoms: C1_5  and  N2_6 
REMARK    3  A    between atoms: C1_5  and  C2_10 
REMARK    4  A    between atoms: C2_10  and  O1_11 
REMARK    5  A    between atoms: C2_10  and  C3_13 
REMARK    6  A    between atoms: C4_14  and  C5_15 
REMARK    7  A    between atoms: C7_21  and  C8_22 
REMARK    8  A    between atoms: C9_25  and  C10_26 
REMARK    9  A    between atoms: C10_26  and  O7_27 
REMARK   10  A    between atoms: C10_26  and  O8_29 
ROOT
HETATM    1  C3  UNL     1      58.956  18.050   6.895  1.00  0.00     0.058 C 
HETATM    2  C4  UNL     1      58.801  16.916   7.579  1.00  0.00     0.123 C 
HETATM    3  N3  UNL     1      59.036  15.843   6.669  1.00  0.00    -0.329 N 
HETATM    4  C6  UNL     1      59.872  16.376   5.575  1.00  0.00     0.301 C 
HETATM    5  O4  UNL     1      59.634  15.577   4.500  1.00  0.00    -0.341 OA
HETATM    6  C7  UNL     1      58.710  14.617   4.806  1.00  0.00     0.253 C 
HETATM    7  C9  UNL     1      58.822  14.488   6.320  1.00  0.00     0.182 C 
HETATM    8  C11 UNL     1      59.315  17.756   5.495  1.00  0.00     0.209 C 
HETATM    9  O9  UNL     1      59.191  18.461   4.497  1.00  0.00    -0.288 OA
ENDROOT
BRANCH   1  10
HETATM   10  C2  UNL     1      58.821  19.424   7.397  1.00  0.00     0.215 C 
BRANCH  10  11
HETATM   11  C1  UNL     1      60.114  20.025   7.912  1.00  0.00     0.410 C 
BRANCH  11  12
HETATM   12  N1  UNL     1      60.378  21.335   7.382  1.00  0.00    -0.048 N 
ATOM     13  H13 UNL     1      60.187  22.064   8.070  1.00  0.00     0.276 HD
ATOM     14  H12 UNL     1      61.377  21.496   7.259  1.00  0.00     0.276 HD
ATOM     15  H11 UNL     1      59.861  21.490   6.516  1.00  0.00     0.276 HD
ENDBRANCH  11  12
BRANCH  11  16
HETATM   16  N2  UNL     1      60.193  20.024   9.338  1.00  0.00    -0.048 N 
ATOM     17  H23 UNL     1      60.767  19.255   9.682  1.00  0.00     0.276 HD
ATOM     18  H22 UNL     1      60.754  20.803   9.684  1.00  0.00     0.276 HD
ATOM     19  H21 UNL     1      59.263  20.016   9.756  1.00  0.00     0.276 HD
ENDBRANCH  11  16
ENDBRANCH  10  11
BRANCH  10  20
HETATM   20  O1  UNL     1      58.383  20.302   6.381  1.00  0.00    -0.387 OA
ATOM     21  H1  UNL     1      58.485  19.816   5.571  1.00  0.00     0.210 HD
ENDBRANCH  10  20
ENDBRANCH   1  10
BRANCH   2  22
HETATM   22  C5  UNL     1      58.460  16.748   8.986  1.00  0.00     0.227 C 
HETATM   23  O2  UNL     1      57.530  15.931   9.268  1.00  0.00    -0.643 OA
HETATM   24  O3  UNL     1      59.041  17.382  10.049  1.00  0.00    -0.643 OA
ENDBRANCH   2  22
BRANCH   7  25
HETATM   25  C10 UNL     1      60.015  13.679   6.743  1.00  0.00     0.279 C 
BRANCH  25  26
HETATM   26  O7  UNL     1      59.757  12.387   7.109  1.00  0.00    -0.369 OA
ATOM     27  H7  UNL     1      59.314  11.855   6.460  1.00  0.00     0.212 HD
ENDBRANCH  25  26
BRANCH  25  28
HETATM   28  O8  UNL     1      60.672  14.332   7.765  1.00  0.00    -0.369 OA
ATOM     29  H8  UNL     1      61.197  15.036   7.403  1.00  0.00     0.212 HD
ENDBRANCH  25  28
ENDBRANCH   7  25
BRANCH   6  30
HETATM   30  C8  UNL     1      58.841  13.366   4.078  1.00  0.00     0.205 C 
HETATM   31  O5  UNL     1      59.596  13.245   3.083  1.00  0.00    -0.646 OA
HETATM   32  O6  UNL     1      58.122  12.251   4.473  1.00  0.00    -0.646 OA
ENDBRANCH   6  30
TORSDOF 10
ENDMDL
MODEL 3
REMARK VINA RESULT: -4.888008717      4.601      7.308
REMARK  10 active torsions:
REMARK  status: ('A' for Active; 'I' for Inactive)
REMARK    1  A    between atoms: N1_1  and  C1_5 
REMARK    2  A    between atoms: C1_5  and  N2_6 
REMARK    3  A    between atoms: C1_5  and  C2_10 
REMARK    4  A    between atoms: C2_10  and  O1_11 
REMARK    5  A    between atoms: C2_10  and  C3_13 
REMARK    6  A    between atoms: C4_14  and  C5_15 
REMARK    7  A    between atoms: C7_21  and  C8_22 
REMARK    8  A    between atoms: C9_25  and  C10_26 
REMARK    9  A    between atoms: C10_26  and  O7_27 
REMARK   10  A    between atoms: C10_26  and  O8_29 
ROOT
HETATM    1  C3  UNL     1      57.916  14.029   4.588  1.00  0.00     0.058 C 
HETATM    2  C4  UNL     1      58.741  14.046   5.635  1.00  0.00     0.123 C 
HETATM    3  N3  UNL     1      58.667  15.351   6.205  1.00  0.00    -0.329 N 
HETATM    4  C6  UNL     1      57.370  15.929   5.802  1.00  0.00     0.301 C 
HETATM    5  O4  UNL     1      57.531  17.279   5.853  1.00  0.00    -0.341 OA
HETATM    6  C7  UNL     1      58.809  17.600   6.218  1.00  0.00     0.253 C 
HETATM    7  C9  UNL     1      59.281  16.367   6.977  1.00  0.00     0.182 C 
HETATM    8  C11 UNL     1      57.255  15.339   4.438  1.00  0.00     0.209 C 
HETATM    9  O9  UNL     1      56.735  15.837   3.444  1.00  0.00    -0.288 OA
ENDROOT
BRANCH   1  10
HETATM   10  C2  UNL     1      57.643  12.906   3.680  1.00  0.00     0.215 C 
BRANCH  10  11
HETATM   11  C1  UNL     1      58.515  12.886   2.441  1.00  0.00     0.410 C 
BRANCH  11  12
HETATM   12  N1  UNL     1      59.736  12.149   2.622  1.00  0.00    -0.048 N 
ATOM     13  H13 UNL     1      60.079  11.766   1.740  1.00  0.00     0.276 HD
ATOM     14  H12 UNL     1      60.519  12.765   2.838  1.00  0.00     0.276 HD
ATOM     15  H11 UNL     1      59.622  11.421   3.328  1.00  0.00     0.276 HD
ENDBRANCH  11  12
BRANCH  11  16
HETATM   16  N2  UNL     1      57.814  12.438   1.280  1.00  0.00    -0.048 N 
ATOM     17  H23 UNL     1      56.935  12.939   1.155  1.00  0.00     0.276 HD
ATOM     18  H22 UNL     1      58.282  12.730   0.421  1.00  0.00     0.276 HD
ATOM     19  H21 UNL     1      57.671  11.429   1.306  1.00  0.00     0.276 HD
ENDBRANCH  11  16
ENDBRANCH  10  11
BRANCH  10  20
HETATM   20  O1  UNL     1      57.872  11.666   4.315  1.00  0.00    -0.387 OA
ATOM     21  H1  UNL     1      57.690  11.009   3.653  1.00  0.00     0.210 HD
ENDBRANCH  10  20
ENDBRANCH   1  10
BRANCH   2  22
HETATM   22  C5  UNL     1      59.576  12.965   6.146  1.00  0.00     0.227 C 
HETATM   23  O2  UNL     1      59.262  12.466   7.269  1.00  0.00    -0.643 OA
HETATM   24  O3  UNL     1      60.676  12.425   5.537  1.00  0.00    -0.643 OA
ENDBRANCH   2  22
BRANCH   7  25
HETATM   25  C10 UNL     1      58.741  16.311   8.377  1.00  0.00     0.279 C 
BRANCH  25  26
HETATM   26  O7  UNL     1      59.622  16.647   9.368  1.00  0.00    -0.369 OA
ATOM     27  H7  UNL     1      59.338  16.456  10.254  1.00  0.00     0.212 HD
ENDBRANCH  25  26
BRANCH  25  28
HETATM   28  O8  UNL     1      58.225  15.054   8.619  1.00  0.00    -0.369 OA
ATOM     29  H8  UNL     1      57.697  14.782   7.877  1.00  0.00     0.212 HD
ENDBRANCH  25  28
ENDBRANCH   7  25
BRANCH   6  30
HETATM   30  C8  UNL     1      58.959  18.853   6.940  1.00  0.00     0.205 C 
HETATM   31  O5  UNL     1      58.014  19.668   7.069  1.00  0.00    -0.646 OA
HETATM   32  O6  UNL     1      60.172  19.183   7.518  1.00  0.00    -0.646 OA
ENDBRANCH   6  30
TORSDOF 10
ENDMDL
MODEL 4
REMARK VINA RESULT: -4.887907391      0.875      1.092
REMARK  10 active torsions:
REMARK  status: ('A' for Active; 'I' for Inactive)
REMARK    1  A    between atoms: N1_1  and  C1_5 
REMARK    2  A    between atoms: C1_5  and  N2_6 
REMARK    3  A    between atoms: C1_5  and  C2_10 
REMARK    4  A    between atoms: C2_10  and  O1_11 
REMARK    5  A    between atoms: C2_10  and  C3_13 
REMARK    6  A    between atoms: C4_14  and  C5_15 
REMARK    7  A    between atoms: C7_21  and  C8_22 
REMARK    8  A    between atoms: C9_25  and  C10_26 
REMARK    9  A    between atoms: C10_26  and  O7_27 
REMARK   10  A    between atoms: C10_26  and  O8_29 
ROOT
HETATM    1  C3  UNL     1      54.236  16.477  10.899  1.00  0.00     0.058 C 
HETATM    2  C4  UNL     1      55.520  16.307  11.217  1.00  0.00     0.123 C 
HETATM    3  N3  UNL     1      56.232  16.119   9.995  1.00  0.00    -0.329 N 
HETATM    4  C6  UNL     1      55.423  16.730   8.922  1.00  0.00     0.301 C 
HETATM    5  O4  UNL     1      55.785  16.096   7.774  1.00  0.00    -0.341 OA
HETATM    6  C7  UNL     1      56.718  15.129   8.030  1.00  0.00     0.253 C 
HETATM    7  C9  UNL     1      57.366  15.595   9.327  1.00  0.00     0.182 C 
HETATM    8  C11 UNL     1      54.060  16.415   9.436  1.00  0.00     0.209 C 
HETATM    9  O9  UNL     1      53.050  16.165   8.786  1.00  0.00    -0.288 OA
ENDROOT
BRANCH   1  10
HETATM   10  C2  UNL     1      53.111  16.709  11.815  1.00  0.00     0.215 C 
BRANCH  10  11
HETATM   11  C1  UNL     1      52.486  18.085  11.690  1.00  0.00     0.410 C 
BRANCH  11  12
HETATM   12  N1  UNL     1      51.339  18.107  10.824  1.00  0.00    -0.048 N 
ATOM     13  H13 UNL     1      51.238  19.007  10.355  1.00  0.00     0.276 HD
ATOM     14  H12 UNL     1      51.476  17.519  10.003  1.00  0.00     0.276 HD
ATOM     15  H11 UNL     1      50.492  17.851  11.333  1.00  0.00     0.276 HD
ENDBRANCH  11  12
BRANCH  11  16
HETATM   16  N2  UNL     1      52.182  18.669  12.957  1.00  0.00    -0.048 N 
ATOM     17  H23 UNL     1      51.203  18.535  13.209  1.00  0.00     0.276 HD
ATOM     18  H22 UNL     1      52.611  18.150  13.724  1.00  0.00     0.276 HD
ATOM     19  H21 UNL     1      52.444  19.655  12.978  1.00  0.00     0.276 HD
ENDBRANCH  11  16
ENDBRANCH  10  11
BRANCH  10  20
HETATM   20  O1  UNL     1      52.057  15.800  11.575  1.00  0.00    -0.387 OA
ATOM     21  H1  UNL     1      52.339  15.283  10.829  1.00  0.00     0.210 HD
ENDBRANCH  10  20
ENDBRANCH   1  10
BRANCH   2  22
HETATM   22  C5  UNL     1      56.133  16.310  12.540  1.00  0.00     0.227 C 
HETATM   23  O2  UNL     1      56.448  15.186  13.039  1.00  0.00    -0.643 OA
HETATM   24  O3  UNL     1      56.411  17.405  13.310  1.00  0.00    -0.643 OA
ENDBRANCH   2  22
BRANCH   7  25
HETATM   25  C10 UNL     1      58.359  16.700   9.110  1.00  0.00     0.279 C 
BRANCH  25  26
HETATM   26  O7  UNL     1      59.661  16.308   8.969  1.00  0.00    -0.369 OA
ATOM     27  H7  UNL     1      60.172  16.276   9.769  1.00  0.00     0.212 HD
ENDBRANCH  25  26
BRANCH  25  28
HETATM   28  O8  UNL     1      58.256  17.617  10.136  1.00  0.00    -0.369 OA
ATOM     29  H8  UNL     1      59.086  17.669  10.596  1.00  0.00     0.212 HD
ENDBRANCH  25  28
ENDBRANCH   7  25
BRANCH   6  30
HETATM   30  C8  UNL     1      57.651  14.856   6.949  1.00  0.00     0.205 C 
HETATM   31  O5  UNL     1      57.550  15.401   5.824  1.00  0.00    -0.646 OA
HETATM   32  O6  UNL     1      58.697  13.970   7.138  1.00  0.00    -0.646 OA
ENDBRANCH   6  30
TORSDOF 10
ENDMDL
MODEL 5
REMARK VINA RESULT: -4.843429529      2.719      3.456
REMARK  10 active torsions:
REMARK  status: ('A' for Active; 'I' for Inactive)
REMARK    1  A    between atoms: N1_1  and  C1_5 
REMARK    2  A    between atoms: C1_5  and  N2_6 
REMARK    3  A    between atoms: C1_5  and  C2_10 
REMARK    4  A    between atoms: C2_10  and  O1_11 
REMARK    5  A    between atoms: C2_10  and  C3_13 
REMARK    6  A    between atoms: C4_14  and  C5_15 
REMARK    7  A    between atoms: C7_21  and  C8_22 
REMARK    8  A    between atoms: C9_25  and  C10_26 
REMARK    9  A    between atoms: C10_26  and  O7_27 
REMARK   10  A    between atoms: C10_26  and  O8_29 
ROOT
HETATM    1  C3  UNL     1      55.328  15.492   7.349  1.00  0.00     0.058 C 
HETATM    2  C4  UNL     1      56.398  15.235   8.102  1.00  0.00     0.123 C 
HETATM    3  N3  UNL     1      57.441  14.823   7.221  1.00  0.00    -0.329 N 
HETATM    4  C6  UNL     1      57.125  15.372   5.887  1.00  0.00     0.301 C 
HETATM    5  O4  UNL     1      57.756  14.565   4.992  1.00  0.00    -0.341 OA
HETATM    6  C7  UNL     1      58.408  13.548   5.634  1.00  0.00     0.253 C 
HETATM    7  C9  UNL     1      58.647  14.107   7.031  1.00  0.00     0.182 C 
HETATM    8  C11 UNL     1      55.640  15.264   5.926  1.00  0.00     0.209 C 
HETATM    9  O9  UNL     1      54.877  15.038   4.991  1.00  0.00    -0.288 OA
ENDROOT
BRANCH   1  10
HETATM   10  C2  UNL     1      54.006  15.951   7.798  1.00  0.00     0.215 C 
BRANCH  10  11
HETATM   11  C1  UNL     1      53.579  17.280   7.207  1.00  0.00     0.410 C 
BRANCH  11  12
HETATM   12  N1  UNL     1      52.667  17.141   6.105  1.00  0.00    -0.048 N 
ATOM     13  H13 UNL     1      52.965  16.409   5.459  1.00  0.00     0.276 HD
ATOM     14  H12 UNL     1      51.780  16.734   6.400  1.00  0.00     0.276 HD
ATOM     15  H11 UNL     1      52.532  18.032   5.627  1.00  0.00     0.276 HD
ENDBRANCH  11  12
BRANCH  11  16
HETATM   16  N2  UNL     1      53.062  18.180   8.188  1.00  0.00    -0.048 N 
ATOM     17  H23 UNL     1      52.874  19.101   7.793  1.00  0.00     0.276 HD
ATOM     18  H22 UNL     1      52.111  17.932   8.462  1.00  0.00     0.276 HD
ATOM     19  H21 UNL     1      53.683  18.237   8.996  1.00  0.00     0.276 HD
ENDBRANCH  11  16
ENDBRANCH  10  11
BRANCH  10  20
HETATM   20  O1  UNL     1      52.993  15.039   7.429  1.00  0.00    -0.387 OA
ATOM     21  H1  UNL     1      52.342  15.560   6.974  1.00  0.00     0.210 HD
ENDBRANCH  10  20
ENDBRANCH   1  10
BRANCH   2  22
HETATM   22  C5  UNL     1      56.532  15.342   9.550  1.00  0.00     0.227 C 
HETATM   23  O2  UNL     1      57.278  16.265  10.000  1.00  0.00    -0.643 OA
HETATM   24  O3  UNL     1      55.933  14.547  10.487  1.00  0.00    -0.643 OA
ENDBRANCH   2  22
BRANCH   7  25
HETATM   25  C10 UNL     1      59.799  15.069   7.077  1.00  0.00     0.279 C 
BRANCH  25  26
HETATM   26  O7  UNL     1      60.967  14.573   7.586  1.00  0.00    -0.369 OA
ATOM     27  H7  UNL     1      61.030  13.626   7.628  1.00  0.00     0.212 HD
ENDBRANCH  25  26
BRANCH  25  28
HETATM   28  O8  UNL     1      59.426  16.197   7.778  1.00  0.00    -0.369 OA
ATOM     29  H8  UNL     1      59.642  16.970   7.270  1.00  0.00     0.212 HD
ENDBRANCH  25  28
ENDBRANCH   7  25
BRANCH   6  30
HETATM   30  C8  UNL     1      59.599  13.048   4.967  1.00  0.00     0.205 C 
HETATM   31  O5  UNL     1      59.825  13.260   3.752  1.00  0.00    -0.646 OA
HETATM   32  O6  UNL     1      60.535  12.310   5.672  1.00  0.00    -0.646 OA
ENDBRANCH   6  30
TORSDOF 10
ENDMDL
