MODEL 1
REMARK VINA RESULT: -5.467822482      0.000      0.000
REMARK  9 active torsions:
REMARK  status: ('A' for Active; 'I' for Inactive)
REMARK    1  A    between atoms: N1_1  and  C1_4 
REMARK    2  A    between atoms: N3_7  and  N4_8 
REMARK    3  A    between atoms: N7_17  and  C4_18 
REMARK    4  A    between atoms: C6_21  and  N8_22 
REMARK       I    between atoms: N8_22  and  C7_24 
REMARK    5  A    between atoms: C7_24  and  C8_26 
REMARK    6  A    between atoms: C8_26  and  C9_27 
REMARK    7  A    between atoms: C9_27  and  N9_28 
REMARK    8  A    between atoms: C10_32  and  O3_33 
REMARK    9  A    between atoms: C11_35  and  N10_36 
ROOT
HETATM    1  C4  UNL     1      54.892  16.462  10.241  1.00  0.00     0.280 C 
HETATM    2  O1  UNL     1      55.999  15.692  10.453  1.00  0.00    -0.360 OA
HETATM    3  C5  UNL     1      56.567  15.148   9.322  1.00  0.00     0.198 C 
HETATM    4  C6  UNL     1      57.119  16.319   8.515  1.00  0.00     0.139 C 
HETATM    5  C10 UNL     1      55.980  17.201   8.080  1.00  0.00     0.177 C 
HETATM    6  C11 UNL     1      54.925  17.407   9.105  1.00  0.00     0.264 C 
ENDROOT
BRANCH   1   7
HETATM    7  N7  UNL     1      53.756  15.533  10.114  1.00  0.00    -0.225 N 
HETATM    8  C2  UNL     1      53.241  14.785  11.113  1.00  0.00     0.197 A 
HETATM    9  N3  UNL     1      53.389  14.503  12.420  1.00  0.00    -0.180 N 
HETATM   10  C3  UNL     1      52.180  14.041  10.602  1.00  0.00     0.143 A 
HETATM   11  N2  UNL     1      52.455  13.603  12.759  1.00  0.00    -0.261 N 
HETATM   12  C1  UNL     1      51.708  13.307  11.674  1.00  0.00     0.148 A 
ATOM     13  H2  UNL     1      52.328  13.205  13.690  1.00  0.00     0.191 HD
HETATM   14  N5  UNL     1      52.104  14.380   9.305  1.00  0.00    -0.279 N 
HETATM   15  N6  UNL     1      53.049  15.268   9.036  1.00  0.00    -0.236 N 
ATOM     16  H5  UNL     1      51.426  14.014   8.636  1.00  0.00     0.189 HD
ATOM     17  H6  UNL     1      53.207  15.688   8.120  1.00  0.00     0.208 HD
BRANCH   9  18
HETATM   18  N4  UNL     1      54.360  15.071  13.247  1.00  0.00    -0.322 N 
ATOM     19  H42 UNL     1      54.246  15.231  14.247  1.00  0.00     0.179 HD
ATOM     20  H41 UNL     1      55.290  15.393  12.980  1.00  0.00     0.179 HD
ENDBRANCH   9  18
BRANCH  12  21
HETATM   21  N1  UNL     1      50.732  12.494  11.624  1.00  0.00    -0.382 N 
ATOM     22  H12 UNL     1      50.306  12.045  12.435  1.00  0.00     0.157 HD
ATOM     23  H11 UNL     1      50.245  12.179  10.785  1.00  0.00     0.157 HD
ENDBRANCH  12  21
ENDBRANCH   1   7
BRANCH   6  24
HETATM   24  N10 UNL     1      54.986  18.777   9.631  1.00  0.00    -0.068 N 
ATOM     25 3H10 UNL     1      55.752  18.907  10.293  1.00  0.00     0.275 HD
ATOM     26 2H10 UNL     1      55.291  19.450   8.928  1.00  0.00     0.275 HD
ATOM     27 1H10 UNL     1      54.079  19.017  10.032  1.00  0.00     0.275 HD
ENDBRANCH   6  24
BRANCH   5  28
HETATM   28  O3  UNL     1      55.451  16.614   6.907  1.00  0.00    -0.391 OA
ATOM     29  H3  UNL     1      55.225  15.720   7.137  1.00  0.00     0.210 HD
ENDBRANCH   5  28
BRANCH   4  30
HETATM   30  N8  UNL     1      57.828  15.746   7.390  1.00  0.00    -0.352 N 
HETATM   31  C7  UNL     1      59.219  15.498   7.550  1.00  0.00     0.219 C 
HETATM   32  O2  UNL     1      59.829  15.755   8.607  1.00  0.00    -0.274 OA
ATOM     33  H8  UNL     1      57.349  15.528   6.516  1.00  0.00     0.163 HD
BRANCH  31  34
HETATM   34  C8  UNL     1      59.964  14.904   6.386  1.00  0.00     0.130 C 
BRANCH  34  35
HETATM   35  C9  UNL     1      59.527  13.471   6.198  1.00  0.00     0.238 C 
BRANCH  35  36
HETATM   36  N9  UNL     1      60.661  12.596   6.240  1.00  0.00    -0.079 N 
ATOM     37  H93 UNL     1      61.505  13.048   5.886  1.00  0.00     0.274 HD
ATOM     38  H92 UNL     1      60.973  12.424   7.196  1.00  0.00     0.274 HD
ATOM     39  H91 UNL     1      60.459  11.728   5.744  1.00  0.00     0.274 HD
ENDBRANCH  35  36
ENDBRANCH  34  35
ENDBRANCH  31  34
ENDBRANCH   4  30
TORSDOF 9
ENDMDL
MODEL 2
REMARK VINA RESULT: -5.304960172      1.635      1.948
REMARK  9 active torsions:
REMARK  status: ('A' for Active; 'I' for Inactive)
REMARK    1  A    between atoms: N1_1  and  C1_4 
REMARK    2  A    between atoms: N3_7  and  N4_8 
REMARK    3  A    between atoms: N7_17  and  C4_18 
REMARK    4  A    between atoms: C6_21  and  N8_22 
REMARK       I    between atoms: N8_22  and  C7_24 
REMARK    5  A    between atoms: C7_24  and  C8_26 
REMARK    6  A    between atoms: C8_26  and  C9_27 
REMARK    7  A    between atoms: C9_27  and  N9_28 
REMARK    8  A    between atoms: C10_32  and  O3_33 
REMARK    9  A    between atoms: C11_35  and  N10_36 
ROOT
HETATM    1  C4  UNL     1      55.575  16.649  10.683  1.00  0.00     0.280 C 
HETATM    2  O1  UNL     1      55.875  15.380  10.278  1.00  0.00    -0.360 OA
HETATM    3  C5  UNL     1      56.268  15.256   8.964  1.00  0.00     0.198 C 
HETATM    4  C6  UNL     1      57.608  15.976   8.847  1.00  0.00     0.139 C 
HETATM    5  C10 UNL     1      57.410  17.440   9.133  1.00  0.00     0.177 C 
HETATM    6  C11 UNL     1      56.476  17.736  10.250  1.00  0.00     0.264 C 
ENDROOT
BRANCH   1   7
HETATM    7  N7  UNL     1      54.193  16.910  10.244  1.00  0.00    -0.225 N 
HETATM    8  C2  UNL     1      53.106  16.200  10.614  1.00  0.00     0.197 A 
HETATM    9  N3  UNL     1      52.722  15.151  11.363  1.00  0.00    -0.180 N 
HETATM   10  C3  UNL     1      51.988  16.754   9.993  1.00  0.00     0.143 A 
HETATM   11  N2  UNL     1      51.393  15.019  11.242  1.00  0.00    -0.261 N 
HETATM   12  C1  UNL     1      50.924  15.979  10.416  1.00  0.00     0.148 A 
ATOM     13  H2  UNL     1      50.826  14.306  11.700  1.00  0.00     0.191 HD
HETATM   14  N5  UNL     1      52.459  17.783   9.272  1.00  0.00    -0.279 N 
HETATM   15  N6  UNL     1      53.772  17.859   9.435  1.00  0.00    -0.236 N 
ATOM     16  H5  UNL     1      51.897  18.407   8.693  1.00  0.00     0.189 HD
ATOM     17  H6  UNL     1      54.372  18.556   8.995  1.00  0.00     0.208 HD
BRANCH   9  18
HETATM   18  N4  UNL     1      53.587  14.362  12.123  1.00  0.00    -0.322 N 
ATOM     19  H42 UNL     1      54.511  14.058  11.817  1.00  0.00     0.179 HD
ATOM     20  H41 UNL     1      53.427  13.991  13.059  1.00  0.00     0.179 HD
ENDBRANCH   9  18
BRANCH  12  21
HETATM   21  N1  UNL     1      49.714  16.159  10.073  1.00  0.00    -0.382 N 
ATOM     22  H12 UNL     1      48.917  16.126  10.709  1.00  0.00     0.157 HD
ATOM     23  H11 UNL     1      49.371  16.357   9.133  1.00  0.00     0.157 HD
ENDBRANCH  12  21
ENDBRANCH   1   7
BRANCH   6  24
HETATM   24  N10 UNL     1      57.219  18.230  11.417  1.00  0.00    -0.068 N 
ATOM     25 3H10 UNL     1      57.743  17.491  11.886  1.00  0.00     0.275 HD
ATOM     26 2H10 UNL     1      58.008  18.820  11.155  1.00  0.00     0.275 HD
ATOM     27 1H10 UNL     1      56.569  18.705  12.043  1.00  0.00     0.275 HD
ENDBRANCH   6  24
BRANCH   5  28
HETATM   28  O3  UNL     1      56.969  18.023   7.923  1.00  0.00    -0.391 OA
ATOM     29  H3  UNL     1      56.023  17.925   7.911  1.00  0.00     0.210 HD
ENDBRANCH   5  28
BRANCH   4  30
HETATM   30  N8  UNL     1      58.086  15.740   7.501  1.00  0.00    -0.352 N 
HETATM   31  C7  UNL     1      59.438  15.327   7.348  1.00  0.00     0.219 C 
HETATM   32  O2  UNL     1      60.204  15.165   8.320  1.00  0.00    -0.274 OA
ATOM     33  H8  UNL     1      57.477  15.866   6.692  1.00  0.00     0.163 HD
BRANCH  31  34
HETATM   34  C8  UNL     1      59.943  15.080   5.953  1.00  0.00     0.130 C 
BRANCH  34  35
HETATM   35  C9  UNL     1      59.735  13.627   5.600  1.00  0.00     0.238 C 
BRANCH  35  36
HETATM   36  N9  UNL     1      60.613  12.797   6.369  1.00  0.00    -0.079 N 
ATOM     37  H93 UNL     1      60.706  11.864   5.967  1.00  0.00     0.274 HD
ATOM     38  H92 UNL     1      61.586  13.094   6.287  1.00  0.00     0.274 HD
ATOM     39  H91 UNL     1      60.307  12.762   7.342  1.00  0.00     0.274 HD
ENDBRANCH  35  36
ENDBRANCH  34  35
ENDBRANCH  31  34
ENDBRANCH   4  30
TORSDOF 9
ENDMDL
MODEL 3
REMARK VINA RESULT: -5.288872266      1.649      2.047
REMARK  9 active torsions:
REMARK  status: ('A' for Active; 'I' for Inactive)
REMARK    1  A    between atoms: N1_1  and  C1_4 
REMARK    2  A    between atoms: N3_7  and  N4_8 
REMARK    3  A    between atoms: N7_17  and  C4_18 
REMARK    4  A    between atoms: C6_21  and  N8_22 
REMARK       I    between atoms: N8_22  and  C7_24 
REMARK    5  A    between atoms: C7_24  and  C8_26 
REMARK    6  A    between atoms: C8_26  and  C9_27 
REMARK    7  A    between atoms: C9_27  and  N9_28 
REMARK    8  A    between atoms: C10_32  and  O3_33 
REMARK    9  A    between atoms: C11_35  and  N10_36 
ROOT
HETATM    1  C4  UNL     1      55.953  16.555   8.740  1.00  0.00     0.280 C 
HETATM    2  O1  UNL     1      57.099  15.953   9.173  1.00  0.00    -0.360 OA
HETATM    3  C5  UNL     1      57.491  14.844   8.457  1.00  0.00     0.198 C 
HETATM    4  C6  UNL     1      57.876  15.345   7.068  1.00  0.00     0.139 C 
HETATM    5  C10 UNL     1      56.659  15.921   6.395  1.00  0.00     0.177 C 
HETATM    6  C11 UNL     1      55.778  16.723   7.282  1.00  0.00     0.264 C 
ENDROOT
BRANCH   1   7
HETATM    7  N7  UNL     1      54.835  15.787   9.314  1.00  0.00    -0.225 N 
HETATM    8  C2  UNL     1      54.748  15.368  10.595  1.00  0.00     0.197 A 
HETATM    9  N3  UNL     1      55.407  15.379  11.767  1.00  0.00    -0.180 N 
HETATM   10  C3  UNL     1      53.548  14.679  10.750  1.00  0.00     0.143 A 
HETATM   11  N2  UNL     1      54.665  14.719  12.667  1.00  0.00    -0.261 N 
HETATM   12  C1  UNL     1      53.532  14.285  12.075  1.00  0.00     0.148 A 
ATOM     13  H2  UNL     1      54.915  14.569  13.644  1.00  0.00     0.191 HD
HETATM   14  N5  UNL     1      52.961  14.716   9.544  1.00  0.00    -0.279 N 
HETATM   15  N6  UNL     1      53.742  15.379   8.705  1.00  0.00    -0.236 N 
ATOM     16  H5  UNL     1      52.058  14.300   9.311  1.00  0.00     0.189 HD
ATOM     17  H6  UNL     1      53.526  15.550   7.722  1.00  0.00     0.208 HD
BRANCH   9  18
HETATM   18  N4  UNL     1      56.649  15.985  11.971  1.00  0.00    -0.322 N 
ATOM     19  H42 UNL     1      56.916  16.483  12.820  1.00  0.00     0.179 HD
ATOM     20  H41 UNL     1      57.438  16.013  11.327  1.00  0.00     0.179 HD
ENDBRANCH   9  18
BRANCH  12  21
HETATM   21  N1  UNL     1      52.595  13.623  12.625  1.00  0.00    -0.382 N 
ATOM     22  H12 UNL     1      52.356  12.658  12.402  1.00  0.00     0.157 HD
ATOM     23  H11 UNL     1      51.961  13.956  13.352  1.00  0.00     0.157 HD
ENDBRANCH  12  21
ENDBRANCH   1   7
BRANCH   6  24
HETATM   24  N10 UNL     1      55.889  18.151   6.953  1.00  0.00    -0.068 N 
ATOM     25 3H10 UNL     1      55.353  18.740   7.591  1.00  0.00     0.275 HD
ATOM     26 2H10 UNL     1      56.815  18.526   7.155  1.00  0.00     0.275 HD
ATOM     27 1H10 UNL     1      55.619  18.285   5.978  1.00  0.00     0.275 HD
ENDBRANCH   6  24
BRANCH   5  28
HETATM   28  O3  UNL     1      55.964  14.827   5.831  1.00  0.00    -0.391 OA
ATOM     29  H3  UNL     1      56.504  14.060   5.988  1.00  0.00     0.210 HD
ENDBRANCH   5  28
BRANCH   4  30
HETATM   30  N8  UNL     1      58.409  14.204   6.353  1.00  0.00    -0.352 N 
HETATM   31  C7  UNL     1      59.806  13.960   6.458  1.00  0.00     0.219 C 
HETATM   32  O2  UNL     1      60.565  14.684   7.133  1.00  0.00    -0.274 OA
ATOM     33  H8  UNL     1      57.806  13.599   5.795  1.00  0.00     0.163 HD
BRANCH  31  34
HETATM   34  C8  UNL     1      60.368  12.778   5.717  1.00  0.00     0.130 C 
BRANCH  34  35
HETATM   35  C9  UNL     1      59.321  12.240   4.772  1.00  0.00     0.238 C 
BRANCH  35  36
HETATM   36  N9  UNL     1      59.933  11.779   3.561  1.00  0.00    -0.079 N 
ATOM     37  H93 UNL     1      59.918  12.491   2.831  1.00  0.00     0.274 HD
ATOM     38  H92 UNL     1      60.944  11.683   3.659  1.00  0.00     0.274 HD
ATOM     39  H91 UNL     1      59.496  10.910   3.252  1.00  0.00     0.274 HD
ENDBRANCH  35  36
ENDBRANCH  34  35
ENDBRANCH  31  34
ENDBRANCH   4  30
TORSDOF 9
ENDMDL
MODEL 4
REMARK VINA RESULT: -5.285808982      1.996      2.176
REMARK  9 active torsions:
REMARK  status: ('A' for Active; 'I' for Inactive)
REMARK    1  A    between atoms: N1_1  and  C1_4 
REMARK    2  A    between atoms: N3_7  and  N4_8 
REMARK    3  A    between atoms: N7_17  and  C4_18 
REMARK    4  A    between atoms: C6_21  and  N8_22 
REMARK       I    between atoms: N8_22  and  C7_24 
REMARK    5  A    between atoms: C7_24  and  C8_26 
REMARK    6  A    between atoms: C8_26  and  C9_27 
REMARK    7  A    between atoms: C9_27  and  N9_28 
REMARK    8  A    between atoms: C10_32  and  O3_33 
REMARK    9  A    between atoms: C11_35  and  N10_36 
ROOT
HETATM    1  C4  UNL     1      55.592  16.280  10.738  1.00  0.00     0.280 C 
HETATM    2  O1  UNL     1      56.149  15.083  10.390  1.00  0.00    -0.360 OA
HETATM    3  C5  UNL     1      56.511  14.961   9.067  1.00  0.00     0.198 C 
HETATM    4  C6  UNL     1      57.654  15.945   8.842  1.00  0.00     0.139 C 
HETATM    5  C10 UNL     1      57.151  17.347   9.056  1.00  0.00     0.177 C 
HETATM    6  C11 UNL     1      56.216  17.506  10.199  1.00  0.00     0.264 C 
ENDROOT
BRANCH   1   7
HETATM    7  N7  UNL     1      54.172  16.206  10.355  1.00  0.00    -0.225 N 
HETATM    8  C2  UNL     1      53.160  16.854  10.971  1.00  0.00     0.197 A 
HETATM    9  N3  UNL     1      52.894  17.694  11.987  1.00  0.00    -0.180 N 
HETATM   10  C3  UNL     1      51.972  16.532  10.319  1.00  0.00     0.143 A 
HETATM   11  N2  UNL     1      51.572  17.921  12.003  1.00  0.00    -0.261 N 
HETATM   12  C1  UNL     1      50.991  17.227  11.001  1.00  0.00     0.148 A 
ATOM     13  H2  UNL     1      51.084  18.522  12.667  1.00  0.00     0.191 HD
HETATM   14  N5  UNL     1      52.327  15.697   9.330  1.00  0.00    -0.279 N 
HETATM   15  N6  UNL     1      53.638  15.516   9.369  1.00  0.00    -0.236 N 
ATOM     16  H5  UNL     1      51.689  15.271   8.657  1.00  0.00     0.189 HD
ATOM     17  H6  UNL     1      54.163  14.925   8.724  1.00  0.00     0.208 HD
BRANCH   9  18
HETATM   18  N4  UNL     1      53.855  18.220  12.852  1.00  0.00    -0.322 N 
ATOM     19  H42 UNL     1      54.393  19.068  12.673  1.00  0.00     0.179 HD
ATOM     20  H41 UNL     1      54.147  17.846  13.755  1.00  0.00     0.179 HD
ENDBRANCH   9  18
BRANCH  12  21
HETATM   21  N1  UNL     1      49.752  17.203  10.715  1.00  0.00    -0.382 N 
ATOM     22  H12 UNL     1      49.065  17.881  11.045  1.00  0.00     0.157 HD
ATOM     23  H11 UNL     1      49.276  16.518  10.129  1.00  0.00     0.157 HD
ENDBRANCH  12  21
ENDBRANCH   1   7
BRANCH   6  24
HETATM   24  N10 UNL     1      56.875  18.225  11.298  1.00  0.00    -0.068 N 
ATOM     25 3H10 UNL     1      57.875  18.349  11.138  1.00  0.00     0.275 HD
ATOM     26 2H10 UNL     1      56.613  19.210  11.331  1.00  0.00     0.275 HD
ATOM     27 1H10 UNL     1      56.677  17.741  12.173  1.00  0.00     0.275 HD
ENDBRANCH   6  24
BRANCH   5  28
HETATM   28  O3  UNL     1      56.547  17.739   7.838  1.00  0.00    -0.391 OA
ATOM     29  H3  UNL     1      57.229  17.694   7.178  1.00  0.00     0.210 HD
ENDBRANCH   5  28
BRANCH   4  30
HETATM   30  N8  UNL     1      58.123  15.731   7.489  1.00  0.00    -0.352 N 
HETATM   31  C7  UNL     1      59.464  15.290   7.321  1.00  0.00     0.219 C 
HETATM   32  O2  UNL     1      60.229  15.088   8.286  1.00  0.00    -0.274 OA
ATOM     33  H8  UNL     1      57.514  15.890   6.686  1.00  0.00     0.163 HD
BRANCH  31  34
HETATM   34  C8  UNL     1      59.959  15.066   5.919  1.00  0.00     0.130 C 
BRANCH  34  35
HETATM   35  C9  UNL     1      59.767  13.614   5.552  1.00  0.00     0.238 C 
BRANCH  35  36
HETATM   36  N9  UNL     1      60.637  12.784   6.333  1.00  0.00    -0.079 N 
ATOM     37  H93 UNL     1      61.530  12.625   5.867  1.00  0.00     0.274 HD
ATOM     38  H92 UNL     1      60.982  13.270   7.161  1.00  0.00     0.274 HD
ATOM     39  H91 UNL     1      60.171  11.908   6.571  1.00  0.00     0.274 HD
ENDBRANCH  35  36
ENDBRANCH  34  35
ENDBRANCH  31  34
ENDBRANCH   4  30
TORSDOF 9
ENDMDL
MODEL 5
REMARK VINA RESULT: -5.274734538      2.793      4.625
REMARK  9 active torsions:
REMARK  status: ('A' for Active; 'I' for Inactive)
REMARK    1  A    between atoms: N1_1  and  C1_4 
REMARK    2  A    between atoms: N3_7  and  N4_8 
REMARK    3  A    between atoms: N7_17  and  C4_18 
REMARK    4  A    between atoms: C6_21  and  N8_22 
REMARK       I    between atoms: N8_22  and  C7_24 
REMARK    5  A    between atoms: C7_24  and  C8_26 
REMARK    6  A    between atoms: C8_26  and  C9_27 
REMARK    7  A    between atoms: C9_27  and  N9_28 
REMARK    8  A    between atoms: C10_32  and  O3_33 
REMARK    9  A    between atoms: C11_35  and  N10_36 
ROOT
HETATM    1  C4  UNL     1      50.801  15.061  12.199  1.00  0.00     0.280 C 
HETATM    2  O1  UNL     1      51.782  14.117  12.293  1.00  0.00    -0.360 OA
HETATM    3  C5  UNL     1      52.580  13.979  11.180  1.00  0.00     0.198 C 
HETATM    4  C6  UNL     1      53.370  15.278  11.055  1.00  0.00     0.139 C 
HETATM    5  C10 UNL     1      52.417  16.415  10.802  1.00  0.00     0.177 C 
HETATM    6  C11 UNL     1      51.156  16.357  11.585  1.00  0.00     0.264 C 
ENDROOT
BRANCH   1   7
HETATM    7  N7  UNL     1      49.684  14.430  11.475  1.00  0.00    -0.225 N 
HETATM    8  C2  UNL     1      49.038  13.307  11.857  1.00  0.00     0.197 A 
HETATM    9  N3  UNL     1      49.014  12.364  12.815  1.00  0.00    -0.180 N 
HETATM   10  C3  UNL     1      48.047  13.031  10.917  1.00  0.00     0.143 A 
HETATM   11  N2  UNL     1      48.037  11.495  12.519  1.00  0.00    -0.261 N 
HETATM   12  C1  UNL     1      47.435  11.878  11.372  1.00  0.00     0.148 A 
ATOM     13  H2  UNL     1      47.787  10.676  13.072  1.00  0.00     0.191 HD
HETATM   14  N5  UNL     1      48.142  14.011  10.005  1.00  0.00    -0.279 N 
HETATM   15  N6  UNL     1      49.121  14.832  10.355  1.00  0.00    -0.236 N 
ATOM     16  H5  UNL     1      47.555  14.108   9.176  1.00  0.00     0.189 HD
ATOM     17  H6  UNL     1      49.400  15.661   9.830  1.00  0.00     0.208 HD
BRANCH   9  18
HETATM   18  N4  UNL     1      49.874  12.332  13.915  1.00  0.00    -0.322 N 
ATOM     19  H42 UNL     1      50.294  11.484  14.295  1.00  0.00     0.179 HD
ATOM     20  H41 UNL     1      50.194  13.121  14.475  1.00  0.00     0.179 HD
ENDBRANCH   9  18
BRANCH  12  21
HETATM   21  N1  UNL     1      46.468  11.291  10.792  1.00  0.00    -0.382 N 
ATOM     22  H12 UNL     1      45.681  10.854  11.270  1.00  0.00     0.157 HD
ATOM     23  H11 UNL     1      46.342  11.176   9.787  1.00  0.00     0.157 HD
ENDBRANCH  12  21
ENDBRANCH   1   7
BRANCH   6  24
HETATM   24  N10 UNL     1      51.158  17.391  12.628  1.00  0.00    -0.068 N 
ATOM     25 3H10 UNL     1      50.940  18.318  12.259  1.00  0.00     0.275 HD
ATOM     26 2H10 UNL     1      50.366  17.303  13.265  1.00  0.00     0.275 HD
ATOM     27 1H10 UNL     1      52.054  17.366  13.115  1.00  0.00     0.275 HD
ENDBRANCH   6  24
BRANCH   5  28
HETATM   28  O3  UNL     1      52.161  16.413   9.411  1.00  0.00    -0.391 OA
ATOM     29  H3  UNL     1      52.297  17.306   9.115  1.00  0.00     0.210 HD
ENDBRANCH   5  28
BRANCH   4  30
HETATM   30  N8  UNL     1      54.302  15.090   9.962  1.00  0.00    -0.352 N 
HETATM   31  C7  UNL     1      55.686  15.238  10.249  1.00  0.00     0.219 C 
HETATM   32  O2  UNL     1      56.110  15.518  11.389  1.00  0.00    -0.274 OA
ATOM     33  H8  UNL     1      53.977  14.860   9.023  1.00  0.00     0.163 HD
BRANCH  31  34
HETATM   34  C8  UNL     1      56.661  15.045   9.120  1.00  0.00     0.130 C 
BRANCH  34  35
HETATM   35  C9  UNL     1      57.338  16.361   8.819  1.00  0.00     0.238 C 
BRANCH  35  36
HETATM   36  N9  UNL     1      58.479  16.538   9.668  1.00  0.00    -0.079 N 
ATOM     37  H93 UNL     1      58.992  17.391   9.444  1.00  0.00     0.274 HD
ATOM     38  H92 UNL     1      58.209  16.772  10.624  1.00  0.00     0.274 HD
ATOM     39  H91 UNL     1      59.079  15.714   9.633  1.00  0.00     0.274 HD
ENDBRANCH  35  36
ENDBRANCH  34  35
ENDBRANCH  31  34
ENDBRANCH   4  30
TORSDOF 9
ENDMDL
