MODEL 1
REMARK VINA RESULT: -6.748746021      0.000      0.000
REMARK  9 active torsions:
REMARK  status: ('A' for Active; 'I' for Inactive)
REMARK    1  A    between atoms: N1_1  and  C1_4 
REMARK    2  A    between atoms: C3_11  and  N4_12 
REMARK       I    between atoms: N4_12  and  C4_14 
REMARK    3  A    between atoms: C4_14  and  C5_16 
REMARK    4  A    between atoms: C5_16  and  C6_17 
REMARK    5  A    between atoms: C5_16  and  N8_30 
REMARK    6  A    between atoms: C6_17  and  N5_18 
REMARK    7  A    between atoms: C8_20  and  C9_21 
REMARK    8  A    between atoms: C9_21  and  O3_22 
REMARK    9  A    between atoms: C9_21  and  O4_24 
ROOT
HETATM    1  C5  UNL     1      58.745  16.433   8.266  1.00  0.00     0.242 C 
ENDROOT
BRANCH   1   2
HETATM    2  C4  UNL     1      57.252  16.372   8.219  1.00  0.00     0.264 C 
HETATM    3  N4  UNL     1      56.643  15.174   8.680  1.00  0.00    -0.157 N 
ATOM      4  H4  UNL     1      56.780  14.312   8.152  1.00  0.00     0.187 HD
HETATM    5  O2  UNL     1      56.555  17.342   7.788  1.00  0.00    -0.270 OA
BRANCH   3   6
HETATM    6  C3  UNL     1      55.927  15.146   9.741  1.00  0.00     0.703 A 
HETATM    7  N3  UNL     1      56.544  15.271  10.929  1.00  0.00    -0.140 N 
HETATM    8  C2  UNL     1      55.811  15.244  12.058  1.00  0.00     0.352 A 
ATOM      9  H3  UNL     1      57.557  15.385  10.974  1.00  0.00     0.189 HD
HETATM   10  N2  UNL     1      54.475  15.096  12.003  1.00  0.00    -0.141 N 
HETATM   11  O1  UNL     1      56.388  15.360  13.164  1.00  0.00    -0.246 OA
HETATM   12  C1  UNL     1      53.853  14.972  10.833  1.00  0.00     0.694 A 
ATOM     13  H2  UNL     1      53.933  15.079  12.866  1.00  0.00     0.189 HD
HETATM   14  N12 UNL     1      54.592  14.998   9.686  1.00  0.00    -0.022 N 
ATOM     15  H12 UNL     1      54.128  14.905   8.782  1.00  0.00     0.203 HD
BRANCH  12  16
HETATM   16  N1  UNL     1      52.564  14.826  10.736  1.00  0.00    -0.234 N 
ATOM     17  H12 UNL     1      52.203  14.092  10.128  1.00  0.00     0.174 HD
ATOM     18  H11 UNL     1      51.904  15.416  11.243  1.00  0.00     0.174 HD
ENDBRANCH  12  16
ENDBRANCH   3   6
ENDBRANCH   1   2
BRANCH   1  19
HETATM   19  C6  UNL     1      59.248  16.299   6.865  1.00  0.00     0.188 C 
BRANCH  19  20
HETATM   20  N5  UNL     1      59.615  14.921   6.557  1.00  0.00    -0.284 N 
HETATM   21  C7  UNL     1      58.994  14.103   5.687  1.00  0.00     0.143 A 
HETATM   22  C8  UNL     1      59.626  12.876   5.662  1.00  0.00     0.098 A 
HETATM   23  N6  UNL     1      60.640  12.995   6.546  1.00  0.00    -0.284 N 
HETATM   24  N7  UNL     1      60.610  14.217   7.061  1.00  0.00    -0.240 N 
ATOM     25  H6  UNL     1      61.316  12.267   6.778  1.00  0.00     0.188 HD
ATOM     26  H7  UNL     1      61.270  14.566   7.755  1.00  0.00     0.208 HD
BRANCH  22  27
HETATM   27  C9  UNL     1      59.262  11.693   4.840  1.00  0.00     0.308 C 
BRANCH  27  28
HETATM   28  O3  UNL     1      58.005  11.807   4.283  1.00  0.00    -0.366 OA
ATOM     29  H3  UNL     1      58.008  11.651   3.346  1.00  0.00     0.213 HD
ENDBRANCH  27  28
BRANCH  27  30
HETATM   30  O4  UNL     1      60.179  11.474   3.818  1.00  0.00    -0.366 OA
ATOM     31  H4  UNL     1      60.718  12.240   3.659  1.00  0.00     0.213 HD
ENDBRANCH  27  30
ENDBRANCH  22  27
ENDBRANCH  19  20
ENDBRANCH   1  19
BRANCH   1  32
HETATM   32  N8  UNL     1      59.135  17.727   8.776  1.00  0.00    -0.187 N 
HETATM   33  N9  UNL     1      59.321  18.173  10.010  1.00  0.00    -0.208 N 
HETATM   34  N10 UNL     1      59.635  19.362   9.553  1.00  0.00    -0.211 N 
ATOM     35  H9  UNL     1      59.249  17.759  10.940  1.00  0.00     0.211 HD
HETATM   36  N11 UNL     1      59.449  18.915   8.323  1.00  0.00    -0.208 N 
ATOM     37  H10 UNL     1      59.907  20.253   9.969  1.00  0.00     0.211 HD
ATOM     38  H11 UNL     1      59.521  19.329   7.394  1.00  0.00     0.211 HD
ENDBRANCH   1  32
TORSDOF 9
ENDMDL
MODEL 2
REMARK VINA RESULT: -6.402169545      1.821      2.286
REMARK  9 active torsions:
REMARK  status: ('A' for Active; 'I' for Inactive)
REMARK    1  A    between atoms: N1_1  and  C1_4 
REMARK    2  A    between atoms: C3_11  and  N4_12 
REMARK       I    between atoms: N4_12  and  C4_14 
REMARK    3  A    between atoms: C4_14  and  C5_16 
REMARK    4  A    between atoms: C5_16  and  C6_17 
REMARK    5  A    between atoms: C5_16  and  N8_30 
REMARK    6  A    between atoms: C6_17  and  N5_18 
REMARK    7  A    between atoms: C8_20  and  C9_21 
REMARK    8  A    between atoms: C9_21  and  O3_22 
REMARK    9  A    between atoms: C9_21  and  O4_24 
ROOT
HETATM    1  C5  UNL     1      56.784  15.625   8.425  1.00  0.00     0.242 C 
ENDROOT
BRANCH   1   2
HETATM    2  C4  UNL     1      55.468  16.119   8.935  1.00  0.00     0.264 C 
HETATM    3  N4  UNL     1      54.548  15.138   9.395  1.00  0.00    -0.157 N 
ATOM      4  H4  UNL     1      54.141  14.488   8.723  1.00  0.00     0.187 HD
HETATM    5  O2  UNL     1      55.180  17.355   8.960  1.00  0.00    -0.270 OA
BRANCH   3   6
HETATM    6  C3  UNL     1      54.217  15.049  10.627  1.00  0.00     0.703 A 
HETATM    7  N3  UNL     1      54.801  15.883  11.505  1.00  0.00    -0.140 N 
HETATM    8  C2  UNL     1      54.468  15.807  12.808  1.00  0.00     0.352 A 
ATOM      9  H3  UNL     1      55.489  16.567  11.188  1.00  0.00     0.189 HD
HETATM   10  N2  UNL     1      53.561  14.908  13.230  1.00  0.00    -0.141 N 
HETATM   11  O1  UNL     1      55.014  16.584  13.625  1.00  0.00    -0.246 OA
HETATM   12  C1  UNL     1      52.976  14.078  12.371  1.00  0.00     0.694 A 
ATOM     13  H2  UNL     1      53.318  14.862  14.220  1.00  0.00     0.189 HD
HETATM   14  N12 UNL     1      53.310  14.151  11.050  1.00  0.00    -0.022 N 
ATOM     15  H12 UNL     1      52.869  13.521  10.379  1.00  0.00     0.203 HD
BRANCH  12  16
HETATM   16  N1  UNL     1      52.094  13.194  12.739  1.00  0.00    -0.234 N 
ATOM     17  H12 UNL     1      51.407  13.459  13.444  1.00  0.00     0.174 HD
ATOM     18  H11 UNL     1      52.065  12.251  12.350  1.00  0.00     0.174 HD
ENDBRANCH  12  16
ENDBRANCH   3   6
ENDBRANCH   1   2
BRANCH   1  19
HETATM   19  C6  UNL     1      56.906  16.053   6.998  1.00  0.00     0.188 C 
BRANCH  19  20
HETATM   20  N5  UNL     1      57.429  14.981   6.160  1.00  0.00    -0.284 N 
HETATM   21  C7  UNL     1      58.575  14.301   6.352  1.00  0.00     0.143 A 
HETATM   22  C8  UNL     1      58.737  13.361   5.354  1.00  0.00     0.098 A 
HETATM   23  N6  UNL     1      57.651  13.507   4.565  1.00  0.00    -0.284 N 
HETATM   24  N7  UNL     1      56.893  14.473   5.066  1.00  0.00    -0.240 N 
ATOM     25  H6  UNL     1      57.447  12.965   3.726  1.00  0.00     0.188 HD
ATOM     26  H7  UNL     1      56.011  14.784   4.659  1.00  0.00     0.208 HD
BRANCH  22  27
HETATM   27  C9  UNL     1      59.863  12.405   5.194  1.00  0.00     0.308 C 
BRANCH  27  28
HETATM   28  O3  UNL     1      60.817  12.545   6.181  1.00  0.00    -0.366 OA
ATOM     29  H3  UNL     1      60.592  12.069   6.972  1.00  0.00     0.213 HD
ENDBRANCH  27  28
BRANCH  27  30
HETATM   30  O4  UNL     1      59.422  11.086   5.191  1.00  0.00    -0.366 OA
ATOM     31  H4  UNL     1      59.714  10.616   5.963  1.00  0.00     0.213 HD
ENDBRANCH  27  30
ENDBRANCH  22  27
ENDBRANCH  19  20
ENDBRANCH   1  19
BRANCH   1  32
HETATM   32  N8  UNL     1      57.836  16.254   9.189  1.00  0.00    -0.187 N 
HETATM   33  N9  UNL     1      59.150  16.297   9.019  1.00  0.00    -0.208 N 
HETATM   34  N10 UNL     1      59.285  17.027  10.101  1.00  0.00    -0.211 N 
ATOM     35  H9  UNL     1      59.796  15.916   8.328  1.00  0.00     0.211 HD
HETATM   36  N11 UNL     1      57.974  16.984  10.268  1.00  0.00    -0.208 N 
ATOM     37  H10 UNL     1      60.068  17.449  10.600  1.00  0.00     0.211 HD
ATOM     38  H11 UNL     1      57.329  17.365  10.960  1.00  0.00     0.211 HD
ENDBRANCH   1  32
TORSDOF 9
ENDMDL
MODEL 3
REMARK VINA RESULT: -6.393069225      1.197      1.459
REMARK  9 active torsions:
REMARK  status: ('A' for Active; 'I' for Inactive)
REMARK    1  A    between atoms: N1_1  and  C1_4 
REMARK    2  A    between atoms: C3_11  and  N4_12 
REMARK       I    between atoms: N4_12  and  C4_14 
REMARK    3  A    between atoms: C4_14  and  C5_16 
REMARK    4  A    between atoms: C5_16  and  C6_17 
REMARK    5  A    between atoms: C5_16  and  N8_30 
REMARK    6  A    between atoms: C6_17  and  N5_18 
REMARK    7  A    between atoms: C8_20  and  C9_21 
REMARK    8  A    between atoms: C9_21  and  O3_22 
REMARK    9  A    between atoms: C9_21  and  O4_24 
ROOT
HETATM    1  C5  UNL     1      58.462  17.129   8.184  1.00  0.00     0.242 C 
ENDROOT
BRANCH   1   2
HETATM    2  C4  UNL     1      57.001  17.240   8.479  1.00  0.00     0.264 C 
HETATM    3  N4  UNL     1      56.268  16.025   8.562  1.00  0.00    -0.157 N 
ATOM      4  H4  UNL     1      56.143  15.463   7.721  1.00  0.00     0.187 HD
HETATM    5  O2  UNL     1      56.436  18.364   8.648  1.00  0.00    -0.270 OA
BRANCH   3   6
HETATM    6  C3  UNL     1      55.761  15.618   9.664  1.00  0.00     0.703 A 
HETATM    7  N3  UNL     1      56.479  15.771  10.791  1.00  0.00    -0.140 N 
HETATM    8  C2  UNL     1      55.965  15.349  11.962  1.00  0.00     0.352 A 
ATOM      9  H3  UNL     1      57.404  16.202  10.759  1.00  0.00     0.189 HD
HETATM   10  N2  UNL     1      54.746  14.781  12.009  1.00  0.00    -0.141 N 
HETATM   11  O1  UNL     1      56.636  15.491  13.010  1.00  0.00    -0.246 OA
HETATM   12  C1  UNL     1      54.027  14.625  10.901  1.00  0.00     0.694 A 
ATOM     13  H2  UNL     1      54.370  14.468  12.903  1.00  0.00     0.189 HD
HETATM   14  N12 UNL     1      54.543  15.051   9.712  1.00  0.00    -0.022 N 
ATOM     15  H12 UNL     1      54.001  14.938   8.854  1.00  0.00     0.203 HD
BRANCH  12  16
HETATM   16  N1  UNL     1      52.845  14.081  10.904  1.00  0.00    -0.234 N 
ATOM     17  H12 UNL     1      52.111  14.516  11.463  1.00  0.00     0.174 HD
ATOM     18  H11 UNL     1      52.625  13.239  10.370  1.00  0.00     0.174 HD
ENDBRANCH  12  16
ENDBRANCH   3   6
ENDBRANCH   1   2
BRANCH   1  19
HETATM   19  C6  UNL     1      58.632  17.194   6.701  1.00  0.00     0.188 C 
BRANCH  19  20
HETATM   20  N5  UNL     1      58.611  15.866   6.100  1.00  0.00    -0.284 N 
HETATM   21  C7  UNL     1      59.601  14.955   6.134  1.00  0.00     0.143 A 
HETATM   22  C8  UNL     1      59.217  13.816   5.456  1.00  0.00     0.098 A 
HETATM   23  N6  UNL     1      57.967  14.082   5.019  1.00  0.00    -0.284 N 
HETATM   24  N7  UNL     1      57.633  15.303   5.415  1.00  0.00    -0.240 N 
ATOM     25  H6  UNL     1      57.379  13.450   4.476  1.00  0.00     0.188 HD
ATOM     26  H7  UNL     1      56.738  15.749   5.216  1.00  0.00     0.208 HD
BRANCH  22  27
HETATM   27  C9  UNL     1      60.012  12.577   5.257  1.00  0.00     0.308 C 
BRANCH  27  28
HETATM   28  O3  UNL     1      60.960  12.396   6.243  1.00  0.00    -0.366 OA
ATOM     29  H3  UNL     1      61.136  11.478   6.412  1.00  0.00     0.213 HD
ENDBRANCH  27  28
BRANCH  27  30
HETATM   30  O4  UNL     1      59.202  11.447   5.213  1.00  0.00    -0.366 OA
ATOM     31  H4  UNL     1      59.427  10.826   5.895  1.00  0.00     0.213 HD
ENDBRANCH  27  30
ENDBRANCH  22  27
ENDBRANCH  19  20
ENDBRANCH   1  19
BRANCH   1  32
HETATM   32  N8  UNL     1      59.137  18.260   8.778  1.00  0.00    -0.187 N 
HETATM   33  N9  UNL     1      59.410  18.567  10.038  1.00  0.00    -0.208 N 
HETATM   34  N10 UNL     1      59.995  19.679   9.660  1.00  0.00    -0.211 N 
ATOM     35  H9  UNL     1      59.236  18.120  10.939  1.00  0.00     0.211 HD
HETATM   36  N11 UNL     1      59.722  19.371   8.404  1.00  0.00    -0.208 N 
ATOM     37  H10 UNL     1      60.462  20.452  10.133  1.00  0.00     0.211 HD
ATOM     38  H11 UNL     1      59.897  19.818   7.504  1.00  0.00     0.211 HD
ENDBRANCH   1  32
TORSDOF 9
ENDMDL
MODEL 4
REMARK VINA RESULT: -6.370162381      2.655      3.849
REMARK  9 active torsions:
REMARK  status: ('A' for Active; 'I' for Inactive)
REMARK    1  A    between atoms: N1_1  and  C1_4 
REMARK    2  A    between atoms: C3_11  and  N4_12 
REMARK       I    between atoms: N4_12  and  C4_14 
REMARK    3  A    between atoms: C4_14  and  C5_16 
REMARK    4  A    between atoms: C5_16  and  C6_17 
REMARK    5  A    between atoms: C5_16  and  N8_30 
REMARK    6  A    between atoms: C6_17  and  N5_18 
REMARK    7  A    between atoms: C8_20  and  C9_21 
REMARK    8  A    between atoms: C9_21  and  O3_22 
REMARK    9  A    between atoms: C9_21  and  O4_24 
ROOT
HETATM    1  C5  UNL     1      55.385  15.300   9.499  1.00  0.00     0.242 C 
ENDROOT
BRANCH   1   2
HETATM    2  C4  UNL     1      53.940  15.568   9.769  1.00  0.00     0.264 C 
HETATM    3  N4  UNL     1      53.162  14.478  10.247  1.00  0.00    -0.157 N 
ATOM      4  H4  UNL     1      52.988  13.685   9.630  1.00  0.00     0.187 HD
HETATM    5  O2  UNL     1      53.424  16.713   9.582  1.00  0.00    -0.270 OA
BRANCH   3   6
HETATM    6  C3  UNL     1      52.675  14.465  11.430  1.00  0.00     0.703 A 
HETATM    7  N3  UNL     1      52.500  15.641  12.060  1.00  0.00    -0.140 N 
HETATM    8  C2  UNL     1      51.989  15.651  13.305  1.00  0.00     0.352 A 
ATOM      9  H3  UNL     1      52.753  16.515  11.598  1.00  0.00     0.189 HD
HETATM   10  N2  UNL     1      51.654  14.500  13.916  1.00  0.00    -0.141 N 
HETATM   11  O1  UNL     1      51.828  16.746  13.891  1.00  0.00    -0.246 OA
HETATM   12  C1  UNL     1      51.821  13.332  13.303  1.00  0.00     0.694 A 
ATOM     13  H2  UNL     1      51.266  14.524  14.860  1.00  0.00     0.189 HD
HETATM   14  N12 UNL     1      52.339  13.316  12.041  1.00  0.00    -0.022 N 
ATOM     15  H12 UNL     1      52.472  12.427  11.558  1.00  0.00     0.203 HD
BRANCH  12  16
HETATM   16  N1  UNL     1      51.510  12.197  13.859  1.00  0.00    -0.234 N 
ATOM     17  H12 UNL     1      52.226  11.707  14.395  1.00  0.00     0.174 HD
ATOM     18  H11 UNL     1      50.581  11.782  13.780  1.00  0.00     0.174 HD
ENDBRANCH  12  16
ENDBRANCH   3   6
ENDBRANCH   1   2
BRANCH   1  19
HETATM   19  C6  UNL     1      55.787  16.124   8.319  1.00  0.00     0.188 C 
BRANCH  19  20
HETATM   20  N5  UNL     1      56.719  15.408   7.457  1.00  0.00    -0.284 N 
HETATM   21  C7  UNL     1      57.938  14.952   7.800  1.00  0.00     0.143 A 
HETATM   22  C8  UNL     1      58.526  14.324   6.720  1.00  0.00     0.098 A 
HETATM   23  N6  UNL     1      57.616  14.423   5.728  1.00  0.00    -0.284 N 
HETATM   24  N7  UNL     1      56.555  15.069   6.192  1.00  0.00    -0.240 N 
ATOM     25  H6  UNL     1      57.726  14.061   4.780  1.00  0.00     0.188 HD
ATOM     26  H7  UNL     1      55.722  15.278   5.643  1.00  0.00     0.208 HD
BRANCH  22  27
HETATM   27  C9  UNL     1      59.867  13.684   6.673  1.00  0.00     0.308 C 
BRANCH  27  28
HETATM   28  O3  UNL     1      60.773  14.298   7.512  1.00  0.00    -0.366 OA
ATOM     29  H3  UNL     1      60.359  14.675   8.279  1.00  0.00     0.213 HD
ENDBRANCH  27  28
BRANCH  27  30
HETATM   30  O4  UNL     1      59.805  12.335   7.003  1.00  0.00    -0.366 OA
ATOM     31  H4  UNL     1      60.247  11.794   6.359  1.00  0.00     0.213 HD
ENDBRANCH  27  30
ENDBRANCH  22  27
ENDBRANCH  19  20
ENDBRANCH   1  19
BRANCH   1  32
HETATM   32  N8  UNL     1      56.152  15.728  10.646  1.00  0.00    -0.187 N 
HETATM   33  N9  UNL     1      56.187  15.299  11.899  1.00  0.00    -0.208 N 
HETATM   34  N10 UNL     1      57.094  16.197  12.202  1.00  0.00    -0.211 N 
ATOM     35  H9  UNL     1      55.703  14.566  12.419  1.00  0.00     0.211 HD
HETATM   36  N11 UNL     1      57.059  16.623  10.951  1.00  0.00    -0.208 N 
ATOM     37  H10 UNL     1      57.608  16.456  13.044  1.00  0.00     0.211 HD
ATOM     38  H11 UNL     1      57.543  17.356  10.432  1.00  0.00     0.211 HD
ENDBRANCH   1  32
TORSDOF 9
ENDMDL
MODEL 5
REMARK VINA RESULT: -6.362004693      2.448      6.691
REMARK  9 active torsions:
REMARK  status: ('A' for Active; 'I' for Inactive)
REMARK    1  A    between atoms: N1_1  and  C1_4 
REMARK    2  A    between atoms: C3_11  and  N4_12 
REMARK       I    between atoms: N4_12  and  C4_14 
REMARK    3  A    between atoms: C4_14  and  C5_16 
REMARK    4  A    between atoms: C5_16  and  C6_17 
REMARK    5  A    between atoms: C5_16  and  N8_30 
REMARK    6  A    between atoms: C6_17  and  N5_18 
REMARK    7  A    between atoms: C8_20  and  C9_21 
REMARK    8  A    between atoms: C9_21  and  O3_22 
REMARK    9  A    between atoms: C9_21  and  O4_24 
ROOT
HETATM    1  C5  UNL     1      58.746  15.480   7.467  1.00  0.00     0.242 C 
ENDROOT
BRANCH   1   2
HETATM    2  C4  UNL     1      59.281  16.700   6.788  1.00  0.00     0.264 C 
HETATM    3  N4  UNL     1      58.656  17.937   7.103  1.00  0.00    -0.157 N 
ATOM      4  H4  UNL     1      57.692  18.094   6.813  1.00  0.00     0.187 HD
HETATM    5  O2  UNL     1      60.247  16.640   5.967  1.00  0.00    -0.270 OA
BRANCH   3   6
HETATM    6  C3  UNL     1      59.272  18.859   7.742  1.00  0.00     0.703 A 
HETATM    7  N3  UNL     1      60.087  19.676   7.052  1.00  0.00    -0.140 N 
HETATM    8  C2  UNL     1      60.745  20.653   7.704  1.00  0.00     0.352 A 
ATOM      9  H3  UNL     1      60.207  19.556   6.046  1.00  0.00     0.189 HD
HETATM   10  N2  UNL     1      60.590  20.816   9.031  1.00  0.00    -0.141 N 
HETATM   11  O1  UNL     1      61.506  21.413   7.060  1.00  0.00    -0.246 OA
HETATM   12  C1  UNL     1      59.786  20.014   9.723  1.00  0.00     0.694 A 
ATOM     13  H2  UNL     1      61.094  21.561   9.510  1.00  0.00     0.189 HD
HETATM   14  N12 UNL     1      59.117  19.022   9.067  1.00  0.00    -0.022 N 
ATOM     15  H12 UNL     1      58.496  18.400   9.586  1.00  0.00     0.203 HD
BRANCH  12  16
HETATM   16  N1  UNL     1      59.608  20.138  11.006  1.00  0.00    -0.234 N 
ATOM     17  H12 UNL     1      58.669  20.006  11.381  1.00  0.00     0.174 HD
ATOM     18  H11 UNL     1      60.370  20.361  11.648  1.00  0.00     0.174 HD
ENDBRANCH  12  16
ENDBRANCH   3   6
ENDBRANCH   1   2
BRANCH   1  19
HETATM   19  C6  UNL     1      57.306  15.346   7.090  1.00  0.00     0.188 C 
BRANCH  19  20
HETATM   20  N5  UNL     1      56.447  15.285   8.267  1.00  0.00    -0.284 N 
HETATM   21  C7  UNL     1      56.850  15.279   9.552  1.00  0.00     0.143 A 
HETATM   22  C8  UNL     1      55.753  15.214  10.388  1.00  0.00     0.098 A 
HETATM   23  N6  UNL     1      54.689  15.181   9.556  1.00  0.00    -0.284 N 
HETATM   24  N7  UNL     1      55.130  15.225   8.306  1.00  0.00    -0.240 N 
ATOM     25  H6  UNL     1      53.711  15.132   9.842  1.00  0.00     0.188 HD
ATOM     26  H7  UNL     1      54.529  15.213   7.483  1.00  0.00     0.208 HD
BRANCH  22  27
HETATM   27  C9  UNL     1      55.755  15.187  11.873  1.00  0.00     0.308 C 
BRANCH  27  28
HETATM   28  O3  UNL     1      56.929  15.677  12.407  1.00  0.00    -0.366 OA
ATOM     29  H3  UNL     1      56.965  15.582  13.351  1.00  0.00     0.213 HD
ENDBRANCH  27  28
BRANCH  27  30
HETATM   30  O4  UNL     1      54.693  15.912  12.403  1.00  0.00    -0.366 OA
ATOM     31  H4  UNL     1      54.052  15.346  12.817  1.00  0.00     0.213 HD
ENDBRANCH  27  30
ENDBRANCH  22  27
ENDBRANCH  19  20
ENDBRANCH   1  19
BRANCH   1  32
HETATM   32  N8  UNL     1      59.463  14.328   6.971  1.00  0.00    -0.187 N 
HETATM   33  N9  UNL     1      60.724  13.943   7.108  1.00  0.00    -0.208 N 
HETATM   34  N10 UNL     1      60.496  12.873   6.383  1.00  0.00    -0.211 N 
ATOM     35  H9  UNL     1      61.542  14.325   7.584  1.00  0.00     0.211 HD
HETATM   36  N11 UNL     1      59.238  13.258   6.248  1.00  0.00    -0.208 N 
ATOM     37  H10 UNL     1      61.052  12.081   6.061  1.00  0.00     0.211 HD
ATOM     38  H11 UNL     1      58.421  12.876   5.772  1.00  0.00     0.211 HD
ENDBRANCH   1  32
TORSDOF 9
ENDMDL
