MODEL 1
REMARK VINA RESULT: -4.765127695      0.000      0.000
REMARK  3 active torsions:
REMARK  status: ('A' for Active; 'I' for Inactive)
REMARK    1  A    between atoms: C1_2  and  N1_3 
REMARK    2  A    between atoms: C1_2  and  N2_6 
REMARK    3  A    between atoms: N2_6  and  C2_8 
ROOT
HETATM    1  C2  UNL     1       9.728  -5.231 -11.115  1.00  0.00     0.092 C 
HETATM    2  C3  UNL     1      11.020  -4.912 -10.381  1.00  0.00     0.009 C 
HETATM    3  C4  UNL     1      12.141  -5.055 -11.386  1.00  0.00     0.011 C 
HETATM    4  C5  UNL     1      12.197  -6.500 -11.825  1.00  0.00    -0.013 C 
HETATM    5  C6  UNL     1      12.471  -7.394 -10.648  1.00  0.00     0.009 C 
HETATM    6  C7  UNL     1      11.365  -7.245  -9.647  1.00  0.00    -0.013 C 
HETATM    7  C8  UNL     1      11.292  -5.774  -9.203  1.00  0.00     0.011 C 
HETATM    8  C9  UNL     1      10.014  -7.566 -10.191  1.00  0.00     0.011 C 
HETATM    9  C10 UNL     1       9.756  -6.714 -11.413  1.00  0.00     0.009 C 
HETATM   10  C11 UNL     1      10.880  -6.908 -12.429  1.00  0.00     0.011 C 
ENDROOT
BRANCH   1  11
HETATM   11  N2  UNL     1       8.584  -4.779 -10.410  1.00  0.00    -0.361 N 
ATOM     12  H2  UNL     1       8.395  -5.171  -9.487  1.00  0.00     0.162 HD
BRANCH  11  13
HETATM   13  C1  UNL     1       7.689  -3.806 -10.927  1.00  0.00     0.182 C 
HETATM   14  S1  UNL     1       7.809  -3.246 -12.468  1.00  0.00    -0.040 SA
BRANCH  13  15
HETATM   15  N1  UNL     1       6.650  -3.248 -10.139  1.00  0.00    -0.275 N 
HETATM   16 CL1  UNL     1       6.384  -1.551 -10.062  1.00  0.00     0.013 Cl
ATOM     17  H1  UNL     1       6.045  -3.870  -9.603  1.00  0.00     0.183 HD
ENDBRANCH  13  15
ENDBRANCH  11  13
ENDBRANCH   1  11
TORSDOF 3
ENDMDL
MODEL 2
REMARK VINA RESULT: -4.700737882      0.909      2.297
REMARK  3 active torsions:
REMARK  status: ('A' for Active; 'I' for Inactive)
REMARK    1  A    between atoms: C1_2  and  N1_3 
REMARK    2  A    between atoms: C1_2  and  N2_6 
REMARK    3  A    between atoms: N2_6  and  C2_8 
ROOT
HETATM    1  C2  UNL     1       9.309  -5.949 -10.652  1.00  0.00     0.092 C 
HETATM    2  C3  UNL     1       9.843  -7.346 -10.920  1.00  0.00     0.009 C 
HETATM    3  C4  UNL     1      10.573  -7.782  -9.669  1.00  0.00     0.011 C 
HETATM    4  C5  UNL     1      11.752  -6.861  -9.467  1.00  0.00    -0.013 C 
HETATM    5  C6  UNL     1      12.689  -6.945 -10.639  1.00  0.00     0.009 C 
HETATM    6  C7  UNL     1      11.964  -6.522 -11.881  1.00  0.00    -0.013 C 
HETATM    7  C8  UNL     1      10.754  -7.447 -12.089  1.00  0.00     0.011 C 
HETATM    8  C9  UNL     1      11.405  -5.141 -11.810  1.00  0.00     0.011 C 
HETATM    9  C10 UNL     1      10.510  -5.030 -10.597  1.00  0.00     0.009 C 
HETATM   10  C11 UNL     1      11.281  -5.436  -9.342  1.00  0.00     0.011 C 
ENDROOT
BRANCH   1  11
HETATM   11  N2  UNL     1       8.303  -5.572 -11.578  1.00  0.00    -0.361 N 
ATOM     12  H2  UNL     1       7.941  -6.279 -12.217  1.00  0.00     0.162 HD
BRANCH  11  13
HETATM   13  C1  UNL     1       7.777  -4.256 -11.657  1.00  0.00     0.182 C 
HETATM   14  S1  UNL     1       8.064  -3.281 -12.950  1.00  0.00    -0.040 SA
BRANCH  13  15
HETATM   15  N1  UNL     1       6.987  -3.699 -10.619  1.00  0.00    -0.275 N 
HETATM   16 CL1  UNL     1       7.698  -2.940  -9.249  1.00  0.00     0.013 Cl
ATOM     17  H1  UNL     1       5.971  -3.751 -10.686  1.00  0.00     0.183 HD
ENDBRANCH  13  15
ENDBRANCH  11  13
ENDBRANCH   1  11
TORSDOF 3
ENDMDL
MODEL 3
REMARK VINA RESULT: -4.555383982      1.672      2.694
REMARK  3 active torsions:
REMARK  status: ('A' for Active; 'I' for Inactive)
REMARK    1  A    between atoms: C1_2  and  N1_3 
REMARK    2  A    between atoms: C1_2  and  N2_6 
REMARK    3  A    between atoms: N2_6  and  C2_8 
ROOT
HETATM    1  C2  UNL     1       9.237  -5.632 -10.595  1.00  0.00     0.092 C 
HETATM    2  C3  UNL     1       9.609  -7.068 -10.923  1.00  0.00     0.009 C 
HETATM    3  C4  UNL     1      10.387  -7.599  -9.741  1.00  0.00     0.011 C 
HETATM    4  C5  UNL     1      11.664  -6.801  -9.621  1.00  0.00    -0.013 C 
HETATM    5  C6  UNL     1      12.493  -6.952 -10.865  1.00  0.00     0.009 C 
HETATM    6  C7  UNL     1      11.719  -6.434 -12.040  1.00  0.00    -0.013 C 
HETATM    7  C8  UNL     1      10.410  -7.233 -12.162  1.00  0.00     0.011 C 
HETATM    8  C9  UNL     1      11.306  -5.007 -11.907  1.00  0.00     0.011 C 
HETATM    9  C10 UNL     1      10.524  -4.836 -10.624  1.00  0.00     0.009 C 
HETATM   10  C11 UNL     1      11.347  -5.341  -9.441  1.00  0.00     0.011 C 
ENDROOT
BRANCH   1  11
HETATM   11  N2  UNL     1       8.204  -5.139 -11.433  1.00  0.00    -0.361 N 
ATOM     12  H2  UNL     1       7.749  -5.788 -12.076  1.00  0.00     0.162 HD
BRANCH  11  13
HETATM   13  C1  UNL     1       7.775  -3.787 -11.421  1.00  0.00     0.182 C 
HETATM   14  S1  UNL     1       7.252  -3.053 -10.045  1.00  0.00    -0.040 SA
BRANCH  13  15
HETATM   15  N1  UNL     1       7.754  -2.995 -12.597  1.00  0.00    -0.275 N 
HETATM   16 CL1  UNL     1       9.049  -3.020 -13.728  1.00  0.00     0.013 Cl
ATOM     17  H1  UNL     1       6.949  -2.394 -12.777  1.00  0.00     0.183 HD
ENDBRANCH  13  15
ENDBRANCH  11  13
ENDBRANCH   1  11
TORSDOF 3
ENDMDL
MODEL 4
REMARK VINA RESULT: -4.359506755      4.264      5.302
REMARK  3 active torsions:
REMARK  status: ('A' for Active; 'I' for Inactive)
REMARK    1  A    between atoms: C1_2  and  N1_3 
REMARK    2  A    between atoms: C1_2  and  N2_6 
REMARK    3  A    between atoms: N2_6  and  C2_8 
ROOT
HETATM    1  C2  UNL     1      11.754  -6.790 -11.317  1.00  0.00     0.092 C 
HETATM    2  C3  UNL     1      10.773  -7.094 -10.198  1.00  0.00     0.009 C 
HETATM    3  C4  UNL     1       9.386  -6.958 -10.784  1.00  0.00     0.011 C 
HETATM    4  C5  UNL     1       9.190  -5.520 -11.201  1.00  0.00    -0.013 C 
HETATM    5  C6  UNL     1       9.314  -4.609 -10.012  1.00  0.00     0.009 C 
HETATM    6  C7  UNL     1      10.686  -4.750  -9.424  1.00  0.00    -0.013 C 
HETATM    7  C8  UNL     1      10.899  -6.215  -9.008  1.00  0.00     0.011 C 
HETATM    8  C9  UNL     1      11.787  -4.442 -10.383  1.00  0.00     0.011 C 
HETATM    9  C10 UNL     1      11.631  -5.311 -11.610  1.00  0.00     0.009 C 
HETATM   10  C11 UNL     1      10.238  -5.125 -12.207  1.00  0.00     0.011 C 
ENDROOT
BRANCH   1  11
HETATM   11  N2  UNL     1      13.066  -7.239 -11.017  1.00  0.00    -0.361 N 
ATOM     12  H2  UNL     1      13.837  -6.578 -11.105  1.00  0.00     0.162 HD
BRANCH  11  13
HETATM   13  C1  UNL     1      13.356  -8.564 -10.600  1.00  0.00     0.182 C 
HETATM   14  S1  UNL     1      13.192  -9.850 -11.613  1.00  0.00    -0.040 SA
BRANCH  13  15
HETATM   15  N1  UNL     1      13.787  -8.859  -9.282  1.00  0.00    -0.275 N 
HETATM   16 CL1  UNL     1      12.673  -9.258  -8.033  1.00  0.00     0.013 Cl
ATOM     17  H1  UNL     1      14.784  -8.834  -9.068  1.00  0.00     0.183 HD
ENDBRANCH  13  15
ENDBRANCH  11  13
ENDBRANCH   1  11
TORSDOF 3
ENDMDL
MODEL 5
REMARK VINA RESULT: -4.319610193      4.565      5.613
REMARK  3 active torsions:
REMARK  status: ('A' for Active; 'I' for Inactive)
REMARK    1  A    between atoms: C1_2  and  N1_3 
REMARK    2  A    between atoms: C1_2  and  N2_6 
REMARK    3  A    between atoms: N2_6  and  C2_8 
ROOT
HETATM    1  C2  UNL     1      12.314  -7.032 -10.497  1.00  0.00     0.092 C 
HETATM    2  C3  UNL     1      11.847  -5.985 -11.495  1.00  0.00     0.009 C 
HETATM    3  C4  UNL     1      11.782  -4.671 -10.751  1.00  0.00     0.011 C 
HETATM    4  C5  UNL     1      10.731  -4.792  -9.673  1.00  0.00    -0.013 C 
HETATM    5  C6  UNL     1       9.388  -5.081 -10.282  1.00  0.00     0.009 C 
HETATM    6  C7  UNL     1       9.454  -6.380 -11.028  1.00  0.00    -0.013 C 
HETATM    7  C8  UNL     1      10.531  -6.270 -12.120  1.00  0.00     0.011 C 
HETATM    8  C9  UNL     1       9.859  -7.540 -10.183  1.00  0.00     0.011 C 
HETATM    9  C10 UNL     1      11.180  -7.230  -9.516  1.00  0.00     0.009 C 
HETATM   10  C11 UNL     1      11.076  -5.920  -8.737  1.00  0.00     0.011 C 
ENDROOT
BRANCH   1  11
HETATM   11  N2  UNL     1      12.774  -8.213 -11.134  1.00  0.00    -0.361 N 
ATOM     12  H2  UNL     1      12.872  -8.211 -12.149  1.00  0.00     0.162 HD
BRANCH  11  13
HETATM   13  C1  UNL     1      13.105  -9.397 -10.425  1.00  0.00     0.182 C 
HETATM   14  S1  UNL     1      12.202 -10.766 -10.550  1.00  0.00    -0.040 SA
BRANCH  13  15
HETATM   15  N1  UNL     1      14.222  -9.464  -9.553  1.00  0.00    -0.275 N 
HETATM   16 CL1  UNL     1      15.556  -8.390  -9.708  1.00  0.00     0.013 Cl
ATOM     17  H1  UNL     1      14.233 -10.168  -8.815  1.00  0.00     0.183 HD
ENDBRANCH  13  15
ENDBRANCH  11  13
ENDBRANCH   1  11
TORSDOF 3
ENDMDL
