MODEL 1
REMARK VINA RESULT: -6.362054204      0.000      0.000
REMARK  2 active torsions:
REMARK  status: ('A' for Active; 'I' for Inactive)
REMARK       I    between atoms: C2_4  and  N3_6 
REMARK    1  A    between atoms: N3_6  and  C3_8 
REMARK    2  A    between atoms: C3_8  and  C4_9 
ROOT
HETATM    1  C4  UNL     1      10.790  -6.035 -10.867  1.00  0.00     0.058 C 
HETATM    2  C5  UNL     1      11.968  -5.409 -11.510  1.00  0.00     0.013 C 
HETATM    3  C6  UNL     1      12.609  -6.331 -12.560  1.00  0.00     0.001 C 
HETATM    4  C7  UNL     1      13.827  -7.034 -11.934  1.00  0.00     0.000 C 
HETATM    5  C8  UNL     1      13.545  -8.457 -11.663  1.00  0.00     0.000 C 
HETATM    6  C9  UNL     1      13.934  -9.045 -10.380  1.00  0.00     0.000 C 
HETATM    7  C10 UNL     1      13.795  -8.253  -9.129  1.00  0.00     0.000 C 
HETATM    8  C11 UNL     1      12.633  -8.572  -8.263  1.00  0.00     0.000 C 
HETATM    9  C12 UNL     1      11.402  -7.760  -8.417  1.00  0.00     0.003 C 
HETATM   10  C13 UNL     1      11.550  -6.296  -8.491  1.00  0.00     0.038 C 
HETATM   11  C14 UNL     1      10.587  -5.601  -9.429  1.00  0.00     0.179 C 
HETATM   12  F1  UNL     1      10.927  -4.261  -9.358  1.00  0.00    -0.249 F 
ENDROOT
BRANCH   1  13
HETATM   13  C3  UNL     1       9.495  -5.971 -11.608  1.00  0.00     0.071 C 
BRANCH  13  14
HETATM   14  N3  UNL     1       8.415  -5.243 -11.074  1.00  0.00    -0.344 N 
HETATM   15  C2  UNL     1       7.914  -4.017 -11.520  1.00  0.00     0.187 C 
HETATM   16  N1  UNL     1       7.534  -3.021 -10.824  1.00  0.00    -0.369 N 
HETATM   17  N2  UNL     1       7.792  -3.839 -12.952  1.00  0.00    -0.064 NA
HETATM   18  C1  UNL     1       7.587  -3.032  -9.395  1.00  0.00     0.148 C 
ATOM     19  H1  UNL     1       7.181  -2.191 -11.300  1.00  0.00     0.161 HD
ATOM     20  H3  UNL     1       7.943  -5.658 -10.270  1.00  0.00     0.167 HD
ENDBRANCH  13  14
ENDBRANCH   1  13
TORSDOF 2
ENDMDL
MODEL 2
REMARK VINA RESULT: -5.858863980      0.956      1.479
REMARK  2 active torsions:
REMARK  status: ('A' for Active; 'I' for Inactive)
REMARK       I    between atoms: C2_4  and  N3_6 
REMARK    1  A    between atoms: N3_6  and  C3_8 
REMARK    2  A    between atoms: C3_8  and  C4_9 
ROOT
HETATM    1  C4  UNL     1      10.907  -5.670 -10.729  1.00  0.00     0.058 C 
HETATM    2  C5  UNL     1      12.151  -5.130 -11.324  1.00  0.00     0.013 C 
HETATM    3  C6  UNL     1      12.694  -6.035 -12.441  1.00  0.00     0.001 C 
HETATM    4  C7  UNL     1      13.825  -6.911 -11.872  1.00  0.00     0.000 C 
HETATM    5  C8  UNL     1      13.388  -8.312 -11.709  1.00  0.00     0.000 C 
HETATM    6  C9  UNL     1      13.701  -9.034 -10.475  1.00  0.00     0.000 C 
HETATM    7  C10 UNL     1      13.641  -8.327  -9.167  1.00  0.00     0.000 C 
HETATM    8  C11 UNL     1      12.445  -8.582  -8.327  1.00  0.00     0.000 C 
HETATM    9  C12 UNL     1      11.311  -7.632  -8.417  1.00  0.00     0.003 C 
HETATM   10  C13 UNL     1      11.618  -6.191  -8.380  1.00  0.00     0.038 C 
HETATM   11  C14 UNL     1      10.742  -5.326  -9.262  1.00  0.00     0.179 C 
HETATM   12  F1  UNL     1      11.226  -4.041  -9.090  1.00  0.00    -0.249 F 
ENDROOT
BRANCH   1  13
HETATM   13  C3  UNL     1       9.632  -5.410 -11.461  1.00  0.00     0.071 C 
BRANCH  13  14
HETATM   14  N3  UNL     1       9.378  -4.134 -11.999  1.00  0.00    -0.344 N 
HETATM   15  C2  UNL     1       8.143  -3.490 -12.109  1.00  0.00     0.187 C 
HETATM   16  N1  UNL     1       7.694  -2.811 -13.087  1.00  0.00    -0.369 N 
HETATM   17  N2  UNL     1       7.250  -3.583 -10.973  1.00  0.00    -0.064 NA
HETATM   18  C1  UNL     1       8.449  -2.618 -14.286  1.00  0.00     0.148 C 
ATOM     19  H1  UNL     1       6.767  -2.391 -13.014  1.00  0.00     0.161 HD
ATOM     20  H3  UNL     1      10.188  -3.621 -12.347  1.00  0.00     0.167 HD
ENDBRANCH  13  14
ENDBRANCH   1  13
TORSDOF 2
ENDMDL
MODEL 3
REMARK VINA RESULT: -5.858520153      1.384      3.123
REMARK  2 active torsions:
REMARK  status: ('A' for Active; 'I' for Inactive)
REMARK       I    between atoms: C2_4  and  N3_6 
REMARK    1  A    between atoms: N3_6  and  C3_8 
REMARK    2  A    between atoms: C3_8  and  C4_9 
ROOT
HETATM    1  C4  UNL     1      10.995  -5.958 -10.183  1.00  0.00     0.058 C 
HETATM    2  C5  UNL     1      10.521  -7.254  -9.644  1.00  0.00     0.013 C 
HETATM    3  C6  UNL     1      11.329  -7.695  -8.412  1.00  0.00     0.001 C 
HETATM    4  C7  UNL     1      12.390  -8.721  -8.849  1.00  0.00     0.000 C 
HETATM    5  C8  UNL     1      13.743  -8.133  -8.838  1.00  0.00     0.000 C 
HETATM    6  C9  UNL     1      14.648  -8.364  -9.964  1.00  0.00     0.000 C 
HETATM    7  C10 UNL     1      14.114  -8.382 -11.352  1.00  0.00     0.000 C 
HETATM    8  C11 UNL     1      14.342  -7.165 -12.170  1.00  0.00     0.000 C 
HETATM    9  C12 UNL     1      13.270  -6.143 -12.218  1.00  0.00     0.003 C 
HETATM   10  C13 UNL     1      11.889  -6.606 -12.435  1.00  0.00     0.038 C 
HETATM   11  C14 UNL     1      10.826  -5.831 -11.683  1.00  0.00     0.179 C 
HETATM   12  F1  UNL     1       9.635  -6.454 -12.011  1.00  0.00    -0.249 F 
ENDROOT
BRANCH   1  13
HETATM   13  C3  UNL     1      10.504  -4.719  -9.507  1.00  0.00     0.071 C 
BRANCH  13  14
HETATM   14  N3  UNL     1       9.723  -3.791 -10.221  1.00  0.00    -0.344 N 
HETATM   15  C2  UNL     1       8.359  -3.530 -10.063  1.00  0.00     0.187 C 
HETATM   16  N1  UNL     1       7.484  -3.339 -10.967  1.00  0.00    -0.369 N 
HETATM   17  N2  UNL     1       7.860  -3.448  -8.706  1.00  0.00    -0.064 NA
HETATM   18  C1  UNL     1       7.810  -3.383 -12.358  1.00  0.00     0.148 C 
ATOM     19  H1  UNL     1       6.521  -3.149 -10.690  1.00  0.00     0.161 HD
ATOM     20  H3  UNL     1      10.207  -3.248 -10.936  1.00  0.00     0.167 HD
ENDBRANCH  13  14
ENDBRANCH   1  13
TORSDOF 2
ENDMDL
MODEL 4
REMARK VINA RESULT: -5.582196169      3.067      6.342
REMARK  2 active torsions:
REMARK  status: ('A' for Active; 'I' for Inactive)
REMARK       I    between atoms: C2_4  and  N3_6 
REMARK    1  A    between atoms: N3_6  and  C3_8 
REMARK    2  A    between atoms: C3_8  and  C4_9 
ROOT
HETATM    1  C4  UNL     1      11.120  -6.204 -10.909  1.00  0.00     0.058 C 
HETATM    2  C5  UNL     1      11.303  -5.008 -10.053  1.00  0.00     0.013 C 
HETATM    3  C6  UNL     1      10.028  -4.665  -9.266  1.00  0.00     0.001 C 
HETATM    4  C7  UNL     1       9.278  -3.534  -9.993  1.00  0.00     0.000 C 
HETATM    5  C8  UNL     1       8.064  -4.039 -10.662  1.00  0.00     0.000 C 
HETATM    6  C9  UNL     1       7.762  -3.626 -12.033  1.00  0.00     0.000 C 
HETATM    7  C10 UNL     1       8.863  -3.481 -13.022  1.00  0.00     0.000 C 
HETATM    8  C11 UNL     1       9.025  -4.580 -14.006  1.00  0.00     0.000 C 
HETATM    9  C12 UNL     1      10.004  -5.652 -13.703  1.00  0.00     0.003 C 
HETATM   10  C13 UNL     1      11.336  -5.249 -13.219  1.00  0.00     0.038 C 
HETATM   11  C14 UNL     1      11.945  -6.166 -12.179  1.00  0.00     0.179 C 
HETATM   12  F1  UNL     1      13.158  -5.582 -11.859  1.00  0.00    -0.249 F 
ENDROOT
BRANCH   1  13
HETATM   13  C3  UNL     1      11.253  -7.538 -10.252  1.00  0.00     0.071 C 
BRANCH  13  14
HETATM   14  N3  UNL     1      12.439  -8.282 -10.405  1.00  0.00    -0.344 N 
HETATM   15  C2  UNL     1      13.206  -8.873  -9.397  1.00  0.00     0.187 C 
HETATM   16  N1  UNL     1      14.473  -8.901  -9.286  1.00  0.00    -0.369 N 
HETATM   17  N2  UNL     1      12.488  -9.557  -8.342  1.00  0.00    -0.064 NA
HETATM   18  C1  UNL     1      15.331  -8.276 -10.244  1.00  0.00     0.148 C 
ATOM     19  H1  UNL     1      14.889  -9.384  -8.490  1.00  0.00     0.161 HD
ATOM     20  H3  UNL     1      12.777  -8.403 -11.360  1.00  0.00     0.167 HD
ENDBRANCH  13  14
ENDBRANCH   1  13
TORSDOF 2
ENDMDL
MODEL 5
REMARK VINA RESULT: -5.423346802      1.767      2.659
REMARK  2 active torsions:
REMARK  status: ('A' for Active; 'I' for Inactive)
REMARK       I    between atoms: C2_4  and  N3_6 
REMARK    1  A    between atoms: N3_6  and  C3_8 
REMARK    2  A    between atoms: C3_8  and  C4_9 
ROOT
HETATM    1  C4  UNL     1      10.748  -5.990 -10.762  1.00  0.00     0.058 C 
HETATM    2  C5  UNL     1      11.910  -5.367 -11.438  1.00  0.00     0.013 C 
HETATM    3  C6  UNL     1      12.508  -6.285 -12.516  1.00  0.00     0.001 C 
HETATM    4  C7  UNL     1      13.740  -7.003 -11.936  1.00  0.00     0.000 C 
HETATM    5  C8  UNL     1      13.456  -8.426 -11.668  1.00  0.00     0.000 C 
HETATM    6  C9  UNL     1      13.881  -9.029 -10.404  1.00  0.00     0.000 C 
HETATM    7  C10 UNL     1      13.790  -8.247  -9.142  1.00  0.00     0.000 C 
HETATM    8  C11 UNL     1      12.654  -8.564  -8.242  1.00  0.00     0.000 C 
HETATM    9  C12 UNL     1      11.425  -7.741  -8.348  1.00  0.00     0.003 C 
HETATM   10  C13 UNL     1      11.583  -6.278  -8.414  1.00  0.00     0.038 C 
HETATM   11  C14 UNL     1      10.595  -5.566  -9.315  1.00  0.00     0.179 C 
HETATM   12  F1  UNL     1      10.948  -4.230  -9.243  1.00  0.00    -0.249 F 
ENDROOT
BRANCH   1  13
HETATM   13  C3  UNL     1       9.430  -5.908 -11.460  1.00  0.00     0.071 C 
BRANCH  13  14
HETATM   14  N3  UNL     1       8.416  -6.838 -11.159  1.00  0.00    -0.344 N 
HETATM   15  C2  UNL     1       8.418  -8.210 -11.421  1.00  0.00     0.187 C 
HETATM   16  N1  UNL     1       7.462  -8.930 -11.855  1.00  0.00    -0.369 N 
HETATM   17  N2  UNL     1       9.649  -8.927 -11.161  1.00  0.00    -0.064 NA
HETATM   18  C1  UNL     1       6.178  -8.380 -12.161  1.00  0.00     0.148 C 
ATOM     19  H1  UNL     1       7.617  -9.929 -11.989  1.00  0.00     0.161 HD
ATOM     20  H3  UNL     1       7.586  -6.467 -10.696  1.00  0.00     0.167 HD
ENDBRANCH  13  14
ENDBRANCH   1  13
TORSDOF 2
ENDMDL
