MODEL 1
REMARK VINA RESULT: -5.148681669      0.000      0.000
REMARK  1 active torsions:
REMARK  status: ('A' for Active; 'I' for Inactive)
REMARK       I    between atoms: N1_2  and  C2_4 
REMARK       I    between atoms: C2_4  and  N3_8 
REMARK    1  A    between atoms: N3_8  and  C3_10 
ROOT
HETATM    1  C3  UNL     1       9.905  -4.840 -10.774  1.00  0.00     0.050 C 
HETATM    2  C4  UNL     1       8.801  -5.787 -11.192  1.00  0.00     0.036 C 
HETATM    3  C5  UNL     1       9.290  -7.180 -11.432  1.00  0.00    -0.010 C 
HETATM    4  C6  UNL     1      10.305  -7.128 -12.555  1.00  0.00     0.009 C 
HETATM    5  C7  UNL     1      11.438  -6.260 -12.110  1.00  0.00    -0.010 C 
HETATM    6  C8  UNL     1      12.112  -6.744 -10.860  1.00  0.00     0.030 C 
HETATM    7  C9  UNL     1      11.041  -6.784  -9.763  1.00  0.00     0.040 C 
HETATM    8 CL1  UNL     1      11.762  -7.439  -8.276  1.00  0.00    -0.119 Cl
HETATM    9  C10 UNL     1       9.991  -7.757 -10.225  1.00  0.00     0.030 C 
HETATM   10  C11 UNL     1      10.498  -5.409  -9.494  1.00  0.00     0.057 C 
HETATM   11  C12 UNL     1      10.946  -4.860 -11.868  1.00  0.00     0.036 C 
ENDROOT
BRANCH   1  12
HETATM   12  N3  UNL     1       9.367  -3.529 -10.583  1.00  0.00    -0.217 N 
HETATM   13  C2  UNL     1       8.108  -3.242 -10.008  1.00  0.00     0.667 C 
HETATM   14  N1  UNL     1       7.050  -2.687 -10.774  1.00  0.00    -0.231 N 
HETATM   15  N2  UNL     1       7.887  -3.480  -8.762  1.00  0.00    -0.235 N 
HETATM   16  C1  UNL     1       6.219  -1.588 -10.294  1.00  0.00     0.165 C 
ATOM     17  H1  UNL     1       6.863  -3.073 -11.700  1.00  0.00     0.177 HD
ATOM     18  H22 UNL     1       6.978  -3.273  -8.347  1.00  0.00     0.174 HD
ATOM     19  H21 UNL     1       8.647  -3.879  -8.212  1.00  0.00     0.174 HD
ATOM     20  H3  UNL     1       9.936  -2.738 -10.886  1.00  0.00     0.178 HD
ENDBRANCH   1  12
TORSDOF 1
ENDMDL
MODEL 2
REMARK VINA RESULT: -4.895594955      1.480      2.059
REMARK  1 active torsions:
REMARK  status: ('A' for Active; 'I' for Inactive)
REMARK       I    between atoms: N1_2  and  C2_4 
REMARK       I    between atoms: C2_4  and  N3_8 
REMARK    1  A    between atoms: N3_8  and  C3_10 
ROOT
HETATM    1  C3  UNL     1      11.195  -6.095 -11.220  1.00  0.00     0.050 C 
HETATM    2  C4  UNL     1      10.450  -7.173 -11.978  1.00  0.00     0.036 C 
HETATM    3  C5  UNL     1      11.200  -8.465 -12.039  1.00  0.00    -0.010 C 
HETATM    4  C6  UNL     1      12.506  -8.209 -12.762  1.00  0.00     0.009 C 
HETATM    5  C7  UNL     1      13.281  -7.207 -11.969  1.00  0.00    -0.010 C 
HETATM    6  C8  UNL     1      13.575  -7.647 -10.565  1.00  0.00     0.030 C 
HETATM    7  C9  UNL     1      12.224  -7.898  -9.885  1.00  0.00     0.040 C 
HETATM    8 CL1  UNL     1      12.510  -8.512  -8.241  1.00  0.00    -0.119 Cl
HETATM    9  C10 UNL     1      11.548  -8.991 -10.666  1.00  0.00     0.030 C 
HETATM   10  C11 UNL     1      11.416  -6.632  -9.814  1.00  0.00     0.057 C 
HETATM   11  C12 UNL     1      12.527  -5.908 -11.907  1.00  0.00     0.036 C 
ENDROOT
BRANCH   1  12
HETATM   12  N3  UNL     1      10.427  -4.888 -11.222  1.00  0.00    -0.217 N 
HETATM   13  C2  UNL     1       9.858  -4.285 -10.077  1.00  0.00     0.667 C 
HETATM   14  N1  UNL     1       8.453  -4.224  -9.890  1.00  0.00    -0.231 N 
HETATM   15  N2  UNL     1      10.608  -3.770  -9.166  1.00  0.00    -0.235 N 
HETATM   16  C1  UNL     1       7.767  -3.020  -9.436  1.00  0.00     0.165 C 
ATOM     17  H1  UNL     1       7.899  -5.060 -10.083  1.00  0.00     0.177 HD
ATOM     18  H22 UNL     1      10.197  -3.335  -8.339  1.00  0.00     0.174 HD
ATOM     19  H21 UNL     1      11.618  -3.813  -9.300  1.00  0.00     0.174 HD
ATOM     20  H3  UNL     1      10.279  -4.427 -12.119  1.00  0.00     0.178 HD
ENDBRANCH   1  12
TORSDOF 1
ENDMDL
MODEL 3
REMARK VINA RESULT: -4.845154345      1.264      2.149
REMARK  1 active torsions:
REMARK  status: ('A' for Active; 'I' for Inactive)
REMARK       I    between atoms: N1_2  and  C2_4 
REMARK       I    between atoms: C2_4  and  N3_8 
REMARK    1  A    between atoms: N3_8  and  C3_10 
ROOT
HETATM    1  C3  UNL     1       9.945  -4.924 -10.862  1.00  0.00     0.050 C 
HETATM    2  C4  UNL     1      10.839  -4.942 -12.082  1.00  0.00     0.036 C 
HETATM    3  C5  UNL     1      11.453  -6.283 -12.334  1.00  0.00    -0.010 C 
HETATM    4  C6  UNL     1      12.303  -6.637 -11.131  1.00  0.00     0.009 C 
HETATM    5  C7  UNL     1      11.405  -6.703  -9.938  1.00  0.00    -0.010 C 
HETATM    6  C8  UNL     1      10.299  -7.709 -10.072  1.00  0.00     0.030 C 
HETATM    7  C9  UNL     1       9.479  -7.308 -11.304  1.00  0.00     0.040 C 
HETATM    8 CL1  UNL     1       8.204  -8.519 -11.568  1.00  0.00    -0.119 Cl
HETATM    9  C10 UNL     1      10.413  -7.370 -12.480  1.00  0.00     0.030 C 
HETATM   10  C11 UNL     1       8.853  -5.954 -11.114  1.00  0.00     0.057 C 
HETATM   11  C12 UNL     1      10.788  -5.356  -9.686  1.00  0.00     0.036 C 
ENDROOT
BRANCH   1  12
HETATM   12  N3  UNL     1       9.413  -3.610 -10.674  1.00  0.00    -0.217 N 
HETATM   13  C2  UNL     1       8.177  -3.314 -10.054  1.00  0.00     0.667 C 
HETATM   14  N1  UNL     1       7.089  -2.774 -10.787  1.00  0.00    -0.231 N 
HETATM   15  N2  UNL     1       8.007  -3.527  -8.796  1.00  0.00    -0.235 N 
HETATM   16  C1  UNL     1       6.276  -1.667 -10.295  1.00  0.00     0.165 C 
ATOM     17  H1  UNL     1       6.866  -3.177 -11.697  1.00  0.00     0.177 HD
ATOM     18  H22 UNL     1       7.115  -3.313  -8.348  1.00  0.00     0.174 HD
ATOM     19  H21 UNL     1       8.789  -3.916  -8.269  1.00  0.00     0.174 HD
ATOM     20  H3  UNL     1       9.968  -2.825 -11.015  1.00  0.00     0.178 HD
ENDBRANCH   1  12
TORSDOF 1
ENDMDL
MODEL 4
REMARK VINA RESULT: -4.792166522      1.307      2.246
REMARK  1 active torsions:
REMARK  status: ('A' for Active; 'I' for Inactive)
REMARK       I    between atoms: N1_2  and  C2_4 
REMARK       I    between atoms: C2_4  and  N3_8 
REMARK    1  A    between atoms: N3_8  and  C3_10 
ROOT
HETATM    1  C3  UNL     1      10.132  -4.912 -10.600  1.00  0.00     0.050 C 
HETATM    2  C4  UNL     1      10.729  -5.373  -9.288  1.00  0.00     0.036 C 
HETATM    3  C5  UNL     1      11.333  -6.738  -9.371  1.00  0.00    -0.010 C 
HETATM    4  C6  UNL     1      10.232  -7.710  -9.745  1.00  0.00     0.009 C 
HETATM    5  C7  UNL     1       9.699  -7.306 -11.082  1.00  0.00    -0.010 C 
HETATM    6  C8  UNL     1      10.736  -7.297 -12.166  1.00  0.00     0.030 C 
HETATM    7  C9  UNL     1      11.824  -6.307 -11.734  1.00  0.00     0.040 C 
HETATM    8 CL1  UNL     1      13.131  -6.321 -12.940  1.00  0.00    -0.119 Cl
HETATM    9  C10 UNL     1      12.392  -6.832 -10.444  1.00  0.00     0.030 C 
HETATM   10  C11 UNL     1      11.267  -4.916 -11.614  1.00  0.00     0.057 C 
HETATM   11  C12 UNL     1       9.093  -5.934 -10.999  1.00  0.00     0.036 C 
ENDROOT
BRANCH   1  12
HETATM   12  N3  UNL     1       9.558  -3.613 -10.439  1.00  0.00    -0.217 N 
HETATM   13  C2  UNL     1       8.253  -3.354  -9.961  1.00  0.00     0.667 C 
HETATM   14  N1  UNL     1       7.249  -2.807 -10.801  1.00  0.00    -0.231 N 
HETATM   15  N2  UNL     1       7.940  -3.609  -8.739  1.00  0.00    -0.235 N 
HETATM   16  C1  UNL     1       6.364  -1.728 -10.377  1.00  0.00     0.165 C 
ATOM     17  H1  UNL     1       7.142  -3.185 -11.743  1.00  0.00     0.177 HD
ATOM     18  H22 UNL     1       6.997  -3.423  -8.394  1.00  0.00     0.174 HD
ATOM     19  H21 UNL     1       8.661  -4.003  -8.134  1.00  0.00     0.174 HD
ATOM     20  H3  UNL     1      10.136  -2.810 -10.688  1.00  0.00     0.178 HD
ENDBRANCH   1  12
TORSDOF 1
ENDMDL
MODEL 5
REMARK VINA RESULT: -4.706969849      2.402      3.706
REMARK  1 active torsions:
REMARK  status: ('A' for Active; 'I' for Inactive)
REMARK       I    between atoms: N1_2  and  C2_4 
REMARK       I    between atoms: C2_4  and  N3_8 
REMARK    1  A    between atoms: N3_8  and  C3_10 
ROOT
HETATM    1  C3  UNL     1      11.440  -7.293  -9.818  1.00  0.00     0.050 C 
HETATM    2  C4  UNL     1      12.335  -7.746  -8.684  1.00  0.00     0.036 C 
HETATM    3  C5  UNL     1      13.459  -8.619  -9.144  1.00  0.00    -0.010 C 
HETATM    4  C6  UNL     1      12.856  -9.855  -9.780  1.00  0.00     0.009 C 
HETATM    5  C7  UNL     1      12.039  -9.416 -10.953  1.00  0.00    -0.010 C 
HETATM    6  C8  UNL     1      12.826  -8.665 -11.987  1.00  0.00     0.030 C 
HETATM    7  C9  UNL     1      13.417  -7.433 -11.290  1.00  0.00     0.040 C 
HETATM    8 CL1  UNL     1      14.438  -6.550 -12.446  1.00  0.00    -0.119 Cl
HETATM    9  C10 UNL     1      14.312  -7.949 -10.196  1.00  0.00     0.030 C 
HETATM   10  C11 UNL     1      12.328  -6.527 -10.787  1.00  0.00     0.057 C 
HETATM   11  C12 UNL     1      10.911  -8.537 -10.491  1.00  0.00     0.036 C 
ENDROOT
BRANCH   1  12
HETATM   12  N3  UNL     1      10.382  -6.483  -9.300  1.00  0.00    -0.217 N 
HETATM   13  C2  UNL     1       9.678  -5.499 -10.033  1.00  0.00     0.667 C 
HETATM   14  N1  UNL     1       9.798  -4.119  -9.727  1.00  0.00    -0.231 N 
HETATM   15  N2  UNL     1       8.904  -5.834 -11.005  1.00  0.00    -0.235 N 
HETATM   16  C1  UNL     1       8.649  -3.223  -9.656  1.00  0.00     0.165 C 
ATOM     17  H1  UNL     1      10.727  -3.737  -9.549  1.00  0.00     0.177 HD
ATOM     18  H22 UNL     1       8.396  -5.124 -11.534  1.00  0.00     0.174 HD
ATOM     19  H21 UNL     1       8.818  -6.826 -11.225  1.00  0.00     0.174 HD
ATOM     20  H3  UNL     1      10.113  -6.626  -8.327  1.00  0.00     0.178 HD
ENDBRANCH   1  12
TORSDOF 1
ENDMDL
