MODEL 1
REMARK VINA RESULT: -5.121286028      0.000      0.000
REMARK  1 active torsions:
REMARK  status: ('A' for Active; 'I' for Inactive)
REMARK    1  A    between atoms: C5_6  and  C6_7 
ROOT
HETATM    1  C1  UNL     1       8.951  -4.725 -10.807  1.00  0.00     0.017 C 
HETATM    2  C2  UNL     1       9.969  -5.699 -10.333  1.00  0.00    -0.024 C 
HETATM    3  C3  UNL     1       9.580  -7.109 -10.567  1.00  0.00     0.068 C 
HETATM    4 BR1  UNL     1       9.141  -7.328 -12.432  1.00  0.00    -0.090 Br
HETATM    5  C4  UNL     1      10.626  -8.128 -10.177  1.00  0.00     0.033 C 
HETATM    6  C5  UNL     1      11.781  -7.394  -9.543  1.00  0.00     0.017 C 
HETATM    7  C7  UNL     1      11.305  -6.525  -8.397  1.00  0.00     0.022 C 
HETATM    8  C8  UNL     1      10.472  -5.405  -8.937  1.00  0.00    -0.003 C 
HETATM    9  C9  UNL     1      11.453  -4.430  -9.609  1.00  0.00     0.011 C 
HETATM   10  C10 UNL     1      11.358  -5.357 -10.822  1.00  0.00    -0.003 C 
HETATM   11  C11 UNL     1      12.336  -6.465 -10.611  1.00  0.00     0.022 C 
ENDROOT
BRANCH   6  12
HETATM   12  C6  UNL     1      12.786  -8.364  -9.086  1.00  0.00     0.095 C 
HETATM   13  N1  UNL     1      14.014  -8.231  -9.420  1.00  0.00    -0.390 N 
ATOM     14  H12 UNL     1      14.236  -7.431 -10.012  1.00  0.00     0.157 HD
ATOM     15  H11 UNL     1      14.713  -8.904  -9.103  1.00  0.00     0.157 HD
HETATM   16  N2  UNL     1      12.477  -9.477  -8.262  1.00  0.00    -0.087 NA
ENDBRANCH   6  12
TORSDOF 1
ENDMDL
MODEL 2
REMARK VINA RESULT: -4.809926394      2.076      3.167
REMARK  1 active torsions:
REMARK  status: ('A' for Active; 'I' for Inactive)
REMARK    1  A    between atoms: C5_6  and  C6_7 
ROOT
HETATM    1  C1  UNL     1       8.495  -3.530 -12.673  1.00  0.00     0.017 C 
HETATM    2  C2  UNL     1       9.341  -4.363 -11.778  1.00  0.00    -0.024 C 
HETATM    3  C3  UNL     1       9.580  -3.740 -10.455  1.00  0.00     0.068 C 
HETATM    4 BR1  UNL     1       7.878  -3.281  -9.672  1.00  0.00    -0.090 Br
HETATM    5  C4  UNL     1      10.363  -4.593  -9.484  1.00  0.00     0.033 C 
HETATM    6  C5  UNL     1      10.781  -5.853 -10.200  1.00  0.00     0.017 C 
HETATM    7  C7  UNL     1      11.526  -5.526 -11.479  1.00  0.00     0.022 C 
HETATM    8  C8  UNL     1      10.581  -4.901 -12.456  1.00  0.00    -0.003 C 
HETATM    9  C9  UNL     1       9.681  -6.038 -12.967  1.00  0.00     0.011 C 
HETATM   10  C10 UNL     1       8.855  -5.793 -11.702  1.00  0.00    -0.003 C 
HETATM   11  C11 UNL     1       9.497  -6.566 -10.598  1.00  0.00     0.022 C 
ENDROOT
BRANCH   6  12
HETATM   12  C6  UNL     1      11.607  -6.675  -9.305  1.00  0.00     0.095 C 
HETATM   13  N1  UNL     1      11.389  -6.681  -8.045  1.00  0.00    -0.390 N 
ATOM     14  H12 UNL     1      10.627  -6.089  -7.716  1.00  0.00     0.157 HD
ATOM     15  H11 UNL     1      11.962  -7.252  -7.423  1.00  0.00     0.157 HD
HETATM   16  N2  UNL     1      12.668  -7.499  -9.762  1.00  0.00    -0.087 NA
ENDBRANCH   6  12
TORSDOF 1
ENDMDL
MODEL 3
REMARK VINA RESULT: -4.769188011      3.281      4.459
REMARK  1 active torsions:
REMARK  status: ('A' for Active; 'I' for Inactive)
REMARK    1  A    between atoms: C5_6  and  C6_7 
ROOT
HETATM    1  C1  UNL     1      12.698  -6.475 -12.038  1.00  0.00     0.017 C 
HETATM    2  C2  UNL     1      11.488  -5.762 -11.552  1.00  0.00    -0.024 C 
HETATM    3  C3  UNL     1      10.906  -4.845 -12.559  1.00  0.00     0.068 C 
HETATM    4 BR1  UNL     1      10.596  -5.831 -14.187  1.00  0.00    -0.090 Br
HETATM    5  C4  UNL     1       9.624  -4.167 -12.134  1.00  0.00     0.033 C 
HETATM    6  C5  UNL     1       9.339  -4.557 -10.706  1.00  0.00     0.017 C 
HETATM    7  C7  UNL     1      10.526  -4.254  -9.814  1.00  0.00     0.022 C 
HETATM    8  C8  UNL     1      11.661  -5.161 -10.174  1.00  0.00    -0.003 C 
HETATM    9  C9  UNL     1      11.283  -6.551  -9.635  1.00  0.00     0.011 C 
HETATM   10  C10 UNL     1      10.481  -6.705 -10.929  1.00  0.00    -0.003 C 
HETATM   11  C11 UNL     1       9.151  -6.067 -10.705  1.00  0.00     0.022 C 
ENDROOT
BRANCH   6  12
HETATM   12  C6  UNL     1       8.136  -3.857 -10.236  1.00  0.00     0.095 C 
HETATM   13  N1  UNL     1       7.029  -3.973 -10.867  1.00  0.00    -0.390 N 
ATOM     14  H12 UNL     1       7.045  -4.566 -11.698  1.00  0.00     0.157 HD
ATOM     15  H11 UNL     1       6.194  -3.487 -10.542  1.00  0.00     0.157 HD
HETATM   16  N2  UNL     1       8.115  -3.033  -9.081  1.00  0.00    -0.087 NA
ENDBRANCH   6  12
TORSDOF 1
ENDMDL
MODEL 4
REMARK VINA RESULT: -4.740371542      2.940      4.158
REMARK  1 active torsions:
REMARK  status: ('A' for Active; 'I' for Inactive)
REMARK    1  A    between atoms: C5_6  and  C6_7 
ROOT
HETATM    1  C1  UNL     1      13.187  -7.981 -10.417  1.00  0.00     0.017 C 
HETATM    2  C2  UNL     1      12.074  -6.997 -10.357  1.00  0.00    -0.024 C 
HETATM    3  C3  UNL     1      12.156  -5.959 -11.410  1.00  0.00     0.068 C 
HETATM    4 BR1  UNL     1      12.302  -6.828 -13.126  1.00  0.00    -0.090 Br
HETATM    5  C4  UNL     1      10.995  -4.991 -11.438  1.00  0.00     0.033 C 
HETATM    6  C5  UNL     1      10.091  -5.311 -10.274  1.00  0.00     0.017 C 
HETATM    7  C7  UNL     1      10.866  -5.312  -8.972  1.00  0.00     0.022 C 
HETATM    8  C8  UNL     1      11.819  -6.466  -8.964  1.00  0.00    -0.003 C 
HETATM    9  C9  UNL     1      10.962  -7.726  -8.754  1.00  0.00     0.011 C 
HETATM   10  C10 UNL     1      10.722  -7.670 -10.265  1.00  0.00    -0.003 C 
HETATM   11  C11 UNL     1       9.588  -6.729 -10.499  1.00  0.00     0.022 C 
ENDROOT
BRANCH   6  12
HETATM   12  C6  UNL     1       8.988  -4.341 -10.229  1.00  0.00     0.095 C 
HETATM   13  N1  UNL     1       7.935  -4.523 -10.931  1.00  0.00    -0.390 N 
ATOM     14  H12 UNL     1       7.920  -5.361 -11.512  1.00  0.00     0.157 HD
ATOM     15  H11 UNL     1       7.169  -3.850 -10.900  1.00  0.00     0.157 HD
HETATM   16  N2  UNL     1       9.009  -3.174  -9.422  1.00  0.00    -0.087 NA
ENDBRANCH   6  12
TORSDOF 1
ENDMDL
MODEL 5
REMARK VINA RESULT: -4.656873554      2.938      3.980
REMARK  1 active torsions:
REMARK  status: ('A' for Active; 'I' for Inactive)
REMARK    1  A    between atoms: C5_6  and  C6_7 
ROOT
HETATM    1  C1  UNL     1      11.754  -9.484 -11.278  1.00  0.00     0.017 C 
HETATM    2  C2  UNL     1      11.365  -8.131 -10.800  1.00  0.00    -0.024 C 
HETATM    3  C3  UNL     1      11.594  -7.936  -9.349  1.00  0.00     0.068 C 
HETATM    4 BR1  UNL     1      13.429  -8.377  -8.949  1.00  0.00    -0.090 Br
HETATM    5  C4  UNL     1      11.292  -6.546  -8.841  1.00  0.00     0.033 C 
HETATM    6  C5  UNL     1      10.725  -5.742  -9.984  1.00  0.00     0.017 C 
HETATM    7  C7  UNL     1       9.536  -6.447 -10.604  1.00  0.00     0.022 C 
HETATM    8  C8  UNL     1      10.001  -7.694 -11.288  1.00  0.00    -0.003 C 
HETATM    9  C9  UNL     1      10.723  -7.235 -12.566  1.00  0.00     0.011 C 
HETATM   10  C10 UNL     1      11.942  -7.032 -11.664  1.00  0.00    -0.003 C 
HETATM   11  C11 UNL     1      11.814  -5.680 -11.044  1.00  0.00     0.022 C 
ENDROOT
BRANCH   6  12
HETATM   12  C6  UNL     1      10.353  -4.403  -9.505  1.00  0.00     0.095 C 
HETATM   13  N1  UNL     1      11.249  -3.589  -9.094  1.00  0.00    -0.390 N 
ATOM     14  H12 UNL     1      12.211  -3.927  -9.117  1.00  0.00     0.157 HD
ATOM     15  H11 UNL     1      10.991  -2.659  -8.761  1.00  0.00     0.157 HD
HETATM   16  N2  UNL     1       9.015  -3.932  -9.472  1.00  0.00    -0.087 NA
ENDBRANCH   6  12
TORSDOF 1
ENDMDL
