MODEL 1
REMARK VINA RESULT: -5.797324427      0.000      0.000
REMARK  1 active torsions:
REMARK  status: ('A' for Active; 'I' for Inactive)
REMARK    1  A    between atoms: C3_8  and  C4_9 
ROOT
HETATM    1  N1  UNL     1       7.868  -3.533  -9.427  1.00  0.00    -0.388 N 
ATOM      2  H11 UNL     1       6.966  -3.925  -9.696  1.00  0.00     0.157 HD
ATOM      3  H12 UNL     1       7.621  -2.682  -8.921  1.00  0.00     0.157 HD
HETATM    4  C1  UNL     1       9.066  -3.917  -9.618  1.00  0.00     0.089 C 
HETATM    5  N2  UNL     1      10.324  -3.370  -9.244  1.00  0.00    -0.378 N 
ATOM      6  H2  UNL     1      10.466  -2.422  -8.894  1.00  0.00     0.160 HD
HETATM    7  C2  UNL     1      11.380  -4.353  -9.431  1.00  0.00     0.128 C 
HETATM    8  C3  UNL     1      10.567  -5.623  -9.521  1.00  0.00     0.038 C 
HETATM    9  C14 UNL     1       9.432  -5.179 -10.369  1.00  0.00     0.155 C 
HETATM   10 CL1  UNL     1       9.974  -4.544 -11.962  1.00  0.00    -0.116 Cl
ENDROOT
BRANCH   8  11
HETATM   11  C4  UNL     1      11.297  -6.832  -9.870  1.00  0.00    -0.032 C 
HETATM   12  C5  UNL     1      12.419  -6.420 -10.837  1.00  0.00     0.014 C 
HETATM   13  C6  UNL     1      13.390  -7.529 -11.069  1.00  0.00    -0.013 C 
HETATM   14  C7  UNL     1      13.975  -7.962  -9.753  1.00  0.00     0.009 C 
HETATM   15  C11 UNL     1      12.619  -8.663 -11.745  1.00  0.00     0.009 C 
HETATM   16  C8  UNL     1      12.868  -8.517  -8.873  1.00  0.00    -0.013 C 
HETATM   17  C9  UNL     1      12.130  -9.624  -9.564  1.00  0.00     0.009 C 
HETATM   18  C13 UNL     1      11.919  -7.395  -8.585  1.00  0.00     0.014 C 
HETATM   19  C10 UNL     1      11.516  -9.077 -10.837  1.00  0.00    -0.013 C 
HETATM   20  C12 UNL     1      10.548  -7.937 -10.515  1.00  0.00     0.014 C 
ENDBRANCH   8  11
TORSDOF 1
ENDMDL
MODEL 2
REMARK VINA RESULT: -5.694734254      0.272      1.800
REMARK  1 active torsions:
REMARK  status: ('A' for Active; 'I' for Inactive)
REMARK    1  A    between atoms: C3_8  and  C4_9 
ROOT
HETATM    1  N1  UNL     1       7.644  -3.829  -9.990  1.00  0.00    -0.388 N 
ATOM      2  H11 UNL     1       6.841  -4.311 -10.394  1.00  0.00     0.157 HD
ATOM      3  H12 UNL     1       7.237  -2.998  -9.560  1.00  0.00     0.157 HD
HETATM    4  C1  UNL     1       8.887  -4.098  -9.965  1.00  0.00     0.089 C 
HETATM    5  N2  UNL     1      10.007  -3.427  -9.403  1.00  0.00    -0.378 N 
ATOM      6  H2  UNL     1       9.999  -2.464  -9.065  1.00  0.00     0.160 HD
HETATM    7  C2  UNL     1      11.166  -4.306  -9.379  1.00  0.00     0.128 C 
HETATM    8  C3  UNL     1      10.502  -5.649  -9.563  1.00  0.00     0.038 C 
HETATM    9  C14 UNL     1       9.491  -5.331 -10.603  1.00  0.00     0.155 C 
HETATM   10 CL1  UNL     1      10.235  -4.672 -12.103  1.00  0.00    -0.116 Cl
ENDROOT
BRANCH   8  11
HETATM   11  C4  UNL     1      11.390  -6.787  -9.747  1.00  0.00    -0.032 C 
HETATM   12  C5  UNL     1      10.570  -7.894 -10.429  1.00  0.00     0.014 C 
HETATM   13  C6  UNL     1      11.432  -9.018 -10.897  1.00  0.00    -0.013 C 
HETATM   14  C7  UNL     1      12.472  -8.486 -11.845  1.00  0.00     0.009 C 
HETATM   15  C11 UNL     1      12.067  -9.641  -9.654  1.00  0.00     0.009 C 
HETATM   16  C8  UNL     1      13.373  -7.514 -11.103  1.00  0.00    -0.013 C 
HETATM   17  C9  UNL     1      13.977  -8.153  -9.889  1.00  0.00     0.009 C 
HETATM   18  C13 UNL     1      12.527  -6.352 -10.680  1.00  0.00     0.014 C 
HETATM   19  C10 UNL     1      12.860  -8.589  -8.963  1.00  0.00    -0.013 C 
HETATM   20  C12 UNL     1      12.015  -7.385  -8.543  1.00  0.00     0.014 C 
ENDBRANCH   8  11
TORSDOF 1
ENDMDL
MODEL 3
REMARK VINA RESULT: -5.564598000      0.602      1.885
REMARK  1 active torsions:
REMARK  status: ('A' for Active; 'I' for Inactive)
REMARK    1  A    between atoms: C3_8  and  C4_9 
ROOT
HETATM    1  N1  UNL     1       7.742  -4.252 -10.461  1.00  0.00    -0.388 N 
ATOM      2  H11 UNL     1       7.038  -4.722 -11.031  1.00  0.00     0.157 HD
ATOM      3  H12 UNL     1       7.217  -3.518  -9.985  1.00  0.00     0.157 HD
HETATM    4  C1  UNL     1       8.990  -4.442 -10.303  1.00  0.00     0.089 C 
HETATM    5  N2  UNL     1       9.971  -3.787  -9.509  1.00  0.00    -0.378 N 
ATOM      6  H2  UNL     1       9.841  -2.884  -9.051  1.00  0.00     0.160 HD
HETATM    7  C2  UNL     1      11.185  -4.585  -9.443  1.00  0.00     0.128 C 
HETATM    8  C3  UNL     1      10.663  -5.928  -9.893  1.00  0.00     0.038 C 
HETATM    9  C14 UNL     1       9.769  -5.531 -11.010  1.00  0.00     0.155 C 
HETATM   10 CL1  UNL     1      10.639  -4.619 -12.293  1.00  0.00    -0.116 Cl
ENDROOT
BRANCH   8  11
HETATM   11  C4  UNL     1      11.656  -6.969 -10.102  1.00  0.00    -0.032 C 
HETATM   12  C5  UNL     1      12.198  -7.362  -8.718  1.00  0.00     0.014 C 
HETATM   13  C6  UNL     1      13.039  -8.593  -8.777  1.00  0.00    -0.013 C 
HETATM   14  C7  UNL     1      12.228  -9.722  -9.354  1.00  0.00     0.009 C 
HETATM   15  C11 UNL     1      14.250  -8.265  -9.650  1.00  0.00     0.009 C 
HETATM   16  C8  UNL     1      11.841  -9.379 -10.782  1.00  0.00    -0.013 C 
HETATM   17  C9  UNL     1      13.049  -9.059 -11.610  1.00  0.00     0.009 C 
HETATM   18  C13 UNL     1      10.948  -8.178 -10.728  1.00  0.00     0.014 C 
HETATM   19  C10 UNL     1      13.758  -7.869 -10.995  1.00  0.00    -0.013 C 
HETATM   20  C12 UNL     1      12.826  -6.657 -10.957  1.00  0.00     0.014 C 
ENDBRANCH   8  11
TORSDOF 1
ENDMDL
MODEL 4
REMARK VINA RESULT: -5.051900621      1.191      2.377
REMARK  1 active torsions:
REMARK  status: ('A' for Active; 'I' for Inactive)
REMARK    1  A    between atoms: C3_8  and  C4_9 
ROOT
HETATM    1  N1  UNL     1       6.597  -3.338  -9.994  1.00  0.00    -0.388 N 
ATOM      2  H11 UNL     1       5.813  -3.783 -10.472  1.00  0.00     0.157 HD
ATOM      3  H12 UNL     1       6.150  -2.664  -9.372  1.00  0.00     0.157 HD
HETATM    4  C1  UNL     1       7.857  -3.498 -10.071  1.00  0.00     0.089 C 
HETATM    5  N2  UNL     1       8.949  -2.878  -9.406  1.00  0.00    -0.378 N 
ATOM      6  H2  UNL     1       8.885  -2.021  -8.856  1.00  0.00     0.160 HD
HETATM    7  C2  UNL     1      10.171  -3.637  -9.621  1.00  0.00     0.128 C 
HETATM    8  C3  UNL     1       9.603  -4.956 -10.088  1.00  0.00     0.038 C 
HETATM    9  C14 UNL     1       8.520  -4.499 -10.994  1.00  0.00     0.155 C 
HETATM   10 CL1  UNL     1       9.134  -3.456 -12.325  1.00  0.00    -0.116 Cl
ENDROOT
BRANCH   8  11
HETATM   11  C4  UNL     1      10.564  -5.943 -10.556  1.00  0.00    -0.032 C 
HETATM   12  C5  UNL     1      10.965  -6.795  -9.341  1.00  0.00     0.014 C 
HETATM   13  C6  UNL     1      11.752  -7.999  -9.739  1.00  0.00    -0.013 C 
HETATM   14  C7  UNL     1      10.946  -8.822 -10.706  1.00  0.00     0.009 C 
HETATM   15  C11 UNL     1      13.048  -7.494 -10.372  1.00  0.00     0.009 C 
HETATM   16  C8  UNL     1      10.701  -8.013 -11.968  1.00  0.00    -0.013 C 
HETATM   17  C9  UNL     1      11.990  -7.531 -12.562  1.00  0.00     0.009 C 
HETATM   18  C13 UNL     1       9.860  -6.833 -11.588  1.00  0.00     0.014 C 
HETATM   19  C10 UNL     1      12.694  -6.654 -11.547  1.00  0.00    -0.013 C 
HETATM   20  C12 UNL     1      11.818  -5.455 -11.180  1.00  0.00     0.014 C 
ENDBRANCH   8  11
TORSDOF 1
ENDMDL
MODEL 5
REMARK VINA RESULT: -5.006061127      1.719      2.631
REMARK  1 active torsions:
REMARK  status: ('A' for Active; 'I' for Inactive)
REMARK    1  A    between atoms: C3_8  and  C4_9 
ROOT
HETATM    1  N1  UNL     1       9.538  -3.938 -12.663  1.00  0.00    -0.388 N 
ATOM      2  H11 UNL     1      10.207  -3.336 -13.141  1.00  0.00     0.157 HD
ATOM      3  H12 UNL     1       8.636  -3.647 -13.041  1.00  0.00     0.157 HD
HETATM    4  C1  UNL     1       9.673  -4.857 -11.792  1.00  0.00     0.089 C 
HETATM    5  N2  UNL     1       8.741  -5.696 -11.124  1.00  0.00    -0.378 N 
ATOM      6  H2  UNL     1       7.731  -5.551 -11.113  1.00  0.00     0.160 HD
HETATM    7  C2  UNL     1       9.429  -6.791 -10.459  1.00  0.00     0.128 C 
HETATM    8  C3  UNL     1      10.764  -6.751 -11.163  1.00  0.00     0.038 C 
HETATM    9  C14 UNL     1      11.011  -5.288 -11.231  1.00  0.00     0.155 C 
HETATM   10 CL1  UNL     1      11.020  -4.519  -9.605  1.00  0.00    -0.116 Cl
ENDROOT
BRANCH   8  11
HETATM   11  C4  UNL     1      11.797  -7.632 -10.639  1.00  0.00    -0.032 C 
HETATM   12  C5  UNL     1      11.457  -9.056 -11.108  1.00  0.00     0.014 C 
HETATM   13  C6  UNL     1      12.574 -10.010 -10.848  1.00  0.00    -0.013 C 
HETATM   14  C7  UNL     1      13.817  -9.521 -11.539  1.00  0.00     0.009 C 
HETATM   15  C11 UNL     1      12.760 -10.076  -9.332  1.00  0.00     0.009 C 
HETATM   16  C8  UNL     1      14.226  -8.184 -10.944  1.00  0.00    -0.013 C 
HETATM   17  C9  UNL     1      14.397  -8.281  -9.458  1.00  0.00     0.009 C 
HETATM   18  C13 UNL     1      13.137  -7.204 -11.253  1.00  0.00     0.014 C 
HETATM   19  C10 UNL     1      13.079  -8.708  -8.845  1.00  0.00    -0.013 C 
HETATM   20  C12 UNL     1      11.986  -7.689  -9.170  1.00  0.00     0.014 C 
ENDBRANCH   8  11
TORSDOF 1
ENDMDL
