MODEL 1
REMARK VINA RESULT: -4.456918010      0.000      0.000
REMARK  6 active torsions:
REMARK  status: ('A' for Active; 'I' for Inactive)
REMARK    1  A    between atoms: O1_2  and  N1_3 
REMARK    2  A    between atoms: N1_3  and  C2_5 
REMARK    3  A    between atoms: C2_5  and  N2_7 
REMARK    4  A    between atoms: C3_9  and  C4_10 
REMARK    5  A    between atoms: C3_9  and  N3_12 
REMARK    6  A    between atoms: N3_12  and  C5_14 
ROOT
HETATM    1  N2  UNL     1       6.540  -3.872 -10.647  1.00  0.00    -0.321 N 
ATOM      2  H2  UNL     1       5.747  -4.351 -10.218  1.00  0.00     0.169 HD
HETATM    3  C3  UNL     1       6.984  -4.295 -11.806  1.00  0.00     0.089 C 
ENDROOT
BRANCH   3   4
HETATM    4  C4  UNL     1       6.303  -5.452 -12.426  1.00  0.00     0.161 C 
HETATM    5 BR1  UNL     1       7.605  -6.854 -12.857  1.00  0.00    -0.088 Br
ENDBRANCH   3   4
BRANCH   3   6
HETATM    6  N3  UNL     1       8.067  -3.663 -12.421  1.00  0.00    -0.374 N 
ATOM      7  H3  UNL     1       8.911  -3.609 -11.851  1.00  0.00     0.161 HD
BRANCH   6   8
HETATM    8  C5  UNL     1       8.181  -3.088 -13.705  1.00  0.00     0.082 C 
HETATM    9  C6  UNL     1       7.816  -1.612 -13.783  1.00  0.00     0.025 C 
HETATM   10  C7  UNL     1       8.083  -1.364 -15.276  1.00  0.00     0.002 C 
HETATM   11  C8  UNL     1       9.201  -2.322 -15.655  1.00  0.00     0.002 C 
HETATM   12  C9  UNL     1       9.508  -3.116 -14.371  1.00  0.00     0.025 C 
ENDBRANCH   6   8
ENDBRANCH   3   6
BRANCH   1  13
HETATM   13  C2  UNL     1       7.121  -2.775  -9.972  1.00  0.00     0.197 C 
HETATM   14  S1  UNL     1       6.476  -1.292 -10.198  1.00  0.00    -0.039 SA
BRANCH  13  15
HETATM   15  N1  UNL     1       8.239  -2.898  -9.104  1.00  0.00    -0.241 N 
ATOM     16  H1  UNL     1       8.071  -3.061  -8.111  1.00  0.00     0.197 HD
BRANCH  15  17
HETATM   17  O1  UNL     1       9.513  -2.808  -9.535  1.00  0.00    -0.283 OA
HETATM   18  C1  UNL     1      10.025  -4.120  -9.534  1.00  0.00     0.237 C 
ENDBRANCH  15  17
ENDBRANCH  13  15
ENDBRANCH   1  13
TORSDOF 6
ENDMDL
MODEL 2
REMARK VINA RESULT: -4.313958625      3.215      5.354
REMARK  6 active torsions:
REMARK  status: ('A' for Active; 'I' for Inactive)
REMARK    1  A    between atoms: O1_2  and  N1_3 
REMARK    2  A    between atoms: N1_3  and  C2_5 
REMARK    3  A    between atoms: C2_5  and  N2_7 
REMARK    4  A    between atoms: C3_9  and  C4_10 
REMARK    5  A    between atoms: C3_9  and  N3_12 
REMARK    6  A    between atoms: N3_12  and  C5_14 
ROOT
HETATM    1  N2  UNL     1       8.146  -5.652 -10.954  1.00  0.00    -0.321 N 
ATOM      2  H2  UNL     1       7.146  -5.847 -11.008  1.00  0.00     0.169 HD
HETATM    3  C3  UNL     1       8.990  -6.655 -10.987  1.00  0.00     0.089 C 
ENDROOT
BRANCH   3   4
HETATM    4  C4  UNL     1       8.434  -8.021 -11.102  1.00  0.00     0.161 C 
HETATM    5 BR1  UNL     1       6.913  -8.033 -12.338  1.00  0.00    -0.088 Br
ENDBRANCH   3   4
BRANCH   3   6
HETATM    6  N3  UNL     1      10.365  -6.426 -10.914  1.00  0.00    -0.374 N 
ATOM      7  H3  UNL     1      10.697  -5.634 -11.466  1.00  0.00     0.161 HD
BRANCH   6   8
HETATM    8  C5  UNL     1      11.371  -7.113 -10.201  1.00  0.00     0.082 C 
HETATM    9  C6  UNL     1      12.791  -6.871 -10.696  1.00  0.00     0.025 C 
HETATM   10  C7  UNL     1      13.562  -7.738  -9.689  1.00  0.00     0.002 C 
HETATM   11  C8  UNL     1      12.739  -7.707  -8.411  1.00  0.00     0.002 C 
HETATM   12  C9  UNL     1      11.502  -6.853  -8.745  1.00  0.00     0.025 C 
ENDBRANCH   6   8
ENDBRANCH   3   6
BRANCH   1  13
HETATM   13  C2  UNL     1       8.576  -4.310 -10.846  1.00  0.00     0.197 C 
HETATM   14  S1  UNL     1       8.944  -3.499 -12.213  1.00  0.00    -0.039 SA
BRANCH  13  15
HETATM   15  N1  UNL     1       8.702  -3.630  -9.605  1.00  0.00    -0.241 N 
ATOM     16  H1  UNL     1       9.633  -3.507  -9.208  1.00  0.00     0.197 HD
BRANCH  15  17
HETATM   17  O1  UNL     1       7.644  -3.142  -8.927  1.00  0.00    -0.283 OA
HETATM   18  C1  UNL     1       7.244  -1.974  -9.606  1.00  0.00     0.237 C 
ENDBRANCH  15  17
ENDBRANCH  13  15
ENDBRANCH   1  13
TORSDOF 6
ENDMDL
MODEL 3
REMARK VINA RESULT: -4.256196234      1.995      2.506
REMARK  6 active torsions:
REMARK  status: ('A' for Active; 'I' for Inactive)
REMARK    1  A    between atoms: O1_2  and  N1_3 
REMARK    2  A    between atoms: N1_3  and  C2_5 
REMARK    3  A    between atoms: C2_5  and  N2_7 
REMARK    4  A    between atoms: C3_9  and  C4_10 
REMARK    5  A    between atoms: C3_9  and  N3_12 
REMARK    6  A    between atoms: N3_12  and  C5_14 
ROOT
HETATM    1  N2  UNL     1       8.597  -5.226 -10.694  1.00  0.00    -0.321 N 
ATOM      2  H2  UNL     1       7.986  -5.922 -10.267  1.00  0.00     0.169 HD
HETATM    3  C3  UNL     1       8.685  -5.177 -12.002  1.00  0.00     0.089 C 
ENDROOT
BRANCH   3   4
HETATM    4  C4  UNL     1       7.884  -6.144 -12.784  1.00  0.00     0.161 C 
HETATM    5 BR1  UNL     1       5.970  -5.783 -12.555  1.00  0.00    -0.088 Br
ENDBRANCH   3   4
BRANCH   3   6
HETATM    6  N3  UNL     1       9.512  -4.238 -12.621  1.00  0.00    -0.374 N 
ATOM      7  H3  UNL     1      10.511  -4.394 -12.487  1.00  0.00     0.161 HD
BRANCH   6   8
HETATM    8  C5  UNL     1       9.188  -3.108 -13.403  1.00  0.00     0.082 C 
HETATM    9  C6  UNL     1       9.247  -3.328 -14.908  1.00  0.00     0.025 C 
HETATM   10  C7  UNL     1       8.824  -1.930 -15.385  1.00  0.00     0.002 C 
HETATM   11  C8  UNL     1       7.892  -1.397 -14.308  1.00  0.00     0.002 C 
HETATM   12  C9  UNL     1       7.847  -2.495 -13.230  1.00  0.00     0.025 C 
ENDBRANCH   6   8
ENDBRANCH   3   6
BRANCH   1  13
HETATM   13  C2  UNL     1       9.321  -4.347  -9.858  1.00  0.00     0.197 C 
HETATM   14  S1  UNL     1      10.827  -4.774  -9.398  1.00  0.00    -0.039 SA
BRANCH  13  15
HETATM   15  N1  UNL     1       8.802  -3.107  -9.396  1.00  0.00    -0.241 N 
ATOM     16  H1  UNL     1       9.424  -2.299  -9.364  1.00  0.00     0.197 HD
BRANCH  15  17
HETATM   17  O1  UNL     1       7.524  -2.952  -8.998  1.00  0.00    -0.283 OA
HETATM   18  C1  UNL     1       6.977  -1.936  -9.807  1.00  0.00     0.237 C 
ENDBRANCH  15  17
ENDBRANCH  13  15
ENDBRANCH   1  13
TORSDOF 6
ENDMDL
MODEL 4
REMARK VINA RESULT: -4.146777336      3.343      5.578
REMARK  6 active torsions:
REMARK  status: ('A' for Active; 'I' for Inactive)
REMARK    1  A    between atoms: O1_2  and  N1_3 
REMARK    2  A    between atoms: N1_3  and  C2_5 
REMARK    3  A    between atoms: C2_5  and  N2_7 
REMARK    4  A    between atoms: C3_9  and  C4_10 
REMARK    5  A    between atoms: C3_9  and  N3_12 
REMARK    6  A    between atoms: N3_12  and  C5_14 
ROOT
HETATM    1  N2  UNL     1       9.705  -3.904 -11.798  1.00  0.00    -0.321 N 
ATOM      2  H2  UNL     1       9.698  -3.091 -12.415  1.00  0.00     0.169 HD
HETATM    3  C3  UNL     1      10.722  -4.730 -11.851  1.00  0.00     0.089 C 
ENDROOT
BRANCH   3   4
HETATM    4  C4  UNL     1      11.806  -4.430 -12.811  1.00  0.00     0.161 C 
HETATM    5 BR1  UNL     1      11.073  -3.578 -14.418  1.00  0.00    -0.088 Br
ENDBRANCH   3   4
BRANCH   3   6
HETATM    6  N3  UNL     1      10.764  -5.853 -11.022  1.00  0.00    -0.374 N 
ATOM      7  H3  UNL     1       9.894  -6.383 -10.974  1.00  0.00     0.161 HD
BRANCH   6   8
HETATM    8  C5  UNL     1      11.817  -6.374 -10.240  1.00  0.00     0.082 C 
HETATM    9  C6  UNL     1      11.385  -7.046  -8.944  1.00  0.00     0.025 C 
HETATM   10  C7  UNL     1      12.759  -7.483  -8.414  1.00  0.00     0.002 C 
HETATM   11  C8  UNL     1      13.608  -7.742  -9.649  1.00  0.00     0.002 C 
HETATM   12  C9  UNL     1      12.699  -7.404 -10.845  1.00  0.00     0.025 C 
ENDBRANCH   6   8
ENDBRANCH   3   6
BRANCH   1  13
HETATM   13  C2  UNL     1       8.619  -4.101 -10.916  1.00  0.00     0.197 C 
HETATM   14  S1  UNL     1       7.266  -4.808 -11.493  1.00  0.00    -0.039 SA
BRANCH  13  15
HETATM   15  N1  UNL     1       8.646  -3.714  -9.549  1.00  0.00    -0.241 N 
ATOM     16  H1  UNL     1       9.494  -3.885  -9.009  1.00  0.00     0.197 HD
BRANCH  15  17
HETATM   17  O1  UNL     1       7.598  -3.131  -8.933  1.00  0.00    -0.283 OA
HETATM   18  C1  UNL     1       7.438  -1.867  -9.533  1.00  0.00     0.237 C 
ENDBRANCH  15  17
ENDBRANCH  13  15
ENDBRANCH   1  13
TORSDOF 6
ENDMDL
MODEL 5
REMARK VINA RESULT: -4.140430362      0.891      1.367
REMARK  6 active torsions:
REMARK  status: ('A' for Active; 'I' for Inactive)
REMARK    1  A    between atoms: O1_2  and  N1_3 
REMARK    2  A    between atoms: N1_3  and  C2_5 
REMARK    3  A    between atoms: C2_5  and  N2_7 
REMARK    4  A    between atoms: C3_9  and  C4_10 
REMARK    5  A    between atoms: C3_9  and  N3_12 
REMARK    6  A    between atoms: N3_12  and  C5_14 
ROOT
HETATM    1  N2  UNL     1       6.664  -3.860 -10.746  1.00  0.00    -0.321 N 
ATOM      2  H2  UNL     1       5.913  -4.427 -10.351  1.00  0.00     0.169 HD
HETATM    3  C3  UNL     1       7.139  -4.171 -11.928  1.00  0.00     0.089 C 
ENDROOT
BRANCH   3   4
HETATM    4  C4  UNL     1       6.551  -5.337 -12.623  1.00  0.00     0.161 C 
HETATM    5 BR1  UNL     1       7.589  -6.954 -12.234  1.00  0.00    -0.088 Br
ENDBRANCH   3   4
BRANCH   3   6
HETATM    6  N3  UNL     1       8.166  -3.418 -12.498  1.00  0.00    -0.374 N 
ATOM      7  H3  UNL     1       8.278  -2.482 -12.108  1.00  0.00     0.161 HD
BRANCH   6   8
HETATM    8  C5  UNL     1       9.076  -3.742 -13.528  1.00  0.00     0.082 C 
HETATM    9  C6  UNL     1       9.446  -2.586 -14.447  1.00  0.00     0.025 C 
HETATM   10  C7  UNL     1      10.431  -3.309 -15.379  1.00  0.00     0.002 C 
HETATM   11  C8  UNL     1      11.077  -4.391 -14.529  1.00  0.00     0.002 C 
HETATM   12  C9  UNL     1      10.408  -4.275 -13.147  1.00  0.00     0.025 C 
ENDBRANCH   6   8
ENDBRANCH   3   6
BRANCH   1  13
HETATM   13  C2  UNL     1       7.157  -2.766 -10.000  1.00  0.00     0.197 C 
HETATM   14  S1  UNL     1       6.439  -1.312 -10.184  1.00  0.00    -0.039 SA
BRANCH  13  15
HETATM   15  N1  UNL     1       8.249  -2.868  -9.096  1.00  0.00    -0.241 N 
ATOM     16  H1  UNL     1       8.051  -3.012  -8.106  1.00  0.00     0.197 HD
BRANCH  15  17
HETATM   17  O1  UNL     1       9.535  -2.784  -9.490  1.00  0.00    -0.283 OA
HETATM   18  C1  UNL     1      10.035  -4.101  -9.495  1.00  0.00     0.237 C 
ENDBRANCH  15  17
ENDBRANCH  13  15
ENDBRANCH   1  13
TORSDOF 6
ENDMDL
