MODEL 1
REMARK VINA RESULT: -5.395910436      0.000      0.000
REMARK  5 active torsions:
REMARK  status: ('A' for Active; 'I' for Inactive)
REMARK    1  A    between atoms: N2_3  and  C2_5 
REMARK    2  A    between atoms: C2_5  and  N3_7 
REMARK    3  A    between atoms: N3_7  and  C3_9 
REMARK    4  A    between atoms: C3_9  and  C4_10 
REMARK    5  A    between atoms: N4_13  and  C7_14 
ROOT
HETATM    1  N1  UNL     1       7.151  -4.842 -13.045  1.00  0.00    -0.172 NA
HETATM    2  C1  UNL     1       6.810  -4.510 -11.995  1.00  0.00     0.184 C 
HETATM    3  N2  UNL     1       6.404  -4.124 -10.690  1.00  0.00    -0.270 N 
ATOM      4  H2  UNL     1       5.646  -4.606 -10.205  1.00  0.00     0.180 HD
ENDROOT
BRANCH   3   5
HETATM    5  C2  UNL     1       7.091  -3.043 -10.089  1.00  0.00     0.180 C 
HETATM    6  S1  UNL     1       6.576  -1.506 -10.259  1.00  0.00    -0.040 SA
BRANCH   5   7
HETATM    7  N3  UNL     1       8.266  -3.273  -9.322  1.00  0.00    -0.366 N 
ATOM      8  H3  UNL     1       8.201  -3.459  -8.321  1.00  0.00     0.161 HD
BRANCH   7   9
HETATM    9  C3  UNL     1       9.561  -3.240  -9.980  1.00  0.00     0.128 C 
BRANCH   9  10
HETATM   10  C4  UNL     1      10.106  -4.587 -10.145  1.00  0.00     0.033 C 
HETATM   11  C5  UNL     1      10.907  -5.065  -8.912  1.00  0.00     0.038 C 
HETATM   12  C6  UNL     1      11.230  -6.462  -9.481  1.00  0.00     0.273 C 
HETATM   13  N4  UNL     1      11.544  -6.224 -10.903  1.00  0.00     0.095 N 
HETATM   14  C13 UNL     1      11.127  -4.855 -11.186  1.00  0.00     0.279 C 
BRANCH  13  15
HETATM   15  C7  UNL     1      12.913  -6.505 -11.041  1.00  0.00     0.241 C 
HETATM   16  C8  UNL     1      13.460  -6.792 -12.392  1.00  0.00     0.037 C 
HETATM   17  C9  UNL     1      14.968  -6.769 -12.249  1.00  0.00     0.002 C 
HETATM   18  C10 UNL     1      15.537  -7.485 -11.102  1.00  0.00     0.002 C 
HETATM   19  C11 UNL     1      14.665  -7.692  -9.907  1.00  0.00     0.022 C 
HETATM   20  C12 UNL     1      13.204  -7.777 -10.223  1.00  0.00     0.115 C 
HETATM   21 CL1  UNL     1      12.874  -9.245 -11.159  1.00  0.00    -0.123 Cl
ENDBRANCH  13  15
ENDBRANCH   9  10
ENDBRANCH   7   9
ENDBRANCH   5   7
ENDBRANCH   3   5
TORSDOF 5
ENDMDL
MODEL 2
REMARK VINA RESULT: -5.394017464      5.501      6.967
REMARK  5 active torsions:
REMARK  status: ('A' for Active; 'I' for Inactive)
REMARK    1  A    between atoms: N2_3  and  C2_5 
REMARK    2  A    between atoms: C2_5  and  N3_7 
REMARK    3  A    between atoms: N3_7  and  C3_9 
REMARK    4  A    between atoms: C3_9  and  C4_10 
REMARK    5  A    between atoms: N4_13  and  C7_14 
ROOT
HETATM    1  N1  UNL     1      10.321   2.019 -19.529  1.00  0.00    -0.172 NA
HETATM    2  C1  UNL     1       9.893   1.681 -18.514  1.00  0.00     0.184 C 
HETATM    3  N2  UNL     1       9.352   1.291 -17.259  1.00  0.00    -0.270 N 
ATOM      4  H2  UNL     1       9.719   1.664 -16.384  1.00  0.00     0.180 HD
ENDROOT
BRANCH   3   5
HETATM    5  C2  UNL     1       8.284   0.364 -17.273  1.00  0.00     0.180 C 
HETATM    6  S1  UNL     1       7.920  -0.496 -18.609  1.00  0.00    -0.040 SA
BRANCH   5   7
HETATM    7  N3  UNL     1       7.486   0.165 -16.112  1.00  0.00    -0.366 N 
ATOM      8  H3  UNL     1       7.126   0.964 -15.591  1.00  0.00     0.161 HD
BRANCH   7   9
HETATM    9  C3  UNL     1       7.190  -1.190 -15.679  1.00  0.00     0.128 C 
BRANCH   9  10
HETATM   10  C4  UNL     1       8.247  -1.711 -14.812  1.00  0.00     0.033 C 
HETATM   11  C5  UNL     1       9.042  -2.867 -15.462  1.00  0.00     0.038 C 
HETATM   12  C6  UNL     1      10.016  -3.055 -14.281  1.00  0.00     0.273 C 
HETATM   13  N4  UNL     1       9.177  -2.913 -13.075  1.00  0.00     0.095 N 
HETATM   14  C13 UNL     1       7.900  -2.377 -13.533  1.00  0.00     0.279 C 
BRANCH  13  15
HETATM   15  C7  UNL     1       9.148  -4.184 -12.482  1.00  0.00     0.241 C 
HETATM   16  C8  UNL     1       7.838  -4.844 -12.246  1.00  0.00     0.037 C 
HETATM   17  C9  UNL     1       8.149  -6.278 -11.872  1.00  0.00     0.002 C 
HETATM   18  C10 UNL     1       9.220  -6.490 -10.893  1.00  0.00     0.002 C 
HETATM   19  C11 UNL     1      10.262  -5.428 -10.755  1.00  0.00     0.022 C 
HETATM   20  C12 UNL     1       9.775  -4.050 -11.081  1.00  0.00     0.115 C 
HETATM   21 CL1  UNL     1       8.583  -3.531  -9.878  1.00  0.00    -0.123 Cl
ENDBRANCH  13  15
ENDBRANCH   9  10
ENDBRANCH   7   9
ENDBRANCH   5   7
ENDBRANCH   3   5
TORSDOF 5
ENDMDL
MODEL 3
REMARK VINA RESULT: -5.275731756      1.984      2.585
REMARK  5 active torsions:
REMARK  status: ('A' for Active; 'I' for Inactive)
REMARK    1  A    between atoms: N2_3  and  C2_5 
REMARK    2  A    between atoms: C2_5  and  N3_7 
REMARK    3  A    between atoms: N3_7  and  C3_9 
REMARK    4  A    between atoms: C3_9  and  C4_10 
REMARK    5  A    between atoms: N4_13  and  C7_14 
ROOT
HETATM    1  N1  UNL     1       6.339  -1.278 -10.372  1.00  0.00    -0.172 NA
HETATM    2  C1  UNL     1       7.063  -1.971  -9.803  1.00  0.00     0.184 C 
HETATM    3  N2  UNL     1       7.934  -2.844  -9.097  1.00  0.00    -0.270 N 
ATOM      4  H2  UNL     1       7.897  -2.922  -8.080  1.00  0.00     0.180 HD
ENDROOT
BRANCH   3   5
HETATM    5  C2  UNL     1       8.854  -3.601  -9.860  1.00  0.00     0.180 C 
HETATM    6  S1  UNL     1       8.766  -3.658 -11.487  1.00  0.00    -0.040 SA
BRANCH   5   7
HETATM    7  N3  UNL     1       9.882  -4.346  -9.219  1.00  0.00    -0.366 N 
ATOM      8  H3  UNL     1       9.736  -4.726  -8.284  1.00  0.00     0.161 HD
BRANCH   7   9
HETATM    9  C3  UNL     1      11.140  -4.561  -9.913  1.00  0.00     0.128 C 
BRANCH   9  10
HETATM   10  C4  UNL     1      11.457  -5.986 -10.005  1.00  0.00     0.033 C 
HETATM   11  C5  UNL     1      12.023  -6.562  -8.687  1.00  0.00     0.038 C 
HETATM   12  C6  UNL     1      12.159  -8.007  -9.206  1.00  0.00     0.273 C 
HETATM   13  N4  UNL     1      12.664  -7.865 -10.585  1.00  0.00     0.095 N 
HETATM   14  C13 UNL     1      12.524  -6.453 -10.923  1.00  0.00     0.279 C 
BRANCH  13  15
HETATM   15  C7  UNL     1      13.969  -8.381 -10.567  1.00  0.00     0.241 C 
HETATM   16  C8  UNL     1      15.119  -7.443 -10.650  1.00  0.00     0.037 C 
HETATM   17  C9  UNL     1      16.352  -8.260 -10.323  1.00  0.00     0.002 C 
HETATM   18  C10 UNL     1      16.473  -9.568 -10.975  1.00  0.00     0.002 C 
HETATM   19  C11 UNL     1      15.219 -10.239 -11.433  1.00  0.00     0.022 C 
HETATM   20  C12 UNL     1      14.119  -9.293 -11.799  1.00  0.00     0.115 C 
HETATM   21 CL1  UNL     1      14.572  -8.371 -13.243  1.00  0.00    -0.123 Cl
ENDBRANCH  13  15
ENDBRANCH   9  10
ENDBRANCH   7   9
ENDBRANCH   5   7
ENDBRANCH   3   5
TORSDOF 5
ENDMDL
MODEL 4
REMARK VINA RESULT: -5.248266051      4.767      6.305
REMARK  5 active torsions:
REMARK  status: ('A' for Active; 'I' for Inactive)
REMARK    1  A    between atoms: N2_3  and  C2_5 
REMARK    2  A    between atoms: C2_5  and  N3_7 
REMARK    3  A    between atoms: N3_7  and  C3_9 
REMARK    4  A    between atoms: C3_9  and  C4_10 
REMARK    5  A    between atoms: N4_13  and  C7_14 
ROOT
HETATM    1  N1  UNL     1       4.773  -1.330 -17.519  1.00  0.00    -0.172 NA
HETATM    2  C1  UNL     1       5.515  -0.483 -17.762  1.00  0.00     0.184 C 
HETATM    3  N2  UNL     1       6.415   0.580 -18.045  1.00  0.00    -0.270 N 
ATOM      4  H2  UNL     1       6.157   1.340 -18.674  1.00  0.00     0.180 HD
ENDROOT
BRANCH   3   5
HETATM    5  C2  UNL     1       7.683   0.541 -17.419  1.00  0.00     0.180 C 
HETATM    6  S1  UNL     1       8.956   1.362 -18.022  1.00  0.00    -0.040 SA
BRANCH   5   7
HETATM    7  N3  UNL     1       7.883  -0.232 -16.242  1.00  0.00    -0.366 N 
ATOM      8  H3  UNL     1       7.477   0.064 -15.355  1.00  0.00     0.161 HD
BRANCH   7   9
HETATM    9  C3  UNL     1       8.673  -1.449 -16.319  1.00  0.00     0.128 C 
BRANCH   9  10
HETATM   10  C4  UNL     1       8.365  -2.351 -15.209  1.00  0.00     0.033 C 
HETATM   11  C5  UNL     1       7.905  -1.602 -13.936  1.00  0.00     0.038 C 
HETATM   12  C6  UNL     1       7.661  -2.874 -13.100  1.00  0.00     0.273 C 
HETATM   13  N4  UNL     1       8.787  -3.767 -13.436  1.00  0.00     0.095 N 
HETATM   14  C13 UNL     1       9.437  -3.176 -14.601  1.00  0.00     0.279 C 
BRANCH  13  15
HETATM   15  C7  UNL     1       9.558  -3.863 -12.268  1.00  0.00     0.241 C 
HETATM   16  C8  UNL     1      10.717  -4.792 -12.239  1.00  0.00     0.037 C 
HETATM   17  C9  UNL     1      11.492  -4.460 -10.980  1.00  0.00     0.002 C 
HETATM   18  C10 UNL     1      10.713  -4.283  -9.750  1.00  0.00     0.002 C 
HETATM   19  C11 UNL     1       9.278  -3.890  -9.883  1.00  0.00     0.022 C 
HETATM   20  C12 UNL     1       8.629  -4.364 -11.146  1.00  0.00     0.115 C 
HETATM   21 CL1  UNL     1       8.510  -6.132 -11.136  1.00  0.00    -0.123 Cl
ENDBRANCH  13  15
ENDBRANCH   9  10
ENDBRANCH   7   9
ENDBRANCH   5   7
ENDBRANCH   3   5
TORSDOF 5
ENDMDL
MODEL 5
REMARK VINA RESULT: -5.234303614      4.078      5.363
REMARK  5 active torsions:
REMARK  status: ('A' for Active; 'I' for Inactive)
REMARK    1  A    between atoms: N2_3  and  C2_5 
REMARK    2  A    between atoms: C2_5  and  N3_7 
REMARK    3  A    between atoms: N3_7  and  C3_9 
REMARK    4  A    between atoms: C3_9  and  C4_10 
REMARK    5  A    between atoms: N4_13  and  C7_14 
ROOT
HETATM    1  N1  UNL     1       9.146   1.211 -18.412  1.00  0.00    -0.172 NA
HETATM    2  C1  UNL     1       8.563   0.890 -17.471  1.00  0.00     0.184 C 
HETATM    3  N2  UNL     1       7.819   0.499 -16.325  1.00  0.00    -0.270 N 
ATOM      4  H2  UNL     1       7.400   1.191 -15.703  1.00  0.00     0.180 HD
ENDROOT
BRANCH   3   5
HETATM    5  C2  UNL     1       7.683  -0.888 -16.081  1.00  0.00     0.180 C 
HETATM    6  S1  UNL     1       6.697  -1.819 -16.985  1.00  0.00    -0.040 SA
BRANCH   5   7
HETATM    7  N3  UNL     1       8.403  -1.508 -15.022  1.00  0.00    -0.366 N 
ATOM      8  H3  UNL     1       9.300  -1.958 -15.203  1.00  0.00     0.161 HD
BRANCH   7   9
HETATM    9  C3  UNL     1       7.846  -1.491 -13.681  1.00  0.00     0.128 C 
BRANCH   9  10
HETATM   10  C4  UNL     1       7.826  -2.833 -13.099  1.00  0.00     0.033 C 
HETATM   11  C5  UNL     1       7.212  -2.863 -11.681  1.00  0.00     0.038 C 
HETATM   12  C6  UNL     1       7.346  -4.388 -11.497  1.00  0.00     0.273 C 
HETATM   13  N4  UNL     1       8.664  -4.721 -12.072  1.00  0.00     0.095 N 
HETATM   14  C13 UNL     1       9.097  -3.535 -12.801  1.00  0.00     0.279 C 
BRANCH  13  15
HETATM   15  C7  UNL     1       9.462  -5.118 -10.987  1.00  0.00     0.241 C 
HETATM   16  C8  UNL     1      10.418  -4.146 -10.398  1.00  0.00     0.037 C 
HETATM   17  C9  UNL     1      10.903  -4.765  -9.103  1.00  0.00     0.002 C 
HETATM   18  C10 UNL     1      11.289  -6.180  -9.149  1.00  0.00     0.002 C 
HETATM   19  C11 UNL     1      10.692  -7.033 -10.220  1.00  0.00     0.022 C 
HETATM   20  C12 UNL     1      10.341  -6.287 -11.470  1.00  0.00     0.115 C 
HETATM   21 CL1  UNL     1      11.817  -5.710 -12.262  1.00  0.00    -0.123 Cl
ENDBRANCH  13  15
ENDBRANCH   9  10
ENDBRANCH   7   9
ENDBRANCH   5   7
ENDBRANCH   3   5
TORSDOF 5
ENDMDL
