MODEL 1
REMARK VINA RESULT: -4.616039243      0.000      0.000
REMARK  4 active torsions:
REMARK  status: ('A' for Active; 'I' for Inactive)
REMARK    1  A    between atoms: N1_2  and  C2_4 
REMARK    2  A    between atoms: C3_7  and  N3_8 
REMARK    3  A    between atoms: N5_14  and  N6_16 
REMARK    4  A    between atoms: C7_21  and  N8_22 
ROOT
HETATM    1  C2  UNL     1      14.508  19.302  -8.786  1.00  0.00     0.706 A 
HETATM    2  N2  UNL     1      14.052  20.449  -8.290  1.00  0.00    -0.021 N 
ATOM      3  H2  UNL     1      13.511  20.414  -7.425  1.00  0.00     0.203 HD
HETATM    4  C3  UNL     1      14.265  21.670  -8.866  1.00  0.00     0.728 A 
HETATM    5  N7  UNL     1      14.975  21.647  -9.985  1.00  0.00    -0.021 N 
ATOM      6  H7  UNL     1      15.167  22.527 -10.463  1.00  0.00     0.203 HD
HETATM    7  C7  UNL     1      15.450  20.506 -10.515  1.00  0.00     0.705 A 
HETATM    8  N9  UNL     1      15.220  19.311  -9.917  1.00  0.00    -0.022 N 
ATOM      9  H9  UNL     1      15.579  18.445 -10.320  1.00  0.00     0.203 HD
ENDROOT
BRANCH   4  10
HETATM   10  N3  UNL     1      13.728  22.815  -8.236  1.00  0.00    -0.010 N 
HETATM   11  C4  UNL     1      14.462  23.626  -7.253  1.00  0.00     0.187 C 
HETATM   12  C5  UNL     1      13.482  24.612  -6.674  1.00  0.00     0.159 C 
HETATM   13  N4  UNL     1      12.504  24.738  -7.748  1.00  0.00    -0.223 N 
HETATM   14  C6  UNL     1      12.467  23.449  -8.348  1.00  0.00     0.709 C 
ATOM     15  H4  UNL     1      11.966  25.565  -8.009  1.00  0.00     0.177 HD
HETATM   16  N5  UNL     1      11.432  22.961  -8.901  1.00  0.00    -0.138 N 
ATOM     17  H5  UNL     1      11.518  22.026  -9.300  1.00  0.00     0.205 HD
BRANCH  16  18
HETATM   18  N6  UNL     1      10.208  23.578  -9.011  1.00  0.00    -0.331 N 
ATOM     19  H62 UNL     1      10.202  24.585  -8.855  1.00  0.00     0.177 HD
ATOM     20  H61 UNL     1       9.324  23.119  -9.233  1.00  0.00     0.177 HD
ENDBRANCH  16  18
ENDBRANCH   4  10
BRANCH   1  21
HETATM   21  N1  UNL     1      14.275  18.177  -8.198  1.00  0.00    -0.229 N 
HETATM   22  C1  UNL     1      13.916  18.068  -6.809  1.00  0.00     0.165 C 
ATOM     23  H1  UNL     1      14.348  17.319  -8.747  1.00  0.00     0.177 HD
ENDBRANCH   1  21
BRANCH   7  24
HETATM   24  N8  UNL     1      16.133  20.567 -11.610  1.00  0.00    -0.234 N 
ATOM     25  H82 UNL     1      16.991  21.117 -11.651  1.00  0.00     0.174 HD
ATOM     26  H81 UNL     1      15.797  20.057 -12.428  1.00  0.00     0.174 HD
ENDBRANCH   7  24
TORSDOF 4
ENDMDL
MODEL 2
REMARK VINA RESULT: -4.579275690      4.668      6.798
REMARK  4 active torsions:
REMARK  status: ('A' for Active; 'I' for Inactive)
REMARK    1  A    between atoms: N1_2  and  C2_4 
REMARK    2  A    between atoms: C3_7  and  N3_8 
REMARK    3  A    between atoms: N5_14  and  N6_16 
REMARK    4  A    between atoms: C7_21  and  N8_22 
ROOT
HETATM    1  C2  UNL     1      12.380  25.756  -7.603  1.00  0.00     0.706 A 
HETATM    2  N2  UNL     1      11.547  26.311  -6.727  1.00  0.00    -0.021 N 
ATOM      3  H2  UNL     1      11.910  27.051  -6.125  1.00  0.00     0.203 HD
HETATM    4  C3  UNL     1      10.236  25.953  -6.585  1.00  0.00     0.728 A 
HETATM    5  N7  UNL     1       9.826  24.988  -7.397  1.00  0.00    -0.021 N 
ATOM      6  H7  UNL     1       8.857  24.677  -7.339  1.00  0.00     0.203 HD
HETATM    7  C7  UNL     1      10.641  24.404  -8.293  1.00  0.00     0.705 A 
HETATM    8  N9  UNL     1      11.938  24.784  -8.407  1.00  0.00    -0.022 N 
ATOM      9  H9  UNL     1      12.557  24.341  -9.086  1.00  0.00     0.203 HD
ENDROOT
BRANCH   4  10
HETATM   10  N3  UNL     1       9.455  26.624  -5.618  1.00  0.00    -0.010 N 
HETATM   11  C4  UNL     1       8.876  27.961  -5.819  1.00  0.00     0.187 C 
HETATM   12  C5  UNL     1       8.304  28.398  -4.496  1.00  0.00     0.159 C 
HETATM   13  N4  UNL     1       8.021  27.123  -3.848  1.00  0.00    -0.223 N 
HETATM   14  C6  UNL     1       9.045  26.253  -4.315  1.00  0.00     0.709 C 
ATOM     15  H4  UNL     1       7.261  26.905  -3.204  1.00  0.00     0.177 HD
HETATM   16  N5  UNL     1       9.508  25.284  -3.633  1.00  0.00    -0.138 N 
ATOM     17  H5  UNL     1      10.243  24.724  -4.065  1.00  0.00     0.205 HD
BRANCH  16  18
HETATM   18  N6  UNL     1       9.110  24.923  -2.368  1.00  0.00    -0.331 N 
ATOM     19  H62 UNL     1       8.426  25.537  -1.924  1.00  0.00     0.177 HD
ATOM     20  H61 UNL     1       9.434  24.109  -1.847  1.00  0.00     0.177 HD
ENDBRANCH  16  18
ENDBRANCH   4  10
BRANCH   1  21
HETATM   21  N1  UNL     1      13.611  26.134  -7.692  1.00  0.00    -0.229 N 
HETATM   22  C1  UNL     1      14.440  25.869  -8.837  1.00  0.00     0.165 C 
ATOM     23  H1  UNL     1      14.017  26.648  -6.909  1.00  0.00     0.177 HD
ENDBRANCH   1  21
BRANCH   7  24
HETATM   24  N8  UNL     1      10.166  23.470  -9.048  1.00  0.00    -0.234 N 
ATOM     25  H82 UNL     1       9.434  23.679  -9.727  1.00  0.00     0.174 HD
ATOM     26  H81 UNL     1      10.537  22.524  -8.951  1.00  0.00     0.174 HD
ENDBRANCH   7  24
TORSDOF 4
ENDMDL
MODEL 3
REMARK VINA RESULT: -4.477862405      4.907      7.456
REMARK  4 active torsions:
REMARK  status: ('A' for Active; 'I' for Inactive)
REMARK    1  A    between atoms: N1_2  and  C2_4 
REMARK    2  A    between atoms: C3_7  and  N3_8 
REMARK    3  A    between atoms: N5_14  and  N6_16 
REMARK    4  A    between atoms: C7_21  and  N8_22 
ROOT
HETATM    1  C2  UNL     1      10.482  25.009  -7.272  1.00  0.00     0.706 A 
HETATM    2  N2  UNL     1       9.632  25.535  -6.395  1.00  0.00    -0.021 N 
ATOM      3  H2  UNL     1       8.635  25.382  -6.545  1.00  0.00     0.203 HD
HETATM    4  C3  UNL     1      10.012  26.266  -5.305  1.00  0.00     0.728 A 
HETATM    5  N7  UNL     1      11.321  26.427  -5.165  1.00  0.00    -0.021 N 
ATOM      6  H7  UNL     1      11.667  26.963  -4.369  1.00  0.00     0.203 HD
HETATM    7  C7  UNL     1      12.208  25.910  -6.032  1.00  0.00     0.705 A 
HETATM    8  N9  UNL     1      11.796  25.190  -7.105  1.00  0.00    -0.022 N 
ATOM      9  H9  UNL     1      12.469  24.799  -7.764  1.00  0.00     0.203 HD
ENDROOT
BRANCH   4  10
HETATM   10  N3  UNL     1       9.009  26.767  -4.446  1.00  0.00    -0.010 N 
HETATM   11  C4  UNL     1       8.379  28.086  -4.607  1.00  0.00     0.187 C 
HETATM   12  C5  UNL     1       7.529  28.322  -3.386  1.00  0.00     0.159 C 
HETATM   13  N4  UNL     1       7.225  26.963  -2.957  1.00  0.00    -0.223 N 
HETATM   14  C6  UNL     1       8.383  26.213  -3.303  1.00  0.00     0.709 C 
ATOM     15  H4  UNL     1       6.372  26.625  -2.510  1.00  0.00     0.177 HD
HETATM   16  N5  UNL     1       8.778  25.192  -2.656  1.00  0.00    -0.138 N 
ATOM     17  H5  UNL     1       9.624  24.730  -2.991  1.00  0.00     0.205 HD
BRANCH  16  18
HETATM   18  N6  UNL     1       8.170  24.654  -1.546  1.00  0.00    -0.331 N 
ATOM     19  H62 UNL     1       7.805  23.708  -1.654  1.00  0.00     0.177 HD
ATOM     20  H61 UNL     1       8.057  25.114  -0.643  1.00  0.00     0.177 HD
ENDBRANCH  16  18
ENDBRANCH   4  10
BRANCH   1  21
HETATM   21  N1  UNL     1      10.065  24.328  -8.286  1.00  0.00    -0.229 N 
HETATM   22  C1  UNL     1      10.918  23.478  -9.073  1.00  0.00     0.165 C 
ATOM     23  H1  UNL     1       9.080  24.396  -8.543  1.00  0.00     0.177 HD
ENDBRANCH   1  21
BRANCH   7  24
HETATM   24  N8  UNL     1      13.468  26.113  -5.827  1.00  0.00    -0.234 N 
ATOM     25  H82 UNL     1      14.139  25.357  -5.963  1.00  0.00     0.174 HD
ATOM     26  H81 UNL     1      13.774  27.039  -5.529  1.00  0.00     0.174 HD
ENDBRANCH   7  24
TORSDOF 4
ENDMDL
MODEL 4
REMARK VINA RESULT: -4.461420460      1.571      5.297
REMARK  4 active torsions:
REMARK  status: ('A' for Active; 'I' for Inactive)
REMARK    1  A    between atoms: N1_2  and  C2_4 
REMARK    2  A    between atoms: C3_7  and  N3_8 
REMARK    3  A    between atoms: N5_14  and  N6_16 
REMARK    4  A    between atoms: C7_21  and  N8_22 
ROOT
HETATM    1  C2  UNL     1      11.873  23.632  -9.059  1.00  0.00     0.706 A 
HETATM    2  N2  UNL     1      12.715  22.720  -9.538  1.00  0.00    -0.021 N 
ATOM      3  H2  UNL     1      12.324  21.846  -9.889  1.00  0.00     0.203 HD
HETATM    4  C3  UNL     1      14.071  22.882  -9.587  1.00  0.00     0.728 A 
HETATM    5  N7  UNL     1      14.517  24.038  -9.116  1.00  0.00    -0.021 N 
ATOM      6  H7  UNL     1      15.520  24.219  -9.126  1.00  0.00     0.203 HD
HETATM    7  C7  UNL     1      13.695  24.982  -8.625  1.00  0.00     0.705 A 
HETATM    8  N9  UNL     1      12.353  24.788  -8.590  1.00  0.00    -0.022 N 
ATOM      9  H9  UNL     1      11.729  25.503  -8.216  1.00  0.00     0.203 HD
ENDROOT
BRANCH   4  10
HETATM   10  N3  UNL     1      14.856  21.836 -10.123  1.00  0.00    -0.010 N 
HETATM   11  C4  UNL     1      15.800  22.011 -11.236  1.00  0.00     0.187 C 
HETATM   12  C5  UNL     1      16.271  20.637 -11.637  1.00  0.00     0.159 C 
HETATM   13  N4  UNL     1      16.097  19.882 -10.402  1.00  0.00    -0.223 N 
HETATM   14  C6  UNL     1      14.955  20.464  -9.787  1.00  0.00     0.709 C 
ATOM     15  H4  UNL     1      16.667  19.109 -10.057  1.00  0.00     0.177 HD
HETATM   16  N5  UNL     1      14.150  19.817  -9.044  1.00  0.00    -0.138 N 
ATOM     17  H5  UNL     1      13.362  20.334  -8.655  1.00  0.00     0.205 HD
BRANCH  16  18
HETATM   18  N6  UNL     1      14.247  18.485  -8.718  1.00  0.00    -0.331 N 
ATOM     19  H62 UNL     1      15.155  18.051  -8.880  1.00  0.00     0.177 HD
ATOM     20  H61 UNL     1      13.499  17.907  -8.334  1.00  0.00     0.177 HD
ENDBRANCH  16  18
ENDBRANCH   4  10
BRANCH   1  21
HETATM   21  N1  UNL     1      10.600  23.423  -9.036  1.00  0.00    -0.229 N 
HETATM   22  C1  UNL     1       9.690  24.171  -8.210  1.00  0.00     0.165 C 
ATOM     23  H1  UNL     1      10.219  22.689  -9.634  1.00  0.00     0.177 HD
ENDBRANCH   1  21
BRANCH   7  24
HETATM   24  N8  UNL     1      14.206  26.083  -8.183  1.00  0.00    -0.234 N 
ATOM     25  H82 UNL     1      14.832  26.633  -8.772  1.00  0.00     0.174 HD
ATOM     26  H81 UNL     1      13.972  26.389  -7.238  1.00  0.00     0.174 HD
ENDBRANCH   7  24
TORSDOF 4
ENDMDL
MODEL 5
REMARK VINA RESULT: -4.432706418      4.420      7.959
REMARK  4 active torsions:
REMARK  status: ('A' for Active; 'I' for Inactive)
REMARK    1  A    between atoms: N1_2  and  C2_4 
REMARK    2  A    between atoms: C3_7  and  N3_8 
REMARK    3  A    between atoms: N5_14  and  N6_16 
REMARK    4  A    between atoms: C7_21  and  N8_22 
ROOT
HETATM    1  C2  UNL     1       9.088  25.837  -3.943  1.00  0.00     0.706 A 
HETATM    2  N2  UNL     1       9.698  25.268  -4.978  1.00  0.00    -0.021 N 
ATOM      3  H2  UNL     1      10.079  24.330  -4.853  1.00  0.00     0.203 HD
HETATM    4  C3  UNL     1       9.845  25.862  -6.201  1.00  0.00     0.728 A 
HETATM    5  N7  UNL     1       9.328  27.079  -6.300  1.00  0.00    -0.021 N 
ATOM      6  H7  UNL     1       9.405  27.574  -7.188  1.00  0.00     0.203 HD
HETATM    7  C7  UNL     1       8.705  27.684  -5.274  1.00  0.00     0.705 A 
HETATM    8  N9  UNL     1       8.577  27.066  -4.073  1.00  0.00    -0.022 N 
ATOM      9  H9  UNL     1       8.106  27.525  -3.294  1.00  0.00     0.203 HD
ENDROOT
BRANCH   4  10
HETATM   10  N3  UNL     1      10.512  25.148  -7.221  1.00  0.00    -0.010 N 
HETATM   11  C4  UNL     1       9.832  24.263  -8.178  1.00  0.00     0.187 C 
HETATM   12  C5  UNL     1      10.904  23.542  -8.952  1.00  0.00     0.159 C 
HETATM   13  N4  UNL     1      12.024  24.470  -8.861  1.00  0.00    -0.223 N 
HETATM   14  C6  UNL     1      11.879  25.078  -7.584  1.00  0.00     0.709 C 
ATOM     15  H4  UNL     1      12.750  24.644  -9.558  1.00  0.00     0.177 HD
HETATM   16  N5  UNL     1      12.859  25.492  -6.888  1.00  0.00    -0.138 N 
ATOM     17  H5  UNL     1      12.640  25.913  -5.984  1.00  0.00     0.205 HD
BRANCH  16  18
HETATM   18  N6  UNL     1      14.186  25.425  -7.241  1.00  0.00    -0.331 N 
ATOM     19  H62 UNL     1      14.786  24.885  -6.617  1.00  0.00     0.177 HD
ATOM     20  H61 UNL     1      14.611  25.862  -8.058  1.00  0.00     0.177 HD
ENDBRANCH  16  18
ENDBRANCH   4  10
BRANCH   1  21
HETATM   21  N1  UNL     1       8.980  25.228  -2.810  1.00  0.00    -0.229 N 
HETATM   22  C1  UNL     1       7.851  25.385  -1.931  1.00  0.00     0.165 C 
ATOM     23  H1  UNL     1       9.734  24.603  -2.522  1.00  0.00     0.177 HD
ENDBRANCH   1  21
BRANCH   7  24
HETATM   24  N8  UNL     1       8.228  28.872  -5.450  1.00  0.00    -0.234 N 
ATOM     25  H82 UNL     1       8.512  29.637  -4.837  1.00  0.00     0.174 HD
ATOM     26  H81 UNL     1       7.565  29.027  -6.210  1.00  0.00     0.174 HD
ENDBRANCH   7  24
TORSDOF 4
ENDMDL
