MODEL 1
REMARK VINA RESULT: -4.849913114      0.000      0.000
REMARK  6 active torsions:
REMARK  status: ('A' for Active; 'I' for Inactive)
REMARK    1  A    between atoms: N1_1  and  N2_4 
REMARK    2  A    between atoms: N2_4  and  C1_6 
REMARK    3  A    between atoms: C1_6  and  N3_7 
REMARK    4  A    between atoms: N3_7  and  S1_9 
REMARK    5  A    between atoms: S1_9  and  C2_12 
REMARK    6  A    between atoms: C4_19  and  O4_20 
ROOT
HETATM    1  S1  UNL     1      13.814  24.168  -9.570  1.00  0.00     0.290 S 
HETATM    2  O1  UNL     1      14.258  25.603  -9.579  1.00  0.00    -0.198 OA
HETATM    3  O2  UNL     1      13.830  23.573 -10.948  1.00  0.00    -0.198 OA
ENDROOT
BRANCH   1   4
HETATM    4  N3  UNL     1      14.777  23.231  -8.467  1.00  0.00    -0.228 N 
ATOM      5  H3  UNL     1      15.579  23.637  -7.984  1.00  0.00     0.190 HD
BRANCH   4   6
HETATM    6  C1  UNL     1      14.436  22.009  -8.288  1.00  0.00     0.078 C 
BRANCH   6   7
HETATM    7  N2  UNL     1      13.926  20.831  -8.216  1.00  0.00    -0.257 N 
ATOM      8  H2  UNL     1      13.578  20.478  -7.325  1.00  0.00     0.197 HD
BRANCH   7   9
HETATM    9  N1  UNL     1      13.848  20.036  -9.360  1.00  0.00    -0.337 N 
ATOM     10  H12 UNL     1      14.483  20.222 -10.136  1.00  0.00     0.177 HD
ATOM     11  H11 UNL     1      13.164  19.281  -9.409  1.00  0.00     0.177 HD
ENDBRANCH   7   9
ENDBRANCH   6   7
ENDBRANCH   4   6
ENDBRANCH   1   4
BRANCH   1  12
HETATM   12  C2  UNL     1      12.174  24.118  -8.978  1.00  0.00     0.205 A 
HETATM   13  N4  UNL     1      11.577  25.045  -8.213  1.00  0.00    -0.294 N 
HETATM   14  C3  UNL     1      10.324  24.640  -7.975  1.00  0.00     0.327 A 
ATOM     15  H4  UNL     1      12.003  25.907  -7.873  1.00  0.00     0.171 HD
HETATM   16  O3  UNL     1       9.464  25.236  -7.304  1.00  0.00    -0.247 OA
HETATM   17  N5  UNL     1      10.128  23.449  -8.593  1.00  0.00    -0.287 N 
HETATM   18  C4  UNL     1      11.269  23.119  -9.217  1.00  0.00     0.185 A 
ATOM     19  H5  UNL     1       9.267  22.902  -8.584  1.00  0.00     0.172 HD
BRANCH  18  20
HETATM   20  O4  UNL     1      11.442  21.944  -9.965  1.00  0.00    -0.344 OA
ATOM     21  H4  UNL     1      11.701  21.855 -10.875  1.00  0.00     0.219 HD
ENDBRANCH  18  20
ENDBRANCH   1  12
TORSDOF 6
ENDMDL
MODEL 2
REMARK VINA RESULT: -4.845339902      2.902      4.903
REMARK  6 active torsions:
REMARK  status: ('A' for Active; 'I' for Inactive)
REMARK    1  A    between atoms: N1_1  and  N2_4 
REMARK    2  A    between atoms: N2_4  and  C1_6 
REMARK    3  A    between atoms: C1_6  and  N3_7 
REMARK    4  A    between atoms: N3_7  and  S1_9 
REMARK    5  A    between atoms: S1_9  and  C2_12 
REMARK    6  A    between atoms: C4_19  and  O4_20 
ROOT
HETATM    1  S1  UNL     1      11.585  25.680  -6.676  1.00  0.00     0.290 S 
HETATM    2  O1  UNL     1      12.208  26.993  -7.056  1.00  0.00    -0.198 OA
HETATM    3  O2  UNL     1      12.287  25.051  -5.508  1.00  0.00    -0.198 OA
ENDROOT
BRANCH   1   4
HETATM    4  N3  UNL     1       9.886  25.871  -6.363  1.00  0.00    -0.228 N 
ATOM      5  H3  UNL     1       9.237  26.150  -7.100  1.00  0.00     0.190 HD
BRANCH   4   6
HETATM    6  C1  UNL     1       9.484  25.647  -5.168  1.00  0.00     0.078 C 
BRANCH   6   7
HETATM    7  N2  UNL     1       9.251  25.308  -3.949  1.00  0.00    -0.257 N 
ATOM      8  H2  UNL     1       8.295  25.302  -3.594  1.00  0.00     0.197 HD
BRANCH   7   9
HETATM    9  N1  UNL     1      10.308  24.947  -3.113  1.00  0.00    -0.337 N 
ATOM     10  H12 UNL     1      11.261  25.184  -3.389  1.00  0.00     0.177 HD
ATOM     11  H11 UNL     1      10.121  24.454  -2.240  1.00  0.00     0.177 HD
ENDBRANCH   7   9
ENDBRANCH   6   7
ENDBRANCH   4   6
ENDBRANCH   1   4
BRANCH   1  12
HETATM   12  C2  UNL     1      11.732  24.602  -8.040  1.00  0.00     0.205 A 
HETATM   13  N4  UNL     1      12.737  24.577  -8.929  1.00  0.00    -0.294 N 
HETATM   14  C3  UNL     1      12.479  23.611  -9.818  1.00  0.00     0.327 A 
ATOM     15  H4  UNL     1      13.554  25.187  -8.926  1.00  0.00     0.171 HD
HETATM   16  O3  UNL     1      13.183  23.288 -10.790  1.00  0.00    -0.247 OA
HETATM   17  N5  UNL     1      11.302  23.023  -9.490  1.00  0.00    -0.287 N 
HETATM   18  C4  UNL     1      10.833  23.630  -8.390  1.00  0.00     0.185 A 
ATOM     19  H5  UNL     1      10.854  22.256  -9.991  1.00  0.00     0.172 HD
BRANCH  18  20
HETATM   20  O4  UNL     1       9.628  23.285  -7.757  1.00  0.00    -0.344 OA
ATOM     21  H4  UNL     1       8.834  23.801  -7.675  1.00  0.00     0.219 HD
ENDBRANCH  18  20
ENDBRANCH   1  12
TORSDOF 6
ENDMDL
MODEL 3
REMARK VINA RESULT: -4.348452089      1.144      1.830
REMARK  6 active torsions:
REMARK  status: ('A' for Active; 'I' for Inactive)
REMARK    1  A    between atoms: N1_1  and  N2_4 
REMARK    2  A    between atoms: N2_4  and  C1_6 
REMARK    3  A    between atoms: C1_6  and  N3_7 
REMARK    4  A    between atoms: N3_7  and  S1_9 
REMARK    5  A    between atoms: S1_9  and  C2_12 
REMARK    6  A    between atoms: C4_19  and  O4_20 
ROOT
HETATM    1  S1  UNL     1      13.803  24.172  -9.632  1.00  0.00     0.290 S 
HETATM    2  O1  UNL     1      14.311  25.575  -9.454  1.00  0.00    -0.198 OA
HETATM    3  O2  UNL     1      13.764  23.776 -11.079  1.00  0.00    -0.198 OA
ENDROOT
BRANCH   1   4
HETATM    4  N3  UNL     1      14.747  23.051  -8.696  1.00  0.00    -0.228 N 
ATOM      5  H3  UNL     1      15.378  22.385  -9.142  1.00  0.00     0.190 HD
BRANCH   4   6
HETATM    6  C1  UNL     1      14.614  23.099  -7.423  1.00  0.00     0.078 C 
BRANCH   6   7
HETATM    7  N2  UNL     1      14.413  23.338  -6.175  1.00  0.00    -0.257 N 
ATOM      8  H2  UNL     1      14.512  22.590  -5.489  1.00  0.00     0.197 HD
BRANCH   7   9
HETATM    9  N1  UNL     1      14.061  24.622  -5.761  1.00  0.00    -0.337 N 
ATOM     10  H12 UNL     1      14.721  25.387  -5.903  1.00  0.00     0.177 HD
ATOM     11  H11 UNL     1      13.154  24.785  -5.323  1.00  0.00     0.177 HD
ENDBRANCH   7   9
ENDBRANCH   6   7
ENDBRANCH   4   6
ENDBRANCH   1   4
BRANCH   1  12
HETATM   12  C2  UNL     1      12.175  24.108  -9.009  1.00  0.00     0.205 A 
HETATM   13  N4  UNL     1      11.581  25.034  -8.241  1.00  0.00    -0.294 N 
HETATM   14  C3  UNL     1      10.338  24.616  -7.976  1.00  0.00     0.327 A 
ATOM     15  H4  UNL     1      12.003  25.905  -7.917  1.00  0.00     0.171 HD
HETATM   16  O3  UNL     1       9.483  25.208  -7.294  1.00  0.00    -0.247 OA
HETATM   17  N5  UNL     1      10.145  23.417  -8.579  1.00  0.00    -0.287 N 
HETATM   18  C4  UNL     1      11.279  23.095  -9.221  1.00  0.00     0.185 A 
ATOM     19  H5  UNL     1       9.292  22.859  -8.549  1.00  0.00     0.172 HD
BRANCH  18  20
HETATM   20  O4  UNL     1      11.452  21.915  -9.962  1.00  0.00    -0.344 OA
ATOM     21  H4  UNL     1      10.961  21.613 -10.717  1.00  0.00     0.219 HD
ENDBRANCH  18  20
ENDBRANCH   1  12
TORSDOF 6
ENDMDL
MODEL 4
REMARK VINA RESULT: -4.300580902      4.398      6.214
REMARK  6 active torsions:
REMARK  status: ('A' for Active; 'I' for Inactive)
REMARK    1  A    between atoms: N1_1  and  N2_4 
REMARK    2  A    between atoms: N2_4  and  C1_6 
REMARK    3  A    between atoms: C1_6  and  N3_7 
REMARK    4  A    between atoms: N3_7  and  S1_9 
REMARK    5  A    between atoms: S1_9  and  C2_12 
REMARK    6  A    between atoms: C4_19  and  O4_20 
ROOT
HETATM    1  S1  UNL     1      10.457  26.184  -5.584  1.00  0.00     0.290 S 
HETATM    2  O1  UNL     1      11.631  25.252  -5.474  1.00  0.00    -0.198 OA
HETATM    3  O2  UNL     1      10.895  27.612  -5.730  1.00  0.00    -0.198 OA
ENDROOT
BRANCH   1   4
HETATM    4  N3  UNL     1       9.411  25.708  -6.887  1.00  0.00    -0.228 N 
ATOM      5  H3  UNL     1       8.604  26.271  -7.155  1.00  0.00     0.190 HD
BRANCH   4   6
HETATM    6  C1  UNL     1       9.698  24.618  -7.497  1.00  0.00     0.078 C 
BRANCH   6   7
HETATM    7  N2  UNL     1       9.784  23.504  -8.135  1.00  0.00    -0.257 N 
ATOM      8  H2  UNL     1       9.220  22.705  -7.844  1.00  0.00     0.197 HD
BRANCH   7   9
HETATM    9  N1  UNL     1      10.647  23.391  -9.224  1.00  0.00    -0.337 N 
ATOM     10  H12 UNL     1      10.843  24.217  -9.789  1.00  0.00     0.177 HD
ATOM     11  H11 UNL     1      11.072  22.490  -9.445  1.00  0.00     0.177 HD
ENDBRANCH   7   9
ENDBRANCH   6   7
ENDBRANCH   4   6
ENDBRANCH   1   4
BRANCH   1  12
HETATM   12  C2  UNL     1       9.528  26.051  -4.113  1.00  0.00     0.205 A 
HETATM   13  N4  UNL     1       9.664  25.106  -3.170  1.00  0.00    -0.294 N 
HETATM   14  C3  UNL     1       8.770  25.353  -2.205  1.00  0.00     0.327 A 
ATOM     15  H4  UNL     1      10.332  24.335  -3.185  1.00  0.00     0.171 HD
HETATM   16  O3  UNL     1       8.595  24.693  -1.166  1.00  0.00    -0.247 OA
HETATM   17  N5  UNL     1       8.063  26.460  -2.542  1.00  0.00    -0.287 N 
HETATM   18  C4  UNL     1       8.526  26.899  -3.722  1.00  0.00     0.185 A 
ATOM     19  H5  UNL     1       7.313  26.883  -1.996  1.00  0.00     0.172 HD
BRANCH  18  20
HETATM   20  O4  UNL     1       8.031  28.032  -4.387  1.00  0.00    -0.344 OA
ATOM     21  H4  UNL     1       8.489  28.834  -4.609  1.00  0.00     0.219 HD
ENDBRANCH  18  20
ENDBRANCH   1  12
TORSDOF 6
ENDMDL
MODEL 5
REMARK VINA RESULT: -4.291068660      2.787      5.342
REMARK  6 active torsions:
REMARK  status: ('A' for Active; 'I' for Inactive)
REMARK    1  A    between atoms: N1_1  and  N2_4 
REMARK    2  A    between atoms: N2_4  and  C1_6 
REMARK    3  A    between atoms: C1_6  and  N3_7 
REMARK    4  A    between atoms: N3_7  and  S1_9 
REMARK    5  A    between atoms: S1_9  and  C2_12 
REMARK    6  A    between atoms: C4_19  and  O4_20 
ROOT
HETATM    1  S1  UNL     1      11.470  25.653  -6.643  1.00  0.00     0.290 S 
HETATM    2  O1  UNL     1      12.023  26.998  -7.022  1.00  0.00    -0.198 OA
HETATM    3  O2  UNL     1      12.212  25.056  -5.482  1.00  0.00    -0.198 OA
ENDROOT
BRANCH   1   4
HETATM    4  N3  UNL     1       9.766  25.756  -6.317  1.00  0.00    -0.228 N 
ATOM      5  H3  UNL     1       9.209  24.922  -6.126  1.00  0.00     0.190 HD
BRANCH   4   6
HETATM    6  C1  UNL     1       9.240  26.924  -6.328  1.00  0.00     0.078 C 
BRANCH   6   7
HETATM    7  N2  UNL     1       8.901  28.163  -6.385  1.00  0.00    -0.257 N 
ATOM      8  H2  UNL     1       7.917  28.426  -6.325  1.00  0.00     0.197 HD
BRANCH   7   9
HETATM    9  N1  UNL     1       9.879  29.146  -6.530  1.00  0.00    -0.337 N 
ATOM     10  H12 UNL     1       9.646  30.114  -6.304  1.00  0.00     0.177 HD
ATOM     11  H11 UNL     1      10.811  28.893  -6.856  1.00  0.00     0.177 HD
ENDBRANCH   7   9
ENDBRANCH   6   7
ENDBRANCH   4   6
ENDBRANCH   1   4
BRANCH   1  12
HETATM   12  C2  UNL     1      11.662  24.589  -8.012  1.00  0.00     0.205 A 
HETATM   13  N4  UNL     1      12.676  24.601  -8.891  1.00  0.00    -0.294 N 
HETATM   14  C3  UNL     1      12.456  23.633  -9.789  1.00  0.00     0.327 A 
ATOM     15  H4  UNL     1      13.475  25.234  -8.877  1.00  0.00     0.171 HD
HETATM   16  O3  UNL     1      13.177  23.338 -10.757  1.00  0.00    -0.247 OA
HETATM   17  N5  UNL     1      11.293  23.008  -9.477  1.00  0.00    -0.287 N 
HETATM   18  C4  UNL     1      10.796  23.594  -8.377  1.00  0.00     0.185 A 
ATOM     19  H5  UNL     1      10.873  22.232  -9.987  1.00  0.00     0.172 HD
BRANCH  18  20
HETATM   20  O4  UNL     1       9.596  23.209  -7.759  1.00  0.00    -0.344 OA
ATOM     21  H4  UNL     1       8.924  22.621  -8.084  1.00  0.00     0.219 HD
ENDBRANCH  18  20
ENDBRANCH   1  12
TORSDOF 6
ENDMDL
