MODEL 1
REMARK VINA RESULT: -5.354667539      0.000      0.000
REMARK  2 active torsions:
REMARK  status: ('A' for Active; 'I' for Inactive)
REMARK    1  A    between atoms: C3_8  and  C4_9 
REMARK    2  A    between atoms: C4_9  and  N3_10 
ROOT
HETATM    1  N1  UNL     1       9.446  25.469  -7.114  1.00  0.00    -0.233 N 
ATOM      2  H11 UNL     1       8.469  25.179  -7.142  1.00  0.00     0.174 HD
ATOM      3  H12 UNL     1       9.660  26.263  -6.511  1.00  0.00     0.174 HD
HETATM    4  C1  UNL     1      10.382  24.883  -7.792  1.00  0.00     0.690 A 
HETATM    5  N2  UNL     1      11.735  25.283  -7.754  1.00  0.00    -0.199 N 
ATOM      6  H2  UNL     1      12.003  26.073  -7.166  1.00  0.00     0.183 HD
HETATM    7  C2  UNL     1      12.729  24.618  -8.510  1.00  0.00     0.134 A 
HETATM    8  C3  UNL     1      12.441  23.593  -9.286  1.00  0.00     0.062 A 
HETATM    9  N6  UNL     1      11.100  23.148  -9.365  1.00  0.00    -0.288 N 
ATOM     10  H6  UNL     1      10.876  22.355  -9.965  1.00  0.00     0.187 HD
HETATM   11  N7  UNL     1      10.079  23.760  -8.645  1.00  0.00    -0.132 N 
ATOM     12  H7  UNL     1       9.122  23.418  -8.721  1.00  0.00     0.205 HD
ENDROOT
BRANCH   8  13
HETATM   13  C4  UNL     1      13.455  22.889 -10.078  1.00  0.00     0.213 C 
BRANCH  13  14
HETATM   14  N3  UNL     1      13.975  21.704  -9.421  1.00  0.00    -0.237 N 
HETATM   15  N4  UNL     1      13.571  21.218  -8.226  1.00  0.00    -0.241 N 
HETATM   16  N5  UNL     1      13.680  19.902  -7.975  1.00  0.00    -0.117 NA
ATOM     17  H4  UNL     1      13.185  21.845  -7.521  1.00  0.00     0.204 HD
HETATM   18  C5  UNL     1      15.047  19.452  -8.135  1.00  0.00     0.225 C 
HETATM   19  C6  UNL     1      15.557  19.804  -9.471  1.00  0.00     0.234 C 
HETATM   20  O1  UNL     1      16.431  19.140 -10.087  1.00  0.00    -0.286 OA
HETATM   21  C7  UNL     1      15.006  21.009 -10.120  1.00  0.00     0.310 C 
HETATM   22  O2  UNL     1      15.446  21.381 -11.239  1.00  0.00    -0.262 OA
ENDBRANCH  13  14
ENDBRANCH   8  13
TORSDOF 2
ENDMDL
MODEL 2
REMARK VINA RESULT: -5.288051844      5.441      7.997
REMARK  2 active torsions:
REMARK  status: ('A' for Active; 'I' for Inactive)
REMARK    1  A    between atoms: C3_8  and  C4_9 
REMARK    2  A    between atoms: C4_9  and  N3_10 
ROOT
HETATM    1  N1  UNL     1      10.993  22.936  -9.699  1.00  0.00    -0.233 N 
ATOM      2  H11 UNL     1      11.879  22.690 -10.140  1.00  0.00     0.174 HD
ATOM      3  H12 UNL     1      10.168  22.451 -10.052  1.00  0.00     0.174 HD
HETATM    4  C1  UNL     1      10.889  23.808  -8.747  1.00  0.00     0.690 A 
HETATM    5  N2  UNL     1       9.663  24.149  -8.137  1.00  0.00    -0.199 N 
ATOM      6  H2  UNL     1       8.807  23.692  -8.453  1.00  0.00     0.183 HD
HETATM    7  C2  UNL     1       9.590  25.109  -7.099  1.00  0.00     0.134 A 
HETATM    8  C3  UNL     1      10.661  25.730  -6.651  1.00  0.00     0.062 A 
HETATM    9  N6  UNL     1      11.919  25.429  -7.226  1.00  0.00    -0.288 N 
ATOM     10  H6  UNL     1      12.750  25.909  -6.881  1.00  0.00     0.187 HD
HETATM   11  N7  UNL     1      12.055  24.495  -8.249  1.00  0.00    -0.132 N 
ATOM     12  H7  UNL     1      12.974  24.298  -8.644  1.00  0.00     0.205 HD
ENDROOT
BRANCH   8  13
HETATM   13  C4  UNL     1      10.609  26.727  -5.577  1.00  0.00     0.213 C 
BRANCH  13  14
HETATM   14  N3  UNL     1       9.836  26.292  -4.428  1.00  0.00    -0.237 N 
HETATM   15  N4  UNL     1      10.130  25.248  -3.623  1.00  0.00    -0.241 N 
HETATM   16  N5  UNL     1       9.720  25.262  -2.343  1.00  0.00    -0.117 NA
ATOM     17  H4  UNL     1      10.659  24.455  -3.984  1.00  0.00     0.204 HD
HETATM   18  C5  UNL     1       8.285  25.427  -2.256  1.00  0.00     0.225 C 
HETATM   19  C6  UNL     1       7.854  26.631  -2.988  1.00  0.00     0.234 C 
HETATM   20  O1  UNL     1       6.842  27.314  -2.683  1.00  0.00    -0.286 OA
HETATM   21  C7  UNL     1       8.663  27.054  -4.148  1.00  0.00     0.310 C 
HETATM   22  O2  UNL     1       8.308  28.046  -4.836  1.00  0.00    -0.262 OA
ENDBRANCH  13  14
ENDBRANCH   8  13
TORSDOF 2
ENDMDL
MODEL 3
REMARK VINA RESULT: -5.273164830      5.458      7.920
REMARK  2 active torsions:
REMARK  status: ('A' for Active; 'I' for Inactive)
REMARK    1  A    between atoms: C3_8  and  C4_9 
REMARK    2  A    between atoms: C4_9  and  N3_10 
ROOT
HETATM    1  N1  UNL     1      10.977  22.948  -9.658  1.00  0.00    -0.233 N 
ATOM      2  H11 UNL     1      10.175  22.420 -10.000  1.00  0.00     0.174 HD
ATOM      3  H12 UNL     1      11.874  22.728 -10.090  1.00  0.00     0.174 HD
HETATM    4  C1  UNL     1      10.894  23.849  -8.731  1.00  0.00     0.690 A 
HETATM    5  N2  UNL     1      12.005  24.580  -8.257  1.00  0.00    -0.199 N 
ATOM      6  H2  UNL     1      12.926  24.399  -8.657  1.00  0.00     0.183 HD
HETATM    7  C2  UNL     1      11.874  25.557  -7.241  1.00  0.00     0.134 A 
HETATM    8  C3  UNL     1      10.710  25.833  -6.689  1.00  0.00     0.062 A 
HETATM    9  N6  UNL     1       9.561  25.131  -7.124  1.00  0.00    -0.288 N 
ATOM     10  H6  UNL     1       8.660  25.343  -6.697  1.00  0.00     0.187 HD
HETATM   11  N7  UNL     1       9.626  24.160  -8.119  1.00  0.00    -0.132 N 
ATOM     12  H7  UNL     1       8.782  23.670  -8.413  1.00  0.00     0.205 HD
ENDROOT
BRANCH   8  13
HETATM   13  C4  UNL     1      10.551  26.841  -5.636  1.00  0.00     0.213 C 
BRANCH  13  14
HETATM   14  N3  UNL     1       9.825  26.352  -4.478  1.00  0.00    -0.237 N 
HETATM   15  N4  UNL     1      10.175  25.296  -3.711  1.00  0.00    -0.241 N 
HETATM   16  N5  UNL     1       9.803  25.262  -2.420  1.00  0.00    -0.117 NA
ATOM     17  H4  UNL     1      10.718  24.530  -4.109  1.00  0.00     0.204 HD
HETATM   18  C5  UNL     1       8.366  25.379  -2.288  1.00  0.00     0.225 C 
HETATM   19  C6  UNL     1       7.876  26.587  -2.974  1.00  0.00     0.234 C 
HETATM   20  O1  UNL     1       6.853  27.229  -2.622  1.00  0.00    -0.286 OA
HETATM   21  C7  UNL     1       8.638  27.068  -4.144  1.00  0.00     0.310 C 
HETATM   22  O2  UNL     1       8.232  28.066  -4.795  1.00  0.00    -0.262 OA
ENDBRANCH  13  14
ENDBRANCH   8  13
TORSDOF 2
ENDMDL
MODEL 4
REMARK VINA RESULT: -5.164452278      0.506      1.210
REMARK  2 active torsions:
REMARK  status: ('A' for Active; 'I' for Inactive)
REMARK    1  A    between atoms: C3_8  and  C4_9 
REMARK    2  A    between atoms: C4_9  and  N3_10 
ROOT
HETATM    1  N1  UNL     1       9.446  25.562  -6.968  1.00  0.00    -0.233 N 
ATOM      2  H11 UNL     1       9.622  26.296  -6.283  1.00  0.00     0.174 HD
ATOM      3  H12 UNL     1       8.471  25.286  -7.087  1.00  0.00     0.174 HD
HETATM    4  C1  UNL     1      10.381  24.996  -7.663  1.00  0.00     0.690 A 
HETATM    5  N2  UNL     1      10.136  23.981  -8.613  1.00  0.00    -0.199 N 
ATOM      6  H2  UNL     1       9.178  23.668  -8.770  1.00  0.00     0.183 HD
HETATM    7  C2  UNL     1      11.186  23.386  -9.353  1.00  0.00     0.134 A 
HETATM    8  C3  UNL     1      12.442  23.750  -9.192  1.00  0.00     0.062 A 
HETATM    9  N6  UNL     1      12.747  24.763  -8.253  1.00  0.00    -0.288 N 
ATOM     10  H6  UNL     1      13.719  25.046  -8.127  1.00  0.00     0.187 HD
HETATM   11  N7  UNL     1      11.759  25.386  -7.496  1.00  0.00    -0.132 N 
ATOM     12  H7  UNL     1      12.008  26.114  -6.827  1.00  0.00     0.205 HD
ENDROOT
BRANCH   8  13
HETATM   13  C4  UNL     1      13.545  23.148  -9.948  1.00  0.00     0.213 C 
BRANCH  13  14
HETATM   14  N3  UNL     1      14.007  21.892  -9.385  1.00  0.00    -0.237 N 
HETATM   15  N4  UNL     1      13.587  21.340  -8.226  1.00  0.00    -0.241 N 
HETATM   16  N5  UNL     1      13.628  20.005  -8.073  1.00  0.00    -0.117 NA
ATOM     17  H4  UNL     1      13.240  21.932  -7.471  1.00  0.00     0.204 HD
HETATM   18  C5  UNL     1      14.968  19.498  -8.281  1.00  0.00     0.225 C 
HETATM   19  C6  UNL     1      15.487  19.922  -9.593  1.00  0.00     0.234 C 
HETATM   20  O1  UNL     1      16.320  19.261 -10.266  1.00  0.00    -0.286 OA
HETATM   21  C7  UNL     1      14.995  21.199 -10.145  1.00  0.00     0.310 C 
HETATM   22  O2  UNL     1      15.446  21.629 -11.239  1.00  0.00    -0.262 OA
ENDBRANCH  13  14
ENDBRANCH   8  13
TORSDOF 2
ENDMDL
MODEL 5
REMARK VINA RESULT: -5.134194588      4.711      7.240
REMARK  2 active torsions:
REMARK  status: ('A' for Active; 'I' for Inactive)
REMARK    1  A    between atoms: C3_8  and  C4_9 
REMARK    2  A    between atoms: C4_9  and  N3_10 
ROOT
HETATM    1  N1  UNL     1      12.711  22.541  -9.666  1.00  0.00    -0.233 N 
ATOM      2  H11 UNL     1      12.365  21.701 -10.128  1.00  0.00     0.174 HD
ATOM      3  H12 UNL     1      13.710  22.723  -9.761  1.00  0.00     0.174 HD
HETATM    4  C1  UNL     1      11.954  23.348  -8.994  1.00  0.00     0.690 A 
HETATM    5  N2  UNL     1      12.433  24.512  -8.355  1.00  0.00    -0.199 N 
ATOM      6  H2  UNL     1      13.426  24.740  -8.419  1.00  0.00     0.183 HD
HETATM    7  C2  UNL     1      11.574  25.369  -7.628  1.00  0.00     0.134 A 
HETATM    8  C3  UNL     1      10.284  25.125  -7.512  1.00  0.00     0.062 A 
HETATM    9  N6  UNL     1       9.747  23.971  -8.131  1.00  0.00    -0.288 N 
ATOM     10  H6  UNL     1       8.750  23.779  -8.042  1.00  0.00     0.187 HD
HETATM   11  N7  UNL     1      10.542  23.091  -8.860  1.00  0.00    -0.132 N 
ATOM     12  H7  UNL     1      10.127  22.267  -9.296  1.00  0.00     0.205 HD
ENDROOT
BRANCH   8  13
HETATM   13  C4  UNL     1       9.375  25.999  -6.764  1.00  0.00     0.213 C 
BRANCH  13  14
HETATM   14  N3  UNL     1       9.692  26.080  -5.350  1.00  0.00    -0.237 N 
HETATM   15  N4  UNL     1       9.644  25.059  -4.466  1.00  0.00    -0.241 N 
HETATM   16  N5  UNL     1      10.445  25.078  -3.387  1.00  0.00    -0.117 NA
ATOM     17  H4  UNL     1       9.004  24.279  -4.617  1.00  0.00     0.204 HD
HETATM   18  C5  UNL     1      10.238  26.278  -2.605  1.00  0.00     0.225 C 
HETATM   19  C6  UNL     1      10.407  27.480  -3.441  1.00  0.00     0.234 C 
HETATM   20  O1  UNL     1      10.808  28.590  -3.003  1.00  0.00    -0.286 OA
HETATM   21  C7  UNL     1      10.085  27.367  -4.876  1.00  0.00     0.310 C 
HETATM   22  O2  UNL     1      10.164  28.378  -5.623  1.00  0.00    -0.262 OA
ENDBRANCH  13  14
ENDBRANCH   8  13
TORSDOF 2
ENDMDL
