MODEL 1
REMARK VINA RESULT: -3.861865454      0.000      0.000
REMARK  1 active torsions:
REMARK  status: ('A' for Active; 'I' for Inactive)
REMARK    1  A    between atoms: C2_2  and  C3_3 
ROOT
HETATM    1  C3  UNL     1     -18.397 -27.163  15.357  1.00  0.00     0.361 C 
HETATM    2 CL1  UNL     1     -18.126 -28.445  16.565  1.00  0.00    -0.058 Cl
HETATM    3  N1  UNL     1     -18.242 -27.736  14.011  1.00  0.00    -0.026 N 
ATOM      4  H11 UNL     1     -18.128 -27.033  13.281  1.00  0.00     0.281 HD
ATOM      5  H12 UNL     1     -19.099 -28.154  13.647  1.00  0.00     0.281 HD
HETATM    6  C4  UNL     1     -17.139 -28.664  14.094  1.00  0.00     0.238 C 
HETATM    7  C5  UNL     1     -15.912 -27.941  14.506  1.00  0.00     0.055 C 
HETATM    8  C6  UNL     1     -16.091 -26.907  15.557  1.00  0.00     0.238 C 
HETATM    9  N2  UNL     1     -17.360 -26.205  15.501  1.00  0.00    -0.026 N 
ATOM     10  H21 UNL     1     -17.503 -25.589  16.301  1.00  0.00     0.281 HD
ATOM     11  H22 UNL     1     -17.382 -25.492  14.772  1.00  0.00     0.281 HD
ENDROOT
BRANCH   1  12
HETATM   12  C2  UNL     1     -19.792 -26.652  15.456  1.00  0.00     0.082 C 
HETATM   13  C1  UNL     1     -20.223 -25.708  14.403  1.00  0.00     0.011 C 
ENDBRANCH   1  12
TORSDOF 1
ENDMDL
MODEL 2
REMARK VINA RESULT: -3.836671952      1.428      3.486
REMARK  1 active torsions:
REMARK  status: ('A' for Active; 'I' for Inactive)
REMARK    1  A    between atoms: C2_2  and  C3_3 
ROOT
HETATM    1  C3  UNL     1     -17.101 -28.793  14.301  1.00  0.00     0.361 C 
HETATM    2 CL1  UNL     1     -17.834 -29.398  15.809  1.00  0.00    -0.058 Cl
HETATM    3  N1  UNL     1     -16.062 -27.808  14.638  1.00  0.00    -0.026 N 
ATOM      4  H11 UNL     1     -15.775 -27.233  13.846  1.00  0.00     0.281 HD
ATOM      5  H12 UNL     1     -15.151 -28.225  14.825  1.00  0.00     0.281 HD
HETATM    6  C4  UNL     1     -16.581 -27.042  15.748  1.00  0.00     0.238 C 
HETATM    7  C5  UNL     1     -17.838 -26.369  15.341  1.00  0.00     0.055 C 
HETATM    8  C6  UNL     1     -18.761 -27.173  14.500  1.00  0.00     0.238 C 
HETATM    9  N2  UNL     1     -18.101 -28.086  13.585  1.00  0.00    -0.026 N 
ATOM     10  H21 UNL     1     -18.756 -28.706  13.109  1.00  0.00     0.281 HD
ATOM     11  H22 UNL     1     -17.731 -27.615  12.759  1.00  0.00     0.281 HD
ENDROOT
BRANCH   1  12
HETATM   12  C2  UNL     1     -16.427 -29.907  13.577  1.00  0.00     0.082 C 
HETATM   13  C1  UNL     1     -16.769 -31.277  14.013  1.00  0.00     0.011 C 
ENDBRANCH   1  12
TORSDOF 1
ENDMDL
MODEL 3
REMARK VINA RESULT: -3.650077938      2.085      3.079
REMARK  1 active torsions:
REMARK  status: ('A' for Active; 'I' for Inactive)
REMARK    1  A    between atoms: C2_2  and  C3_3 
ROOT
HETATM    1  C3  UNL     1     -17.968 -28.351  16.338  1.00  0.00     0.361 C 
HETATM    2 CL1  UNL     1     -18.894 -27.159  15.391  1.00  0.00    -0.058 Cl
HETATM    3  N1  UNL     1     -16.688 -27.748  16.741  1.00  0.00    -0.026 N 
ATOM      4  H11 UNL     1     -16.000 -28.431  17.059  1.00  0.00     0.281 HD
ATOM      5  H12 UNL     1     -16.745 -27.215  17.608  1.00  0.00     0.281 HD
HETATM    6  C4  UNL     1     -16.242 -26.964  15.613  1.00  0.00     0.238 C 
HETATM    7  C5  UNL     1     -16.065 -27.846  14.434  1.00  0.00     0.055 C 
HETATM    8  C6  UNL     1     -17.103 -28.891  14.245  1.00  0.00     0.238 C 
HETATM    9  N2  UNL     1     -17.644 -29.432  15.479  1.00  0.00    -0.026 N 
ATOM     10  H21 UNL     1     -18.434 -30.057  15.319  1.00  0.00     0.281 HD
ATOM     11  H22 UNL     1     -17.020 -30.108  15.918  1.00  0.00     0.281 HD
ENDROOT
BRANCH   1  12
HETATM   12  C2  UNL     1     -18.702 -28.692  17.589  1.00  0.00     0.082 C 
HETATM   13  C1  UNL     1     -17.883 -29.180  18.719  1.00  0.00     0.011 C 
ENDBRANCH   1  12
TORSDOF 1
ENDMDL
MODEL 4
REMARK VINA RESULT: -3.629709534      1.771      3.530
REMARK  1 active torsions:
REMARK  status: ('A' for Active; 'I' for Inactive)
REMARK    1  A    between atoms: C2_2  and  C3_3 
ROOT
HETATM    1  C3  UNL     1     -17.187 -28.685  14.520  1.00  0.00     0.361 C 
HETATM    2 CL1  UNL     1     -16.039 -27.451  15.098  1.00  0.00    -0.058 Cl
HETATM    3  N1  UNL     1     -18.293 -28.015  13.818  1.00  0.00    -0.026 N 
ATOM      4  H11 UNL     1     -19.109 -28.612  13.682  1.00  0.00     0.281 HD
ATOM      5  H12 UNL     1     -18.102 -27.840  12.832  1.00  0.00     0.281 HD
HETATM    6  C4  UNL     1     -18.577 -26.815  14.570  1.00  0.00     0.238 C 
HETATM    7  C5  UNL     1     -18.970 -27.177  15.953  1.00  0.00     0.055 C 
HETATM    8  C6  UNL     1     -18.194 -28.278  16.580  1.00  0.00     0.238 C 
HETATM    9  N2  UNL     1     -17.761 -29.311  15.656  1.00  0.00    -0.026 N 
ATOM     10  H21 UNL     1     -17.133 -29.987  16.091  1.00  0.00     0.281 HD
ATOM     11  H22 UNL     1     -18.511 -29.957  15.411  1.00  0.00     0.281 HD
ENDROOT
BRANCH   1  12
HETATM   12  C2  UNL     1     -16.523 -29.580  13.532  1.00  0.00     0.082 C 
HETATM   13  C1  UNL     1     -16.538 -31.026  13.841  1.00  0.00     0.011 C 
ENDBRANCH   1  12
TORSDOF 1
ENDMDL
MODEL 5
REMARK VINA RESULT: -3.594299472      5.191      6.423
REMARK  1 active torsions:
REMARK  status: ('A' for Active; 'I' for Inactive)
REMARK    1  A    between atoms: C2_2  and  C3_3 
ROOT
HETATM    1  C3  UNL     1     -20.058 -29.153  19.944  1.00  0.00     0.361 C 
HETATM    2 CL1  UNL     1     -20.546 -28.185  21.358  1.00  0.00    -0.058 Cl
HETATM    3  N1  UNL     1     -20.119 -28.306  18.742  1.00  0.00    -0.026 N 
ATOM      4  H11 UNL     1     -20.106 -28.836  17.871  1.00  0.00     0.281 HD
ATOM      5  H12 UNL     1     -19.265 -27.773  18.577  1.00  0.00     0.281 HD
HETATM    6  C4  UNL     1     -21.293 -27.478  18.895  1.00  0.00     0.238 C 
HETATM    7  C5  UNL     1     -22.496 -28.337  18.999  1.00  0.00     0.055 C 
HETATM    8  C6  UNL     1     -22.346 -29.567  19.818  1.00  0.00     0.238 C 
HETATM    9  N2  UNL     1     -21.028 -30.172  19.759  1.00  0.00    -0.026 N 
ATOM     10  H21 UNL     1     -20.920 -30.941  20.421  1.00  0.00     0.281 HD
ATOM     11  H22 UNL     1     -20.879 -30.704  18.902  1.00  0.00     0.281 HD
ENDROOT
BRANCH   1  12
HETATM   12  C2  UNL     1     -18.645 -29.599  20.091  1.00  0.00     0.082 C 
HETATM   13  C1  UNL     1     -17.740 -29.302  18.960  1.00  0.00     0.011 C 
ENDBRANCH   1  12
TORSDOF 1
ENDMDL
