MODEL 1
REMARK VINA RESULT: -4.696133501      0.000      0.000
REMARK  1 active torsions:
REMARK  status: ('A' for Active; 'I' for Inactive)
REMARK    1  A    between atoms: N1_2  and  C2_4 
ROOT
HETATM    1  C2  UNL     1     -18.687 -26.953  15.385  1.00  0.00     0.217 C 
HETATM    2  C3  UNL     1     -18.391 -27.639  14.045  1.00  0.00     0.078 C 
HETATM    3  C4  UNL     1     -17.146 -28.461  14.106  1.00  0.00     0.039 C 
HETATM    4  C5  UNL     1     -16.749 -28.799  12.686  1.00  0.00     0.033 C 
HETATM    5 CL1  UNL     1     -17.485 -29.930  15.041  1.00  0.00    -0.119 Cl
HETATM    6  C6  UNL     1     -16.001 -27.736  14.764  1.00  0.00     0.051 C 
HETATM    7  C7  UNL     1     -16.419 -26.802  15.847  1.00  0.00     0.172 C 
HETATM    8  O1  UNL     1     -17.594 -26.123  15.615  1.00  0.00    -0.367 OA
ENDROOT
BRANCH   1   9
HETATM    9  N1  UNL     1     -19.845 -26.142  15.178  1.00  0.00    -0.401 N 
HETATM   10  C1  UNL     1     -20.155 -25.846  13.817  1.00  0.00     0.142 C 
ATOM     11  H1  UNL     1     -20.413 -25.798  15.953  1.00  0.00     0.155 HD
ENDBRANCH   1   9
TORSDOF 1
ENDMDL
MODEL 2
REMARK VINA RESULT: -4.614276442      1.698      2.142
REMARK  1 active torsions:
REMARK  status: ('A' for Active; 'I' for Inactive)
REMARK    1  A    between atoms: N1_2  and  C2_4 
ROOT
HETATM    1  C2  UNL     1     -19.603 -27.437  13.347  1.00  0.00     0.217 C 
HETATM    2  C3  UNL     1     -18.127 -27.821  13.189  1.00  0.00     0.078 C 
HETATM    3  C4  UNL     1     -17.445 -27.961  14.509  1.00  0.00     0.039 C 
HETATM    4  C5  UNL     1     -15.953 -27.986  14.257  1.00  0.00     0.033 C 
HETATM    5 CL1  UNL     1     -17.990 -29.469  15.269  1.00  0.00    -0.119 Cl
HETATM    6  C6  UNL     1     -17.753 -26.822  15.447  1.00  0.00     0.051 C 
HETATM    7  C7  UNL     1     -19.124 -26.262  15.288  1.00  0.00     0.172 C 
HETATM    8  O1  UNL     1     -19.588 -26.205  13.994  1.00  0.00    -0.367 OA
ENDROOT
BRANCH   1   9
HETATM    9  N1  UNL     1     -20.119 -27.257  12.026  1.00  0.00    -0.401 N 
HETATM   10  C1  UNL     1     -20.295 -25.903  11.613  1.00  0.00     0.142 C 
ATOM     11  H1  UNL     1     -20.347 -28.045  11.420  1.00  0.00     0.155 HD
ENDBRANCH   1   9
TORSDOF 1
ENDMDL
MODEL 3
REMARK VINA RESULT: -4.465962833      8.154      8.882
REMARK  1 active torsions:
REMARK  status: ('A' for Active; 'I' for Inactive)
REMARK    1  A    between atoms: N1_2  and  C2_4 
ROOT
HETATM    1  C2  UNL     1     -16.971 -35.111  16.221  1.00  0.00     0.217 C 
HETATM    2  C3  UNL     1     -18.318 -34.752  16.861  1.00  0.00     0.078 C 
HETATM    3  C4  UNL     1     -18.828 -35.850  17.735  1.00  0.00     0.039 C 
HETATM    4  C5  UNL     1     -20.285 -35.566  18.028  1.00  0.00     0.033 C 
HETATM    5 CL1  UNL     1     -17.869 -35.873  19.227  1.00  0.00    -0.119 Cl
HETATM    6  C6  UNL     1     -18.725 -37.206  17.086  1.00  0.00     0.051 C 
HETATM    7  C7  UNL     1     -17.549 -37.356  16.182  1.00  0.00     0.172 C 
HETATM    8  O1  UNL     1     -17.228 -36.239  15.447  1.00  0.00    -0.367 OA
ENDROOT
BRANCH   1   9
HETATM    9  N1  UNL     1     -16.632 -34.026  15.355  1.00  0.00    -0.401 N 
HETATM   10  C1  UNL     1     -17.596 -32.977  15.274  1.00  0.00     0.142 C 
ATOM     11  H1  UNL     1     -15.757 -34.003  14.830  1.00  0.00     0.155 HD
ENDBRANCH   1   9
TORSDOF 1
ENDMDL
MODEL 4
REMARK VINA RESULT: -4.259606325      2.584      3.246
REMARK  1 active torsions:
REMARK  status: ('A' for Active; 'I' for Inactive)
REMARK    1  A    between atoms: N1_2  and  C2_4 
ROOT
HETATM    1  C2  UNL     1     -18.006 -28.502  16.882  1.00  0.00     0.217 C 
HETATM    2  C3  UNL     1     -17.459 -29.132  15.595  1.00  0.00     0.078 C 
HETATM    3  C4  UNL     1     -17.153 -28.101  14.560  1.00  0.00     0.039 C 
HETATM    4  C5  UNL     1     -16.965 -28.817  13.240  1.00  0.00     0.033 C 
HETATM    5 CL1  UNL     1     -15.675 -27.243  15.037  1.00  0.00    -0.119 Cl
HETATM    6  C6  UNL     1     -18.257 -27.088  14.402  1.00  0.00     0.051 C 
HETATM    7  C7  UNL     1     -18.987 -26.788  15.666  1.00  0.00     0.172 C 
HETATM    8  O1  UNL     1     -19.183 -27.865  16.500  1.00  0.00    -0.367 OA
ENDROOT
BRANCH   1   9
HETATM    9  N1  UNL     1     -18.332 -29.584  17.757  1.00  0.00    -0.401 N 
HETATM   10  C1  UNL     1     -18.221 -29.304  19.152  1.00  0.00     0.142 C 
ATOM     11  H1  UNL     1     -18.625 -30.497  17.407  1.00  0.00     0.155 HD
ENDBRANCH   1   9
TORSDOF 1
ENDMDL
MODEL 5
REMARK VINA RESULT: -3.973213600      2.056      2.650
REMARK  1 active torsions:
REMARK  status: ('A' for Active; 'I' for Inactive)
REMARK    1  A    between atoms: N1_2  and  C2_4 
ROOT
HETATM    1  C2  UNL     1     -18.684 -26.828  13.641  1.00  0.00     0.217 C 
HETATM    2  C3  UNL     1     -18.814 -27.343  15.080  1.00  0.00     0.078 C 
HETATM    3  C4  UNL     1     -17.544 -27.959  15.567  1.00  0.00     0.039 C 
HETATM    4  C5  UNL     1     -17.862 -28.738  16.824  1.00  0.00     0.033 C 
HETATM    5 CL1  UNL     1     -16.379 -26.662  15.897  1.00  0.00    -0.119 Cl
HETATM    6  C6  UNL     1     -16.931 -28.900  14.562  1.00  0.00     0.051 C 
HETATM    7  C7  UNL     1     -17.159 -28.502  13.144  1.00  0.00     0.172 C 
HETATM    8  O1  UNL     1     -18.393 -27.955  12.879  1.00  0.00    -0.367 OA
ENDROOT
BRANCH   1   9
HETATM    9  N1  UNL     1     -19.974 -26.339  13.267  1.00  0.00    -0.401 N 
HETATM   10  C1  UNL     1     -20.256 -26.353  11.868  1.00  0.00     0.142 C 
ATOM     11  H1  UNL     1     -20.648 -26.003  13.955  1.00  0.00     0.155 HD
ENDBRANCH   1   9
TORSDOF 1
ENDMDL
