MODEL 1
REMARK VINA RESULT: -3.977983910      0.000      0.000
REMARK  1 active torsions:
REMARK  status: ('A' for Active; 'I' for Inactive)
REMARK    1  A    between atoms: C2_2  and  N1_4 
ROOT
HETATM    1  N1  UNL     1     -18.212 -26.916  14.076  1.00  0.00     0.142 N 
HETATM    2  C4  UNL     1     -17.876 -28.340  14.106  1.00  0.00     0.406 C 
HETATM    3  N2  UNL     1     -18.523 -28.765  15.332  1.00  0.00    -0.115 NA
HETATM    4  N3  UNL     1     -18.771 -27.635  16.098  1.00  0.00    -0.095 NA
HETATM    5  C5  UNL     1     -17.969 -26.610  15.487  1.00  0.00     0.429 C 
HETATM    6 CL1  UNL     1     -16.240 -26.941  15.771  1.00  0.00    -0.072 Cl
ENDROOT
BRANCH   1   7
HETATM    7  C2  UNL     1     -19.640 -26.868  13.859  1.00  0.00     0.220 C 
HETATM    8  C1  UNL     1     -20.254 -25.544  14.192  1.00  0.00     0.042 C 
HETATM    9  C3  UNL     1     -19.957 -27.234  12.436  1.00  0.00     0.042 C 
ENDBRANCH   1   7
TORSDOF 1
ENDMDL
MODEL 2
REMARK VINA RESULT: -3.860999546      1.717      2.308
REMARK  1 active torsions:
REMARK  status: ('A' for Active; 'I' for Inactive)
REMARK    1  A    between atoms: C2_2  and  N1_4 
ROOT
HETATM    1  N1  UNL     1     -18.635 -28.060  14.772  1.00  0.00     0.142 N 
HETATM    2  C4  UNL     1     -18.085 -28.263  16.113  1.00  0.00     0.406 C 
HETATM    3  N2  UNL     1     -16.919 -27.402  16.082  1.00  0.00    -0.115 NA
HETATM    4  N3  UNL     1     -16.617 -27.140  14.753  1.00  0.00    -0.095 NA
HETATM    5  C5  UNL     1     -17.381 -28.111  14.018  1.00  0.00     0.429 C 
HETATM    6 CL1  UNL     1     -16.711 -29.741  14.288  1.00  0.00    -0.072 Cl
ENDROOT
BRANCH   1   7
HETATM    7  C2  UNL     1     -19.099 -26.691  14.756  1.00  0.00     0.220 C 
HETATM    8  C1  UNL     1     -19.773 -26.301  13.476  1.00  0.00     0.042 C 
HETATM    9  C3  UNL     1     -20.023 -26.447  15.914  1.00  0.00     0.042 C 
ENDBRANCH   1   7
TORSDOF 1
ENDMDL
MODEL 3
REMARK VINA RESULT: -3.801701313      1.622      2.436
REMARK  1 active torsions:
REMARK  status: ('A' for Active; 'I' for Inactive)
REMARK    1  A    between atoms: C2_2  and  N1_4 
ROOT
HETATM    1  N1  UNL     1     -19.867 -26.958  14.569  1.00  0.00     0.142 N 
HETATM    2  C4  UNL     1     -20.203 -26.274  15.818  1.00  0.00     0.406 C 
HETATM    3  N2  UNL     1     -19.116 -25.321  15.929  1.00  0.00    -0.115 NA
HETATM    4  N3  UNL     1     -18.085 -25.752  15.105  1.00  0.00    -0.095 NA
HETATM    5  C5  UNL     1     -18.428 -27.112  14.790  1.00  0.00     0.429 C 
HETATM    6 CL1  UNL     1     -18.261 -28.132  16.243  1.00  0.00    -0.072 Cl
ENDROOT
BRANCH   1   7
HETATM    7  C2  UNL     1     -20.045 -25.965  13.534  1.00  0.00     0.220 C 
HETATM    8  C1  UNL     1     -19.874 -26.506  12.147  1.00  0.00     0.042 C 
HETATM    9  C3  UNL     1     -21.396 -25.320  13.666  1.00  0.00     0.042 C 
ENDBRANCH   1   7
TORSDOF 1
ENDMDL
MODEL 4
REMARK VINA RESULT: -3.765923807      2.170      3.410
REMARK  1 active torsions:
REMARK  status: ('A' for Active; 'I' for Inactive)
REMARK    1  A    between atoms: C2_2  and  N1_4 
ROOT
HETATM    1  N1  UNL     1     -18.320 -26.582  14.489  1.00  0.00     0.142 N 
HETATM    2  C4  UNL     1     -18.545 -25.320  15.196  1.00  0.00     0.406 C 
HETATM    3  N2  UNL     1     -19.544 -25.708  16.172  1.00  0.00    -0.115 NA
HETATM    4  N3  UNL     1     -20.123 -26.895  15.743  1.00  0.00    -0.095 NA
HETATM    5  C5  UNL     1     -19.715 -27.010  14.369  1.00  0.00     0.429 C 
HETATM    6 CL1  UNL     1     -20.530 -25.765  13.387  1.00  0.00    -0.072 Cl
ENDROOT
BRANCH   1   7
HETATM    7  C2  UNL     1     -17.679 -27.446  15.453  1.00  0.00     0.220 C 
HETATM    8  C1  UNL     1     -17.609 -28.879  15.021  1.00  0.00     0.042 C 
HETATM    9  C3  UNL     1     -16.299 -26.939  15.763  1.00  0.00     0.042 C 
ENDBRANCH   1   7
TORSDOF 1
ENDMDL
MODEL 5
REMARK VINA RESULT: -3.716557257      7.950      9.072
REMARK  1 active torsions:
REMARK  status: ('A' for Active; 'I' for Inactive)
REMARK    1  A    between atoms: C2_2  and  N1_4 
ROOT
HETATM    1  N1  UNL     1     -18.801 -35.451  17.112  1.00  0.00     0.142 N 
HETATM    2  C4  UNL     1     -19.829 -35.113  18.097  1.00  0.00     0.406 C 
HETATM    3  N2  UNL     1     -19.072 -35.151  19.333  1.00  0.00    -0.115 NA
HETATM    4  N3  UNL     1     -17.909 -35.873  19.099  1.00  0.00    -0.095 NA
HETATM    5  C5  UNL     1     -18.151 -36.538  17.847  1.00  0.00     0.429 C 
HETATM    6 CL1  UNL     1     -19.394 -37.799  18.060  1.00  0.00    -0.072 Cl
ENDROOT
BRANCH   1   7
HETATM    7  C2  UNL     1     -17.895 -34.325  17.108  1.00  0.00     0.220 C 
HETATM    8  C1  UNL     1     -16.693 -34.524  16.238  1.00  0.00     0.042 C 
HETATM    9  C3  UNL     1     -18.625 -33.079  16.692  1.00  0.00     0.042 C 
ENDBRANCH   1   7
TORSDOF 1
ENDMDL
