MODEL 1
REMARK VINA RESULT: -5.229135993      0.000      0.000
REMARK  1 active torsions:
REMARK  status: ('A' for Active; 'I' for Inactive)
REMARK    1  A    between atoms: C7_7  and  N1_8 
ROOT
HETATM    1  N1  UNL     1       2.490  37.043 -13.817  1.00  0.00    -0.324 N 
ATOM      2  H1  UNL     1       3.159  36.448 -13.328  1.00  0.00     0.172 HD
HETATM    3  C8  UNL     1       2.543  38.413 -13.590  1.00  0.00     0.177 C 
HETATM    4  N2  UNL     1       2.568  39.554 -13.402  1.00  0.00    -0.172 NA
ENDROOT
BRANCH   1   5
HETATM    5  C7  UNL     1       1.545  36.415 -14.705  1.00  0.00     0.096 C 
HETATM    6  C2  UNL     1       0.436  35.710 -13.988  1.00  0.00     0.005 C 
HETATM    7  C1  UNL     1       0.994  34.660 -13.055  1.00  0.00     0.012 C 
HETATM    8  C3  UNL     1      -0.306  34.935 -15.087  1.00  0.00     0.006 C 
HETATM    9  C4  UNL     1      -0.912  35.855 -16.083  1.00  0.00     0.001 C 
HETATM   10  C5  UNL     1      -0.368  37.223 -16.130  1.00  0.00     0.002 C 
HETATM   11  C6  UNL     1       1.014  37.437 -15.664  1.00  0.00     0.026 C 
ENDBRANCH   1   5
TORSDOF 1
ENDMDL
MODEL 2
REMARK VINA RESULT: -5.031731496      4.342      6.167
REMARK  1 active torsions:
REMARK  status: ('A' for Active; 'I' for Inactive)
REMARK    1  A    between atoms: C7_7  and  N1_8 
ROOT
HETATM    1  N1  UNL     1      -1.078  30.925 -13.407  1.00  0.00    -0.324 N 
ATOM      2  H1  UNL     1      -1.813  30.996 -12.703  1.00  0.00     0.172 HD
HETATM    3  C8  UNL     1      -0.706  29.659 -13.840  1.00  0.00     0.177 C 
HETATM    4  N2  UNL     1      -0.378  28.610 -14.202  1.00  0.00    -0.172 NA
ENDROOT
BRANCH   1   5
HETATM    5  C7  UNL     1      -0.487  32.144 -13.897  1.00  0.00     0.096 C 
HETATM    6  C2  UNL     1      -1.494  33.196 -14.240  1.00  0.00     0.005 C 
HETATM    7  C1  UNL     1      -2.466  32.680 -15.276  1.00  0.00     0.012 C 
HETATM    8  C3  UNL     1      -0.684  34.296 -14.943  1.00  0.00     0.006 C 
HETATM    9  C4  UNL     1       0.320  34.898 -14.029  1.00  0.00     0.001 C 
HETATM   10  C5  UNL     1       0.680  34.108 -12.839  1.00  0.00     0.002 C 
HETATM   11  C6  UNL     1       0.511  32.645 -12.898  1.00  0.00     0.026 C 
ENDBRANCH   1   5
TORSDOF 1
ENDMDL
MODEL 3
REMARK VINA RESULT: -4.987810934      2.083      3.866
REMARK  1 active torsions:
REMARK  status: ('A' for Active; 'I' for Inactive)
REMARK    1  A    between atoms: C7_7  and  N1_8 
ROOT
HETATM    1  N1  UNL     1      -0.125  35.738 -14.352  1.00  0.00    -0.324 N 
ATOM      2  H1  UNL     1      -0.869  36.383 -14.618  1.00  0.00     0.172 HD
HETATM    3  C8  UNL     1       1.190  36.172 -14.462  1.00  0.00     0.177 C 
HETATM    4  N2  UNL     1       2.291  36.517 -14.559  1.00  0.00    -0.172 NA
ENDROOT
BRANCH   1   5
HETATM    5  C7  UNL     1      -0.498  34.428 -13.882  1.00  0.00     0.096 C 
HETATM    6  C2  UNL     1      -0.622  33.418 -14.980  1.00  0.00     0.005 C 
HETATM    7  C1  UNL     1      -1.637  33.871 -16.003  1.00  0.00     0.012 C 
HETATM    8  C3  UNL     1      -1.238  32.183 -14.303  1.00  0.00     0.006 C 
HETATM    9  C4  UNL     1      -0.334  31.627 -13.264  1.00  0.00     0.001 C 
HETATM   10  C5  UNL     1       0.713  32.530 -12.753  1.00  0.00     0.002 C 
HETATM   11  C6  UNL     1       0.478  33.982 -12.835  1.00  0.00     0.026 C 
ENDBRANCH   1   5
TORSDOF 1
ENDMDL
MODEL 4
REMARK VINA RESULT: -4.933465436      2.042      3.128
REMARK  1 active torsions:
REMARK  status: ('A' for Active; 'I' for Inactive)
REMARK    1  A    between atoms: C7_7  and  N1_8 
ROOT
HETATM    1  N1  UNL     1       0.543  38.020 -16.062  1.00  0.00    -0.324 N 
ATOM      2  H1  UNL     1      -0.113  38.690 -15.661  1.00  0.00     0.172 HD
HETATM    3  C8  UNL     1       1.149  38.340 -17.271  1.00  0.00     0.177 C 
HETATM    4  N2  UNL     1       1.653  38.589 -18.283  1.00  0.00    -0.172 NA
ENDROOT
BRANCH   1   5
HETATM    5  C7  UNL     1       0.790  36.797 -15.344  1.00  0.00     0.096 C 
HETATM    6  C2  UNL     1       1.232  37.017 -13.931  1.00  0.00     0.005 C 
HETATM    7  C1  UNL     1       2.485  37.861 -13.894  1.00  0.00     0.012 C 
HETATM    8  C3  UNL     1       1.653  35.626 -13.433  1.00  0.00     0.006 C 
HETATM    9  C4  UNL     1       0.504  34.686 -13.416  1.00  0.00     0.001 C 
HETATM   10  C5  UNL     1      -0.658  35.054 -14.244  1.00  0.00     0.002 C 
HETATM   11  C6  UNL     1      -0.432  35.931 -15.407  1.00  0.00     0.026 C 
ENDBRANCH   1   5
TORSDOF 1
ENDMDL
MODEL 5
REMARK VINA RESULT: -4.889395284      1.820      3.476
REMARK  1 active torsions:
REMARK  status: ('A' for Active; 'I' for Inactive)
REMARK    1  A    between atoms: C7_7  and  N1_8 
ROOT
HETATM    1  N1  UNL     1       1.318  35.089 -12.936  1.00  0.00    -0.324 N 
ATOM      2  H1  UNL     1       2.160  35.416 -12.462  1.00  0.00     0.172 HD
HETATM    3  C8  UNL     1       0.921  33.772 -12.735  1.00  0.00     0.177 C 
HETATM    4  N2  UNL     1       0.585  32.675 -12.585  1.00  0.00    -0.172 NA
ENDROOT
BRANCH   1   5
HETATM    5  C7  UNL     1       0.607  36.018 -13.777  1.00  0.00     0.096 C 
HETATM    6  C2  UNL     1       1.507  36.836 -14.649  1.00  0.00     0.005 C 
HETATM    7  C1  UNL     1       2.501  37.605 -13.810  1.00  0.00     0.012 C 
HETATM    8  C3  UNL     1       0.585  37.894 -15.274  1.00  0.00     0.006 C 
HETATM    9  C4  UNL     1      -0.451  37.270 -16.136  1.00  0.00     0.001 C 
HETATM   10  C5  UNL     1      -0.713  35.837 -15.914  1.00  0.00     0.002 C 
HETATM   11  C6  UNL     1      -0.412  35.274 -14.585  1.00  0.00     0.026 C 
ENDBRANCH   1   5
TORSDOF 1
ENDMDL
