MODEL 1
REMARK VINA RESULT: -4.569461675      0.000      0.000
REMARK  1 active torsions:
REMARK  status: ('A' for Active; 'I' for Inactive)
REMARK    1  A    between atoms: C2_2  and  C3_3 
ROOT
HETATM    1  C3  UNL     1      -1.256  30.326 -13.551  1.00  0.00     0.208 C 
HETATM    2  C4  UNL     1      -1.015  31.603 -14.359  1.00  0.00     0.067 C 
HETATM    3  N1  UNL     1      -1.981  29.421 -14.405  1.00  0.00    -0.106 NA
HETATM    4  N2  UNL     1      -3.207  29.167 -13.845  1.00  0.00    -0.107 NA
HETATM    5  C5  UNL     1      -3.411  30.043 -12.730  1.00  0.00     0.205 C 
HETATM    6  C6  UNL     1      -4.036  29.379 -11.551  1.00  0.00     0.067 C 
HETATM    7  C7  UNL     1      -4.349  31.182 -13.159  1.00  0.00     0.067 C 
HETATM    8  N3  UNL     1      -2.143  30.621 -12.514  1.00  0.00    -0.027 N 
ATOM      9  H31 UNL     1      -2.215  31.628 -12.361  1.00  0.00     0.282 HD
ATOM     10  H32 UNL     1      -1.760  30.349 -11.609  1.00  0.00     0.282 HD
ENDROOT
BRANCH   1  11
HETATM   11  C2  UNL     1       0.039  29.688 -13.159  1.00  0.00     0.053 C 
HETATM   12  C1  UNL     1       0.496  28.612 -14.091  1.00  0.00     0.009 C 
ENDBRANCH   1  11
TORSDOF 1
ENDMDL
MODEL 2
REMARK VINA RESULT: -4.488731484      1.308      3.793
REMARK  1 active torsions:
REMARK  status: ('A' for Active; 'I' for Inactive)
REMARK    1  A    between atoms: C2_2  and  C3_3 
ROOT
HETATM    1  C3  UNL     1      -2.995  30.155 -13.699  1.00  0.00     0.208 C 
HETATM    2  C4  UNL     1      -3.402  28.705 -13.969  1.00  0.00     0.067 C 
HETATM    3  N1  UNL     1      -2.559  30.708 -14.955  1.00  0.00    -0.106 NA
HETATM    4  N2  UNL     1      -1.236  31.058 -14.851  1.00  0.00    -0.107 NA
HETATM    5  C5  UNL     1      -0.710  30.564 -13.614  1.00  0.00     0.205 C 
HETATM    6  C6  UNL     1       0.186  31.529 -12.916  1.00  0.00     0.067 C 
HETATM    7  C7  UNL     1       0.116  29.299 -13.896  1.00  0.00     0.067 C 
HETATM    8  N3  UNL     1      -1.853  30.151 -12.898  1.00  0.00    -0.027 N 
ATOM      9  H31 UNL     1      -1.708  29.241 -12.460  1.00  0.00     0.282 HD
ATOM     10  H32 UNL     1      -1.987  30.712 -12.057  1.00  0.00     0.282 HD
ENDROOT
BRANCH   1  11
HETATM   11  C2  UNL     1      -4.158  30.952 -13.198  1.00  0.00     0.053 C 
HETATM   12  C1  UNL     1      -5.251  31.136 -14.203  1.00  0.00     0.009 C 
ENDBRANCH   1  11
TORSDOF 1
ENDMDL
MODEL 3
REMARK VINA RESULT: -4.458146636      3.833      5.484
REMARK  1 active torsions:
REMARK  status: ('A' for Active; 'I' for Inactive)
REMARK    1  A    between atoms: C2_2  and  C3_3 
ROOT
HETATM    1  C3  UNL     1      -0.182  34.919 -14.317  1.00  0.00     0.208 C 
HETATM    2  C4  UNL     1       0.806  34.633 -13.184  1.00  0.00     0.067 C 
HETATM    3  N1  UNL     1      -1.503  34.832 -13.753  1.00  0.00    -0.106 NA
HETATM    4  N2  UNL     1      -2.183  33.810 -14.367  1.00  0.00    -0.107 NA
HETATM    5  C5  UNL     1      -1.279  33.068 -15.193  1.00  0.00     0.205 C 
HETATM    6  C6  UNL     1      -1.852  32.680 -16.513  1.00  0.00     0.067 C 
HETATM    7  C7  UNL     1      -0.894  31.769 -14.466  1.00  0.00     0.067 C 
HETATM    8  N3  UNL     1      -0.118  33.868 -15.234  1.00  0.00    -0.027 N 
ATOM      9  H31 UNL     1       0.724  33.309 -15.100  1.00  0.00     0.282 HD
ATOM     10  H32 UNL     1       0.065  34.209 -16.177  1.00  0.00     0.282 HD
ENDROOT
BRANCH   1  11
HETATM   11  C2  UNL     1       0.020  36.296 -14.867  1.00  0.00     0.053 C 
HETATM   12  C1  UNL     1       1.410  36.821 -14.703  1.00  0.00     0.009 C 
ENDBRANCH   1  11
TORSDOF 1
ENDMDL
MODEL 4
REMARK VINA RESULT: -4.439793516      1.532      1.913
REMARK  1 active torsions:
REMARK  status: ('A' for Active; 'I' for Inactive)
REMARK    1  A    between atoms: C2_2  and  C3_3 
ROOT
HETATM    1  C3  UNL     1      -1.071  31.404 -13.773  1.00  0.00     0.208 C 
HETATM    2  C4  UNL     1      -1.079  32.598 -14.730  1.00  0.00     0.067 C 
HETATM    3  N1  UNL     1      -0.876  30.225 -14.576  1.00  0.00    -0.106 NA
HETATM    4  N2  UNL     1      -1.978  29.416 -14.453  1.00  0.00    -0.107 NA
HETATM    5  C5  UNL     1      -3.006  30.118 -13.745  1.00  0.00     0.205 C 
HETATM    6  C6  UNL     1      -3.727  29.279 -12.747  1.00  0.00     0.067 C 
HETATM    7  C7  UNL     1      -4.051  30.621 -14.754  1.00  0.00     0.067 C 
HETATM    8  N3  UNL     1      -2.351  31.260 -13.237  1.00  0.00    -0.027 N 
ATOM      9  H31 UNL     1      -2.910  32.102 -13.376  1.00  0.00     0.282 HD
ATOM     10  H32 UNL     1      -2.328  31.252 -12.217  1.00  0.00     0.282 HD
ENDROOT
BRANCH   1  11
HETATM   11  C2  UNL     1       0.054  31.512 -12.793  1.00  0.00     0.053 C 
HETATM   12  C1  UNL     1       0.635  32.886 -12.680  1.00  0.00     0.009 C 
ENDBRANCH   1  11
TORSDOF 1
ENDMDL
MODEL 5
REMARK VINA RESULT: -4.400055747      3.449      5.070
REMARK  1 active torsions:
REMARK  status: ('A' for Active; 'I' for Inactive)
REMARK    1  A    between atoms: C2_2  and  C3_3 
ROOT
HETATM    1  C3  UNL     1      -1.278  33.075 -15.171  1.00  0.00     0.208 C 
HETATM    2  C4  UNL     1      -1.849  33.173 -16.587  1.00  0.00     0.067 C 
HETATM    3  N1  UNL     1      -2.173  33.799 -14.307  1.00  0.00    -0.106 NA
HETATM    4  N2  UNL     1      -1.495  34.854 -13.749  1.00  0.00    -0.107 NA
HETATM    5  C5  UNL     1      -0.213  34.981 -14.377  1.00  0.00     0.205 C 
HETATM    6  C6  UNL     1       0.894  35.279 -13.425  1.00  0.00     0.067 C 
HETATM    7  C7  UNL     1      -0.268  36.139 -15.387  1.00  0.00     0.067 C 
HETATM    8  N3  UNL     1      -0.082  33.794 -15.127  1.00  0.00    -0.027 N 
ATOM      9  H31 UNL     1       0.272  33.984 -16.065  1.00  0.00     0.282 HD
ATOM     10  H32 UNL     1       0.685  33.218 -14.781  1.00  0.00     0.282 HD
ENDROOT
BRANCH   1  11
HETATM   11  C2  UNL     1      -1.216  31.650 -14.718  1.00  0.00     0.053 C 
HETATM   12  C1  UNL     1      -0.384  31.435 -13.494  1.00  0.00     0.009 C 
ENDBRANCH   1  11
TORSDOF 1
ENDMDL
