MODEL 1
REMARK VINA RESULT: -3.988804262      0.000      0.000
REMARK  1 active torsions:
REMARK  status: ('A' for Active; 'I' for Inactive)
REMARK    1  A    between atoms: N1_2  and  C2_4 
ROOT
HETATM    1  C2  UNL     1      -3.764  29.183 -12.112  1.00  0.00     0.284 C 
HETATM    2  N2  UNL     1      -4.053  28.923 -13.514  1.00  0.00    -0.050 N 
ATOM      3  H21 UNL     1      -4.981  29.234 -13.798  1.00  0.00     0.280 HD
ATOM      4  H22 UNL     1      -4.182  27.932 -13.721  1.00  0.00     0.280 HD
HETATM    5  C3  UNL     1      -2.989  29.531 -14.278  1.00  0.00     0.188 C 
HETATM    6  C4  UNL     1      -3.383  31.002 -14.474  1.00  0.00     0.033 C 
HETATM    7  C5  UNL     1      -3.874  31.477 -13.116  1.00  0.00     0.010 C 
HETATM    8  C6  UNL     1      -3.285  30.597 -12.017  1.00  0.00     0.036 C 
HETATM    9  C7  UNL     1      -1.783  30.569 -12.358  1.00  0.00     0.010 C 
HETATM   10  C8  UNL     1      -1.677  29.569 -13.512  1.00  0.00     0.033 C 
ENDROOT
BRANCH   1  11
HETATM   11  N1  UNL     1      -4.805  28.857 -11.217  1.00  0.00    -0.400 N 
HETATM   12  C1  UNL     1      -6.088  28.610 -11.740  1.00  0.00     0.142 C 
ATOM     13  H1  UNL     1      -4.632  28.803 -10.213  1.00  0.00     0.154 HD
ENDBRANCH   1  11
TORSDOF 1
ENDMDL
MODEL 2
REMARK VINA RESULT: -3.978639999      1.845      2.838
REMARK  1 active torsions:
REMARK  status: ('A' for Active; 'I' for Inactive)
REMARK    1  A    between atoms: N1_2  and  C2_4 
ROOT
HETATM    1  C2  UNL     1      -2.457  30.680 -12.454  1.00  0.00     0.284 C 
HETATM    2  N2  UNL     1      -1.096  30.620 -11.943  1.00  0.00    -0.050 N 
ATOM      3  H21 UNL     1      -0.851  29.709 -11.555  1.00  0.00     0.280 HD
ATOM      4  H22 UNL     1      -0.962  31.162 -11.089  1.00  0.00     0.280 HD
HETATM    5  C3  UNL     1      -0.229  31.033 -13.022  1.00  0.00     0.188 C 
HETATM    6  C4  UNL     1       0.037  29.779 -13.867  1.00  0.00     0.033 C 
HETATM    7  C5  UNL     1      -1.314  29.105 -14.034  1.00  0.00     0.010 C 
HETATM    8  C6  UNL     1      -2.430  30.129 -13.844  1.00  0.00     0.036 C 
HETATM    9  C7  UNL     1      -1.998  31.290 -14.760  1.00  0.00     0.010 C 
HETATM   10  C8  UNL     1      -0.907  32.013 -13.965  1.00  0.00     0.033 C 
ENDROOT
BRANCH   1  11
HETATM   11  N1  UNL     1      -3.435  30.102 -11.616  1.00  0.00    -0.400 N 
HETATM   12  C1  UNL     1      -4.540  29.466 -12.212  1.00  0.00     0.142 C 
ATOM     13  H1  UNL     1      -3.343  30.145 -10.601  1.00  0.00     0.154 HD
ENDBRANCH   1  11
TORSDOF 1
ENDMDL
MODEL 3
REMARK VINA RESULT: -3.974293339      1.808      3.541
REMARK  1 active torsions:
REMARK  status: ('A' for Active; 'I' for Inactive)
REMARK    1  A    between atoms: N1_2  and  C2_4 
ROOT
HETATM    1  C2  UNL     1      -1.555  29.710 -13.273  1.00  0.00     0.284 C 
HETATM    2  N2  UNL     1      -1.810  30.765 -12.303  1.00  0.00    -0.050 N 
ATOM      3  H21 UNL     1      -1.552  31.692 -12.639  1.00  0.00     0.280 HD
ATOM      4  H22 UNL     1      -1.177  30.737 -11.503  1.00  0.00     0.280 HD
HETATM    5  C3  UNL     1      -3.202  30.660 -11.932  1.00  0.00     0.188 C 
HETATM    6  C4  UNL     1      -3.992  31.445 -12.989  1.00  0.00     0.033 C 
HETATM    7  C5  UNL     1      -3.405  31.031 -14.328  1.00  0.00     0.010 C 
HETATM    8  C6  UNL     1      -2.729  29.668 -14.197  1.00  0.00     0.036 C 
HETATM    9  C7  UNL     1      -3.801  28.813 -13.497  1.00  0.00     0.010 C 
HETATM   10  C8  UNL     1      -3.719  29.233 -12.027  1.00  0.00     0.033 C 
ENDROOT
BRANCH   1  11
HETATM   11  N1  UNL     1      -0.303  29.785 -13.920  1.00  0.00    -0.400 N 
HETATM   12  C1  UNL     1       0.470  28.613 -14.027  1.00  0.00     0.142 C 
ATOM     13  H1  UNL     1       0.034  30.669 -14.302  1.00  0.00     0.154 HD
ENDBRANCH   1  11
TORSDOF 1
ENDMDL
MODEL 4
REMARK VINA RESULT: -3.946689784      3.200      4.574
REMARK  1 active torsions:
REMARK  status: ('A' for Active; 'I' for Inactive)
REMARK    1  A    between atoms: N1_2  and  C2_4 
ROOT
HETATM    1  C2  UNL     1       0.203  31.891 -12.936  1.00  0.00     0.284 C 
HETATM    2  N2  UNL     1      -0.014  31.020 -11.791  1.00  0.00    -0.050 N 
ATOM      3  H21 UNL     1      -0.596  31.442 -11.068  1.00  0.00     0.280 HD
ATOM      4  H22 UNL     1       0.822  30.888 -11.222  1.00  0.00     0.280 HD
HETATM    5  C3  UNL     1      -0.554  29.783 -12.306  1.00  0.00     0.188 C 
HETATM    6  C4  UNL     1      -2.070  29.991 -12.432  1.00  0.00     0.033 C 
HETATM    7  C5  UNL     1      -2.243  31.359 -13.069  1.00  0.00     0.010 C 
HETATM    8  C6  UNL     1      -0.979  31.735 -13.839  1.00  0.00     0.036 C 
HETATM    9  C7  UNL     1      -0.706  30.484 -14.695  1.00  0.00     0.010 C 
HETATM   10  C8  UNL     1      -0.074  29.488 -13.719  1.00  0.00     0.033 C 
ENDROOT
BRANCH   1  11
HETATM   11  N1  UNL     1       0.521  33.228 -12.617  1.00  0.00    -0.400 N 
HETATM   12  C1  UNL     1       0.146  34.242 -13.518  1.00  0.00     0.142 C 
ATOM     13  H1  UNL     1       1.013  33.455 -11.752  1.00  0.00     0.154 HD
ENDBRANCH   1  11
TORSDOF 1
ENDMDL
MODEL 5
REMARK VINA RESULT: -3.928506888      2.658      4.304
REMARK  1 active torsions:
REMARK  status: ('A' for Active; 'I' for Inactive)
REMARK    1  A    between atoms: N1_2  and  C2_4 
ROOT
HETATM    1  C2  UNL     1      -1.359  31.988 -14.035  1.00  0.00     0.284 C 
HETATM    2  N2  UNL     1      -2.273  31.014 -14.612  1.00  0.00    -0.050 N 
ATOM      3  H21 UNL     1      -1.990  30.695 -15.538  1.00  0.00     0.280 HD
ATOM      4  H22 UNL     1      -3.170  31.416 -14.884  1.00  0.00     0.280 HD
HETATM    5  C3  UNL     1      -2.397  29.940 -13.653  1.00  0.00     0.188 C 
HETATM    6  C4  UNL     1      -1.222  28.989 -13.915  1.00  0.00     0.033 C 
HETATM    7  C5  UNL     1      -0.003  29.881 -14.085  1.00  0.00     0.010 C 
HETATM    8  C6  UNL     1      -0.245  31.222 -13.397  1.00  0.00     0.036 C 
HETATM    9  C7  UNL     1      -0.747  30.813 -11.999  1.00  0.00     0.010 C 
HETATM   10  C8  UNL     1      -2.210  30.420 -12.223  1.00  0.00     0.033 C 
ENDROOT
BRANCH   1  11
HETATM   11  N1  UNL     1      -0.939  33.007 -14.916  1.00  0.00    -0.400 N 
HETATM   12  C1  UNL     1      -0.548  34.246 -14.373  1.00  0.00     0.142 C 
ATOM     13  H1  UNL     1      -0.918  32.849 -15.924  1.00  0.00     0.154 HD
ENDBRANCH   1  11
TORSDOF 1
ENDMDL
