MODEL 1
REMARK VINA RESULT: -7.461024611      0.000      0.000
REMARK  9 active torsions:
REMARK  status: ('A' for Active; 'I' for Inactive)
REMARK    1  A    between atoms: C2_2  and  O2_4 
REMARK    2  A    between atoms: O2_4  and  C3_5 
REMARK    3  A    between atoms: C4_6  and  C5_7 
REMARK    4  A    between atoms: C5_7  and  C6_8 
REMARK    5  A    between atoms: C6_8  and  C7_9 
REMARK    6  A    between atoms: C6_8  and  C11_13 
REMARK    7  A    between atoms: C11_13  and  C12_14 
REMARK    8  A    between atoms: C27_29  and  O3_31 
REMARK    9  A    between atoms: C29_33  and  O4_34 
ROOT
HETATM    1  C3  UNL     1     -25.843 -18.200 -44.254  1.00  0.00     0.179 C 
HETATM    2  C4  UNL     1     -25.014 -19.220 -43.432  1.00  0.00     0.000 C 
HETATM    3  C16 UNL     1     -23.806 -19.544 -44.286  1.00  0.00     0.040 C 
HETATM    4  C17 UNL     1     -23.328 -18.270 -44.956  1.00  0.00    -0.023 C 
HETATM    5  C18 UNL     1     -23.545 -17.020 -44.600  1.00  0.00    -0.080 C 
HETATM    6  C19 UNL     1     -22.954 -15.984 -45.445  1.00  0.00     0.043 C 
HETATM    7  C20 UNL     1     -24.325 -16.528 -43.424  1.00  0.00     0.054 C 
HETATM    8  C21 UNL     1     -23.809 -17.290 -42.281  1.00  0.00     0.021 C 
HETATM    9  C22 UNL     1     -24.541 -18.615 -42.166  1.00  0.00     0.020 C 
HETATM   10  C23 UNL     1     -25.620 -18.378 -41.166  1.00  0.00    -0.025 C 
HETATM   11  C24 UNL     1     -26.411 -17.345 -40.875  1.00  0.00    -0.023 C 
HETATM   12  C25 UNL     1     -26.491 -15.990 -41.494  1.00  0.00     0.041 C 
HETATM   13  C26 UNL     1     -27.718 -15.318 -40.858  1.00  0.00     0.017 C 
HETATM   14  C27 UNL     1     -26.809 -16.236 -42.953  1.00  0.00     0.095 C 
HETATM   15  C28 UNL     1     -27.377 -14.880 -43.425  1.00  0.00     0.050 C 
HETATM   16  C29 UNL     1     -25.755 -16.779 -43.801  1.00  0.00     0.123 C 
ENDROOT
BRANCH   2  17
HETATM   17  C5  UNL     1     -25.883 -20.386 -43.179  1.00  0.00     0.025 C 
BRANCH  17  18
HETATM   18  C6  UNL     1     -25.697 -21.729 -42.796  1.00  0.00     0.032 C 
BRANCH  18  19
HETATM   19  C7  UNL     1     -27.007 -22.493 -43.166  1.00  0.00    -0.016 C 
HETATM   20  C8  UNL     1     -27.152 -23.181 -44.258  1.00  0.00    -0.091 C 
HETATM   21  C9  UNL     1     -26.050 -23.282 -45.242  1.00  0.00     0.042 C 
HETATM   22  C10 UNL     1     -28.437 -23.900 -44.573  1.00  0.00     0.042 C 
ENDBRANCH  18  19
BRANCH  18  23
HETATM   23  C11 UNL     1     -25.289 -22.387 -41.549  1.00  0.00    -0.018 C 
BRANCH  23  24
HETATM   24  C12 UNL     1     -26.235 -22.763 -40.511  1.00  0.00    -0.001 C 
HETATM   25  C13 UNL     1     -26.470 -22.196 -39.346  1.00  0.00    -0.088 C 
HETATM   26  C14 UNL     1     -27.516 -22.765 -38.401  1.00  0.00     0.043 C 
HETATM   27  C15 UNL     1     -25.733 -20.975 -38.943  1.00  0.00     0.043 C 
ENDBRANCH  23  24
ENDBRANCH  18  23
ENDBRANCH  17  18
ENDBRANCH   2  17
BRANCH   1  28
HETATM   28  O2  UNL     1     -27.177 -18.641 -44.442  1.00  0.00    -0.312 OA
BRANCH  28  29
HETATM   29  C2  UNL     1     -27.848 -18.668 -45.652  1.00  0.00     0.255 C 
HETATM   30  C1  UNL     1     -27.915 -19.952 -46.385  1.00  0.00     0.126 C 
HETATM   31  O1  UNL     1     -28.364 -17.618 -46.072  1.00  0.00    -0.266 OA
ENDBRANCH  28  29
ENDBRANCH   1  28
BRANCH  16  32
HETATM   32  O4  UNL     1     -25.888 -16.001 -45.011  1.00  0.00    -0.383 OA
ATOM     33  H4  UNL     1     -26.071 -15.119 -44.711  1.00  0.00     0.210 HD
ENDBRANCH  16  32
BRANCH  14  34
HETATM   34  O3  UNL     1     -27.944 -17.067 -42.910  1.00  0.00    -0.386 OA
ATOM     35  H3  UNL     1     -27.661 -17.856 -43.357  1.00  0.00     0.210 HD
ENDBRANCH  14  34
TORSDOF 9
ENDMDL
MODEL 2
REMARK VINA RESULT: -7.321228570      1.889      4.670
REMARK  9 active torsions:
REMARK  status: ('A' for Active; 'I' for Inactive)
REMARK    1  A    between atoms: C2_2  and  O2_4 
REMARK    2  A    between atoms: O2_4  and  C3_5 
REMARK    3  A    between atoms: C4_6  and  C5_7 
REMARK    4  A    between atoms: C5_7  and  C6_8 
REMARK    5  A    between atoms: C6_8  and  C7_9 
REMARK    6  A    between atoms: C6_8  and  C11_13 
REMARK    7  A    between atoms: C11_13  and  C12_14 
REMARK    8  A    between atoms: C27_29  and  O3_31 
REMARK    9  A    between atoms: C29_33  and  O4_34 
ROOT
HETATM    1  C3  UNL     1     -24.907 -18.227 -44.678  1.00  0.00     0.179 C 
HETATM    2  C4  UNL     1     -25.157 -17.259 -43.494  1.00  0.00     0.000 C 
HETATM    3  C16 UNL     1     -23.787 -16.938 -42.935  1.00  0.00     0.040 C 
HETATM    4  C17 UNL     1     -22.817 -16.776 -44.089  1.00  0.00    -0.023 C 
HETATM    5  C18 UNL     1     -23.075 -16.500 -45.352  1.00  0.00    -0.080 C 
HETATM    6  C19 UNL     1     -21.928 -16.405 -46.252  1.00  0.00     0.043 C 
HETATM    7  C20 UNL     1     -24.410 -16.265 -45.979  1.00  0.00     0.054 C 
HETATM    8  C21 UNL     1     -25.072 -15.287 -45.108  1.00  0.00     0.021 C 
HETATM    9  C22 UNL     1     -25.775 -15.998 -43.966  1.00  0.00     0.020 C 
HETATM   10  C23 UNL     1     -27.190 -16.144 -44.411  1.00  0.00    -0.025 C 
HETATM   11  C24 UNL     1     -27.779 -16.382 -45.583  1.00  0.00    -0.023 C 
HETATM   12  C25 UNL     1     -27.183 -16.597 -46.934  1.00  0.00     0.041 C 
HETATM   13  C26 UNL     1     -28.353 -17.010 -47.840  1.00  0.00     0.017 C 
HETATM   14  C27 UNL     1     -26.276 -17.800 -46.782  1.00  0.00     0.095 C 
HETATM   15  C28 UNL     1     -26.096 -18.291 -48.234  1.00  0.00     0.050 C 
HETATM   16  C29 UNL     1     -25.032 -17.629 -46.041  1.00  0.00     0.123 C 
ENDROOT
BRANCH   2  17
HETATM   17  C5  UNL     1     -26.033 -17.960 -42.534  1.00  0.00     0.025 C 
BRANCH  17  18
HETATM   18  C6  UNL     1     -26.275 -17.900 -41.147  1.00  0.00     0.032 C 
BRANCH  18  19
HETATM   19  C7  UNL     1     -26.614 -19.351 -40.682  1.00  0.00    -0.016 C 
HETATM   20  C8  UNL     1     -25.719 -20.274 -40.502  1.00  0.00    -0.091 C 
HETATM   21  C9  UNL     1     -24.283 -19.993 -40.736  1.00  0.00     0.042 C 
HETATM   22  C10 UNL     1     -26.095 -21.661 -40.055  1.00  0.00     0.042 C 
ENDBRANCH  18  19
BRANCH  18  23
HETATM   23  C11 UNL     1     -27.151 -17.083 -40.299  1.00  0.00    -0.018 C 
BRANCH  23  24
HETATM   24  C12 UNL     1     -27.801 -15.872 -40.772  1.00  0.00    -0.001 C 
HETATM   25  C13 UNL     1     -28.941 -15.728 -41.414  1.00  0.00    -0.088 C 
HETATM   26  C14 UNL     1     -29.435 -14.349 -41.821  1.00  0.00     0.043 C 
HETATM   27  C15 UNL     1     -29.779 -16.908 -41.729  1.00  0.00     0.043 C 
ENDBRANCH  23  24
ENDBRANCH  18  23
ENDBRANCH  17  18
ENDBRANCH   2  17
BRANCH   1  28
HETATM   28  O2  UNL     1     -25.639 -19.432 -44.531  1.00  0.00    -0.312 OA
BRANCH  28  29
HETATM   29  C2  UNL     1     -25.100 -20.658 -44.183  1.00  0.00     0.255 C 
HETATM   30  C1  UNL     1     -26.028 -21.789 -43.954  1.00  0.00     0.126 C 
HETATM   31  O1  UNL     1     -23.866 -20.759 -44.076  1.00  0.00    -0.266 OA
ENDBRANCH  28  29
ENDBRANCH   1  28
BRANCH  16  32
HETATM   32  O4  UNL     1     -24.079 -18.357 -46.848  1.00  0.00    -0.383 OA
ATOM     33  H4  UNL     1     -24.331 -19.268 -46.754  1.00  0.00     0.210 HD
ENDBRANCH  16  32
BRANCH  14  34
HETATM   34  O3  UNL     1     -27.111 -18.776 -46.209  1.00  0.00    -0.386 OA
ATOM     35  H3  UNL     1     -26.721 -19.596 -46.487  1.00  0.00     0.210 HD
ENDBRANCH  14  34
TORSDOF 9
ENDMDL
MODEL 3
REMARK VINA RESULT: -7.267943769      2.445      5.705
REMARK  9 active torsions:
REMARK  status: ('A' for Active; 'I' for Inactive)
REMARK    1  A    between atoms: C2_2  and  O2_4 
REMARK    2  A    between atoms: O2_4  and  C3_5 
REMARK    3  A    between atoms: C4_6  and  C5_7 
REMARK    4  A    between atoms: C5_7  and  C6_8 
REMARK    5  A    between atoms: C6_8  and  C7_9 
REMARK    6  A    between atoms: C6_8  and  C11_13 
REMARK    7  A    between atoms: C11_13  and  C12_14 
REMARK    8  A    between atoms: C27_29  and  O3_31 
REMARK    9  A    between atoms: C29_33  and  O4_34 
ROOT
HETATM    1  C3  UNL     1     -28.288 -17.204 -42.598  1.00  0.00     0.179 C 
HETATM    2  C4  UNL     1     -27.240 -16.471 -43.473  1.00  0.00     0.000 C 
HETATM    3  C16 UNL     1     -27.626 -15.007 -43.430  1.00  0.00     0.040 C 
HETATM    4  C17 UNL     1     -28.078 -14.665 -42.024  1.00  0.00    -0.023 C 
HETATM    5  C18 UNL     1     -27.808 -15.290 -40.895  1.00  0.00    -0.080 C 
HETATM    6  C19 UNL     1     -28.387 -14.728 -39.677  1.00  0.00     0.043 C 
HETATM    7  C20 UNL     1     -26.971 -16.513 -40.708  1.00  0.00     0.054 C 
HETATM    8  C21 UNL     1     -25.726 -16.236 -41.435  1.00  0.00     0.021 C 
HETATM    9  C22 UNL     1     -25.883 -16.612 -42.897  1.00  0.00     0.020 C 
HETATM   10  C23 UNL     1     -25.316 -17.986 -43.008  1.00  0.00    -0.025 C 
HETATM   11  C24 UNL     1     -25.308 -19.059 -42.216  1.00  0.00    -0.023 C 
HETATM   12  C25 UNL     1     -25.904 -19.261 -40.864  1.00  0.00     0.041 C 
HETATM   13  C26 UNL     1     -25.727 -20.755 -40.553  1.00  0.00     0.017 C 
HETATM   14  C27 UNL     1     -27.385 -19.003 -41.039  1.00  0.00     0.095 C 
HETATM   15  C28 UNL     1     -28.012 -19.698 -39.811  1.00  0.00     0.050 C 
HETATM   16  C29 UNL     1     -27.821 -17.626 -41.244  1.00  0.00     0.123 C 
ENDROOT
BRANCH   2  17
HETATM   17  C5  UNL     1     -27.313 -17.058 -44.825  1.00  0.00     0.025 C 
BRANCH  17  18
HETATM   18  C6  UNL     1     -26.827 -16.725 -46.106  1.00  0.00     0.032 C 
BRANCH  18  19
HETATM   19  C7  UNL     1     -26.866 -18.031 -46.960  1.00  0.00    -0.016 C 
HETATM   20  C8  UNL     1     -27.719 -18.237 -47.917  1.00  0.00    -0.091 C 
HETATM   21  C9  UNL     1     -28.733 -17.213 -48.262  1.00  0.00     0.042 C 
HETATM   22  C10 UNL     1     -27.719 -19.515 -48.713  1.00  0.00     0.042 C 
ENDBRANCH  18  19
BRANCH  18  23
HETATM   23  C11 UNL     1     -25.612 -16.064 -46.596  1.00  0.00    -0.018 C 
BRANCH  23  24
HETATM   24  C12 UNL     1     -24.276 -16.568 -46.322  1.00  0.00    -0.001 C 
HETATM   25  C13 UNL     1     -23.328 -16.061 -45.562  1.00  0.00    -0.088 C 
HETATM   26  C14 UNL     1     -21.988 -16.763 -45.420  1.00  0.00     0.043 C 
HETATM   27  C15 UNL     1     -23.561 -14.807 -44.808  1.00  0.00     0.043 C 
ENDBRANCH  23  24
ENDBRANCH  18  23
ENDBRANCH  17  18
ENDBRANCH   2  17
BRANCH   1  28
HETATM   28  O2  UNL     1     -28.931 -18.246 -43.314  1.00  0.00    -0.312 OA
BRANCH  28  29
HETATM   29  C2  UNL     1     -30.299 -18.433 -43.400  1.00  0.00     0.255 C 
HETATM   30  C1  UNL     1     -31.003 -17.899 -44.588  1.00  0.00     0.126 C 
HETATM   31  O1  UNL     1     -30.878 -19.037 -42.481  1.00  0.00    -0.266 OA
ENDBRANCH  28  29
ENDBRANCH   1  28
BRANCH  16  32
HETATM   32  O4  UNL     1     -28.996 -17.537 -40.407  1.00  0.00    -0.383 OA
ATOM     33  H4  UNL     1     -28.719 -17.022 -39.658  1.00  0.00     0.210 HD
ENDBRANCH  16  32
BRANCH  14  34
HETATM   34  O3  UNL     1     -27.745 -19.843 -42.108  1.00  0.00    -0.386 OA
ATOM     35  H3  UNL     1     -27.352 -20.677 -41.880  1.00  0.00     0.210 HD
ENDBRANCH  14  34
TORSDOF 9
ENDMDL
MODEL 4
REMARK VINA RESULT: -7.216003602      1.547      2.344
REMARK  9 active torsions:
REMARK  status: ('A' for Active; 'I' for Inactive)
REMARK    1  A    between atoms: C2_2  and  O2_4 
REMARK    2  A    between atoms: O2_4  and  C3_5 
REMARK    3  A    between atoms: C4_6  and  C5_7 
REMARK    4  A    between atoms: C5_7  and  C6_8 
REMARK    5  A    between atoms: C6_8  and  C7_9 
REMARK    6  A    between atoms: C6_8  and  C11_13 
REMARK    7  A    between atoms: C11_13  and  C12_14 
REMARK    8  A    between atoms: C27_29  and  O3_31 
REMARK    9  A    between atoms: C29_33  and  O4_34 
ROOT
HETATM    1  C3  UNL     1     -25.517 -19.095 -44.045  1.00  0.00     0.179 C 
HETATM    2  C4  UNL     1     -24.682 -19.381 -42.770  1.00  0.00     0.000 C 
HETATM    3  C16 UNL     1     -23.440 -20.101 -43.251  1.00  0.00     0.040 C 
HETATM    4  C17 UNL     1     -22.982 -19.466 -44.549  1.00  0.00    -0.023 C 
HETATM    5  C18 UNL     1     -23.248 -18.264 -45.019  1.00  0.00    -0.080 C 
HETATM    6  C19 UNL     1     -22.664 -17.919 -46.313  1.00  0.00     0.043 C 
HETATM    7  C20 UNL     1     -24.077 -17.198 -44.380  1.00  0.00     0.054 C 
HETATM    8  C21 UNL     1     -23.572 -17.097 -43.005  1.00  0.00     0.021 C 
HETATM    9  C22 UNL     1     -24.266 -18.117 -42.120  1.00  0.00     0.020 C 
HETATM   10  C23 UNL     1     -25.381 -17.372 -41.470  1.00  0.00    -0.025 C 
HETATM   11  C24 UNL     1     -26.213 -16.406 -41.863  1.00  0.00    -0.023 C 
HETATM   12  C25 UNL     1     -26.316 -15.700 -43.173  1.00  0.00     0.041 C 
HETATM   13  C26 UNL     1     -27.581 -14.834 -43.076  1.00  0.00     0.017 C 
HETATM   14  C27 UNL     1     -26.582 -16.787 -44.192  1.00  0.00     0.095 C 
HETATM   15  C28 UNL     1     -27.177 -16.012 -45.388  1.00  0.00     0.050 C 
HETATM   16  C29 UNL     1     -25.486 -17.686 -44.537  1.00  0.00     0.123 C 
ENDROOT
BRANCH   2  17
HETATM   17  C5  UNL     1     -25.523 -20.196 -41.872  1.00  0.00     0.025 C 
BRANCH  17  18
HETATM   18  C6  UNL     1     -25.350 -20.855 -40.638  1.00  0.00     0.032 C 
BRANCH  18  19
HETATM   19  C7  UNL     1     -26.178 -22.176 -40.709  1.00  0.00    -0.016 C 
HETATM   20  C8  UNL     1     -27.446 -22.214 -40.989  1.00  0.00    -0.091 C 
HETATM   21  C9  UNL     1     -28.198 -20.967 -41.266  1.00  0.00     0.042 C 
HETATM   22  C10 UNL     1     -28.205 -23.513 -41.043  1.00  0.00     0.042 C 
ENDBRANCH  18  19
BRANCH  18  23
HETATM   23  C11 UNL     1     -25.514 -20.455 -39.235  1.00  0.00    -0.018 C 
BRANCH  23  24
HETATM   24  C12 UNL     1     -26.411 -19.389 -38.820  1.00  0.00    -0.001 C 
HETATM   25  C13 UNL     1     -27.501 -19.448 -38.085  1.00  0.00    -0.088 C 
HETATM   26  C14 UNL     1     -28.298 -18.192 -37.773  1.00  0.00     0.043 C 
HETATM   27  C15 UNL     1     -27.959 -20.742 -37.526  1.00  0.00     0.043 C 
ENDBRANCH  23  24
ENDBRANCH  18  23
ENDBRANCH  17  18
ENDBRANCH   2  17
BRANCH   1  28
HETATM   28  O2  UNL     1     -26.831 -19.618 -43.937  1.00  0.00    -0.312 OA
BRANCH  28  29
HETATM   29  C2  UNL     1     -27.472 -20.378 -44.899  1.00  0.00     0.255 C 
HETATM   30  C1  UNL     1     -27.346 -21.851 -44.823  1.00  0.00     0.126 C 
HETATM   31  O1  UNL     1     -28.123 -19.796 -45.784  1.00  0.00    -0.266 OA
ENDBRANCH  28  29
ENDBRANCH   1  28
BRANCH  16  32
HETATM   32  O4  UNL     1     -25.607 -17.797 -45.973  1.00  0.00    -0.383 OA
ATOM     33  H4  UNL     1     -26.293 -18.440 -46.107  1.00  0.00     0.210 HD
ENDBRANCH  16  32
BRANCH  14  34
HETATM   34  O3  UNL     1     -27.691 -17.473 -43.665  1.00  0.00    -0.386 OA
ATOM     35  H3  UNL     1     -28.016 -17.976 -44.402  1.00  0.00     0.210 HD
ENDBRANCH  14  34
TORSDOF 9
ENDMDL
MODEL 5
REMARK VINA RESULT: -7.185487040      1.791      4.647
REMARK  9 active torsions:
REMARK  status: ('A' for Active; 'I' for Inactive)
REMARK    1  A    between atoms: C2_2  and  O2_4 
REMARK    2  A    between atoms: O2_4  and  C3_5 
REMARK    3  A    between atoms: C4_6  and  C5_7 
REMARK    4  A    between atoms: C5_7  and  C6_8 
REMARK    5  A    between atoms: C6_8  and  C7_9 
REMARK    6  A    between atoms: C6_8  and  C11_13 
REMARK    7  A    between atoms: C11_13  and  C12_14 
REMARK    8  A    between atoms: C27_29  and  O3_31 
REMARK    9  A    between atoms: C29_33  and  O4_34 
ROOT
HETATM    1  C3  UNL     1     -25.770 -18.304 -43.450  1.00  0.00     0.179 C 
HETATM    2  C4  UNL     1     -26.194 -17.412 -42.256  1.00  0.00     0.000 C 
HETATM    3  C16 UNL     1     -24.907 -17.039 -41.549  1.00  0.00     0.040 C 
HETATM    4  C17 UNL     1     -23.843 -16.764 -42.593  1.00  0.00    -0.023 C 
HETATM    5  C18 UNL     1     -23.994 -16.441 -43.862  1.00  0.00    -0.080 C 
HETATM    6  C19 UNL     1     -22.774 -16.234 -44.639  1.00  0.00     0.043 C 
HETATM    7  C20 UNL     1     -25.275 -16.254 -44.609  1.00  0.00     0.054 C 
HETATM    8  C21 UNL     1     -26.079 -15.361 -43.766  1.00  0.00     0.021 C 
HETATM    9  C22 UNL     1     -26.842 -16.168 -42.732  1.00  0.00     0.020 C 
HETATM   10  C23 UNL     1     -28.195 -16.375 -43.321  1.00  0.00    -0.025 C 
HETATM   11  C24 UNL     1     -28.652 -16.589 -44.556  1.00  0.00    -0.023 C 
HETATM   12  C25 UNL     1     -27.916 -16.702 -45.848  1.00  0.00     0.041 C 
HETATM   13  C26 UNL     1     -28.964 -17.137 -46.884  1.00  0.00     0.017 C 
HETATM   14  C27 UNL     1     -26.953 -17.855 -45.659  1.00  0.00     0.095 C 
HETATM   15  C28 UNL     1     -26.602 -18.262 -47.106  1.00  0.00     0.050 C 
HETATM   16  C29 UNL     1     -25.799 -17.648 -44.791  1.00  0.00     0.123 C 
ENDROOT
BRANCH   2  17
HETATM   17  C5  UNL     1     -27.112 -18.210 -41.420  1.00  0.00     0.025 C 
BRANCH  17  18
HETATM   18  C6  UNL     1     -27.410 -18.308 -40.045  1.00  0.00     0.032 C 
BRANCH  18  19
HETATM   19  C7  UNL     1     -27.752 -19.804 -39.760  1.00  0.00    -0.016 C 
HETATM   20  C8  UNL     1     -26.968 -20.607 -39.108  1.00  0.00    -0.091 C 
HETATM   21  C9  UNL     1     -25.666 -20.134 -38.581  1.00  0.00     0.042 C 
HETATM   22  C10 UNL     1     -27.340 -22.045 -38.859  1.00  0.00     0.042 C 
ENDBRANCH  18  19
BRANCH  18  23
HETATM   23  C11 UNL     1     -28.329 -17.598 -39.147  1.00  0.00    -0.018 C 
BRANCH  23  24
HETATM   24  C12 UNL     1     -29.436 -16.790 -39.631  1.00  0.00    -0.001 C 
HETATM   25  C13 UNL     1     -29.489 -15.497 -39.871  1.00  0.00    -0.088 C 
HETATM   26  C14 UNL     1     -30.769 -14.852 -40.377  1.00  0.00     0.043 C 
HETATM   27  C15 UNL     1     -28.290 -14.648 -39.677  1.00  0.00     0.043 C 
ENDBRANCH  23  24
ENDBRANCH  18  23
ENDBRANCH  17  18
ENDBRANCH   2  17
BRANCH   1  28
HETATM   28  O2  UNL     1     -26.434 -19.556 -43.429  1.00  0.00    -0.312 OA
BRANCH  28  29
HETATM   29  C2  UNL     1     -25.813 -20.792 -43.421  1.00  0.00     0.255 C 
HETATM   30  C1  UNL     1     -24.914 -21.115 -42.290  1.00  0.00     0.126 C 
HETATM   31  O1  UNL     1     -26.032 -21.577 -44.360  1.00  0.00    -0.266 OA
ENDBRANCH  28  29
ENDBRANCH   1  28
BRANCH  16  32
HETATM   32  O4  UNL     1     -24.729 -18.277 -45.530  1.00  0.00    -0.383 OA
ATOM     33  H4  UNL     1     -23.974 -17.721 -45.382  1.00  0.00     0.210 HD
ENDBRANCH  16  32
BRANCH  14  34
HETATM   34  O3  UNL     1     -27.776 -18.905 -45.215  1.00  0.00    -0.386 OA
ATOM     35  H3  UNL     1     -28.088 -18.604 -44.370  1.00  0.00     0.210 HD
ENDBRANCH  14  34
TORSDOF 9
ENDMDL
