MODEL 1
REMARK VINA RESULT: -7.113165013      0.000      0.000
REMARK  10 active torsions:
REMARK  status: ('A' for Active; 'I' for Inactive)
REMARK    1  A    between atoms: C2_2  and  O2_4 
REMARK    2  A    between atoms: O2_4  and  C3_5 
REMARK    3  A    between atoms: C3_5  and  C4_6 
REMARK    4  A    between atoms: C3_5  and  C7_9 
REMARK    5  A    between atoms: C7_9  and  C9_11 
REMARK    6  A    between atoms: C9_11  and  C10_12 
REMARK    7  A    between atoms: C10_12  and  C11_13 
REMARK    8  A    between atoms: C13_15  and  C14_16 
REMARK    9  A    between atoms: C14_16  and  N1_17 
REMARK   10  A    between atoms: C23_32  and  O4_33 
ROOT
HETATM    1  C11 UNL     1     -26.882 -17.077 -42.486  1.00  0.00    -0.013 C 
HETATM    2  C12 UNL     1     -26.844 -15.751 -41.861  1.00  0.00     0.021 C 
HETATM    3  C13 UNL     1     -28.084 -17.920 -42.235  1.00  0.00     0.024 C 
HETATM    4  C15 UNL     1     -27.544 -19.331 -42.239  1.00  0.00     0.013 C 
HETATM    5  C16 UNL     1     -26.050 -19.272 -42.316  1.00  0.00     0.008 C 
HETATM    6  C17 UNL     1     -25.485 -20.194 -41.236  1.00  0.00    -0.009 C 
HETATM    7  C18 UNL     1     -23.942 -20.167 -41.303  1.00  0.00     0.021 C 
HETATM    8  C19 UNL     1     -25.869 -21.599 -41.309  1.00  0.00     0.057 C 
HETATM    9  C20 UNL     1     -26.292 -22.183 -40.029  1.00  0.00    -0.001 A 
HETATM   10  C21 UNL     1     -26.579 -23.509 -39.648  1.00  0.00     0.124 A 
HETATM   11  N2  UNL     1     -27.051 -23.446 -38.400  1.00  0.00    -0.271 N 
ATOM     12  H2  UNL     1     -27.351 -24.249 -37.848  1.00  0.00     0.194 HD
HETATM   13  O3  UNL     1     -27.074 -22.226 -37.995  1.00  0.00    -0.235 OA
HETATM   14  C22 UNL     1     -26.617 -21.412 -38.951  1.00  0.00     0.139 A 
HETATM   15  C23 UNL     1     -26.432 -19.957 -38.965  1.00  0.00     0.105 C 
HETATM   16  C24 UNL     1     -25.916 -19.416 -40.041  1.00  0.00    -0.034 C 
HETATM   17  C25 UNL     1     -25.702 -17.946 -40.372  1.00  0.00     0.048 C 
HETATM   18  C26 UNL     1     -25.736 -17.880 -41.831  1.00  0.00    -0.025 C 
HETATM   19  C27 UNL     1     -24.394 -17.352 -42.288  1.00  0.00     0.017 C 
ENDROOT
BRANCH   1  20
HETATM   20  C10 UNL     1     -26.540 -17.036 -43.945  1.00  0.00    -0.020 C 
BRANCH  20  21
HETATM   21  C9  UNL     1     -26.286 -15.823 -44.703  1.00  0.00    -0.023 C 
BRANCH  21  22
HETATM   22  C7  UNL     1     -25.303 -15.753 -45.791  1.00  0.00     0.034 C 
HETATM   23  C8  UNL     1     -24.030 -15.116 -45.163  1.00  0.00     0.017 C 
BRANCH  22  24
HETATM   24  C3  UNL     1     -24.886 -17.126 -46.326  1.00  0.00     0.142 C 
BRANCH  24  25
HETATM   25  O2  UNL     1     -25.614 -17.548 -47.414  1.00  0.00    -0.315 OA
BRANCH  25  26
HETATM   26  C2  UNL     1     -26.907 -17.889 -47.532  1.00  0.00     0.255 C 
HETATM   27  C1  UNL     1     -27.964 -16.931 -47.924  1.00  0.00     0.126 C 
HETATM   28  O1  UNL     1     -27.219 -19.058 -47.301  1.00  0.00    -0.266 OA
ENDBRANCH  25  26
ENDBRANCH  24  25
BRANCH  24  29
HETATM   29  C4  UNL     1     -23.443 -17.392 -46.282  1.00  0.00     0.008 C 
HETATM   30  C5  UNL     1     -22.718 -17.609 -47.550  1.00  0.00     0.012 C 
HETATM   31  C6  UNL     1     -23.147 -18.631 -45.433  1.00  0.00     0.012 C 
ENDBRANCH  24  29
ENDBRANCH  22  24
ENDBRANCH  21  22
ENDBRANCH  20  21
ENDBRANCH   1  20
BRANCH   3  32
HETATM   32  C14 UNL     1     -28.994 -17.717 -41.128  1.00  0.00     0.235 C 
BRANCH  32  33
HETATM   33  N1  UNL     1     -29.517 -18.868 -40.433  1.00  0.00    -0.079 N 
ATOM     34  H13 UNL     1     -30.204 -19.329 -41.030  1.00  0.00     0.274 HD
ATOM     35  H12 UNL     1     -28.789 -19.581 -40.382  1.00  0.00     0.274 HD
ATOM     36  H11 UNL     1     -29.921 -18.744 -39.504  1.00  0.00     0.274 HD
ENDBRANCH  32  33
ENDBRANCH   3  32
BRANCH  15  37
HETATM   37  O4  UNL     1     -26.803 -19.215 -37.860  1.00  0.00    -0.357 OA
ATOM     38  H4  UNL     1     -27.692 -18.885 -37.797  1.00  0.00     0.217 HD
ENDBRANCH  15  37
TORSDOF 10
ENDMDL
MODEL 2
REMARK VINA RESULT: -6.973144984      3.143      4.575
REMARK  10 active torsions:
REMARK  status: ('A' for Active; 'I' for Inactive)
REMARK    1  A    between atoms: C2_2  and  O2_4 
REMARK    2  A    between atoms: O2_4  and  C3_5 
REMARK    3  A    between atoms: C3_5  and  C4_6 
REMARK    4  A    between atoms: C3_5  and  C7_9 
REMARK    5  A    between atoms: C7_9  and  C9_11 
REMARK    6  A    between atoms: C9_11  and  C10_12 
REMARK    7  A    between atoms: C10_12  and  C11_13 
REMARK    8  A    between atoms: C13_15  and  C14_16 
REMARK    9  A    between atoms: C14_16  and  N1_17 
REMARK   10  A    between atoms: C23_32  and  O4_33 
ROOT
HETATM    1  C11 UNL     1     -27.056 -16.160 -43.433  1.00  0.00    -0.013 C 
HETATM    2  C12 UNL     1     -27.541 -15.921 -44.796  1.00  0.00     0.021 C 
HETATM    3  C13 UNL     1     -27.032 -17.570 -42.952  1.00  0.00     0.024 C 
HETATM    4  C15 UNL     1     -27.311 -17.451 -41.471  1.00  0.00     0.013 C 
HETATM    5  C16 UNL     1     -27.656 -16.028 -41.161  1.00  0.00     0.008 C 
HETATM    6  C17 UNL     1     -28.932 -16.023 -40.320  1.00  0.00    -0.009 C 
HETATM    7  C18 UNL     1     -29.302 -14.565 -39.969  1.00  0.00     0.021 C 
HETATM    8  C19 UNL     1     -28.881 -16.743 -39.053  1.00  0.00     0.057 C 
HETATM    9  C20 UNL     1     -30.037 -17.616 -38.802  1.00  0.00    -0.001 A 
HETATM   10  C21 UNL     1     -30.441 -18.339 -37.661  1.00  0.00     0.124 A 
HETATM   11  N2  UNL     1     -31.493 -19.072 -38.037  1.00  0.00    -0.271 N 
ATOM     12  H2  UNL     1     -32.009 -19.707 -37.428  1.00  0.00     0.194 HD
HETATM   13  O3  UNL     1     -31.761 -18.861 -39.276  1.00  0.00    -0.235 OA
HETATM   14  C22 UNL     1     -30.903 -17.977 -39.792  1.00  0.00     0.139 A 
HETATM   15  C23 UNL     1     -30.809 -17.405 -41.140  1.00  0.00     0.105 C 
HETATM   16  C24 UNL     1     -29.878 -16.510 -41.361  1.00  0.00    -0.034 C 
HETATM   17  C25 UNL     1     -29.488 -15.828 -42.665  1.00  0.00     0.048 C 
HETATM   18  C26 UNL     1     -28.080 -15.478 -42.499  1.00  0.00    -0.025 C 
HETATM   19  C27 UNL     1     -27.975 -13.973 -42.613  1.00  0.00     0.017 C 
ENDROOT
BRANCH   1  20
HETATM   20  C10 UNL     1     -25.756 -15.467 -43.155  1.00  0.00    -0.020 C 
BRANCH  20  21
HETATM   21  C9  UNL     1     -24.636 -15.405 -44.077  1.00  0.00    -0.023 C 
BRANCH  21  22
HETATM   22  C7  UNL     1     -23.507 -16.342 -44.025  1.00  0.00     0.034 C 
HETATM   23  C8  UNL     1     -23.532 -16.947 -42.592  1.00  0.00     0.017 C 
BRANCH  22  24
HETATM   24  C3  UNL     1     -23.646 -17.517 -44.998  1.00  0.00     0.142 C 
BRANCH  24  25
HETATM   25  O2  UNL     1     -24.292 -18.610 -44.469  1.00  0.00    -0.315 OA
BRANCH  25  26
HETATM   26  C2  UNL     1     -23.843 -19.839 -44.165  1.00  0.00     0.255 C 
HETATM   27  C1  UNL     1     -22.407 -20.191 -44.138  1.00  0.00     0.126 C 
HETATM   28  O1  UNL     1     -24.675 -20.707 -43.896  1.00  0.00    -0.266 OA
ENDBRANCH  25  26
ENDBRANCH  24  25
BRANCH  24  29
HETATM   29  C4  UNL     1     -23.906 -17.136 -46.392  1.00  0.00     0.008 C 
HETATM   30  C5  UNL     1     -25.157 -17.589 -47.033  1.00  0.00     0.012 C 
HETATM   31  C6  UNL     1     -22.783 -17.630 -47.307  1.00  0.00     0.012 C 
ENDBRANCH  24  29
ENDBRANCH  22  24
ENDBRANCH  21  22
ENDBRANCH  20  21
ENDBRANCH   1  20
BRANCH   3  32
HETATM   32  C14 UNL     1     -27.813 -18.637 -43.541  1.00  0.00     0.235 C 
BRANCH  32  33
HETATM   33  N1  UNL     1     -27.275 -19.355 -44.671  1.00  0.00    -0.079 N 
ATOM     34  H13 UNL     1     -26.279 -19.148 -44.749  1.00  0.00     0.274 HD
ATOM     35  H12 UNL     1     -27.254 -20.350 -44.448  1.00  0.00     0.274 HD
ATOM     36  H11 UNL     1     -27.708 -19.233 -45.587  1.00  0.00     0.274 HD
ENDBRANCH  32  33
ENDBRANCH   3  32
BRANCH  15  37
HETATM   37  O4  UNL     1     -31.691 -17.824 -42.118  1.00  0.00    -0.357 OA
ATOM     38  H4  UNL     1     -31.417 -17.814 -43.028  1.00  0.00     0.217 HD
ENDBRANCH  15  37
TORSDOF 10
ENDMDL
MODEL 3
REMARK VINA RESULT: -6.885424340      2.809      7.173
REMARK  10 active torsions:
REMARK  status: ('A' for Active; 'I' for Inactive)
REMARK    1  A    between atoms: C2_2  and  O2_4 
REMARK    2  A    between atoms: O2_4  and  C3_5 
REMARK    3  A    between atoms: C3_5  and  C4_6 
REMARK    4  A    between atoms: C3_5  and  C7_9 
REMARK    5  A    between atoms: C7_9  and  C9_11 
REMARK    6  A    between atoms: C9_11  and  C10_12 
REMARK    7  A    between atoms: C10_12  and  C11_13 
REMARK    8  A    between atoms: C13_15  and  C14_16 
REMARK    9  A    between atoms: C14_16  and  N1_17 
REMARK   10  A    between atoms: C23_32  and  O4_33 
ROOT
HETATM    1  C11 UNL     1     -25.302 -16.773 -43.408  1.00  0.00    -0.013 C 
HETATM    2  C12 UNL     1     -24.365 -15.658 -43.581  1.00  0.00     0.021 C 
HETATM    3  C13 UNL     1     -24.843 -18.126 -43.832  1.00  0.00     0.024 C 
HETATM    4  C15 UNL     1     -26.107 -18.801 -44.313  1.00  0.00     0.013 C 
HETATM    5  C16 UNL     1     -27.215 -17.794 -44.322  1.00  0.00     0.008 C 
HETATM    6  C17 UNL     1     -27.922 -17.882 -45.674  1.00  0.00    -0.009 C 
HETATM    7  C18 UNL     1     -29.084 -16.865 -45.705  1.00  0.00     0.021 C 
HETATM    8  C19 UNL     1     -28.504 -19.172 -46.025  1.00  0.00     0.057 C 
HETATM    9  C20 UNL     1     -28.211 -19.622 -47.393  1.00  0.00    -0.001 A 
HETATM   10  C21 UNL     1     -28.702 -20.701 -48.154  1.00  0.00     0.124 A 
HETATM   11  N2  UNL     1     -27.988 -20.717 -49.283  1.00  0.00    -0.271 N 
ATOM     12  H2  UNL     1     -28.107 -21.389 -50.040  1.00  0.00     0.194 HD
HETATM   13  O3  UNL     1     -27.127 -19.762 -49.278  1.00  0.00    -0.235 OA
HETATM   14  C22 UNL     1     -27.222 -19.060 -48.146  1.00  0.00     0.139 A 
HETATM   15  C23 UNL     1     -26.482 -17.880 -47.683  1.00  0.00     0.105 C 
HETATM   16  C24 UNL     1     -26.818 -17.361 -46.528  1.00  0.00    -0.034 C 
HETATM   17  C25 UNL     1     -26.173 -16.215 -45.763  1.00  0.00     0.048 C 
HETATM   18  C26 UNL     1     -26.482 -16.478 -44.360  1.00  0.00    -0.025 C 
HETATM   19  C27 UNL     1     -27.289 -15.304 -43.850  1.00  0.00     0.017 C 
ENDROOT
BRANCH   1  20
HETATM   20  C10 UNL     1     -25.909 -16.808 -42.038  1.00  0.00    -0.020 C 
BRANCH  20  21
HETATM   21  C9  UNL     1     -25.490 -17.696 -40.968  1.00  0.00    -0.023 C 
BRANCH  21  22
HETATM   22  C7  UNL     1     -26.435 -18.489 -40.172  1.00  0.00     0.034 C 
HETATM   23  C8  UNL     1     -27.746 -18.538 -41.008  1.00  0.00     0.017 C 
BRANCH  22  24
HETATM   24  C3  UNL     1     -25.993 -19.941 -39.968  1.00  0.00     0.142 C 
BRANCH  24  25
HETATM   25  O2  UNL     1     -24.910 -20.309 -40.732  1.00  0.00    -0.315 OA
BRANCH  25  26
HETATM   26  C2  UNL     1     -24.798 -21.196 -41.734  1.00  0.00     0.255 C 
HETATM   27  C1  UNL     1     -25.809 -22.241 -42.006  1.00  0.00     0.126 C 
HETATM   28  O1  UNL     1     -23.802 -21.128 -42.456  1.00  0.00    -0.266 OA
ENDBRANCH  25  26
ENDBRANCH  24  25
BRANCH  24  29
HETATM   29  C4  UNL     1     -26.095 -20.427 -38.587  1.00  0.00     0.008 C 
HETATM   30  C5  UNL     1     -26.600 -21.794 -38.347  1.00  0.00     0.012 C 
HETATM   31  C6  UNL     1     -26.999 -19.513 -37.757  1.00  0.00     0.012 C 
ENDBRANCH  24  29
ENDBRANCH  22  24
ENDBRANCH  21  22
ENDBRANCH  20  21
ENDBRANCH   1  20
BRANCH   3  32
HETATM   32  C14 UNL     1     -23.752 -18.355 -44.755  1.00  0.00     0.235 C 
BRANCH  32  33
HETATM   33  N1  UNL     1     -22.732 -19.315 -44.406  1.00  0.00    -0.079 N 
ATOM     34  H13 UNL     1     -22.379 -19.745 -45.261  1.00  0.00     0.274 HD
ATOM     35  H12 UNL     1     -21.905 -18.813 -44.082  1.00  0.00     0.274 HD
ATOM     36  H11 UNL     1     -22.953 -20.050 -43.736  1.00  0.00     0.274 HD
ENDBRANCH  32  33
ENDBRANCH   3  32
BRANCH  15  37
HETATM   37  O4  UNL     1     -25.469 -17.363 -48.468  1.00  0.00    -0.357 OA
ATOM     38  H4  UNL     1     -25.615 -16.556 -48.947  1.00  0.00     0.217 HD
ENDBRANCH  15  37
TORSDOF 10
ENDMDL
MODEL 4
REMARK VINA RESULT: -6.829238255      1.689      2.497
REMARK  10 active torsions:
REMARK  status: ('A' for Active; 'I' for Inactive)
REMARK    1  A    between atoms: C2_2  and  O2_4 
REMARK    2  A    between atoms: O2_4  and  C3_5 
REMARK    3  A    between atoms: C3_5  and  C4_6 
REMARK    4  A    between atoms: C3_5  and  C7_9 
REMARK    5  A    between atoms: C7_9  and  C9_11 
REMARK    6  A    between atoms: C9_11  and  C10_12 
REMARK    7  A    between atoms: C10_12  and  C11_13 
REMARK    8  A    between atoms: C13_15  and  C14_16 
REMARK    9  A    between atoms: C14_16  and  N1_17 
REMARK   10  A    between atoms: C23_32  and  O4_33 
ROOT
HETATM    1  C11 UNL     1     -26.540 -17.979 -42.368  1.00  0.00    -0.013 C 
HETATM    2  C12 UNL     1     -27.618 -17.622 -43.296  1.00  0.00     0.021 C 
HETATM    3  C13 UNL     1     -25.774 -19.225 -42.654  1.00  0.00     0.024 C 
HETATM    4  C15 UNL     1     -25.407 -19.745 -41.283  1.00  0.00     0.013 C 
HETATM    5  C16 UNL     1     -26.097 -18.908 -40.252  1.00  0.00     0.008 C 
HETATM    6  C17 UNL     1     -26.777 -19.850 -39.258  1.00  0.00    -0.009 C 
HETATM    7  C18 UNL     1     -27.484 -19.012 -38.169  1.00  0.00     0.021 C 
HETATM    8  C19 UNL     1     -25.912 -20.786 -38.550  1.00  0.00     0.057 C 
HETATM    9  C20 UNL     1     -26.415 -22.167 -38.508  1.00  0.00    -0.001 A 
HETATM   10  C21 UNL     1     -25.974 -23.308 -37.808  1.00  0.00     0.124 A 
HETATM   11  N2  UNL     1     -26.716 -24.327 -38.251  1.00  0.00    -0.271 N 
ATOM     12  H2  UNL     1     -26.631 -25.292 -37.932  1.00  0.00     0.194 HD
HETATM   13  O3  UNL     1     -27.552 -23.916 -39.136  1.00  0.00    -0.235 OA
HETATM   14  C22 UNL     1     -27.412 -22.602 -39.330  1.00  0.00     0.139 A 
HETATM   15  C23 UNL     1     -28.137 -21.679 -40.211  1.00  0.00     0.105 C 
HETATM   16  C24 UNL     1     -27.815 -20.410 -40.167  1.00  0.00    -0.034 C 
HETATM   17  C25 UNL     1     -28.321 -19.258 -41.022  1.00  0.00     0.048 C 
HETATM   18  C26 UNL     1     -27.233 -18.283 -41.021  1.00  0.00    -0.025 C 
HETATM   19  C27 UNL     1     -27.771 -17.009 -40.406  1.00  0.00     0.017 C 
ENDROOT
BRANCH   1  20
HETATM   20  C10 UNL     1     -25.623 -16.829 -42.081  1.00  0.00    -0.020 C 
BRANCH  20  21
HETATM   21  C9  UNL     1     -24.549 -16.387 -42.953  1.00  0.00    -0.023 C 
BRANCH  21  22
HETATM   22  C7  UNL     1     -24.778 -15.898 -44.317  1.00  0.00     0.034 C 
HETATM   23  C8  UNL     1     -23.668 -14.839 -44.574  1.00  0.00     0.017 C 
BRANCH  22  24
HETATM   24  C3  UNL     1     -24.607 -16.978 -45.390  1.00  0.00     0.142 C 
BRANCH  24  25
HETATM   25  O2  UNL     1     -25.421 -16.813 -46.486  1.00  0.00    -0.315 OA
BRANCH  25  26
HETATM   26  C2  UNL     1     -26.553 -17.441 -46.848  1.00  0.00     0.255 C 
HETATM   27  C1  UNL     1     -27.664 -16.762 -47.550  1.00  0.00     0.126 C 
HETATM   28  O1  UNL     1     -26.660 -18.638 -46.578  1.00  0.00    -0.266 OA
ENDBRANCH  25  26
ENDBRANCH  24  25
BRANCH  24  29
HETATM   29  C4  UNL     1     -23.227 -17.440 -45.584  1.00  0.00     0.008 C 
HETATM   30  C5  UNL     1     -22.686 -17.513 -46.956  1.00  0.00     0.012 C 
HETATM   31  C6  UNL     1     -23.040 -18.843 -45.003  1.00  0.00     0.012 C 
ENDBRANCH  24  29
ENDBRANCH  22  24
ENDBRANCH  21  22
ENDBRANCH  20  21
ENDBRANCH   1  20
BRANCH   3  32
HETATM   32  C14 UNL     1     -26.260 -20.294 -43.500  1.00  0.00     0.235 C 
BRANCH  32  33
HETATM   33  N1  UNL     1     -25.988 -21.661 -43.125  1.00  0.00    -0.079 N 
ATOM     34  H13 UNL     1     -24.977 -21.796 -43.085  1.00  0.00     0.274 HD
ATOM     35  H12 UNL     1     -26.244 -21.791 -42.147  1.00  0.00     0.274 HD
ATOM     36  H11 UNL     1     -26.398 -22.415 -43.675  1.00  0.00     0.274 HD
ENDBRANCH  32  33
ENDBRANCH   3  32
BRANCH  15  37
HETATM   37  O4  UNL     1     -29.121 -22.171 -41.048  1.00  0.00    -0.357 OA
ATOM     38  H4  UNL     1     -29.095 -21.959 -41.974  1.00  0.00     0.217 HD
ENDBRANCH  15  37
TORSDOF 10
ENDMDL
MODEL 5
REMARK VINA RESULT: -6.827884965      1.957      3.229
REMARK  10 active torsions:
REMARK  status: ('A' for Active; 'I' for Inactive)
REMARK    1  A    between atoms: C2_2  and  O2_4 
REMARK    2  A    between atoms: O2_4  and  C3_5 
REMARK    3  A    between atoms: C3_5  and  C4_6 
REMARK    4  A    between atoms: C3_5  and  C7_9 
REMARK    5  A    between atoms: C7_9  and  C9_11 
REMARK    6  A    between atoms: C9_11  and  C10_12 
REMARK    7  A    between atoms: C10_12  and  C11_13 
REMARK    8  A    between atoms: C13_15  and  C14_16 
REMARK    9  A    between atoms: C14_16  and  N1_17 
REMARK   10  A    between atoms: C23_32  and  O4_33 
ROOT
HETATM    1  C11 UNL     1     -27.051 -17.775 -42.141  1.00  0.00    -0.013 C 
HETATM    2  C12 UNL     1     -28.223 -17.361 -42.919  1.00  0.00     0.021 C 
HETATM    3  C13 UNL     1     -26.371 -19.037 -42.544  1.00  0.00     0.024 C 
HETATM    4  C15 UNL     1     -25.855 -19.602 -41.241  1.00  0.00     0.013 C 
HETATM    5  C16 UNL     1     -26.382 -18.769 -40.115  1.00  0.00     0.008 C 
HETATM    6  C17 UNL     1     -26.966 -19.711 -39.063  1.00  0.00    -0.009 C 
HETATM    7  C18 UNL     1     -27.503 -18.878 -37.878  1.00  0.00     0.021 C 
HETATM    8  C19 UNL     1     -26.054 -20.692 -38.487  1.00  0.00     0.057 C 
HETATM    9  C20 UNL     1     -26.595 -22.056 -38.411  1.00  0.00    -0.001 A 
HETATM   10  C21 UNL     1     -26.112 -23.228 -37.793  1.00  0.00     0.124 A 
HETATM   11  N2  UNL     1     -26.938 -24.211 -38.160  1.00  0.00    -0.271 N 
ATOM     12  H2  UNL     1     -26.848 -25.186 -37.874  1.00  0.00     0.194 HD
HETATM   13  O3  UNL     1     -27.862 -23.752 -38.927  1.00  0.00    -0.235 OA
HETATM   14  C22 UNL     1     -27.702 -22.439 -39.110  1.00  0.00     0.139 A 
HETATM   15  C23 UNL     1     -28.497 -21.472 -39.876  1.00  0.00     0.105 C 
HETATM   16  C24 UNL     1     -28.128 -20.216 -39.846  1.00  0.00    -0.034 C 
HETATM   17  C25 UNL     1     -28.695 -19.027 -40.608  1.00  0.00     0.048 C 
HETATM   18  C26 UNL     1     -27.582 -18.088 -40.724  1.00  0.00    -0.025 C 
HETATM   19  C27 UNL     1     -27.995 -16.813 -40.022  1.00  0.00     0.017 C 
ENDROOT
BRANCH   1  20
HETATM   20  C10 UNL     1     -26.066 -16.662 -41.947  1.00  0.00    -0.020 C 
BRANCH  20  21
HETATM   21  C9  UNL     1     -24.963 -16.366 -42.845  1.00  0.00    -0.023 C 
BRANCH  21  22
HETATM   22  C7  UNL     1     -25.150 -15.745 -44.161  1.00  0.00     0.034 C 
HETATM   23  C8  UNL     1     -23.881 -14.877 -44.398  1.00  0.00     0.017 C 
BRANCH  22  24
HETATM   24  C3  UNL     1     -25.207 -16.756 -45.310  1.00  0.00     0.142 C 
BRANCH  24  25
HETATM   25  O2  UNL     1     -24.659 -17.981 -45.007  1.00  0.00    -0.315 OA
BRANCH  25  26
HETATM   26  C2  UNL     1     -23.443 -18.491 -45.262  1.00  0.00     0.255 C 
HETATM   27  C1  UNL     1     -22.825 -19.556 -44.442  1.00  0.00     0.126 C 
HETATM   28  O1  UNL     1     -22.820 -18.044 -46.226  1.00  0.00    -0.266 OA
ENDBRANCH  25  26
ENDBRANCH  24  25
BRANCH  24  29
HETATM   29  C4  UNL     1     -26.430 -16.699 -46.121  1.00  0.00     0.008 C 
HETATM   30  C5  UNL     1     -27.200 -17.941 -46.339  1.00  0.00     0.012 C 
HETATM   31  C6  UNL     1     -26.126 -16.163 -47.522  1.00  0.00     0.012 C 
ENDBRANCH  24  29
ENDBRANCH  22  24
ENDBRANCH  21  22
ENDBRANCH  20  21
ENDBRANCH   1  20
BRANCH   3  32
HETATM   32  C14 UNL     1     -26.995 -20.070 -43.344  1.00  0.00     0.235 C 
BRANCH  32  33
HETATM   33  N1  UNL     1     -26.220 -20.721 -44.373  1.00  0.00    -0.079 N 
ATOM     34  H13 UNL     1     -26.365 -20.230 -45.255  1.00  0.00     0.274 HD
ATOM     35  H12 UNL     1     -25.231 -20.539 -44.204  1.00  0.00     0.274 HD
ATOM     36  H11 UNL     1     -26.348 -21.721 -44.529  1.00  0.00     0.274 HD
ENDBRANCH  32  33
ENDBRANCH   3  32
BRANCH  15  37
HETATM   37  O4  UNL     1     -29.594 -21.912 -40.593  1.00  0.00    -0.357 OA
ATOM     38  H4  UNL     1     -30.331 -21.327 -40.724  1.00  0.00     0.217 HD
ENDBRANCH  15  37
TORSDOF 10
ENDMDL
