MODEL 1
REMARK VINA RESULT: -7.040646009      0.000      0.000
REMARK  9 active torsions:
REMARK  status: ('A' for Active; 'I' for Inactive)
REMARK    1  A    between atoms: C2_2  and  C4_4 
REMARK    2  A    between atoms: C4_4  and  C5_5 
REMARK    3  A    between atoms: C5_5  and  O2_7 
REMARK    4  A    between atoms: O2_7  and  C6_8 
REMARK    5  A    between atoms: C8_10  and  O3_11 
REMARK    6  A    between atoms: C12_16  and  C13_17 
REMARK    7  A    between atoms: C13_17  and  C15_19 
REMARK    8  A    between atoms: C15_19  and  C16_20 
REMARK    9  A    between atoms: C16_20  and  C17_21 
ROOT
HETATM    1  C6  UNL     1     -28.305 -16.630 -39.983  1.00  0.00     0.146 C 
HETATM    2  C7  UNL     1     -26.935 -16.890 -40.507  1.00  0.00     0.077 C 
HETATM    3  C8  UNL     1     -26.890 -16.971 -42.047  1.00  0.00     0.094 C 
HETATM    4  C9  UNL     1     -25.479 -17.080 -42.395  1.00  0.00     0.054 C 
HETATM    5  C10 UNL     1     -25.109 -17.260 -43.861  1.00  0.00    -0.020 C 
HETATM    6  C11 UNL     1     -25.997 -18.285 -44.487  1.00  0.00     0.017 C 
HETATM    7  C12 UNL     1     -23.668 -17.601 -43.805  1.00  0.00    -0.001 C 
HETATM    8  C18 UNL     1     -23.013 -16.219 -43.747  1.00  0.00     0.007 C 
HETATM    9  C19 UNL     1     -23.954 -15.260 -44.363  1.00  0.00     0.021 C 
HETATM   10  C20 UNL     1     -25.307 -15.941 -44.525  1.00  0.00     0.017 C 
HETATM   11  C21 UNL     1     -25.665 -15.977 -45.977  1.00  0.00     0.028 C 
HETATM   12  S1  UNL     1     -26.511 -14.839 -43.762  1.00  0.00    -0.121 SA
HETATM   13  C22 UNL     1     -27.423 -15.694 -42.514  1.00  0.00     0.010 C 
HETATM   14  C23 UNL     1     -28.546 -15.235 -41.970  1.00  0.00     0.002 C 
HETATM   15  C24 UNL     1     -29.266 -15.985 -40.904  1.00  0.00    -0.002 C 
HETATM   16  C25 UNL     1     -30.351 -16.885 -41.440  1.00  0.00     0.021 C 
HETATM   17  C26 UNL     1     -30.020 -14.895 -40.115  1.00  0.00     0.021 C 
ENDROOT
BRANCH   1  18
HETATM   18  O2  UNL     1     -28.818 -17.853 -39.487  1.00  0.00    -0.315 OA
BRANCH  18  19
HETATM   19  C5  UNL     1     -28.837 -18.130 -38.133  1.00  0.00     0.259 C 
HETATM   20  O1  UNL     1     -29.760 -17.634 -37.437  1.00  0.00    -0.265 OA
BRANCH  19  21
HETATM   21  C4  UNL     1     -27.830 -18.979 -37.459  1.00  0.00     0.115 C 
BRANCH  21  22
HETATM   22  C2  UNL     1     -27.461 -20.176 -38.319  1.00  0.00    -0.013 C 
HETATM   23  C1  UNL     1     -25.989 -20.241 -38.603  1.00  0.00     0.010 C 
HETATM   24  C3  UNL     1     -27.906 -21.427 -37.557  1.00  0.00     0.010 C 
ENDBRANCH  21  22
ENDBRANCH  19  21
ENDBRANCH  18  19
ENDBRANCH   1  18
BRANCH   3  25
HETATM   25  O3  UNL     1     -27.669 -18.085 -42.327  1.00  0.00    -0.384 OA
ATOM     26  H3  UNL     1     -27.524 -18.222 -43.256  1.00  0.00     0.211 HD
ENDBRANCH   3  25
BRANCH   7  27
HETATM   27  C13 UNL     1     -22.944 -18.422 -44.746  1.00  0.00    -0.013 C 
HETATM   28  C14 UNL     1     -23.025 -18.055 -46.225  1.00  0.00     0.010 C 
BRANCH  27  29
HETATM   29  C15 UNL     1     -22.959 -19.894 -44.642  1.00  0.00     0.015 C 
BRANCH  29  30
HETATM   30  C16 UNL     1     -22.757 -20.542 -43.337  1.00  0.00     0.113 C 
BRANCH  30  31
HETATM   31  C17 UNL     1     -23.937 -20.672 -42.462  1.00  0.00     0.172 C 
HETATM   32  O4  UNL     1     -23.820 -20.116 -41.312  1.00  0.00    -0.648 OA
HETATM   33  O5  UNL     1     -25.081 -21.325 -42.820  1.00  0.00    -0.648 OA
ENDBRANCH  30  31
ENDBRANCH  29  30
ENDBRANCH  27  29
ENDBRANCH   7  27
TORSDOF 9
ENDMDL
MODEL 2
REMARK VINA RESULT: -6.988616049      2.649      3.861
REMARK  9 active torsions:
REMARK  status: ('A' for Active; 'I' for Inactive)
REMARK    1  A    between atoms: C2_2  and  C4_4 
REMARK    2  A    between atoms: C4_4  and  C5_5 
REMARK    3  A    between atoms: C5_5  and  O2_7 
REMARK    4  A    between atoms: O2_7  and  C6_8 
REMARK    5  A    between atoms: C8_10  and  O3_11 
REMARK    6  A    between atoms: C12_16  and  C13_17 
REMARK    7  A    between atoms: C13_17  and  C15_19 
REMARK    8  A    between atoms: C15_19  and  C16_20 
REMARK    9  A    between atoms: C16_20  and  C17_21 
ROOT
HETATM    1  C6  UNL     1     -27.987 -20.337 -38.291  1.00  0.00     0.146 C 
HETATM    2  C7  UNL     1     -26.750 -19.953 -39.027  1.00  0.00     0.077 C 
HETATM    3  C8  UNL     1     -27.017 -19.610 -40.507  1.00  0.00     0.094 C 
HETATM    4  C9  UNL     1     -25.750 -19.122 -41.035  1.00  0.00     0.054 C 
HETATM    5  C10 UNL     1     -25.669 -18.774 -42.514  1.00  0.00    -0.020 C 
HETATM    6  C11 UNL     1     -26.320 -19.845 -43.324  1.00  0.00     0.017 C 
HETATM    7  C12 UNL     1     -24.217 -18.587 -42.738  1.00  0.00    -0.001 C 
HETATM    8  C18 UNL     1     -24.012 -17.128 -42.322  1.00  0.00     0.007 C 
HETATM    9  C19 UNL     1     -25.308 -16.437 -42.488  1.00  0.00     0.021 C 
HETATM   10  C20 UNL     1     -26.395 -17.484 -42.698  1.00  0.00     0.017 C 
HETATM   11  C21 UNL     1     -27.031 -17.267 -44.034  1.00  0.00     0.028 C 
HETATM   12  S1  UNL     1     -27.680 -17.115 -41.489  1.00  0.00    -0.121 SA
HETATM   13  C22 UNL     1     -27.998 -18.529 -40.480  1.00  0.00     0.010 C 
HETATM   14  C23 UNL     1     -29.061 -18.652 -39.692  1.00  0.00     0.002 C 
HETATM   15  C24 UNL     1     -29.273 -19.856 -38.842  1.00  0.00    -0.002 C 
HETATM   16  C25 UNL     1     -30.125 -20.909 -39.504  1.00  0.00     0.021 C 
HETATM   17  C26 UNL     1     -30.131 -19.346 -37.665  1.00  0.00     0.021 C 
ENDROOT
BRANCH   1  18
HETATM   18  O2  UNL     1     -27.987 -21.746 -38.152  1.00  0.00    -0.315 OA
BRANCH  18  19
HETATM   19  C5  UNL     1     -27.923 -22.348 -36.909  1.00  0.00     0.259 C 
HETATM   20  O1  UNL     1     -28.424 -21.741 -35.928  1.00  0.00    -0.265 OA
BRANCH  19  21
HETATM   21  C4  UNL     1     -27.296 -23.667 -36.671  1.00  0.00     0.115 C 
BRANCH  21  22
HETATM   22  C2  UNL     1     -25.896 -23.720 -37.260  1.00  0.00    -0.013 C 
HETATM   23  C1  UNL     1     -24.902 -24.323 -36.312  1.00  0.00     0.010 C 
HETATM   24  C3  UNL     1     -25.981 -24.557 -38.538  1.00  0.00     0.010 C 
ENDBRANCH  21  22
ENDBRANCH  19  21
ENDBRANCH  18  19
ENDBRANCH   1  18
BRANCH   3  25
HETATM   25  O3  UNL     1     -27.466 -20.815 -41.033  1.00  0.00    -0.384 OA
ATOM     26  H3  UNL     1     -28.302 -20.942 -40.599  1.00  0.00     0.211 HD
ENDBRANCH   3  25
BRANCH   7  27
HETATM   27  C13 UNL     1     -23.501 -18.826 -43.968  1.00  0.00    -0.013 C 
HETATM   28  C14 UNL     1     -22.703 -20.121 -44.091  1.00  0.00     0.010 C 
BRANCH  27  29
HETATM   29  C15 UNL     1     -22.726 -17.753 -44.619  1.00  0.00     0.015 C 
BRANCH  29  30
HETATM   30  C16 UNL     1     -22.946 -17.444 -46.040  1.00  0.00     0.113 C 
BRANCH  30  31
HETATM   31  C17 UNL     1     -24.239 -16.834 -46.403  1.00  0.00     0.172 C 
HETATM   32  O4  UNL     1     -24.949 -17.521 -47.220  1.00  0.00    -0.648 OA
HETATM   33  O5  UNL     1     -24.675 -15.633 -45.920  1.00  0.00    -0.648 OA
ENDBRANCH  30  31
ENDBRANCH  29  30
ENDBRANCH  27  29
ENDBRANCH   7  27
TORSDOF 9
ENDMDL
MODEL 3
REMARK VINA RESULT: -6.968130858      2.569      4.350
REMARK  9 active torsions:
REMARK  status: ('A' for Active; 'I' for Inactive)
REMARK    1  A    between atoms: C2_2  and  C4_4 
REMARK    2  A    between atoms: C4_4  and  C5_5 
REMARK    3  A    between atoms: C5_5  and  O2_7 
REMARK    4  A    between atoms: O2_7  and  C6_8 
REMARK    5  A    between atoms: C8_10  and  O3_11 
REMARK    6  A    between atoms: C12_16  and  C13_17 
REMARK    7  A    between atoms: C13_17  and  C15_19 
REMARK    8  A    between atoms: C15_19  and  C16_20 
REMARK    9  A    between atoms: C16_20  and  C17_21 
ROOT
HETATM    1  C6  UNL     1     -26.121 -20.875 -39.591  1.00  0.00     0.146 C 
HETATM    2  C7  UNL     1     -25.286 -20.357 -40.710  1.00  0.00     0.077 C 
HETATM    3  C8  UNL     1     -26.037 -19.344 -41.598  1.00  0.00     0.094 C 
HETATM    4  C9  UNL     1     -25.049 -18.832 -42.538  1.00  0.00     0.054 C 
HETATM    5  C10 UNL     1     -25.511 -17.858 -43.613  1.00  0.00    -0.020 C 
HETATM    6  C11 UNL     1     -26.778 -18.348 -44.232  1.00  0.00     0.017 C 
HETATM    7  C12 UNL     1     -24.340 -17.776 -44.517  1.00  0.00    -0.001 C 
HETATM    8  C18 UNL     1     -23.481 -16.708 -43.835  1.00  0.00     0.007 C 
HETATM    9  C19 UNL     1     -24.389 -15.860 -43.032  1.00  0.00     0.021 C 
HETATM   10  C20 UNL     1     -25.745 -16.548 -42.941  1.00  0.00     0.017 C 
HETATM   11  C21 UNL     1     -26.782 -15.665 -43.557  1.00  0.00     0.028 C 
HETATM   12  S1  UNL     1     -26.151 -16.614 -41.187  1.00  0.00    -0.121 SA
HETATM   13  C22 UNL     1     -26.463 -18.280 -40.691  1.00  0.00     0.010 C 
HETATM   14  C23 UNL     1     -27.041 -18.616 -39.542  1.00  0.00     0.002 C 
HETATM   15  C24 UNL     1     -27.262 -20.038 -39.160  1.00  0.00    -0.002 C 
HETATM   16  C25 UNL     1     -28.625 -20.553 -39.549  1.00  0.00     0.021 C 
HETATM   17  C26 UNL     1     -27.279 -20.020 -37.617  1.00  0.00     0.021 C 
ENDROOT
BRANCH   1  18
HETATM   18  O2  UNL     1     -26.550 -22.180 -39.940  1.00  0.00    -0.315 OA
BRANCH  18  19
HETATM   19  C5  UNL     1     -26.428 -23.238 -39.059  1.00  0.00     0.259 C 
HETATM   20  O1  UNL     1     -27.014 -24.315 -39.339  1.00  0.00    -0.265 OA
BRANCH  19  21
HETATM   21  C4  UNL     1     -25.644 -23.170 -37.806  1.00  0.00     0.115 C 
BRANCH  21  22
HETATM   22  C2  UNL     1     -26.018 -24.304 -36.866  1.00  0.00    -0.013 C 
HETATM   23  C1  UNL     1     -24.847 -24.786 -36.061  1.00  0.00     0.010 C 
HETATM   24  C3  UNL     1     -27.112 -23.771 -35.938  1.00  0.00     0.010 C 
ENDBRANCH  21  22
ENDBRANCH  19  21
ENDBRANCH  18  19
ENDBRANCH   1  18
BRANCH   3  25
HETATM   25  O3  UNL     1     -27.059 -20.106 -42.150  1.00  0.00    -0.384 OA
ATOM     26  H3  UNL     1     -27.621 -20.286 -41.405  1.00  0.00     0.211 HD
ENDBRANCH   3  25
BRANCH   7  27
HETATM   27  C13 UNL     1     -24.370 -17.513 -45.936  1.00  0.00    -0.013 C 
HETATM   28  C14 UNL     1     -23.129 -17.861 -46.754  1.00  0.00     0.010 C 
BRANCH  27  29
HETATM   29  C15 UNL     1     -24.923 -16.252 -46.466  1.00  0.00     0.015 C 
BRANCH  29  30
HETATM   30  C16 UNL     1     -25.830 -16.275 -47.623  1.00  0.00     0.113 C 
BRANCH  30  31
HETATM   31  C17 UNL     1     -27.050 -17.095 -47.505  1.00  0.00     0.172 C 
HETATM   32  O4  UNL     1     -28.036 -16.512 -46.927  1.00  0.00    -0.648 OA
HETATM   33  O5  UNL     1     -27.154 -18.376 -47.965  1.00  0.00    -0.648 OA
ENDBRANCH  30  31
ENDBRANCH  29  30
ENDBRANCH  27  29
ENDBRANCH   7  27
TORSDOF 9
ENDMDL
MODEL 4
REMARK VINA RESULT: -6.958190223      2.982      4.407
REMARK  9 active torsions:
REMARK  status: ('A' for Active; 'I' for Inactive)
REMARK    1  A    between atoms: C2_2  and  C4_4 
REMARK    2  A    between atoms: C4_4  and  C5_5 
REMARK    3  A    between atoms: C5_5  and  O2_7 
REMARK    4  A    between atoms: O2_7  and  C6_8 
REMARK    5  A    between atoms: C8_10  and  O3_11 
REMARK    6  A    between atoms: C12_16  and  C13_17 
REMARK    7  A    between atoms: C13_17  and  C15_19 
REMARK    8  A    between atoms: C15_19  and  C16_20 
REMARK    9  A    between atoms: C16_20  and  C17_21 
ROOT
HETATM    1  C6  UNL     1     -27.520 -21.061 -38.332  1.00  0.00     0.146 C 
HETATM    2  C7  UNL     1     -26.343 -20.550 -39.089  1.00  0.00     0.077 C 
HETATM    3  C8  UNL     1     -26.718 -20.015 -40.486  1.00  0.00     0.094 C 
HETATM    4  C9  UNL     1     -25.498 -19.428 -41.025  1.00  0.00     0.054 C 
HETATM    5  C10 UNL     1     -25.526 -18.879 -42.444  1.00  0.00    -0.020 C 
HETATM    6  C11 UNL     1     -26.216 -19.845 -43.350  1.00  0.00     0.017 C 
HETATM    7  C12 UNL     1     -24.095 -18.629 -42.737  1.00  0.00    -0.001 C 
HETATM    8  C18 UNL     1     -23.883 -17.236 -42.138  1.00  0.00     0.007 C 
HETATM    9  C19 UNL     1     -25.197 -16.560 -42.120  1.00  0.00     0.021 C 
HETATM   10  C20 UNL     1     -26.281 -17.594 -42.399  1.00  0.00     0.017 C 
HETATM   11  C21 UNL     1     -27.011 -17.211 -43.646  1.00  0.00     0.028 C 
HETATM   12  S1  UNL     1     -27.483 -17.425 -41.067  1.00  0.00    -0.121 SA
HETATM   13  C22 UNL     1     -27.710 -18.971 -40.244  1.00  0.00     0.010 C 
HETATM   14  C23 UNL     1     -28.714 -19.227 -39.411  1.00  0.00     0.002 C 
HETATM   15  C24 UNL     1     -28.848 -20.540 -38.723  1.00  0.00    -0.002 C 
HETATM   16  C25 UNL     1     -29.730 -21.513 -39.466  1.00  0.00     0.021 C 
HETATM   17  C26 UNL     1     -29.629 -20.217 -37.433  1.00  0.00     0.021 C 
ENDROOT
BRANCH   1  18
HETATM   18  O2  UNL     1     -27.490 -22.476 -38.390  1.00  0.00    -0.315 OA
BRANCH  18  19
HETATM   19  C5  UNL     1     -27.144 -23.235 -37.287  1.00  0.00     0.259 C 
HETATM   20  O1  UNL     1     -27.667 -22.949 -36.180  1.00  0.00    -0.265 OA
BRANCH  19  21
HETATM   21  C4  UNL     1     -26.189 -24.364 -37.342  1.00  0.00     0.115 C 
BRANCH  21  22
HETATM   22  C2  UNL     1     -25.689 -24.724 -35.953  1.00  0.00    -0.013 C 
HETATM   23  C1  UNL     1     -26.161 -26.077 -35.511  1.00  0.00     0.010 C 
HETATM   24  C3  UNL     1     -24.160 -24.692 -36.008  1.00  0.00     0.010 C 
ENDBRANCH  21  22
ENDBRANCH  19  21
ENDBRANCH  18  19
ENDBRANCH   1  18
BRANCH   3  25
HETATM   25  O3  UNL     1     -27.185 -21.146 -41.143  1.00  0.00    -0.384 OA
ATOM     26  H3  UNL     1     -27.969 -21.370 -40.655  1.00  0.00     0.211 HD
ENDBRANCH   3  25
BRANCH   7  27
HETATM   27  C13 UNL     1     -23.463 -18.680 -44.034  1.00  0.00    -0.013 C 
HETATM   28  C14 UNL     1     -22.727 -19.959 -44.421  1.00  0.00     0.010 C 
BRANCH  27  29
HETATM   29  C15 UNL     1     -22.687 -17.536 -44.548  1.00  0.00     0.015 C 
BRANCH  29  30
HETATM   30  C16 UNL     1     -23.113 -16.849 -45.777  1.00  0.00     0.113 C 
BRANCH  30  31
HETATM   31  C17 UNL     1     -24.081 -15.747 -45.629  1.00  0.00     0.172 C 
HETATM   32  O4  UNL     1     -23.728 -14.826 -44.808  1.00  0.00    -0.648 OA
HETATM   33  O5  UNL     1     -25.268 -15.681 -46.300  1.00  0.00    -0.648 OA
ENDBRANCH  30  31
ENDBRANCH  29  30
ENDBRANCH  27  29
ENDBRANCH   7  27
TORSDOF 9
ENDMDL
MODEL 5
REMARK VINA RESULT: -6.893949819      2.830      4.713
REMARK  9 active torsions:
REMARK  status: ('A' for Active; 'I' for Inactive)
REMARK    1  A    between atoms: C2_2  and  C4_4 
REMARK    2  A    between atoms: C4_4  and  C5_5 
REMARK    3  A    between atoms: C5_5  and  O2_7 
REMARK    4  A    between atoms: O2_7  and  C6_8 
REMARK    5  A    between atoms: C8_10  and  O3_11 
REMARK    6  A    between atoms: C12_16  and  C13_17 
REMARK    7  A    between atoms: C13_17  and  C15_19 
REMARK    8  A    between atoms: C15_19  and  C16_20 
REMARK    9  A    between atoms: C16_20  and  C17_21 
ROOT
HETATM    1  C6  UNL     1     -26.913 -21.508 -38.108  1.00  0.00     0.146 C 
HETATM    2  C7  UNL     1     -25.841 -20.873 -38.924  1.00  0.00     0.077 C 
HETATM    3  C8  UNL     1     -26.343 -20.399 -40.304  1.00  0.00     0.094 C 
HETATM    4  C9  UNL     1     -25.226 -19.681 -40.905  1.00  0.00     0.054 C 
HETATM    5  C10 UNL     1     -25.387 -19.153 -42.323  1.00  0.00    -0.020 C 
HETATM    6  C11 UNL     1     -26.005 -20.201 -43.189  1.00  0.00     0.017 C 
HETATM    7  C12 UNL     1     -24.010 -18.744 -42.688  1.00  0.00    -0.001 C 
HETATM    8  C18 UNL     1     -23.930 -17.330 -42.107  1.00  0.00     0.007 C 
HETATM    9  C19 UNL     1     -25.312 -16.809 -42.026  1.00  0.00     0.021 C 
HETATM   10  C20 UNL     1     -26.281 -17.963 -42.246  1.00  0.00     0.017 C 
HETATM   11  C21 UNL     1     -27.111 -17.679 -43.458  1.00  0.00     0.028 C 
HETATM   12  S1  UNL     1     -27.429 -17.920 -40.857  1.00  0.00    -0.121 SA
HETATM   13  C22 UNL     1     -27.436 -19.473 -40.017  1.00  0.00     0.010 C 
HETATM   14  C23 UNL     1     -28.361 -19.834 -39.134  1.00  0.00     0.002 C 
HETATM   15  C24 UNL     1     -28.310 -21.147 -38.435  1.00  0.00    -0.002 C 
HETATM   16  C25 UNL     1     -29.109 -22.221 -39.129  1.00  0.00     0.021 C 
HETATM   17  C26 UNL     1     -29.059 -20.903 -37.108  1.00  0.00     0.021 C 
ENDROOT
BRANCH   1  18
HETATM   18  O2  UNL     1     -26.724 -22.911 -38.160  1.00  0.00    -0.315 OA
BRANCH  18  19
HETATM   19  C5  UNL     1     -26.319 -23.625 -37.048  1.00  0.00     0.259 C 
HETATM   20  O1  UNL     1     -25.135 -24.045 -37.009  1.00  0.00    -0.265 OA
BRANCH  19  21
HETATM   21  C4  UNL     1     -27.207 -23.923 -35.902  1.00  0.00     0.115 C 
BRANCH  21  22
HETATM   22  C2  UNL     1     -28.508 -24.555 -36.369  1.00  0.00    -0.013 C 
HETATM   23  C1  UNL     1     -28.291 -25.891 -37.017  1.00  0.00     0.010 C 
HETATM   24  C3  UNL     1     -29.398 -24.707 -35.133  1.00  0.00     0.010 C 
ENDBRANCH  21  22
ENDBRANCH  19  21
ENDBRANCH  18  19
ENDBRANCH   1  18
BRANCH   3  25
HETATM   25  O3  UNL     1     -26.708 -21.582 -40.931  1.00  0.00    -0.384 OA
ATOM     26  H3  UNL     1     -27.455 -21.875 -40.421  1.00  0.00     0.211 HD
ENDBRANCH   3  25
BRANCH   7  27
HETATM   27  C13 UNL     1     -23.441 -18.735 -44.014  1.00  0.00    -0.013 C 
HETATM   28  C14 UNL     1     -22.678 -19.975 -44.473  1.00  0.00     0.010 C 
BRANCH  27  29
HETATM   29  C15 UNL     1     -22.732 -17.549 -44.531  1.00  0.00     0.015 C 
BRANCH  29  30
HETATM   30  C16 UNL     1     -23.221 -16.867 -45.739  1.00  0.00     0.113 C 
BRANCH  30  31
HETATM   31  C17 UNL     1     -24.242 -15.820 -45.552  1.00  0.00     0.172 C 
HETATM   32  O4  UNL     1     -23.912 -14.885 -44.739  1.00  0.00    -0.648 OA
HETATM   33  O5  UNL     1     -25.453 -15.817 -46.183  1.00  0.00    -0.648 OA
ENDBRANCH  30  31
ENDBRANCH  29  30
ENDBRANCH  27  29
ENDBRANCH   7  27
TORSDOF 9
ENDMDL
