MODEL 1
REMARK VINA RESULT: -6.319726144      0.000      0.000
REMARK  10 active torsions:
REMARK  status: ('A' for Active; 'I' for Inactive)
REMARK    1  A    between atoms: O1_2  and  C2_3 
REMARK    2  A    between atoms: C2_3  and  C3_4 
REMARK    3  A    between atoms: C3_4  and  C4_5 
REMARK    4  A    between atoms: C4_5  and  C5_6 
REMARK    5  A    between atoms: C5_6  and  C6_7 
REMARK    6  A    between atoms: C6_7  and  C7_8 
REMARK    7  A    between atoms: C7_8  and  O3_10 
REMARK    8  A    between atoms: C21_24  and  C22_25 
REMARK    9  A    between atoms: C22_25  and  O4_27 
REMARK   10  A    between atoms: C22_25  and  O5_29 
ROOT
HETATM    1  C3  UNL     1     -25.341 -18.586 -43.545  1.00  0.00    -0.015 C 
HETATM    2  C9  UNL     1     -24.658 -17.718 -42.543  1.00  0.00     0.013 C 
HETATM    3  C10 UNL     1     -25.289 -18.114 -41.184  1.00  0.00     0.011 C 
HETATM    4  C11 UNL     1     -25.292 -19.610 -41.355  1.00  0.00    -0.036 C 
HETATM    5  C12 UNL     1     -23.917 -20.172 -41.283  1.00  0.00     0.016 C 
HETATM    6  C13 UNL     1     -26.272 -20.341 -40.456  1.00  0.00    -0.002 C 
HETATM    7  C14 UNL     1     -25.991 -20.207 -39.012  1.00  0.00     0.006 C 
HETATM    8  C15 UNL     1     -26.479 -21.283 -38.125  1.00  0.00     0.010 C 
HETATM    9  C16 UNL     1     -27.404 -22.228 -38.778  1.00  0.00    -0.031 C 
HETATM   10  C17 UNL     1     -28.676 -21.489 -39.146  1.00  0.00     0.016 C 
HETATM   11  C18 UNL     1     -26.698 -22.783 -40.012  1.00  0.00    -0.001 C 
HETATM   12  C19 UNL     1     -27.691 -23.802 -40.470  1.00  0.00     0.006 C 
HETATM   13  C20 UNL     1     -27.962 -24.522 -39.138  1.00  0.00     0.011 C 
HETATM   14  C21 UNL     1     -27.770 -23.451 -38.057  1.00  0.00     0.056 C 
HETATM   15  C24 UNL     1     -26.233 -21.788 -40.969  1.00  0.00    -0.005 C 
HETATM   16  C25 UNL     1     -26.900 -21.837 -42.338  1.00  0.00     0.006 C 
HETATM   17  C26 UNL     1     -25.959 -21.048 -43.273  1.00  0.00     0.007 C 
HETATM   18  C27 UNL     1     -25.936 -19.684 -42.727  1.00  0.00     0.005 C 
ENDROOT
BRANCH   1  19
HETATM   19  C2  UNL     1     -26.531 -17.768 -44.074  1.00  0.00     0.176 C 
BRANCH  19  20
HETATM   20  O1  UNL     1     -26.902 -18.174 -45.335  1.00  0.00    -0.395 OA
HETATM   21  C1  UNL     1     -27.670 -17.184 -45.905  1.00  0.00     0.201 C 
ENDBRANCH  19  20
ENDBRANCH   1  19
BRANCH   1  22
HETATM   22  C4  UNL     1     -24.485 -19.053 -44.652  1.00  0.00     0.012 C 
BRANCH  22  23
HETATM   23  C5  UNL     1     -23.098 -18.589 -44.762  1.00  0.00     0.011 C 
BRANCH  23  24
HETATM   24  C6  UNL     1     -22.723 -17.521 -45.703  1.00  0.00     0.111 C 
BRANCH  24  25
HETATM   25  C7  UNL     1     -23.841 -16.927 -46.483  1.00  0.00     0.258 C 
HETATM   26  O2  UNL     1     -24.293 -17.378 -47.541  1.00  0.00    -0.265 OA
BRANCH  25  27
HETATM   27  O3  UNL     1     -24.414 -15.773 -45.967  1.00  0.00    -0.326 OA
HETATM   28  C8  UNL     1     -23.818 -15.001 -44.964  1.00  0.00     0.213 C 
ENDBRANCH  25  27
ENDBRANCH  24  25
ENDBRANCH  23  24
ENDBRANCH  22  23
ENDBRANCH   1  22
BRANCH  14  29
HETATM   29  C22 UNL     1     -26.887 -23.913 -36.959  1.00  0.00     0.159 C 
HETATM   30  C23 UNL     1     -27.098 -25.432 -36.828  1.00  0.00     0.079 C 
BRANCH  29  31
HETATM   31  O4  UNL     1     -25.544 -23.729 -37.130  1.00  0.00    -0.365 OA
ATOM     32  H4  UNL     1     -25.113 -24.287 -37.767  1.00  0.00     0.213 HD
ENDBRANCH  29  31
BRANCH  29  33
HETATM   33  O5  UNL     1     -27.343 -23.367 -35.765  1.00  0.00    -0.365 OA
ATOM     34  H5  UNL     1     -27.096 -22.450 -35.737  1.00  0.00     0.213 HD
ENDBRANCH  29  33
ENDBRANCH  14  29
TORSDOF 10
ENDMDL
MODEL 2
REMARK VINA RESULT: -6.284426385      4.538      6.321
REMARK  10 active torsions:
REMARK  status: ('A' for Active; 'I' for Inactive)
REMARK    1  A    between atoms: O1_2  and  C2_3 
REMARK    2  A    between atoms: C2_3  and  C3_4 
REMARK    3  A    between atoms: C3_4  and  C4_5 
REMARK    4  A    between atoms: C4_5  and  C5_6 
REMARK    5  A    between atoms: C5_6  and  C6_7 
REMARK    6  A    between atoms: C6_7  and  C7_8 
REMARK    7  A    between atoms: C7_8  and  O3_10 
REMARK    8  A    between atoms: C21_24  and  C22_25 
REMARK    9  A    between atoms: C22_25  and  O4_27 
REMARK   10  A    between atoms: C22_25  and  O5_29 
ROOT
HETATM    1  C3  UNL     1     -26.132 -16.863 -43.727  1.00  0.00    -0.015 C 
HETATM    2  C9  UNL     1     -26.918 -16.051 -44.700  1.00  0.00     0.013 C 
HETATM    3  C10 UNL     1     -28.358 -16.037 -44.129  1.00  0.00     0.011 C 
HETATM    4  C11 UNL     1     -28.032 -15.795 -42.679  1.00  0.00    -0.036 C 
HETATM    5  C12 UNL     1     -27.548 -14.408 -42.451  1.00  0.00     0.016 C 
HETATM    6  C13 UNL     1     -29.131 -16.199 -41.713  1.00  0.00    -0.002 C 
HETATM    7  C14 UNL     1     -30.387 -15.437 -41.867  1.00  0.00     0.006 C 
HETATM    8  C15 UNL     1     -31.261 -15.328 -40.681  1.00  0.00     0.010 C 
HETATM    9  C16 UNL     1     -30.876 -16.214 -39.566  1.00  0.00    -0.031 C 
HETATM   10  C17 UNL     1     -31.069 -17.655 -39.999  1.00  0.00     0.016 C 
HETATM   11  C18 UNL     1     -29.418 -15.918 -39.228  1.00  0.00    -0.001 C 
HETATM   12  C19 UNL     1     -29.230 -16.778 -38.019  1.00  0.00     0.006 C 
HETATM   13  C20 UNL     1     -30.481 -16.380 -37.217  1.00  0.00     0.011 C 
HETATM   14  C21 UNL     1     -31.538 -16.026 -38.271  1.00  0.00     0.056 C 
HETATM   15  C24 UNL     1     -28.477 -16.056 -40.331  1.00  0.00    -0.005 C 
HETATM   16  C25 UNL     1     -27.438 -17.158 -40.168  1.00  0.00     0.006 C 
HETATM   17  C26 UNL     1     -26.325 -16.815 -41.182  1.00  0.00     0.007 C 
HETATM   18  C27 UNL     1     -26.978 -16.872 -42.497  1.00  0.00     0.005 C 
ENDROOT
BRANCH   1  19
HETATM   19  C2  UNL     1     -26.155 -18.306 -44.261  1.00  0.00     0.176 C 
BRANCH  19  20
HETATM   20  O1  UNL     1     -24.964 -18.950 -44.022  1.00  0.00    -0.395 OA
HETATM   21  C1  UNL     1     -25.232 -20.143 -43.388  1.00  0.00     0.201 C 
ENDBRANCH  19  20
ENDBRANCH   1  19
BRANCH   1  22
HETATM   22  C4  UNL     1     -24.748 -16.402 -43.505  1.00  0.00     0.012 C 
BRANCH  22  23
HETATM   23  C5  UNL     1     -24.215 -15.266 -44.264  1.00  0.00     0.011 C 
BRANCH  23  24
HETATM   24  C6  UNL     1     -23.472 -15.467 -45.519  1.00  0.00     0.111 C 
BRANCH  24  25
HETATM   25  C7  UNL     1     -22.858 -16.809 -45.695  1.00  0.00     0.258 C 
HETATM   26  O2  UNL     1     -21.980 -17.295 -44.974  1.00  0.00    -0.265 OA
BRANCH  25  27
HETATM   27  O3  UNL     1     -23.319 -17.568 -46.763  1.00  0.00    -0.326 OA
HETATM   28  C8  UNL     1     -24.542 -17.334 -47.400  1.00  0.00     0.213 C 
ENDBRANCH  25  27
ENDBRANCH  24  25
ENDBRANCH  23  24
ENDBRANCH  22  23
ENDBRANCH   1  22
BRANCH  14  29
HETATM   29  C22 UNL     1     -32.191 -14.724 -37.996  1.00  0.00     0.159 C 
HETATM   30  C23 UNL     1     -32.338 -14.615 -36.467  1.00  0.00     0.079 C 
BRANCH  29  31
HETATM   31  O4  UNL     1     -31.522 -13.602 -38.394  1.00  0.00    -0.365 OA
ATOM     32  H4  UNL     1     -31.221 -13.016 -37.709  1.00  0.00     0.213 HD
ENDBRANCH  29  31
BRANCH  29  33
HETATM   33  O5  UNL     1     -33.488 -14.767 -38.493  1.00  0.00    -0.365 OA
ATOM     34  H5  UNL     1     -34.052 -14.272 -37.910  1.00  0.00     0.213 HD
ENDBRANCH  29  33
ENDBRANCH  14  29
TORSDOF 10
ENDMDL
MODEL 3
REMARK VINA RESULT: -6.259916296      1.729      2.819
REMARK  10 active torsions:
REMARK  status: ('A' for Active; 'I' for Inactive)
REMARK    1  A    between atoms: O1_2  and  C2_3 
REMARK    2  A    between atoms: C2_3  and  C3_4 
REMARK    3  A    between atoms: C3_4  and  C4_5 
REMARK    4  A    between atoms: C4_5  and  C5_6 
REMARK    5  A    between atoms: C5_6  and  C6_7 
REMARK    6  A    between atoms: C6_7  and  C7_8 
REMARK    7  A    between atoms: C7_8  and  O3_10 
REMARK    8  A    between atoms: C21_24  and  C22_25 
REMARK    9  A    between atoms: C22_25  and  O4_27 
REMARK   10  A    between atoms: C22_25  and  O5_29 
ROOT
HETATM    1  C3  UNL     1     -26.797 -16.585 -45.123  1.00  0.00    -0.015 C 
HETATM    2  C9  UNL     1     -27.147 -15.508 -44.152  1.00  0.00     0.013 C 
HETATM    3  C10 UNL     1     -27.785 -16.250 -42.951  1.00  0.00     0.011 C 
HETATM    4  C11 UNL     1     -26.815 -17.398 -42.845  1.00  0.00    -0.036 C 
HETATM    5  C12 UNL     1     -25.496 -16.952 -42.324  1.00  0.00     0.016 C 
HETATM    6  C13 UNL     1     -27.357 -18.610 -42.110  1.00  0.00    -0.002 C 
HETATM    7  C14 UNL     1     -27.685 -18.365 -40.691  1.00  0.00     0.006 C 
HETATM    8  C15 UNL     1     -27.654 -19.527 -39.779  1.00  0.00     0.010 C 
HETATM    9  C16 UNL     1     -27.541 -20.828 -40.466  1.00  0.00    -0.031 C 
HETATM   10  C17 UNL     1     -28.803 -21.064 -41.274  1.00  0.00     0.016 C 
HETATM   11  C18 UNL     1     -26.305 -20.770 -41.357  1.00  0.00    -0.001 C 
HETATM   12  C19 UNL     1     -26.256 -22.177 -41.863  1.00  0.00     0.006 C 
HETATM   13  C20 UNL     1     -26.426 -22.938 -40.537  1.00  0.00     0.011 C 
HETATM   14  C21 UNL     1     -27.281 -22.021 -39.654  1.00  0.00     0.056 C 
HETATM   15  C24 UNL     1     -26.280 -19.684 -42.327  1.00  0.00    -0.005 C 
HETATM   16  C25 UNL     1     -26.307 -20.112 -43.789  1.00  0.00     0.006 C 
HETATM   17  C26 UNL     1     -25.819 -18.879 -44.578  1.00  0.00     0.007 C 
HETATM   18  C27 UNL     1     -26.810 -17.830 -44.299  1.00  0.00     0.005 C 
ENDROOT
BRANCH   1  19
HETATM   19  C2  UNL     1     -27.998 -16.703 -46.076  1.00  0.00     0.176 C 
BRANCH  19  20
HETATM   20  O1  UNL     1     -27.616 -16.547 -47.389  1.00  0.00    -0.395 OA
HETATM   21  C1  UNL     1     -28.339 -17.429 -48.161  1.00  0.00     0.201 C 
ENDBRANCH  19  20
ENDBRANCH   1  19
BRANCH   1  22
HETATM   22  C4  UNL     1     -25.545 -16.367 -45.871  1.00  0.00     0.012 C 
BRANCH  22  23
HETATM   23  C5  UNL     1     -24.630 -15.288 -45.486  1.00  0.00     0.011 C 
BRANCH  23  24
HETATM   24  C6  UNL     1     -23.351 -15.574 -44.815  1.00  0.00     0.111 C 
BRANCH  24  25
HETATM   25  C7  UNL     1     -22.684 -16.840 -45.213  1.00  0.00     0.258 C 
HETATM   26  O2  UNL     1     -22.564 -17.841 -44.498  1.00  0.00    -0.265 OA
BRANCH  25  27
HETATM   27  O3  UNL     1     -22.157 -16.889 -46.497  1.00  0.00    -0.326 OA
HETATM   28  C8  UNL     1     -22.700 -17.674 -47.520  1.00  0.00     0.213 C 
ENDBRANCH  25  27
ENDBRANCH  24  25
ENDBRANCH  23  24
ENDBRANCH  22  23
ENDBRANCH   1  22
BRANCH  14  29
HETATM   29  C22 UNL     1     -26.698 -21.840 -38.303  1.00  0.00     0.159 C 
HETATM   30  C23 UNL     1     -26.140 -23.208 -37.872  1.00  0.00     0.079 C 
BRANCH  29  31
HETATM   31  O4  UNL     1     -25.664 -20.955 -38.190  1.00  0.00    -0.365 OA
ATOM     32  H4  UNL     1     -25.890 -20.033 -38.163  1.00  0.00     0.213 HD
ENDBRANCH  29  31
BRANCH  29  33
HETATM   33  O5  UNL     1     -27.728 -21.559 -37.412  1.00  0.00    -0.365 OA
ATOM     34  H5  UNL     1     -28.515 -22.000 -37.711  1.00  0.00     0.213 HD
ENDBRANCH  29  33
ENDBRANCH  14  29
TORSDOF 10
ENDMDL
MODEL 4
REMARK VINA RESULT: -6.240567048      0.878      1.108
REMARK  10 active torsions:
REMARK  status: ('A' for Active; 'I' for Inactive)
REMARK    1  A    between atoms: O1_2  and  C2_3 
REMARK    2  A    between atoms: C2_3  and  C3_4 
REMARK    3  A    between atoms: C3_4  and  C4_5 
REMARK    4  A    between atoms: C4_5  and  C5_6 
REMARK    5  A    between atoms: C5_6  and  C6_7 
REMARK    6  A    between atoms: C6_7  and  C7_8 
REMARK    7  A    between atoms: C7_8  and  O3_10 
REMARK    8  A    between atoms: C21_24  and  C22_25 
REMARK    9  A    between atoms: C22_25  and  O4_27 
REMARK   10  A    between atoms: C22_25  and  O5_29 
ROOT
HETATM    1  C3  UNL     1     -25.220 -18.257 -43.408  1.00  0.00    -0.015 C 
HETATM    2  C9  UNL     1     -24.407 -17.535 -42.387  1.00  0.00     0.013 C 
HETATM    3  C10 UNL     1     -24.981 -17.999 -41.025  1.00  0.00     0.011 C 
HETATM    4  C11 UNL     1     -25.116 -19.470 -41.319  1.00  0.00    -0.036 C 
HETATM    5  C12 UNL     1     -23.790 -20.138 -41.389  1.00  0.00     0.016 C 
HETATM    6  C13 UNL     1     -26.094 -20.202 -40.417  1.00  0.00    -0.002 C 
HETATM    7  C14 UNL     1     -25.713 -20.216 -38.990  1.00  0.00     0.006 C 
HETATM    8  C15 UNL     1     -26.229 -21.326 -38.163  1.00  0.00     0.010 C 
HETATM    9  C16 UNL     1     -27.267 -22.138 -38.826  1.00  0.00    -0.031 C 
HETATM   10  C17 UNL     1     -28.496 -21.276 -39.042  1.00  0.00     0.016 C 
HETATM   11  C18 UNL     1     -26.687 -22.634 -40.147  1.00  0.00    -0.001 C 
HETATM   12  C19 UNL     1     -27.786 -23.531 -40.618  1.00  0.00     0.006 C 
HETATM   13  C20 UNL     1     -28.030 -24.343 -39.334  1.00  0.00     0.011 C 
HETATM   14  C21 UNL     1     -27.685 -23.388 -38.184  1.00  0.00     0.056 C 
HETATM   15  C24 UNL     1     -26.204 -21.597 -41.050  1.00  0.00    -0.005 C 
HETATM   16  C25 UNL     1     -26.958 -21.475 -42.368  1.00  0.00     0.006 C 
HETATM   17  C26 UNL     1     -26.016 -20.680 -43.297  1.00  0.00     0.007 C 
HETATM   18  C27 UNL     1     -25.849 -19.375 -42.644  1.00  0.00     0.005 C 
ENDROOT
BRANCH   1  19
HETATM   19  C2  UNL     1     -26.371 -17.308 -43.784  1.00  0.00     0.176 C 
BRANCH  19  20
HETATM   20  O1  UNL     1     -26.000 -15.990 -43.650  1.00  0.00    -0.395 OA
HETATM   21  C1  UNL     1     -27.134 -15.238 -43.432  1.00  0.00     0.201 C 
ENDBRANCH  19  20
ENDBRANCH   1  19
BRANCH   1  22
HETATM   22  C4  UNL     1     -24.475 -18.689 -44.607  1.00  0.00     0.012 C 
BRANCH  22  23
HETATM   23  C5  UNL     1     -23.222 -18.024 -44.979  1.00  0.00     0.011 C 
BRANCH  23  24
HETATM   24  C6  UNL     1     -23.219 -16.824 -45.832  1.00  0.00     0.111 C 
BRANCH  24  25
HETATM   25  C7  UNL     1     -24.178 -16.838 -46.967  1.00  0.00     0.258 C 
HETATM   26  O2  UNL     1     -24.060 -17.513 -47.996  1.00  0.00    -0.265 OA
BRANCH  25  27
HETATM   27  O3  UNL     1     -25.295 -16.021 -46.848  1.00  0.00    -0.326 OA
HETATM   28  C8  UNL     1     -26.566 -16.388 -47.300  1.00  0.00     0.213 C 
ENDBRANCH  25  27
ENDBRANCH  24  25
ENDBRANCH  23  24
ENDBRANCH  22  23
ENDBRANCH   1  22
BRANCH  14  29
HETATM   29  C22 UNL     1     -26.774 -24.010 -37.192  1.00  0.00     0.159 C 
HETATM   30  C23 UNL     1     -27.067 -25.521 -37.206  1.00  0.00     0.079 C 
BRANCH  29  31
HETATM   31  O4  UNL     1     -25.434 -23.881 -37.420  1.00  0.00    -0.365 OA
ATOM     32  H4  UNL     1     -25.013 -24.577 -37.912  1.00  0.00     0.213 HD
ENDBRANCH  29  31
BRANCH  29  33
HETATM   33  O5  UNL     1     -27.136 -23.570 -35.925  1.00  0.00    -0.365 OA
ATOM     34  H5  UNL     1     -27.132 -22.620 -35.922  1.00  0.00     0.213 HD
ENDBRANCH  29  33
ENDBRANCH  14  29
TORSDOF 10
ENDMDL
MODEL 5
REMARK VINA RESULT: -6.240241170      3.812      6.046
REMARK  10 active torsions:
REMARK  status: ('A' for Active; 'I' for Inactive)
REMARK    1  A    between atoms: O1_2  and  C2_3 
REMARK    2  A    between atoms: C2_3  and  C3_4 
REMARK    3  A    between atoms: C3_4  and  C4_5 
REMARK    4  A    between atoms: C4_5  and  C5_6 
REMARK    5  A    between atoms: C5_6  and  C6_7 
REMARK    6  A    between atoms: C6_7  and  C7_8 
REMARK    7  A    between atoms: C7_8  and  O3_10 
REMARK    8  A    between atoms: C21_24  and  C22_25 
REMARK    9  A    between atoms: C22_25  and  O4_27 
REMARK   10  A    between atoms: C22_25  and  O5_29 
ROOT
HETATM    1  C3  UNL     1     -24.850 -16.960 -45.473  1.00  0.00    -0.015 C 
HETATM    2  C9  UNL     1     -24.051 -15.851 -44.878  1.00  0.00     0.013 C 
HETATM    3  C10 UNL     1     -25.083 -14.988 -44.109  1.00  0.00     0.011 C 
HETATM    4  C11 UNL     1     -25.873 -16.094 -43.459  1.00  0.00    -0.036 C 
HETATM    5  C12 UNL     1     -25.096 -16.759 -42.380  1.00  0.00     0.016 C 
HETATM    6  C13 UNL     1     -27.267 -15.690 -43.015  1.00  0.00    -0.002 C 
HETATM    7  C14 UNL     1     -27.294 -14.648 -41.968  1.00  0.00     0.006 C 
HETATM    8  C15 UNL     1     -28.480 -14.605 -41.088  1.00  0.00     0.010 C 
HETATM    9  C16 UNL     1     -29.597 -15.457 -41.541  1.00  0.00    -0.031 C 
HETATM   10  C17 UNL     1     -30.126 -14.910 -42.853  1.00  0.00     0.016 C 
HETATM   11  C18 UNL     1     -29.056 -16.875 -41.699  1.00  0.00    -0.001 C 
HETATM   12  C19 UNL     1     -30.313 -17.620 -42.020  1.00  0.00     0.006 C 
HETATM   13  C20 UNL     1     -31.229 -17.081 -40.909  1.00  0.00     0.011 C 
HETATM   14  C21 UNL     1     -30.729 -15.658 -40.631  1.00  0.00     0.056 C 
HETATM   15  C24 UNL     1     -27.917 -17.017 -42.596  1.00  0.00    -0.005 C 
HETATM   16  C25 UNL     1     -28.170 -17.851 -43.845  1.00  0.00     0.006 C 
HETATM   17  C26 UNL     1     -26.767 -18.232 -44.365  1.00  0.00     0.007 C 
HETATM   18  C27 UNL     1     -26.120 -16.952 -44.686  1.00  0.00     0.005 C 
ENDROOT
BRANCH   1  19
HETATM   19  C2  UNL     1     -25.234 -16.496 -46.888  1.00  0.00     0.176 C 
BRANCH  19  20
HETATM   20  O1  UNL     1     -26.526 -16.024 -46.930  1.00  0.00    -0.395 OA
HETATM   21  C1  UNL     1     -27.254 -16.823 -47.784  1.00  0.00     0.201 C 
ENDBRANCH  19  20
ENDBRANCH   1  19
BRANCH   1  22
HETATM   22  C4  UNL     1     -24.170 -18.269 -45.510  1.00  0.00     0.012 C 
BRANCH  22  23
HETATM   23  C5  UNL     1     -23.033 -18.538 -44.623  1.00  0.00     0.011 C 
BRANCH  23  24
HETATM   24  C6  UNL     1     -22.804 -19.879 -44.061  1.00  0.00     0.111 C 
BRANCH  24  25
HETATM   25  C7  UNL     1     -23.883 -20.402 -43.181  1.00  0.00     0.258 C 
HETATM   26  O2  UNL     1     -24.845 -21.080 -43.556  1.00  0.00    -0.265 OA
BRANCH  25  27
HETATM   27  O3  UNL     1     -23.786 -20.096 -41.830  1.00  0.00    -0.326 OA
HETATM   28  C8  UNL     1     -24.854 -20.224 -40.936  1.00  0.00     0.213 C 
ENDBRANCH  25  27
ENDBRANCH  24  25
ENDBRANCH  23  24
ENDBRANCH  22  23
ENDBRANCH   1  22
BRANCH  14  29
HETATM   29  C22 UNL     1     -30.524 -15.406 -39.184  1.00  0.00     0.159 C 
HETATM   30  C23 UNL     1     -31.677 -16.107 -38.444  1.00  0.00     0.079 C 
BRANCH  29  31
HETATM   31  O4  UNL     1     -29.370 -15.887 -38.633  1.00  0.00    -0.365 OA
ATOM     32  H4  UNL     1     -28.753 -15.244 -38.303  1.00  0.00     0.213 HD
ENDBRANCH  29  31
BRANCH  29  33
HETATM   33  O5  UNL     1     -30.695 -14.048 -38.943  1.00  0.00    -0.365 OA
ATOM     34  H5  UNL     1     -31.625 -13.869 -38.865  1.00  0.00     0.213 HD
ENDBRANCH  29  33
ENDBRANCH  14  29
TORSDOF 10
ENDMDL
