MODEL 1
REMARK VINA RESULT: -5.109113534      0.000      0.000
REMARK  2 active torsions:
REMARK  status: ('A' for Active; 'I' for Inactive)
REMARK    1  A    between atoms: C2_2  and  C3_3 
REMARK    2  A    between atoms: C3_3  and  O1_4 
ROOT
HETATM    1  C3  UNL     1      13.374  20.275  16.527  1.00  0.00     0.101 C 
HETATM    2  C4  UNL     1      13.260  19.959  17.997  1.00  0.00     0.210 C 
HETATM    3  O2  UNL     1      14.419  20.217  18.695  1.00  0.00    -0.383 OA
HETATM    4  C5  UNL     1      15.351  19.230  18.348  1.00  0.00     0.214 C 
HETATM    5  C6  UNL     1      15.670  19.400  16.906  1.00  0.00     0.014 C 
HETATM    6  S1  UNL     1      16.979  19.039  16.454  1.00  0.00    -0.087 SA
HETATM    7  C7  UNL     1      14.694  19.919  15.943  1.00  0.00     0.092 C 
ENDROOT
BRANCH   1   8
HETATM    8  C2  UNL     1      13.074  21.730  16.366  1.00  0.00     0.003 C 
HETATM    9  C1  UNL     1      11.984  22.228  16.930  1.00  0.00     0.010 C 
ENDBRANCH   1   8
BRANCH   1  10
HETATM   10  O1  UNL     1      12.320  19.597  15.880  1.00  0.00    -0.383 OA
ATOM     11  H1  UNL     1      12.646  18.721  15.707  1.00  0.00     0.211 HD
ENDBRANCH   1  10
TORSDOF 2
ENDMDL
MODEL 2
REMARK VINA RESULT: -4.903802660      2.656      4.408
REMARK  2 active torsions:
REMARK  status: ('A' for Active; 'I' for Inactive)
REMARK    1  A    between atoms: C2_2  and  C3_3 
REMARK    2  A    between atoms: C3_3  and  O1_4 
ROOT
HETATM    1  C3  UNL     1      16.787  18.806  18.166  1.00  0.00     0.101 C 
HETATM    2  C4  UNL     1      15.582  19.558  17.659  1.00  0.00     0.210 C 
HETATM    3  O2  UNL     1      15.255  19.239  16.359  1.00  0.00    -0.383 OA
HETATM    4  C5  UNL     1      16.220  19.818  15.526  1.00  0.00     0.214 C 
HETATM    5  C6  UNL     1      17.521  19.159  15.817  1.00  0.00     0.014 C 
HETATM    6  S1  UNL     1      18.472  19.036  14.755  1.00  0.00    -0.087 SA
HETATM    7  C7  UNL     1      17.855  18.638  17.145  1.00  0.00     0.092 C 
ENDROOT
BRANCH   1   8
HETATM    8  C2  UNL     1      16.300  17.489  18.677  1.00  0.00     0.003 C 
HETATM    9  C1  UNL     1      17.177  16.626  19.168  1.00  0.00     0.010 C 
ENDBRANCH   1   8
BRANCH   1  10
HETATM   10  O1  UNL     1      17.256  19.503  19.299  1.00  0.00    -0.383 OA
ATOM     11  H1  UNL     1      16.479  19.796  19.760  1.00  0.00     0.211 HD
ENDBRANCH   1  10
TORSDOF 2
ENDMDL
MODEL 3
REMARK VINA RESULT: -4.660403743      2.775      4.208
REMARK  2 active torsions:
REMARK  status: ('A' for Active; 'I' for Inactive)
REMARK    1  A    between atoms: C2_2  and  C3_3 
REMARK    2  A    between atoms: C3_3  and  O1_4 
ROOT
HETATM    1  C3  UNL     1      16.764  19.313  15.830  1.00  0.00     0.101 C 
HETATM    2  C4  UNL     1      17.363  18.903  17.152  1.00  0.00     0.210 C 
HETATM    3  O2  UNL     1      16.479  18.215  17.954  1.00  0.00    -0.383 OA
HETATM    4  C5  UNL     1      15.540  19.136  18.435  1.00  0.00     0.214 C 
HETATM    5  C6  UNL     1      14.764  19.639  17.271  1.00  0.00     0.014 C 
HETATM    6  S1  UNL     1      13.401  20.022  17.478  1.00  0.00    -0.087 SA
HETATM    7  C7  UNL     1      15.347  19.754  15.931  1.00  0.00     0.092 C 
ENDROOT
BRANCH   1   8
HETATM    8  C2  UNL     1      16.916  18.154  14.900  1.00  0.00     0.003 C 
HETATM    9  C1  UNL     1      18.062  17.994  14.255  1.00  0.00     0.010 C 
ENDBRANCH   1   8
BRANCH   1  10
HETATM   10  O1  UNL     1      17.588  20.332  15.306  1.00  0.00    -0.383 OA
ATOM     11  H1  UNL     1      18.227  19.888  14.760  1.00  0.00     0.211 HD
ENDBRANCH   1  10
TORSDOF 2
ENDMDL
MODEL 4
REMARK VINA RESULT: -4.656468554      2.581      3.856
REMARK  2 active torsions:
REMARK  status: ('A' for Active; 'I' for Inactive)
REMARK    1  A    between atoms: C2_2  and  C3_3 
REMARK    2  A    between atoms: C3_3  and  O1_4 
ROOT
HETATM    1  C3  UNL     1      16.581  18.897  15.789  1.00  0.00     0.101 C 
HETATM    2  C4  UNL     1      15.392  19.670  16.302  1.00  0.00     0.210 C 
HETATM    3  O2  UNL     1      15.547  20.097  17.603  1.00  0.00    -0.383 OA
HETATM    4  C5  UNL     1      15.433  18.975  18.433  1.00  0.00     0.214 C 
HETATM    5  C6  UNL     1      16.579  18.076  18.135  1.00  0.00     0.014 C 
HETATM    6  S1  UNL     1      17.095  17.262  19.193  1.00  0.00    -0.087 SA
HETATM    7  C7  UNL     1      17.189  17.997  16.805  1.00  0.00     0.092 C 
ENDROOT
BRANCH   1   8
HETATM    8  C2  UNL     1      17.568  19.897  15.279  1.00  0.00     0.003 C 
HETATM    9  C1  UNL     1      18.718  19.469  14.780  1.00  0.00     0.010 C 
ENDBRANCH   1   8
BRANCH   1  10
HETATM   10  O1  UNL     1      16.145  18.181  14.654  1.00  0.00    -0.383 OA
ATOM     11  H1  UNL     1      16.836  18.279  14.009  1.00  0.00     0.211 HD
ENDBRANCH   1  10
TORSDOF 2
ENDMDL
MODEL 5
REMARK VINA RESULT: -4.395302705      1.812      2.524
REMARK  2 active torsions:
REMARK  status: ('A' for Active; 'I' for Inactive)
REMARK    1  A    between atoms: C2_2  and  C3_3 
REMARK    2  A    between atoms: C3_3  and  O1_4 
ROOT
HETATM    1  C3  UNL     1      14.344  20.065  17.463  1.00  0.00     0.101 C 
HETATM    2  C4  UNL     1      15.120  20.227  16.180  1.00  0.00     0.210 C 
HETATM    3  O2  UNL     1      15.726  19.062  15.767  1.00  0.00    -0.383 OA
HETATM    4  C5  UNL     1      16.805  18.817  16.626  1.00  0.00     0.214 C 
HETATM    5  C6  UNL     1      16.251  18.558  17.981  1.00  0.00     0.014 C 
HETATM    6  S1  UNL     1      16.966  17.671  18.848  1.00  0.00    -0.087 SA
HETATM    7  C7  UNL     1      15.009  19.176  18.452  1.00  0.00     0.092 C 
ENDROOT
BRANCH   1   8
HETATM    8  C2  UNL     1      12.986  19.562  17.095  1.00  0.00     0.003 C 
HETATM    9  C1  UNL     1      12.346  20.124  16.080  1.00  0.00     0.010 C 
ENDBRANCH   1   8
BRANCH   1  10
HETATM   10  O1  UNL     1      14.140  21.361  17.984  1.00  0.00    -0.383 OA
ATOM     11  H1  UNL     1      13.673  21.838  17.308  1.00  0.00     0.211 HD
ENDBRANCH   1  10
TORSDOF 2
ENDMDL
