MODEL 1
REMARK VINA RESULT: -4.305402000      0.000      0.000
REMARK  1 active torsions:
REMARK  status: ('A' for Active; 'I' for Inactive)
REMARK    1  A    between atoms: C1_2  and  C2_4 
ROOT
HETATM    1  C2  UNL     1      16.622  18.451  17.667  1.00  0.00     0.107 C 
HETATM    2  C3  UNL     1      17.664  19.284  16.945  1.00  0.00     0.102 C 
HETATM    3  S1  UNL     1      16.781  19.586  15.350  1.00  0.00    -0.097 SA
HETATM    4  S2  UNL     1      14.829  19.704  16.286  1.00  0.00    -0.097 SA
HETATM    5  C4  UNL     1      15.480  19.398  17.983  1.00  0.00     0.102 C 
ENDROOT
BRANCH   1   6
HETATM    6  C1  UNL     1      17.134  17.750  18.831  1.00  0.00     0.178 C 
HETATM    7  O1  UNL     1      16.534  16.766  19.303  1.00  0.00    -0.648 OA
HETATM    8  O2  UNL     1      18.299  18.167  19.432  1.00  0.00    -0.648 OA
ENDBRANCH   1   6
TORSDOF 1
ENDMDL
MODEL 2
REMARK VINA RESULT: -4.238455043      0.068      1.129
REMARK  1 active torsions:
REMARK  status: ('A' for Active; 'I' for Inactive)
REMARK    1  A    between atoms: C1_2  and  C2_4 
ROOT
HETATM    1  C2  UNL     1      16.669  18.480  17.650  1.00  0.00     0.107 C 
HETATM    2  C3  UNL     1      17.695  19.308  16.900  1.00  0.00     0.102 C 
HETATM    3  S1  UNL     1      16.796  19.564  15.306  1.00  0.00    -0.097 SA
HETATM    4  S2  UNL     1      14.850  19.679  16.256  1.00  0.00    -0.097 SA
HETATM    5  C4  UNL     1      15.519  19.420  17.953  1.00  0.00     0.102 C 
ENDROOT
BRANCH   1   6
HETATM    6  C1  UNL     1      17.199  17.811  18.825  1.00  0.00     0.178 C 
HETATM    7  O1  UNL     1      18.236  18.219  19.382  1.00  0.00    -0.648 OA
HETATM    8  O2  UNL     1      16.557  16.710  19.342  1.00  0.00    -0.648 OA
ENDBRANCH   1   6
TORSDOF 1
ENDMDL
MODEL 3
REMARK VINA RESULT: -4.074986852      2.894      3.496
REMARK  1 active torsions:
REMARK  status: ('A' for Active; 'I' for Inactive)
REMARK    1  A    between atoms: C1_2  and  C2_4 
ROOT
HETATM    1  C2  UNL     1      17.174  19.138  16.138  1.00  0.00     0.107 C 
HETATM    2  C3  UNL     1      17.194  18.113  17.256  1.00  0.00     0.102 C 
HETATM    3  S1  UNL     1      16.111  18.963  18.488  1.00  0.00    -0.097 SA
HETATM    4  S2  UNL     1      14.827  19.835  16.974  1.00  0.00    -0.097 SA
HETATM    5  C4  UNL     1      15.769  19.103  15.569  1.00  0.00     0.102 C 
ENDROOT
BRANCH   1   6
HETATM    6  C1  UNL     1      18.211  18.940  15.141  1.00  0.00     0.178 C 
HETATM    7  O1  UNL     1      18.906  19.892  14.741  1.00  0.00    -0.648 OA
HETATM    8  O2  UNL     1      18.439  17.687  14.621  1.00  0.00    -0.648 OA
ENDBRANCH   1   6
TORSDOF 1
ENDMDL
MODEL 4
REMARK VINA RESULT: -4.045661407      3.313      3.847
REMARK  1 active torsions:
REMARK  status: ('A' for Active; 'I' for Inactive)
REMARK    1  A    between atoms: C1_2  and  C2_4 
ROOT
HETATM    1  C2  UNL     1      15.132  19.866  17.011  1.00  0.00     0.107 C 
HETATM    2  C3  UNL     1      15.673  19.186  15.768  1.00  0.00     0.102 C 
HETATM    3  S1  UNL     1      17.480  19.205  16.153  1.00  0.00    -0.097 SA
HETATM    4  S2  UNL     1      17.176  18.914  18.280  1.00  0.00    -0.097 SA
HETATM    5  C4  UNL     1      15.338  18.880  18.145  1.00  0.00     0.102 C 
ENDROOT
BRANCH   1   6
HETATM    6  C1  UNL     1      13.761  20.324  16.882  1.00  0.00     0.178 C 
HETATM    7  O1  UNL     1      13.382  20.933  15.864  1.00  0.00    -0.648 OA
HETATM    8  O2  UNL     1      12.855  20.090  17.890  1.00  0.00    -0.648 OA
ENDBRANCH   1   6
TORSDOF 1
ENDMDL
MODEL 5
REMARK VINA RESULT: -4.032214332      3.316      3.793
REMARK  1 active torsions:
REMARK  status: ('A' for Active; 'I' for Inactive)
REMARK    1  A    between atoms: C1_2  and  C2_4 
ROOT
HETATM    1  C2  UNL     1      15.126  19.865  17.037  1.00  0.00     0.107 C 
HETATM    2  C3  UNL     1      15.639  19.199  15.775  1.00  0.00     0.102 C 
HETATM    3  S1  UNL     1      17.455  19.225  16.115  1.00  0.00    -0.097 SA
HETATM    4  S2  UNL     1      17.207  18.916  18.246  1.00  0.00    -0.097 SA
HETATM    5  C4  UNL     1      15.367  18.872  18.158  1.00  0.00     0.102 C 
ENDROOT
BRANCH   1   6
HETATM    6  C1  UNL     1      13.749  20.316  16.946  1.00  0.00     0.178 C 
HETATM    7  O1  UNL     1      12.935  20.079  17.858  1.00  0.00    -0.648 OA
HETATM    8  O2  UNL     1      13.323  21.018  15.842  1.00  0.00    -0.648 OA
ENDBRANCH   1   6
TORSDOF 1
ENDMDL
