MODEL 1
REMARK VINA RESULT: -4.205501626      0.000      0.000
REMARK  2 active torsions:
REMARK  status: ('A' for Active; 'I' for Inactive)
REMARK    1  A    between atoms: N1_1  and  C1_4 
REMARK    2  A    between atoms: C7_10  and  N2_11 
ROOT
HETATM    1  C1  UNL     1      10.970  25.061  14.995  1.00  0.00     0.030 C 
HETATM    2  C2  UNL     1      11.568  24.690  13.615  1.00  0.00     0.038 C 
HETATM    3  C3  UNL     1      12.701  23.851  14.248  1.00  0.00     0.023 C 
HETATM    4  C4  UNL     1      13.325  25.063  14.975  1.00  0.00     0.014 C 
HETATM    5  C5  UNL     1      12.119  25.214  15.929  1.00  0.00     0.016 C 
HETATM    6  C6  UNL     1      12.329  23.827  16.579  1.00  0.00     0.045 C 
HETATM    7  C7  UNL     1      11.962  23.077  15.281  1.00  0.00     0.103 C 
HETATM    8  C8  UNL     1      10.509  23.611  15.281  1.00  0.00     0.068 C 
ENDROOT
BRANCH   1   9
HETATM    9  N1  UNL     1       9.976  26.006  14.975  1.00  0.00    -0.421 N 
ATOM     10  H12 UNL     1       9.678  26.443  14.103  1.00  0.00     0.150 HD
ATOM     11  H11 UNL     1       9.567  26.235  15.881  1.00  0.00     0.150 HD
ENDBRANCH   1   9
BRANCH   7  12
HETATM   12  N2  UNL     1      12.092  21.712  15.340  1.00  0.00    -0.145 N 
HETATM   13  O1  UNL     1      11.245  20.919  14.849  1.00  0.00    -0.536 OA
HETATM   14  O2  UNL     1      13.174  21.135  15.948  1.00  0.00    -0.536 OA
ENDBRANCH   7  12
TORSDOF 2
ENDMDL
MODEL 2
REMARK VINA RESULT: -4.155680125      0.734      1.173
REMARK  2 active torsions:
REMARK  status: ('A' for Active; 'I' for Inactive)
REMARK    1  A    between atoms: N1_1  and  C1_4 
REMARK    2  A    between atoms: C7_10  and  N2_11 
ROOT
HETATM    1  C1  UNL     1      10.824  24.957  14.929  1.00  0.00     0.030 C 
HETATM    2  C2  UNL     1      11.268  24.617  13.485  1.00  0.00     0.038 C 
HETATM    3  C3  UNL     1      12.226  23.502  13.962  1.00  0.00     0.023 C 
HETATM    4  C4  UNL     1      13.123  24.479  14.756  1.00  0.00     0.014 C 
HETATM    5  C5  UNL     1      12.020  24.773  15.796  1.00  0.00     0.016 C 
HETATM    6  C6  UNL     1      11.962  23.313  16.299  1.00  0.00     0.045 C 
HETATM    7  C7  UNL     1      11.388  22.794  14.964  1.00  0.00     0.103 C 
HETATM    8  C8  UNL     1      10.081  23.611  15.108  1.00  0.00     0.068 C 
ENDROOT
BRANCH   1   9
HETATM    9  N1  UNL     1      10.051  26.083  15.062  1.00  0.00    -0.421 N 
ATOM     10  H12 UNL     1       9.038  26.047  14.949  1.00  0.00     0.150 HD
ATOM     11  H11 UNL     1      10.557  26.942  15.276  1.00  0.00     0.150 HD
ENDBRANCH   1   9
BRANCH   7  12
HETATM   12  N2  UNL     1      11.230  21.432  14.888  1.00  0.00    -0.145 N 
HETATM   13  O1  UNL     1      11.952  20.620  15.525  1.00  0.00    -0.536 OA
HETATM   14  O2  UNL     1      10.257  20.880  14.098  1.00  0.00    -0.536 OA
ENDBRANCH   7  12
TORSDOF 2
ENDMDL
MODEL 3
REMARK VINA RESULT: -3.907080041      7.936      9.091
REMARK  2 active torsions:
REMARK  status: ('A' for Active; 'I' for Inactive)
REMARK    1  A    between atoms: N1_1  and  C1_4 
REMARK    2  A    between atoms: C7_10  and  N2_11 
ROOT
HETATM    1  C1  UNL     1       8.035  16.538  12.850  1.00  0.00     0.030 C 
HETATM    2  C2  UNL     1       8.459  15.266  12.075  1.00  0.00     0.038 C 
HETATM    3  C3  UNL     1       8.052  15.869  10.712  1.00  0.00     0.023 C 
HETATM    4  C4  UNL     1       6.561  15.986  11.099  1.00  0.00     0.014 C 
HETATM    5  C5  UNL     1       6.837  17.081  12.154  1.00  0.00     0.016 C 
HETATM    6  C6  UNL     1       7.369  18.092  11.113  1.00  0.00     0.045 C 
HETATM    7  C7  UNL     1       8.619  17.240  10.809  1.00  0.00     0.103 C 
HETATM    8  C8  UNL     1       9.177  17.390  12.245  1.00  0.00     0.068 C 
ENDROOT
BRANCH   1   9
HETATM    9  N1  UNL     1       8.039  16.427  14.218  1.00  0.00    -0.421 N 
ATOM     10  H12 UNL     1       8.402  15.595  14.681  1.00  0.00     0.150 HD
ATOM     11  H11 UNL     1       7.657  17.225  14.725  1.00  0.00     0.150 HD
ENDBRANCH   1   9
BRANCH   7  12
HETATM   12  N2  UNL     1       9.423  17.723   9.807  1.00  0.00    -0.145 N 
HETATM   13  O1  UNL     1       8.971  18.256   8.759  1.00  0.00    -0.536 OA
HETATM   14  O2  UNL     1      10.787  17.649   9.903  1.00  0.00    -0.536 OA
ENDBRANCH   7  12
TORSDOF 2
ENDMDL
MODEL 4
REMARK VINA RESULT: -3.837146556      1.205      1.812
REMARK  2 active torsions:
REMARK  status: ('A' for Active; 'I' for Inactive)
REMARK    1  A    between atoms: N1_1  and  C1_4 
REMARK    2  A    between atoms: C7_10  and  N2_11 
ROOT
HETATM    1  C1  UNL     1      12.017  24.768  13.857  1.00  0.00     0.030 C 
HETATM    2  C2  UNL     1      13.327  24.112  14.360  1.00  0.00     0.038 C 
HETATM    3  C3  UNL     1      12.591  23.300  15.449  1.00  0.00     0.023 C 
HETATM    4  C4  UNL     1      12.109  24.561  16.201  1.00  0.00     0.014 C 
HETATM    5  C5  UNL     1      11.160  24.979  15.056  1.00  0.00     0.016 C 
HETATM    6  C6  UNL     1      10.282  23.713  15.182  1.00  0.00     0.045 C 
HETATM    7  C7  UNL     1      11.416  22.785  14.697  1.00  0.00     0.103 C 
HETATM    8  C8  UNL     1      11.466  23.436  13.294  1.00  0.00     0.068 C 
ENDROOT
BRANCH   1   9
HETATM    9  N1  UNL     1      12.173  25.779  12.942  1.00  0.00    -0.421 N 
ATOM     10  H12 UNL     1      12.748  26.595  13.149  1.00  0.00     0.150 HD
ATOM     11  H11 UNL     1      11.680  25.653  12.059  1.00  0.00     0.150 HD
ENDBRANCH   1   9
BRANCH   7  12
HETATM   12  N2  UNL     1      11.120  21.445  14.719  1.00  0.00    -0.145 N 
HETATM   13  O1  UNL     1      10.173  20.939  14.061  1.00  0.00    -0.536 OA
HETATM   14  O2  UNL     1      11.859  20.574  15.475  1.00  0.00    -0.536 OA
ENDBRANCH   7  12
TORSDOF 2
ENDMDL
MODEL 5
REMARK VINA RESULT: -3.744840346      7.450      8.553
REMARK  2 active torsions:
REMARK  status: ('A' for Active; 'I' for Inactive)
REMARK    1  A    between atoms: N1_1  and  C1_4 
REMARK    2  A    between atoms: C7_10  and  N2_11 
ROOT
HETATM    1  C1  UNL     1       8.111  18.461  11.313  1.00  0.00     0.030 C 
HETATM    2  C2  UNL     1       8.521  18.662  12.793  1.00  0.00     0.038 C 
HETATM    3  C3  UNL     1       7.724  17.423  13.260  1.00  0.00     0.023 C 
HETATM    4  C4  UNL     1       6.363  18.014  12.827  1.00  0.00     0.014 C 
HETATM    5  C5  UNL     1       6.718  17.937  11.325  1.00  0.00     0.016 C 
HETATM    6  C6  UNL     1       6.840  16.397  11.328  1.00  0.00     0.045 C 
HETATM    7  C7  UNL     1       8.094  16.420  12.227  1.00  0.00     0.103 C 
HETATM    8  C8  UNL     1       8.945  17.164  11.170  1.00  0.00     0.068 C 
ENDROOT
BRANCH   1   9
HETATM    9  N1  UNL     1       8.450  19.481  10.460  1.00  0.00    -0.421 N 
ATOM     10  H12 UNL     1       8.622  19.308   9.470  1.00  0.00     0.150 HD
ATOM     11  H11 UNL     1       8.517  20.406  10.885  1.00  0.00     0.150 HD
ENDBRANCH   1   9
BRANCH   7  12
HETATM   12  N2  UNL     1       8.563  15.187  12.605  1.00  0.00    -0.145 N 
HETATM   13  O1  UNL     1       8.986  14.331  11.782  1.00  0.00    -0.536 OA
HETATM   14  O2  UNL     1       8.595  14.820  13.924  1.00  0.00    -0.536 OA
ENDBRANCH   7  12
TORSDOF 2
ENDMDL
