MODEL 1
REMARK VINA RESULT: -6.096776515      0.000      0.000
REMARK  1 active torsions:
REMARK  status: ('A' for Active; 'I' for Inactive)
REMARK    1  A    between atoms: C1_2  and  C2_4 
ROOT
HETATM    1  C2  UNL     1      15.932  19.033  16.422  1.00  0.00     0.151 C 
HETATM    2  C3  UNL     1      16.873  19.757  15.458  1.00  0.00     0.228 C 
HETATM    3  O3  UNL     1      17.964  18.911  15.468  1.00  0.00    -0.239 OA
HETATM    4  O4  UNL     1      17.926  18.084  16.440  1.00  0.00    -0.229 OA
HETATM    5  C4  UNL     1      16.946  18.489  17.348  1.00  0.00     0.112 C 
HETATM    6  C5  UNL     1      16.534  17.471  18.350  1.00  0.00     0.042 C 
HETATM    7  C6  UNL     1      17.610  18.046  19.276  1.00  0.00     0.006 C 
HETATM    8  C7  UNL     1      17.543  19.315  18.415  1.00  0.00     0.042 C 
ENDROOT
BRANCH   1   9
HETATM    9  C1  UNL     1      14.856  19.836  16.940  1.00  0.00     0.182 C 
HETATM   10  O1  UNL     1      14.705  20.116  18.153  1.00  0.00    -0.648 OA
HETATM   11  O2  UNL     1      13.908  20.350  16.067  1.00  0.00    -0.648 OA
ENDBRANCH   1   9
TORSDOF 1
ENDMDL
MODEL 2
REMARK VINA RESULT: -5.937011137      1.043      2.894
REMARK  1 active torsions:
REMARK  status: ('A' for Active; 'I' for Inactive)
REMARK    1  A    between atoms: C1_2  and  C2_4 
ROOT
HETATM    1  C2  UNL     1      16.731  19.401  16.936  1.00  0.00     0.151 C 
HETATM    2  C3  UNL     1      15.242  19.678  16.723  1.00  0.00     0.228 C 
HETATM    3  O3  UNL     1      14.820  19.871  18.023  1.00  0.00    -0.239 OA
HETATM    4  O4  UNL     1      15.676  19.461  18.875  1.00  0.00    -0.229 OA
HETATM    5  C4  UNL     1      16.636  18.684  18.224  1.00  0.00     0.112 C 
HETATM    6  C5  UNL     1      17.880  18.416  18.993  1.00  0.00     0.042 C 
HETATM    7  C6  UNL     1      17.209  17.136  19.501  1.00  0.00     0.006 C 
HETATM    8  C7  UNL     1      16.272  17.256  18.290  1.00  0.00     0.042 C 
ENDROOT
BRANCH   1   9
HETATM    9  C1  UNL     1      17.399  18.777  15.825  1.00  0.00     0.182 C 
HETATM   10  O1  UNL     1      18.636  18.583  15.763  1.00  0.00    -0.648 OA
HETATM   11  O2  UNL     1      16.654  18.351  14.734  1.00  0.00    -0.648 OA
ENDBRANCH   1   9
TORSDOF 1
ENDMDL
MODEL 3
REMARK VINA RESULT: -5.890289009      1.666      3.185
REMARK  1 active torsions:
REMARK  status: ('A' for Active; 'I' for Inactive)
REMARK    1  A    between atoms: C1_2  and  C2_4 
ROOT
HETATM    1  C2  UNL     1      15.746  18.594  17.356  1.00  0.00     0.151 C 
HETATM    2  C3  UNL     1      14.860  19.833  17.502  1.00  0.00     0.228 C 
HETATM    3  O3  UNL     1      14.620  20.145  16.179  1.00  0.00    -0.239 OA
HETATM    4  O4  UNL     1      15.418  19.541  15.387  1.00  0.00    -0.229 OA
HETATM    5  C4  UNL     1      16.464  18.986  16.126  1.00  0.00     0.112 C 
HETATM    6  C5  UNL     1      17.288  17.971  15.419  1.00  0.00     0.042 C 
HETATM    7  C6  UNL     1      18.213  19.115  14.994  1.00  0.00     0.006 C 
HETATM    8  C7  UNL     1      17.614  19.910  16.163  1.00  0.00     0.042 C 
ENDROOT
BRANCH   1   9
HETATM    9  C1  UNL     1      16.493  18.239  18.532  1.00  0.00     0.182 C 
HETATM   10  O1  UNL     1      17.087  19.063  19.267  1.00  0.00    -0.648 OA
HETATM   11  O2  UNL     1      16.581  16.905  18.907  1.00  0.00    -0.648 OA
ENDBRANCH   1   9
TORSDOF 1
ENDMDL
MODEL 4
REMARK VINA RESULT: -5.522262551      1.267      2.735
REMARK  1 active torsions:
REMARK  status: ('A' for Active; 'I' for Inactive)
REMARK    1  A    between atoms: C1_2  and  C2_4 
ROOT
HETATM    1  C2  UNL     1      16.064  19.509  17.532  1.00  0.00     0.151 C 
HETATM    2  C3  UNL     1      16.127  18.357  18.536  1.00  0.00     0.228 C 
HETATM    3  O3  UNL     1      17.481  18.085  18.541  1.00  0.00    -0.239 OA
HETATM    4  O4  UNL     1      18.086  18.621  17.554  1.00  0.00    -0.229 OA
HETATM    5  C4  UNL     1      17.143  19.067  16.626  1.00  0.00     0.112 C 
HETATM    6  C5  UNL     1      17.649  20.009  15.593  1.00  0.00     0.042 C 
HETATM    7  C6  UNL     1      17.921  18.789  14.709  1.00  0.00     0.006 C 
HETATM    8  C7  UNL     1      16.914  18.039  15.592  1.00  0.00     0.042 C 
ENDROOT
BRANCH   1   9
HETATM    9  C1  UNL     1      14.755  19.779  16.999  1.00  0.00     0.182 C 
HETATM   10  O1  UNL     1      14.480  19.791  15.775  1.00  0.00    -0.648 OA
HETATM   11  O2  UNL     1      13.707  20.047  17.868  1.00  0.00    -0.648 OA
ENDBRANCH   1   9
TORSDOF 1
ENDMDL
MODEL 5
REMARK VINA RESULT: -4.557170833      5.989      7.469
REMARK  1 active torsions:
REMARK  status: ('A' for Active; 'I' for Inactive)
REMARK    1  A    between atoms: C1_2  and  C2_4 
ROOT
HETATM    1  C2  UNL     1      11.591  24.880  14.425  1.00  0.00     0.151 C 
HETATM    2  C3  UNL     1      12.893  25.663  14.242  1.00  0.00     0.228 C 
HETATM    3  O3  UNL     1      13.801  24.634  14.090  1.00  0.00    -0.239 OA
HETATM    4  O4  UNL     1      13.323  23.508  14.453  1.00  0.00    -0.229 OA
HETATM    5  C4  UNL     1      12.137  23.720  15.159  1.00  0.00     0.112 C 
HETATM    6  C5  UNL     1      11.279  22.522  15.355  1.00  0.00     0.042 C 
HETATM    7  C6  UNL     1      12.013  22.297  16.681  1.00  0.00     0.006 C 
HETATM    8  C7  UNL     1      12.406  23.779  16.609  1.00  0.00     0.042 C 
ENDROOT
BRANCH   1   9
HETATM    9  C1  UNL     1      10.504  25.631  14.992  1.00  0.00     0.182 C 
HETATM   10  O1  UNL     1       9.292  25.350  14.832  1.00  0.00    -0.648 OA
HETATM   11  O2  UNL     1      10.779  26.746  15.772  1.00  0.00    -0.648 OA
ENDBRANCH   1   9
TORSDOF 1
ENDMDL
