MODEL 1
REMARK VINA RESULT: -6.939805620      0.000      0.000
REMARK  9 active torsions:
REMARK  status: ('A' for Active; 'I' for Inactive)
REMARK    1  A    between atoms: O1_2  and  C2_3 
REMARK    2  A    between atoms: C3_4  and  C4_5 
REMARK    3  A    between atoms: C4_5  and  O2_6 
REMARK    4  A    between atoms: O2_6  and  C5_7 
REMARK    5  A    between atoms: C7_11  and  O4_12 
REMARK    6  A    between atoms: C8_14  and  N2_15 
REMARK    7  A    between atoms: C16_25  and  O5_26 
REMARK    8  A    between atoms: C21_36  and  O6_37 
REMARK    9  A    between atoms: O6_37  and  C22_38 
ROOT
HETATM    1  C2  UNL     1      14.567  76.565  -1.238  1.00  0.00     0.197 A 
HETATM    2  C3  UNL     1      13.869  77.038  -2.469  1.00  0.00     0.037 A 
HETATM    3  C6  UNL     1      13.132  75.913  -2.987  1.00  0.00     0.042 A 
HETATM    4  C7  UNL     1      12.322  75.743  -4.097  1.00  0.00     0.107 A 
HETATM    5  C8  UNL     1      11.707  74.518  -4.382  1.00  0.00     0.094 A 
HETATM    6  C15 UNL     1      11.916  73.461  -3.532  1.00  0.00     0.111 A 
HETATM    7  N3  UNL     1      11.279  72.230  -3.849  1.00  0.00    -0.097 NA
HETATM    8  C16 UNL     1      12.719  73.607  -2.420  1.00  0.00     0.120 A 
HETATM    9  C17 UNL     1      13.329  74.809  -2.132  1.00  0.00     0.082 A 
HETATM   10  N4  UNL     1      14.186  75.192  -1.060  1.00  0.00    -0.338 N 
HETATM   11  C18 UNL     1      14.710  74.506   0.082  1.00  0.00     0.162 C 
HETATM   12  C19 UNL     1      16.045  75.043   0.528  1.00  0.00     0.237 A 
HETATM   13  N5  UNL     1      16.165  76.386   1.027  1.00  0.00    -0.058 N 
ATOM     14  H51 UNL     1      16.520  76.825   1.877  1.00  0.00     0.278 HD
ATOM     15  H52 UNL     1      15.524  77.105   1.363  1.00  0.00     0.278 HD
HETATM   16  C20 UNL     1      16.715  75.996  -0.250  1.00  0.00     0.253 A 
HETATM   17  C21 UNL     1      16.052  76.565  -1.488  1.00  0.00     0.224 C 
ENDROOT
BRANCH   5  18
HETATM   18  N2  UNL     1      10.891  74.383  -5.514  1.00  0.00    -0.359 N 
HETATM   19  C9  UNL     1       9.620  74.331  -5.536  1.00  0.00    -0.013 C 
HETATM   20  C10 UNL     1       8.843  74.414  -4.289  1.00  0.00     0.052 C 
HETATM   21  C14 UNL     1       8.923  74.184  -6.823  1.00  0.00     0.052 C 
HETATM   22  C11 UNL     1       7.588  73.562  -4.543  1.00  0.00     0.006 C 
HETATM   23  C12 UNL     1       6.751  74.333  -5.536  1.00  0.00     0.001 C 
HETATM   24  C13 UNL     1       7.497  74.601  -6.796  1.00  0.00     0.006 C 
ATOM     25  H2  UNL     1      11.367  74.319  -6.414  1.00  0.00     0.165 HD
ENDBRANCH   5  18
BRANCH   4  26
HETATM   26  O4  UNL     1      12.107  76.792  -4.949  1.00  0.00    -0.357 OA
ATOM     27  H4  UNL     1      12.281  76.690  -5.877  1.00  0.00     0.217 HD
ENDBRANCH   4  26
BRANCH   8  28
HETATM   28  O5  UNL     1      12.883  72.490  -1.610  1.00  0.00    -0.357 OA
ATOM     29  H5  UNL     1      13.366  72.612  -0.801  1.00  0.00     0.218 HD
ENDBRANCH   8  28
BRANCH   2  30
HETATM   30  C4  UNL     1      13.967  78.259  -2.905  1.00  0.00     0.160 C 
BRANCH  30  31
HETATM   31  O2  UNL     1      13.999  78.748  -4.169  1.00  0.00    -0.275 OA
BRANCH  31  32
HETATM   32  C5  UNL     1      15.017  78.520  -5.067  1.00  0.00     0.377 C 
HETATM   33  N1  UNL     1      14.780  77.977  -6.374  1.00  0.00    -0.032 NA
HETATM   34  O3  UNL     1      16.186  78.812  -4.693  1.00  0.00    -0.242 OA
ENDBRANCH  31  32
ENDBRANCH  30  31
ENDBRANCH   2  30
BRANCH   1  35
HETATM   35  O1  UNL     1      14.229  77.358  -0.141  1.00  0.00    -0.359 OA
HETATM   36  C1  UNL     1      12.860  77.330   0.106  1.00  0.00     0.205 C 
ENDBRANCH   1  35
BRANCH  17  37
HETATM   37  O6  UNL     1      16.301  75.735  -2.612  1.00  0.00    -0.315 OA
BRANCH  37  38
HETATM   38  C22 UNL     1      17.336  74.842  -2.639  1.00  0.00     0.398 C 
HETATM   39  O7  UNL     1      17.104  73.637  -2.893  1.00  0.00    -0.276 OA
ENDBRANCH  37  38
ENDBRANCH  17  37
TORSDOF 9
ENDMDL
MODEL 2
REMARK VINA RESULT: -6.696739797      2.830      5.776
REMARK  9 active torsions:
REMARK  status: ('A' for Active; 'I' for Inactive)
REMARK    1  A    between atoms: O1_2  and  C2_3 
REMARK    2  A    between atoms: C3_4  and  C4_5 
REMARK    3  A    between atoms: C4_5  and  O2_6 
REMARK    4  A    between atoms: O2_6  and  C5_7 
REMARK    5  A    between atoms: C7_11  and  O4_12 
REMARK    6  A    between atoms: C8_14  and  N2_15 
REMARK    7  A    between atoms: C16_25  and  O5_26 
REMARK    8  A    between atoms: C21_36  and  O6_37 
REMARK    9  A    between atoms: O6_37  and  C22_38 
ROOT
HETATM    1  C2  UNL     1      15.885  73.300  -1.309  1.00  0.00     0.197 A 
HETATM    2  C3  UNL     1      14.999  73.617  -2.467  1.00  0.00     0.037 A 
HETATM    3  C6  UNL     1      14.832  75.049  -2.484  1.00  0.00     0.042 A 
HETATM    4  C7  UNL     1      14.118  75.908  -3.301  1.00  0.00     0.107 A 
HETATM    5  C8  UNL     1      14.125  77.294  -3.100  1.00  0.00     0.094 A 
HETATM    6  C15 UNL     1      14.861  77.807  -2.062  1.00  0.00     0.111 A 
HETATM    7  N3  UNL     1      14.846  79.217  -1.883  1.00  0.00    -0.097 NA
HETATM    8  C16 UNL     1      15.580  76.970  -1.235  1.00  0.00     0.120 A 
HETATM    9  C17 UNL     1      15.580  75.604  -1.424  1.00  0.00     0.082 A 
HETATM   10  N4  UNL     1      16.234  74.558  -0.711  1.00  0.00    -0.338 N 
HETATM   11  C18 UNL     1      17.111  74.530   0.419  1.00  0.00     0.162 C 
HETATM   12  C19 UNL     1      17.001  73.255   1.216  1.00  0.00     0.237 A 
HETATM   13  N5  UNL     1      17.378  71.995   0.637  1.00  0.00    -0.058 N 
ATOM     14  H51 UNL     1      18.016  71.237   0.879  1.00  0.00     0.278 HD
ATOM     15  H52 UNL     1      17.911  71.691  -0.178  1.00  0.00     0.278 HD
HETATM   16  C20 UNL     1      16.000  72.324   0.915  1.00  0.00     0.253 A 
HETATM   17  C21 UNL     1      15.090  72.546  -0.276  1.00  0.00     0.224 C 
ENDROOT
BRANCH   5  18
HETATM   18  N2  UNL     1      13.392  78.134  -3.949  1.00  0.00    -0.359 N 
HETATM   19  C9  UNL     1      13.830  78.761  -4.966  1.00  0.00    -0.013 C 
HETATM   20  C10 UNL     1      15.242  78.648  -5.366  1.00  0.00     0.052 C 
HETATM   21  C14 UNL     1      12.914  79.606  -5.747  1.00  0.00     0.052 C 
HETATM   22  C11 UNL     1      15.587  80.007  -5.998  1.00  0.00     0.006 C 
HETATM   23  C12 UNL     1      14.847  80.059  -7.314  1.00  0.00     0.001 C 
HETATM   24  C13 UNL     1      13.379  79.896  -7.129  1.00  0.00     0.006 C 
ATOM     25  H2  UNL     1      12.404  78.257  -3.727  1.00  0.00     0.165 HD
ENDBRANCH   5  18
BRANCH   4  26
HETATM   26  O4  UNL     1      13.382  75.405  -4.338  1.00  0.00    -0.357 OA
ATOM     27  H4  UNL     1      12.440  75.524  -4.351  1.00  0.00     0.217 HD
ENDBRANCH   4  26
BRANCH   8  28
HETATM   28  O5  UNL     1      16.299  77.565  -0.206  1.00  0.00    -0.357 OA
ATOM     29  H5  UNL     1      15.821  78.144   0.376  1.00  0.00     0.218 HD
ENDBRANCH   8  28
BRANCH   2  30
HETATM   30  C4  UNL     1      14.523  72.700  -3.256  1.00  0.00     0.160 C 
BRANCH  30  31
HETATM   31  O2  UNL     1      13.338  72.622  -3.909  1.00  0.00    -0.275 OA
BRANCH  31  32
HETATM   32  C5  UNL     1      12.122  72.427  -3.297  1.00  0.00     0.377 C 
HETATM   33  N1  UNL     1      10.881  72.794  -3.919  1.00  0.00    -0.032 NA
HETATM   34  O3  UNL     1      12.136  71.906  -2.148  1.00  0.00    -0.242 OA
ENDBRANCH  31  32
ENDBRANCH  30  31
ENDBRANCH   2  30
BRANCH   1  35
HETATM   35  O1  UNL     1      17.005  72.579  -1.725  1.00  0.00    -0.359 OA
HETATM   36  C1  UNL     1      17.721  73.267  -2.701  1.00  0.00     0.205 C 
ENDBRANCH   1  35
BRANCH  17  37
HETATM   37  O6  UNL     1      13.980  73.352   0.088  1.00  0.00    -0.315 OA
BRANCH  37  38
HETATM   38  C22 UNL     1      13.346  73.211   1.291  1.00  0.00     0.398 C 
HETATM   39  O7  UNL     1      12.630  72.204   1.497  1.00  0.00    -0.276 OA
ENDBRANCH  37  38
ENDBRANCH  17  37
TORSDOF 9
ENDMDL
MODEL 3
REMARK VINA RESULT: -6.499712215      3.406      7.570
REMARK  9 active torsions:
REMARK  status: ('A' for Active; 'I' for Inactive)
REMARK    1  A    between atoms: O1_2  and  C2_3 
REMARK    2  A    between atoms: C3_4  and  C4_5 
REMARK    3  A    between atoms: C4_5  and  O2_6 
REMARK    4  A    between atoms: O2_6  and  C5_7 
REMARK    5  A    between atoms: C7_11  and  O4_12 
REMARK    6  A    between atoms: C8_14  and  N2_15 
REMARK    7  A    between atoms: C16_25  and  O5_26 
REMARK    8  A    between atoms: C21_36  and  O6_37 
REMARK    9  A    between atoms: O6_37  and  C22_38 
ROOT
HETATM    1  C2  UNL     1      14.345  76.526  -3.543  1.00  0.00     0.197 A 
HETATM    2  C3  UNL     1      14.913  77.883  -3.789  1.00  0.00     0.037 A 
HETATM    3  C6  UNL     1      14.700  78.648  -2.585  1.00  0.00     0.042 A 
HETATM    4  C7  UNL     1      14.994  79.952  -2.229  1.00  0.00     0.107 A 
HETATM    5  C8  UNL     1      14.675  80.463  -0.964  1.00  0.00     0.094 A 
HETATM    6  C15 UNL     1      14.055  79.640  -0.058  1.00  0.00     0.111 A 
HETATM    7  N3  UNL     1      13.743  80.187   1.217  1.00  0.00    -0.097 NA
HETATM    8  C16 UNL     1      13.753  78.336  -0.391  1.00  0.00     0.120 A 
HETATM    9  C17 UNL     1      14.062  77.825  -1.633  1.00  0.00     0.082 A 
HETATM   10  N4  UNL     1      13.852  76.532  -2.195  1.00  0.00    -0.338 N 
HETATM   11  C18 UNL     1      13.272  75.321  -1.699  1.00  0.00     0.162 C 
HETATM   12  C19 UNL     1      12.655  74.479  -2.786  1.00  0.00     0.237 A 
HETATM   13  N5  UNL     1      13.472  73.904  -3.820  1.00  0.00    -0.058 N 
ATOM     14  H51 UNL     1      13.637  72.967  -4.190  1.00  0.00     0.278 HD
ATOM     15  H52 UNL     1      14.468  73.737  -3.961  1.00  0.00     0.278 HD
HETATM   16  C20 UNL     1      12.549  74.981  -4.089  1.00  0.00     0.253 A 
HETATM   17  C21 UNL     1      13.145  76.331  -4.433  1.00  0.00     0.224 C 
ENDROOT
BRANCH   5  18
HETATM   18  N2  UNL     1      14.989  81.788  -0.637  1.00  0.00    -0.359 N 
HETATM   19  C9  UNL     1      16.074  82.210  -0.122  1.00  0.00    -0.013 C 
HETATM   20  C10 UNL     1      17.167  81.278   0.196  1.00  0.00     0.052 C 
HETATM   21  C14 UNL     1      16.233  83.646   0.158  1.00  0.00     0.052 C 
HETATM   22  C11 UNL     1      17.865  81.884   1.425  1.00  0.00     0.006 C 
HETATM   23  C12 UNL     1      18.583  83.119   0.934  1.00  0.00     0.001 C 
HETATM   24  C13 UNL     1      17.645  84.087   0.301  1.00  0.00     0.006 C 
ATOM     25  H2  UNL     1      14.274  82.488  -0.832  1.00  0.00     0.165 HD
ENDBRANCH   5  18
BRANCH   4  26
HETATM   26  O4  UNL     1      15.613  80.779  -3.126  1.00  0.00    -0.357 OA
ATOM     27  H4  UNL     1      15.671  81.710  -2.949  1.00  0.00     0.217 HD
ENDBRANCH   4  26
BRANCH   8  28
HETATM   28  O5  UNL     1      13.123  77.567   0.580  1.00  0.00    -0.357 OA
ATOM     29  H5  UNL     1      13.191  77.867   1.480  1.00  0.00     0.218 HD
ENDBRANCH   8  28
BRANCH   2  30
HETATM   30  C4  UNL     1      15.480  78.213  -4.911  1.00  0.00     0.160 C 
BRANCH  30  31
HETATM   31  O2  UNL     1      15.437  79.369  -5.618  1.00  0.00    -0.275 OA
BRANCH  31  32
HETATM   32  C5  UNL     1      15.017  79.468  -6.925  1.00  0.00     0.377 C 
HETATM   33  N1  UNL     1      15.278  80.628  -7.730  1.00  0.00    -0.032 NA
HETATM   34  O3  UNL     1      14.382  78.486  -7.398  1.00  0.00    -0.242 OA
ENDBRANCH  31  32
ENDBRANCH  30  31
ENDBRANCH   2  30
BRANCH   1  35
HETATM   35  O1  UNL     1      15.309  75.540  -3.753  1.00  0.00    -0.359 OA
HETATM   36  C1  UNL     1      16.337  75.625  -2.819  1.00  0.00     0.205 C 
ENDBRANCH   1  35
BRANCH  17  37
HETATM   37  O6  UNL     1      12.223  77.370  -4.149  1.00  0.00    -0.315 OA
BRANCH  37  38
HETATM   38  C22 UNL     1      11.615  78.091  -5.140  1.00  0.00     0.398 C 
HETATM   39  O7  UNL     1      11.332  77.531  -6.224  1.00  0.00    -0.276 OA
ENDBRANCH  37  38
ENDBRANCH  17  37
TORSDOF 9
ENDMDL
MODEL 4
REMARK VINA RESULT: -6.492774624      4.420      7.408
REMARK  9 active torsions:
REMARK  status: ('A' for Active; 'I' for Inactive)
REMARK    1  A    between atoms: O1_2  and  C2_3 
REMARK    2  A    between atoms: C3_4  and  C4_5 
REMARK    3  A    between atoms: C4_5  and  O2_6 
REMARK    4  A    between atoms: O2_6  and  C5_7 
REMARK    5  A    between atoms: C7_11  and  O4_12 
REMARK    6  A    between atoms: C8_14  and  N2_15 
REMARK    7  A    between atoms: C16_25  and  O5_26 
REMARK    8  A    between atoms: C21_36  and  O6_37 
REMARK    9  A    between atoms: O6_37  and  C22_38 
ROOT
HETATM    1  C2  UNL     1      17.806  82.011  -2.143  1.00  0.00     0.197 A 
HETATM    2  C3  UNL     1      17.415  80.631  -2.552  1.00  0.00     0.037 A 
HETATM    3  C6  UNL     1      16.799  80.740  -3.851  1.00  0.00     0.042 A 
HETATM    4  C7  UNL     1      16.235  79.814  -4.711  1.00  0.00     0.107 A 
HETATM    5  C8  UNL     1      15.694  80.189  -5.947  1.00  0.00     0.094 A 
HETATM    6  C15 UNL     1      15.728  81.512  -6.309  1.00  0.00     0.111 A 
HETATM    7  N3  UNL     1      15.170  81.861  -7.570  1.00  0.00    -0.097 NA
HETATM    8  C16 UNL     1      16.286  82.452  -5.468  1.00  0.00     0.120 A 
HETATM    9  C17 UNL     1      16.821  82.094  -4.249  1.00  0.00     0.082 A 
HETATM   10  N4  UNL     1      17.439  82.874  -3.230  1.00  0.00    -0.338 N 
HETATM   11  C18 UNL     1      17.737  84.267  -3.095  1.00  0.00     0.162 C 
HETATM   12  C19 UNL     1      17.748  84.729  -1.660  1.00  0.00     0.237 A 
HETATM   13  N5  UNL     1      18.726  84.223  -0.736  1.00  0.00    -0.058 N 
ATOM     14  H51 UNL     1      19.426  84.626  -0.113  1.00  0.00     0.278 HD
ATOM     15  H52 UNL     1      19.611  83.721  -0.805  1.00  0.00     0.278 HD
HETATM   16  C20 UNL     1      17.331  83.864  -0.641  1.00  0.00     0.253 A 
HETATM   17  C21 UNL     1      16.964  82.430  -0.966  1.00  0.00     0.224 C 
ENDROOT
BRANCH   5  18
HETATM   18  N2  UNL     1      15.132  79.224  -6.794  1.00  0.00    -0.359 N 
HETATM   19  C9  UNL     1      13.945  78.767  -6.749  1.00  0.00    -0.013 C 
HETATM   20  C10 UNL     1      12.995  79.245  -5.731  1.00  0.00     0.052 C 
HETATM   21  C14 UNL     1      13.522  77.750  -7.723  1.00  0.00     0.052 C 
HETATM   22  C11 UNL     1      12.084  78.042  -5.439  1.00  0.00     0.006 C 
HETATM   23  C12 UNL     1      11.225  77.857  -6.669  1.00  0.00     0.001 C 
HETATM   24  C13 UNL     1      12.049  77.638  -7.889  1.00  0.00     0.006 C 
ATOM     25  H2  UNL     1      15.738  78.850  -7.524  1.00  0.00     0.165 HD
ENDBRANCH   5  18
BRANCH   4  26
HETATM   26  O4  UNL     1      16.197  78.493  -4.358  1.00  0.00    -0.357 OA
ATOM     27  H4  UNL     1      16.738  78.179  -3.644  1.00  0.00     0.217 HD
ENDBRANCH   4  26
BRANCH   8  28
HETATM   28  O5  UNL     1      16.282  83.771  -5.906  1.00  0.00    -0.357 OA
ATOM     29  H5  UNL     1      17.124  84.203  -5.981  1.00  0.00     0.218 HD
ENDBRANCH   8  28
BRANCH   2  30
HETATM   30  C4  UNL     1      17.637  79.589  -1.806  1.00  0.00     0.160 C 
BRANCH  30  31
HETATM   31  O2  UNL     1      16.885  78.484  -1.582  1.00  0.00    -0.275 OA
BRANCH  31  32
HETATM   32  C5  UNL     1      15.635  78.495  -1.007  1.00  0.00     0.377 C 
HETATM   33  N1  UNL     1      14.430  78.482  -1.788  1.00  0.00    -0.032 NA
HETATM   34  O3  UNL     1      15.585  78.517   0.253  1.00  0.00    -0.242 OA
ENDBRANCH  31  32
ENDBRANCH  30  31
ENDBRANCH   2  30
BRANCH   1  35
HETATM   35  O1  UNL     1      19.169  82.073  -1.850  1.00  0.00    -0.359 OA
HETATM   36  C1  UNL     1      19.535  81.104  -0.920  1.00  0.00     0.205 C 
ENDBRANCH   1  35
BRANCH  17  37
HETATM   37  O6  UNL     1      15.603  82.339  -1.355  1.00  0.00    -0.315 OA
BRANCH  37  38
HETATM   38  C22 UNL     1      14.636  81.874  -0.507  1.00  0.00     0.398 C 
HETATM   39  O7  UNL     1      14.842  81.888   0.729  1.00  0.00    -0.276 OA
ENDBRANCH  37  38
ENDBRANCH  17  37
TORSDOF 9
ENDMDL
MODEL 5
REMARK VINA RESULT: -6.414054077      2.406      5.070
REMARK  9 active torsions:
REMARK  status: ('A' for Active; 'I' for Inactive)
REMARK    1  A    between atoms: O1_2  and  C2_3 
REMARK    2  A    between atoms: C3_4  and  C4_5 
REMARK    3  A    between atoms: C4_5  and  O2_6 
REMARK    4  A    between atoms: O2_6  and  C5_7 
REMARK    5  A    between atoms: C7_11  and  O4_12 
REMARK    6  A    between atoms: C8_14  and  N2_15 
REMARK    7  A    between atoms: C16_25  and  O5_26 
REMARK    8  A    between atoms: C21_36  and  O6_37 
REMARK    9  A    between atoms: O6_37  and  C22_38 
ROOT
HETATM    1  C2  UNL     1      15.939  77.394  -0.543  1.00  0.00     0.197 A 
HETATM    2  C3  UNL     1      15.607  76.607  -1.767  1.00  0.00     0.037 A 
HETATM    3  C6  UNL     1      15.148  77.550  -2.756  1.00  0.00     0.042 A 
HETATM    4  C7  UNL     1      14.695  77.411  -4.056  1.00  0.00     0.107 A 
HETATM    5  C8  UNL     1      14.300  78.515  -4.823  1.00  0.00     0.094 A 
HETATM    6  C15 UNL     1      14.369  79.766  -4.262  1.00  0.00     0.111 A 
HETATM    7  N3  UNL     1      13.960  80.866  -5.065  1.00  0.00    -0.097 NA
HETATM    8  C16 UNL     1      14.818  79.928  -2.969  1.00  0.00     0.120 A 
HETATM    9  C17 UNL     1      15.208  78.848  -2.206  1.00  0.00     0.082 A 
HETATM   10  N4  UNL     1      15.698  78.771  -0.870  1.00  0.00    -0.338 N 
HETATM   11  C18 UNL     1      15.969  79.746   0.142  1.00  0.00     0.162 C 
HETATM   12  C19 UNL     1      15.808  79.202   1.539  1.00  0.00     0.237 A 
HETATM   13  N5  UNL     1      16.674  78.162   2.023  1.00  0.00    -0.058 N 
ATOM     14  H51 UNL     1      17.292  78.035   2.825  1.00  0.00     0.278 HD
ATOM     15  H52 UNL     1      17.564  77.755   1.737  1.00  0.00     0.278 HD
HETATM   16  C20 UNL     1      15.279  77.921   1.737  1.00  0.00     0.253 A 
HETATM   17  C21 UNL     1      14.962  77.038   0.547  1.00  0.00     0.224 C 
ENDROOT
BRANCH   5  18
HETATM   18  N2  UNL     1      13.848  78.338  -6.137  1.00  0.00    -0.359 N 
HETATM   19  C9  UNL     1      12.722  77.868  -6.499  1.00  0.00    -0.013 C 
HETATM   20  C10 UNL     1      11.730  77.441  -5.500  1.00  0.00     0.052 C 
HETATM   21  C14 UNL     1      12.413  77.751  -7.933  1.00  0.00     0.052 C 
HETATM   22  C11 UNL     1      10.965  76.285  -6.165  1.00  0.00     0.006 C 
HETATM   23  C12 UNL     1      10.126  76.909  -7.256  1.00  0.00     0.001 C 
HETATM   24  C13 UNL     1      10.961  77.652  -8.238  1.00  0.00     0.006 C 
ATOM     25  H2  UNL     1      14.489  78.615  -6.881  1.00  0.00     0.165 HD
ENDBRANCH   5  18
BRANCH   4  26
HETATM   26  O4  UNL     1      14.624  76.168  -4.622  1.00  0.00    -0.357 OA
ATOM     27  H4  UNL     1      14.195  76.055  -5.462  1.00  0.00     0.217 HD
ENDBRANCH   4  26
BRANCH   8  28
HETATM   28  O5  UNL     1      14.856  81.226  -2.473  1.00  0.00    -0.357 OA
ATOM     29  H5  UNL     1      14.966  81.326  -1.534  1.00  0.00     0.218 HD
ENDBRANCH   8  28
BRANCH   2  30
HETATM   30  C4  UNL     1      15.747  75.316  -1.829  1.00  0.00     0.160 C 
BRANCH  30  31
HETATM   31  O2  UNL     1      14.869  74.347  -2.186  1.00  0.00    -0.275 OA
BRANCH  31  32
HETATM   32  C5  UNL     1      13.529  74.357  -1.875  1.00  0.00     0.377 C 
HETATM   33  N1  UNL     1      12.524  74.768  -2.814  1.00  0.00    -0.032 NA
HETATM   34  O3  UNL     1      13.208  73.985  -0.712  1.00  0.00    -0.242 OA
ENDBRANCH  31  32
ENDBRANCH  30  31
ENDBRANCH   2  30
BRANCH   1  35
HETATM   35  O1  UNL     1      17.258  77.164  -0.149  1.00  0.00    -0.359 OA
HETATM   36  C1  UNL     1      18.156  77.476  -1.166  1.00  0.00     0.205 C 
ENDBRANCH   1  35
BRANCH  17  37
HETATM   37  O6  UNL     1      13.657  77.306   0.061  1.00  0.00    -0.315 OA
BRANCH  37  38
HETATM   38  C22 UNL     1      12.612  77.577   0.901  1.00  0.00     0.398 C 
HETATM   39  O7  UNL     1      12.226  78.760   1.043  1.00  0.00    -0.276 OA
ENDBRANCH  37  38
ENDBRANCH  17  37
TORSDOF 9
ENDMDL
