MODEL 1
REMARK VINA RESULT: -8.432129132      0.000      0.000
REMARK  9 active torsions:
REMARK  status: ('A' for Active; 'I' for Inactive)
REMARK    1  A    between atoms: O1_2  and  C2_3 
REMARK    2  A    between atoms: C3_4  and  O2_5 
REMARK    3  A    between atoms: C5_7  and  O3_8 
REMARK    4  A    between atoms: C8_11  and  O4_12 
REMARK    5  A    between atoms: C11_16  and  O5_17 
REMARK    6  A    between atoms: C13_20  and  O6_21 
REMARK    7  A    between atoms: C17_28  and  O8_29 
REMARK    8  A    between atoms: C20_32  and  O9_33 
REMARK    9  A    between atoms: O9_33  and  C21_34 
ROOT
HETATM    1  C2  UNL     1       8.573  74.543  -6.571  1.00  0.00     0.138 A 
HETATM    2  C3  UNL     1       8.406  75.509  -7.505  1.00  0.00     0.139 A 
HETATM    3  C5  UNL     1       9.351  76.513  -7.719  1.00  0.00     0.118 A 
HETATM    4  C7  UNL     1      10.496  76.505  -6.935  1.00  0.00     0.050 A 
HETATM    5  C8  UNL     1      11.459  77.515  -7.110  1.00  0.00     0.093 A 
HETATM    6  C9  UNL     1      12.595  77.538  -6.343  1.00  0.00     0.041 A 
HETATM    7  C10 UNL     1      12.773  76.549  -5.382  1.00  0.00     0.085 A 
HETATM    8  C11 UNL     1      11.848  75.555  -5.190  1.00  0.00     0.107 A 
HETATM    9  C12 UNL     1      10.719  75.530  -5.957  1.00  0.00     0.051 A 
HETATM   10  C13 UNL     1       9.750  74.556  -5.787  1.00  0.00     0.116 A 
HETATM   11  N1  UNL     1      14.002  76.861  -4.691  1.00  0.00    -0.310 N 
HETATM   12  C14 UNL     1      15.068  76.394  -3.928  1.00  0.00     0.099 C 
HETATM   13  C15 UNL     1      16.011  77.301  -3.796  1.00  0.00     0.073 C 
HETATM   14  C16 UNL     1      15.578  78.516  -4.530  1.00  0.00     0.211 C 
HETATM   15  O7  UNL     1      16.418  79.476  -4.725  1.00  0.00    -0.287 OA
HETATM   16  C17 UNL     1      14.200  78.332  -4.888  1.00  0.00     0.238 C 
HETATM   17  C19 UNL     1      13.819  78.411  -6.325  1.00  0.00     0.043 C 
HETATM   18  C20 UNL     1      14.335  78.917  -7.380  1.00  0.00     0.160 C 
ENDROOT
BRANCH  16  19
HETATM   19  O8  UNL     1      13.287  78.998  -4.078  1.00  0.00    -0.354 OA
HETATM   20  C18 UNL     1      13.603  80.332  -3.964  1.00  0.00     0.206 C 
ENDBRANCH  16  19
BRANCH  18  21
HETATM   21  O9  UNL     1      15.446  79.731  -7.416  1.00  0.00    -0.275 OA
BRANCH  21  22
HETATM   22  C21 UNL     1      15.342  81.123  -7.611  1.00  0.00     0.377 C 
HETATM   23  N2  UNL     1      16.056  82.041  -6.796  1.00  0.00    -0.032 NA
HETATM   24  O10 UNL     1      14.604  81.545  -8.522  1.00  0.00    -0.242 OA
ENDBRANCH  21  22
ENDBRANCH  18  21
BRANCH   5  25
HETATM   25  O4  UNL     1      11.240  78.484  -8.056  1.00  0.00    -0.359 OA
ATOM     26  H4  UNL     1      11.728  79.298  -8.002  1.00  0.00     0.217 HD
ENDBRANCH   5  25
BRANCH   8  27
HETATM   27  O5  UNL     1      12.082  74.610  -4.229  1.00  0.00    -0.357 OA
ATOM     28  H5  UNL     1      11.380  74.377  -3.633  1.00  0.00     0.217 HD
ENDBRANCH   8  27
BRANCH   3  29
HETATM   29  O3  UNL     1       9.125  77.475  -8.690  1.00  0.00    -0.352 OA
HETATM   30  C6  UNL     1       8.700  77.210 -10.017  1.00  0.00     0.210 C 
ENDBRANCH   3  29
BRANCH   2  31
HETATM   31  O2  UNL     1       7.245  75.500  -8.278  1.00  0.00    -0.351 OA
HETATM   32  C4  UNL     1       6.087  76.147  -7.815  1.00  0.00     0.210 C 
ENDBRANCH   2  31
BRANCH  10  33
HETATM   33  O6  UNL     1       9.864  73.575  -4.879  1.00  0.00    -0.357 OA
ATOM     34  H6  UNL     1       9.851  73.846  -3.968  1.00  0.00     0.217 HD
ENDBRANCH  10  33
BRANCH   1  35
HETATM   35  O1  UNL     1       7.623  73.528  -6.352  1.00  0.00    -0.351 OA
HETATM   36  C1  UNL     1       6.736  73.756  -5.258  1.00  0.00     0.210 C 
ENDBRANCH   1  35
TORSDOF 9
ENDMDL
MODEL 2
REMARK VINA RESULT: -7.777553987      2.410      5.272
REMARK  9 active torsions:
REMARK  status: ('A' for Active; 'I' for Inactive)
REMARK    1  A    between atoms: O1_2  and  C2_3 
REMARK    2  A    between atoms: C3_4  and  O2_5 
REMARK    3  A    between atoms: C5_7  and  O3_8 
REMARK    4  A    between atoms: C8_11  and  O4_12 
REMARK    5  A    between atoms: C11_16  and  O5_17 
REMARK    6  A    between atoms: C13_20  and  O6_21 
REMARK    7  A    between atoms: C17_28  and  O8_29 
REMARK    8  A    between atoms: C20_32  and  O9_33 
REMARK    9  A    between atoms: O9_33  and  C21_34 
ROOT
HETATM    1  C2  UNL     1       9.508  76.157  -8.277  1.00  0.00     0.138 A 
HETATM    2  C3  UNL     1       8.964  75.153  -7.550  1.00  0.00     0.139 A 
HETATM    3  C5  UNL     1       9.499  74.739  -6.329  1.00  0.00     0.118 A 
HETATM    4  C7  UNL     1      10.630  75.391  -5.862  1.00  0.00     0.050 A 
HETATM    5  C8  UNL     1      11.208  74.984  -4.645  1.00  0.00     0.093 A 
HETATM    6  C9  UNL     1      12.332  75.603  -4.164  1.00  0.00     0.041 A 
HETATM    7  C10 UNL     1      12.897  76.636  -4.905  1.00  0.00     0.085 A 
HETATM    8  C11 UNL     1      12.355  77.049  -6.095  1.00  0.00     0.107 A 
HETATM    9  C12 UNL     1      11.232  76.436  -6.572  1.00  0.00     0.051 A 
HETATM   10  C13 UNL     1      10.660  76.808  -7.776  1.00  0.00     0.116 A 
HETATM   11  N1  UNL     1      14.089  77.046  -4.201  1.00  0.00    -0.310 N 
HETATM   12  C14 UNL     1      15.020  78.052  -3.960  1.00  0.00     0.099 C 
HETATM   13  C15 UNL     1      15.816  77.753  -2.957  1.00  0.00     0.073 C 
HETATM   14  C16 UNL     1      15.415  76.420  -2.441  1.00  0.00     0.211 C 
HETATM   15  O7  UNL     1      15.909  75.994  -1.327  1.00  0.00    -0.287 OA
HETATM   16  C17 UNL     1      14.488  75.858  -3.381  1.00  0.00     0.238 C 
HETATM   17  C19 UNL     1      13.135  75.464  -2.900  1.00  0.00     0.043 C 
HETATM   18  C20 UNL     1      12.615  75.184  -1.766  1.00  0.00     0.160 C 
ENDROOT
BRANCH  16  19
HETATM   19  O8  UNL     1      15.024  74.906  -4.240  1.00  0.00    -0.354 OA
HETATM   20  C18 UNL     1      15.479  73.809  -3.547  1.00  0.00     0.206 C 
ENDBRANCH  16  19
BRANCH  18  21
HETATM   21  O9  UNL     1      13.306  75.034  -0.584  1.00  0.00    -0.275 OA
BRANCH  21  22
HETATM   22  C21 UNL     1      13.594  73.762  -0.048  1.00  0.00     0.377 C 
HETATM   23  N2  UNL     1      12.942  72.594  -0.520  1.00  0.00    -0.032 NA
HETATM   24  O10 UNL     1      14.443  73.676   0.860  1.00  0.00    -0.242 OA
ENDBRANCH  21  22
ENDBRANCH  18  21
BRANCH   5  25
HETATM   25  O4  UNL     1      10.633  73.950  -3.950  1.00  0.00    -0.359 OA
ATOM     26  H4  UNL     1       9.699  73.975  -3.779  1.00  0.00     0.217 HD
ENDBRANCH   5  25
BRANCH   8  27
HETATM   27  O5  UNL     1      12.956  78.072  -6.777  1.00  0.00    -0.357 OA
ATOM     28  H5  UNL     1      13.694  77.876  -7.341  1.00  0.00     0.217 HD
ENDBRANCH   8  27
BRANCH   3  29
HETATM   29  O3  UNL     1       8.897  73.706  -5.630  1.00  0.00    -0.352 OA
HETATM   30  C6  UNL     1       7.765  73.842  -4.786  1.00  0.00     0.210 C 
ENDBRANCH   3  29
BRANCH   2  31
HETATM   31  O2  UNL     1       7.829  74.508  -8.042  1.00  0.00    -0.351 OA
HETATM   32  C4  UNL     1       6.550  75.001  -7.734  1.00  0.00     0.210 C 
ENDBRANCH   2  31
BRANCH  10  33
HETATM   33  O6  UNL     1      11.156  77.796  -8.536  1.00  0.00    -0.357 OA
ATOM     34  H6  UNL     1      10.644  78.595  -8.569  1.00  0.00     0.217 HD
ENDBRANCH  10  33
BRANCH   1  35
HETATM   35  O1  UNL     1       8.972  76.579  -9.507  1.00  0.00    -0.351 OA
HETATM   36  C1  UNL     1       7.960  77.580  -9.415  1.00  0.00     0.210 C 
ENDBRANCH   1  35
TORSDOF 9
ENDMDL
MODEL 3
REMARK VINA RESULT: -7.547225557      2.283      3.571
REMARK  9 active torsions:
REMARK  status: ('A' for Active; 'I' for Inactive)
REMARK    1  A    between atoms: O1_2  and  C2_3 
REMARK    2  A    between atoms: C3_4  and  O2_5 
REMARK    3  A    between atoms: C5_7  and  O3_8 
REMARK    4  A    between atoms: C8_11  and  O4_12 
REMARK    5  A    between atoms: C11_16  and  O5_17 
REMARK    6  A    between atoms: C13_20  and  O6_21 
REMARK    7  A    between atoms: C17_28  and  O8_29 
REMARK    8  A    between atoms: C20_32  and  O9_33 
REMARK    9  A    between atoms: O9_33  and  C21_34 
ROOT
HETATM    1  C2  UNL     1      11.911  73.285  -3.600  1.00  0.00     0.138 A 
HETATM    2  C3  UNL     1      11.189  74.078  -4.427  1.00  0.00     0.139 A 
HETATM    3  C5  UNL     1      11.607  75.359  -4.788  1.00  0.00     0.118 A 
HETATM    4  C7  UNL     1      12.809  75.819  -4.270  1.00  0.00     0.050 A 
HETATM    5  C8  UNL     1      13.251  77.114  -4.597  1.00  0.00     0.093 A 
HETATM    6  C9  UNL     1      14.428  77.600  -4.091  1.00  0.00     0.041 A 
HETATM    7  C10 UNL     1      15.176  76.790  -3.242  1.00  0.00     0.085 A 
HETATM    8  C11 UNL     1      14.766  75.526  -2.906  1.00  0.00     0.107 A 
HETATM    9  C12 UNL     1      13.595  75.041  -3.413  1.00  0.00     0.051 A 
HETATM   10  C13 UNL     1      13.133  73.777  -3.088  1.00  0.00     0.116 A 
HETATM   11  N1  UNL     1      16.310  77.575  -2.817  1.00  0.00    -0.310 N 
HETATM   12  C14 UNL     1      17.613  77.581  -2.324  1.00  0.00     0.099 C 
HETATM   13  C15 UNL     1      18.141  78.785  -2.353  1.00  0.00     0.073 C 
HETATM   14  C16 UNL     1      17.128  79.713  -2.915  1.00  0.00     0.211 C 
HETATM   15  O7  UNL     1      17.474  80.914  -3.238  1.00  0.00    -0.287 OA
HETATM   16  C17 UNL     1      15.884  79.002  -2.977  1.00  0.00     0.238 C 
HETATM   17  C19 UNL     1      15.198  78.875  -4.293  1.00  0.00     0.043 C 
HETATM   18  C20 UNL     1      15.239  79.501  -5.407  1.00  0.00     0.160 C 
ENDROOT
BRANCH  16  19
HETATM   19  O8  UNL     1      14.985  79.296  -1.958  1.00  0.00    -0.354 OA
HETATM   20  C18 UNL     1      14.771  80.651  -1.858  1.00  0.00     0.206 C 
ENDBRANCH  16  19
BRANCH  18  21
HETATM   21  O9  UNL     1      15.918  80.677  -5.640  1.00  0.00    -0.275 OA
BRANCH  21  22
HETATM   22  C21 UNL     1      15.760  81.402  -6.839  1.00  0.00     0.377 C 
HETATM   23  N2  UNL     1      15.064  80.856  -7.949  1.00  0.00    -0.032 NA
HETATM   24  O10 UNL     1      16.246  82.547  -6.913  1.00  0.00    -0.242 OA
ENDBRANCH  21  22
ENDBRANCH  18  21
BRANCH   5  25
HETATM   25  O4  UNL     1      12.477  77.890  -5.424  1.00  0.00    -0.359 OA
ATOM     26  H4  UNL     1      12.627  77.851  -6.361  1.00  0.00     0.217 HD
ENDBRANCH   5  25
BRANCH   8  27
HETATM   27  O5  UNL     1      15.546  74.778  -2.066  1.00  0.00    -0.357 OA
ATOM     28  H5  UNL     1      15.260  74.645  -1.171  1.00  0.00     0.217 HD
ENDBRANCH   8  27
BRANCH   3  29
HETATM   29  O3  UNL     1      10.826  76.123  -5.638  1.00  0.00    -0.352 OA
HETATM   30  C6  UNL     1      10.588  75.836  -7.007  1.00  0.00     0.210 C 
ENDBRANCH   3  29
BRANCH   2  31
HETATM   31  O2  UNL     1       9.981  73.596  -4.932  1.00  0.00    -0.351 OA
HETATM   32  C4  UNL     1       8.768  73.958  -4.322  1.00  0.00     0.210 C 
ENDBRANCH   2  31
BRANCH  10  33
HETATM   33  O6  UNL     1      13.808  72.949  -2.276  1.00  0.00    -0.357 OA
ATOM     34  H6  UNL     1      13.950  73.259  -1.389  1.00  0.00     0.217 HD
ENDBRANCH  10  33
BRANCH   1  35
HETATM   35  O1  UNL     1      11.493  71.992  -3.234  1.00  0.00    -0.351 OA
HETATM   36  C1  UNL     1      12.055  70.933  -4.006  1.00  0.00     0.210 C 
ENDBRANCH   1  35
TORSDOF 9
ENDMDL
MODEL 4
REMARK VINA RESULT: -7.424506370      2.487      4.770
REMARK  9 active torsions:
REMARK  status: ('A' for Active; 'I' for Inactive)
REMARK    1  A    between atoms: O1_2  and  C2_3 
REMARK    2  A    between atoms: C3_4  and  O2_5 
REMARK    3  A    between atoms: C5_7  and  O3_8 
REMARK    4  A    between atoms: C8_11  and  O4_12 
REMARK    5  A    between atoms: C11_16  and  O5_17 
REMARK    6  A    between atoms: C13_20  and  O6_21 
REMARK    7  A    between atoms: C17_28  and  O8_29 
REMARK    8  A    between atoms: C20_32  and  O9_33 
REMARK    9  A    between atoms: O9_33  and  C21_34 
ROOT
HETATM    1  C2  UNL     1       9.957  75.852  -7.279  1.00  0.00     0.138 A 
HETATM    2  C3  UNL     1       9.906  74.983  -6.242  1.00  0.00     0.139 A 
HETATM    3  C5  UNL     1      10.629  75.180  -5.065  1.00  0.00     0.118 A 
HETATM    4  C7  UNL     1      11.424  76.313  -4.974  1.00  0.00     0.050 A 
HETATM    5  C8  UNL     1      12.183  76.532  -3.810  1.00  0.00     0.093 A 
HETATM    6  C9  UNL     1      12.985  77.638  -3.697  1.00  0.00     0.041 A 
HETATM    7  C10 UNL     1      13.042  78.535  -4.758  1.00  0.00     0.085 A 
HETATM    8  C11 UNL     1      12.315  78.342  -5.904  1.00  0.00     0.107 A 
HETATM    9  C12 UNL     1      11.512  77.244  -6.015  1.00  0.00     0.051 A 
HETATM   10  C13 UNL     1      10.773  77.000  -7.160  1.00  0.00     0.116 A 
HETATM   11  N1  UNL     1      14.004  79.547  -4.391  1.00  0.00    -0.310 N 
HETATM   12  C14 UNL     1      14.461  80.850  -4.572  1.00  0.00     0.099 C 
HETATM   13  C15 UNL     1      15.364  81.181  -3.674  1.00  0.00     0.073 C 
HETATM   14  C16 UNL     1      15.565  80.014  -2.780  1.00  0.00     0.211 C 
HETATM   15  O7  UNL     1      16.249  80.154  -1.695  1.00  0.00    -0.287 OA
HETATM   16  C17 UNL     1      14.894  78.895  -3.378  1.00  0.00     0.238 C 
HETATM   17  C19 UNL     1      13.844  78.189  -2.592  1.00  0.00     0.043 C 
HETATM   18  C20 UNL     1      13.544  78.087  -1.354  1.00  0.00     0.160 C 
ENDROOT
BRANCH  16  19
HETATM   19  O8  UNL     1      15.721  78.001  -4.048  1.00  0.00    -0.354 OA
HETATM   20  C18 UNL     1      16.420  77.212  -3.166  1.00  0.00     0.206 C 
ENDBRANCH  16  19
BRANCH  18  21
HETATM   21  O9  UNL     1      14.302  78.564  -0.306  1.00  0.00    -0.275 OA
BRANCH  21  22
HETATM   22  C21 UNL     1      13.742  79.357   0.716  1.00  0.00     0.377 C 
HETATM   23  N2  UNL     1      14.263  80.641   1.026  1.00  0.00    -0.032 NA
HETATM   24  O10 UNL     1      12.768  78.911   1.353  1.00  0.00    -0.242 OA
ENDBRANCH  21  22
ENDBRANCH  18  21
BRANCH   5  25
HETATM   25  O4  UNL     1      12.114  75.616  -2.791  1.00  0.00    -0.359 OA
ATOM     26  H4  UNL     1      12.231  74.695  -2.993  1.00  0.00     0.217 HD
ENDBRANCH   5  25
BRANCH   8  27
HETATM   27  O5  UNL     1      12.413  79.262  -6.912  1.00  0.00    -0.357 OA
ATOM     28  H5  UNL     1      13.264  79.429  -7.301  1.00  0.00     0.217 HD
ENDBRANCH   8  27
BRANCH   3  29
HETATM   29  O3  UNL     1      10.536  74.256  -4.038  1.00  0.00    -0.352 OA
HETATM   30  C6  UNL     1      11.188  72.997  -4.011  1.00  0.00     0.210 C 
ENDBRANCH   3  29
BRANCH   2  31
HETATM   31  O2  UNL     1       9.103  73.848  -6.358  1.00  0.00    -0.351 OA
HETATM   32  C4  UNL     1       7.781  73.869  -5.884  1.00  0.00     0.210 C 
ENDBRANCH   2  31
BRANCH  10  33
HETATM   33  O6  UNL     1      10.785  77.828  -8.217  1.00  0.00    -0.357 OA
ATOM     34  H6  UNL     1      10.537  78.728  -8.044  1.00  0.00     0.217 HD
ENDBRANCH  10  33
BRANCH   1  35
HETATM   35  O1  UNL     1       9.229  75.657  -8.468  1.00  0.00    -0.351 OA
HETATM   36  C1  UNL     1       7.976  76.336  -8.528  1.00  0.00     0.210 C 
ENDBRANCH   1  35
TORSDOF 9
ENDMDL
MODEL 5
REMARK VINA RESULT: -7.334863714      2.325      4.879
REMARK  9 active torsions:
REMARK  status: ('A' for Active; 'I' for Inactive)
REMARK    1  A    between atoms: O1_2  and  C2_3 
REMARK    2  A    between atoms: C3_4  and  O2_5 
REMARK    3  A    between atoms: C5_7  and  O3_8 
REMARK    4  A    between atoms: C8_11  and  O4_12 
REMARK    5  A    between atoms: C11_16  and  O5_17 
REMARK    6  A    between atoms: C13_20  and  O6_21 
REMARK    7  A    between atoms: C17_28  and  O8_29 
REMARK    8  A    between atoms: C20_32  and  O9_33 
REMARK    9  A    between atoms: O9_33  and  C21_34 
ROOT
HETATM    1  C2  UNL     1       9.451  75.888  -8.049  1.00  0.00     0.138 A 
HETATM    2  C3  UNL     1       8.992  74.941  -7.198  1.00  0.00     0.139 A 
HETATM    3  C5  UNL     1       9.621  74.657  -5.986  1.00  0.00     0.118 A 
HETATM    4  C7  UNL     1      10.758  75.382  -5.659  1.00  0.00     0.050 A 
HETATM    5  C8  UNL     1      11.429  75.107  -4.453  1.00  0.00     0.093 A 
HETATM    6  C9  UNL     1      12.561  75.800  -4.110  1.00  0.00     0.041 A 
HETATM    7  C10 UNL     1      13.038  76.775  -4.979  1.00  0.00     0.085 A 
HETATM    8  C11 UNL     1      12.404  77.059  -6.161  1.00  0.00     0.107 A 
HETATM    9  C12 UNL     1      11.274  76.373  -6.501  1.00  0.00     0.051 A 
HETATM   10  C13 UNL     1      10.610  76.615  -7.692  1.00  0.00     0.116 A 
HETATM   11  N1  UNL     1      14.260  77.281  -4.400  1.00  0.00    -0.310 N 
HETATM   12  C14 UNL     1      15.169  78.332  -4.317  1.00  0.00     0.099 C 
HETATM   13  C15 UNL     1      16.040  78.150  -3.348  1.00  0.00     0.073 C 
HETATM   14  C16 UNL     1      15.721  76.861  -2.687  1.00  0.00     0.211 C 
HETATM   15  O7  UNL     1      16.303  76.554  -1.576  1.00  0.00    -0.287 OA
HETATM   16  C17 UNL     1      14.754  76.187  -3.505  1.00  0.00     0.238 C 
HETATM   17  C19 UNL     1      13.450  75.801  -2.897  1.00  0.00     0.043 C 
HETATM   18  C20 UNL     1      13.016  75.613  -1.709  1.00  0.00     0.160 C 
ENDROOT
BRANCH  16  19
HETATM   19  O8  UNL     1      15.264  75.175  -4.310  1.00  0.00    -0.354 OA
HETATM   20  C18 UNL     1      15.490  74.028  -3.584  1.00  0.00     0.206 C 
ENDBRANCH  16  19
BRANCH  18  21
HETATM   21  O9  UNL     1      13.790  75.593  -0.569  1.00  0.00    -0.275 OA
BRANCH  21  22
HETATM   22  C21 UNL     1      13.621  76.540   0.461  1.00  0.00     0.377 C 
HETATM   23  N2  UNL     1      13.622  77.934   0.193  1.00  0.00    -0.032 NA
HETATM   24  O10 UNL     1      13.468  76.132   1.628  1.00  0.00    -0.242 OA
ENDBRANCH  21  22
ENDBRANCH  18  21
BRANCH   5  25
HETATM   25  O4  UNL     1      10.938  74.126  -3.629  1.00  0.00    -0.359 OA
ATOM     26  H4  UNL     1      11.520  73.430  -3.345  1.00  0.00     0.217 HD
ENDBRANCH   5  25
BRANCH   8  27
HETATM   27  O5  UNL     1      12.923  78.031  -6.973  1.00  0.00    -0.357 OA
ATOM     28  H5  UNL     1      12.401  78.349  -7.700  1.00  0.00     0.217 HD
ENDBRANCH   8  27
BRANCH   3  29
HETATM   29  O3  UNL     1       9.103  73.677  -5.155  1.00  0.00    -0.352 OA
HETATM   30  C6  UNL     1       7.964  73.829  -4.324  1.00  0.00     0.210 C 
ENDBRANCH   3  29
BRANCH   2  31
HETATM   31  O2  UNL     1       7.850  74.221  -7.550  1.00  0.00    -0.351 OA
HETATM   32  C4  UNL     1       6.575  74.742  -7.270  1.00  0.00     0.210 C 
ENDBRANCH   2  31
BRANCH  10  33
HETATM   33  O6  UNL     1      11.020  77.542  -8.571  1.00  0.00    -0.357 OA
ATOM     34  H6  UNL     1      11.932  77.493  -8.834  1.00  0.00     0.217 HD
ENDBRANCH  10  33
BRANCH   1  35
HETATM   35  O1  UNL     1       8.820  76.178  -9.273  1.00  0.00    -0.351 OA
HETATM   36  C1  UNL     1       7.949  77.307  -9.252  1.00  0.00     0.210 C 
ENDBRANCH   1  35
TORSDOF 9
ENDMDL
