MODEL 1
REMARK VINA RESULT: -8.552793104      0.000      0.000
REMARK  6 active torsions:
REMARK  status: ('A' for Active; 'I' for Inactive)
REMARK    1  A    between atoms: C6_7  and  O2_8 
REMARK    2  A    between atoms: C6_7  and  C7_10 
REMARK    3  A    between atoms: C7_10  and  C8_11 
REMARK    4  A    between atoms: C8_11  and  N1_12 
REMARK       I    between atoms: N1_12  and  C9_14 
REMARK    5  A    between atoms: C9_14  and  C10_16 
REMARK    6  A    between atoms: C20_34  and  O4_35 
ROOT
HETATM    1  C10 UNL     1       1.971 -13.472 -15.136  1.00  0.00     0.157 A 
HETATM    2  C11 UNL     1       1.679 -13.461 -16.557  1.00  0.00    -0.011 A 
HETATM    3  C12 UNL     1       2.148 -12.398 -17.312  1.00  0.00     0.036 A 
HETATM    4  C13 UNL     1       1.898 -12.305 -18.677  1.00  0.00     0.056 A 
HETATM    5 CL1  UNL     1       2.488 -10.972 -19.621  1.00  0.00    -0.083 Cl
HETATM    6  C14 UNL     1       1.165 -13.312 -19.258  1.00  0.00     0.058 A 
HETATM    7 CL2  UNL     1       0.843 -13.201 -20.990  1.00  0.00    -0.082 Cl
HETATM    8  C15 UNL     1       0.693 -14.369 -18.537  1.00  0.00     0.055 A 
HETATM    9  C16 UNL     1       0.946 -14.460 -17.165  1.00  0.00     0.043 A 
HETATM   10  N2  UNL     1       0.482 -15.560 -16.450  1.00  0.00    -0.341 N 
ATOM     11  H2  UNL     1      -0.057 -16.279 -16.932  1.00  0.00     0.167 HD
HETATM   12  C17 UNL     1       0.753 -15.699 -15.032  1.00  0.00     0.121 A 
HETATM   13  N3  UNL     1       0.387 -16.698 -14.276  1.00  0.00    -0.326 N 
ATOM     14  H3  UNL     1      -0.157 -17.465 -14.670  1.00  0.00     0.169 HD
HETATM   15  C18 UNL     1       0.720 -16.713 -13.005  1.00  0.00     0.147 A 
HETATM   16 CL3  UNL     1       0.311 -17.982 -11.833  1.00  0.00    -0.056 Cl
HETATM   17  S1  UNL     1       1.593 -15.263 -12.828  1.00  0.00    -0.059 SA
HETATM   18  C19 UNL     1       1.477 -14.700 -14.452  1.00  0.00     0.047 A 
ENDROOT
BRANCH   1  19
HETATM   19  C9  UNL     1       1.407 -12.280 -14.465  1.00  0.00     0.231 C 
HETATM   20  N1  UNL     1       2.107 -11.346 -13.702  1.00  0.00    -0.360 N 
ATOM     21  H1  UNL     1       3.111 -11.486 -13.585  1.00  0.00     0.162 HD
HETATM   22  O3  UNL     1       0.150 -12.124 -14.620  1.00  0.00    -0.272 OA
BRANCH  20  23
HETATM   23  C8  UNL     1       1.512 -10.198 -13.067  1.00  0.00     0.125 C 
BRANCH  23  24
HETATM   24  C7  UNL     1       2.193  -8.957 -13.508  1.00  0.00     0.060 C 
BRANCH  24  25
HETATM   25  C6  UNL     1       1.580  -8.264 -14.697  1.00  0.00     0.090 C 
HETATM   26  C5  UNL     1       2.412  -8.465 -15.954  1.00  0.00     0.067 C 
HETATM   27  C4  UNL     1       1.676  -7.661 -17.005  1.00  0.00     0.172 C 
HETATM   28  O1  UNL     1       1.894  -6.331 -16.776  1.00  0.00    -0.378 OA
HETATM   29  C2  UNL     1       1.669  -5.879 -15.515  1.00  0.00     0.082 C 
HETATM   30  C1  UNL     1       2.946  -5.231 -15.027  1.00  0.00     0.048 C 
HETATM   31  C3  UNL     1       0.625  -4.756 -15.616  1.00  0.00     0.048 C 
HETATM   32  C20 UNL     1       1.184  -6.861 -14.512  1.00  0.00     0.186 C 
BRANCH  32  33
HETATM   33  O4  UNL     1       1.520  -6.460 -13.208  1.00  0.00    -0.390 OA
ATOM     34  H4  UNL     1       1.348  -5.534 -13.081  1.00  0.00     0.210 HD
ENDBRANCH  32  33
BRANCH  25  35
HETATM   35  O2  UNL     1       0.399  -9.018 -14.970  1.00  0.00    -0.387 OA
ATOM     36  H2  UNL     1       0.088  -9.250 -14.103  1.00  0.00     0.210 HD
ENDBRANCH  25  35
ENDBRANCH  24  25
ENDBRANCH  23  24
ENDBRANCH  20  23
ENDBRANCH   1  19
TORSDOF 6
ENDMDL
MODEL 2
REMARK VINA RESULT: -8.515954512      3.093      7.599
REMARK  6 active torsions:
REMARK  status: ('A' for Active; 'I' for Inactive)
REMARK    1  A    between atoms: C6_7  and  O2_8 
REMARK    2  A    between atoms: C6_7  and  C7_10 
REMARK    3  A    between atoms: C7_10  and  C8_11 
REMARK    4  A    between atoms: C8_11  and  N1_12 
REMARK       I    between atoms: N1_12  and  C9_14 
REMARK    5  A    between atoms: C9_14  and  C10_16 
REMARK    6  A    between atoms: C20_34  and  O4_35 
ROOT
HETATM    1  C10 UNL     1       0.612 -11.070 -15.182  1.00  0.00     0.157 A 
HETATM    2  C11 UNL     1       0.978 -11.746 -16.412  1.00  0.00    -0.011 A 
HETATM    3  C12 UNL     1       0.472 -13.016 -16.636  1.00  0.00     0.036 A 
HETATM    4  C13 UNL     1       0.786 -13.737 -17.783  1.00  0.00     0.056 A 
HETATM    5 CL1  UNL     1       0.150 -15.328 -18.060  1.00  0.00    -0.083 Cl
HETATM    6  C14 UNL     1       1.624 -13.142 -18.697  1.00  0.00     0.058 A 
HETATM    7 CL2  UNL     1       2.029 -14.050 -20.155  1.00  0.00    -0.082 Cl
HETATM    8  C15 UNL     1       2.135 -11.893 -18.500  1.00  0.00     0.055 A 
HETATM    9  C16 UNL     1       1.816 -11.170 -17.346  1.00  0.00     0.043 A 
HETATM   10  N2  UNL     1       2.323  -9.886 -17.176  1.00  0.00    -0.341 N 
ATOM     11  H2  UNL     1       2.940  -9.492 -17.886  1.00  0.00     0.167 HD
HETATM   12  C17 UNL     1       1.988  -9.098 -16.005  1.00  0.00     0.121 A 
HETATM   13  N3  UNL     1       2.387  -7.879 -15.760  1.00  0.00    -0.326 N 
ATOM     14  H3  UNL     1       3.007  -7.404 -16.415  1.00  0.00     0.169 HD
HETATM   15  C18 UNL     1       1.988  -7.268 -14.668  1.00  0.00     0.147 A 
HETATM   16 CL3  UNL     1       2.429  -5.621 -14.174  1.00  0.00    -0.056 Cl
HETATM   17  S1  UNL     1       1.000  -8.435 -13.922  1.00  0.00    -0.059 SA
HETATM   18  C19 UNL     1       1.160  -9.687 -15.095  1.00  0.00     0.047 A 
ENDROOT
BRANCH   1  19
HETATM   19  C9  UNL     1       1.048 -11.842 -13.998  1.00  0.00     0.231 C 
HETATM   20  N1  UNL     1       0.224 -12.420 -13.033  1.00  0.00    -0.360 N 
ATOM     21  H1  UNL     1      -0.784 -12.307 -13.141  1.00  0.00     0.162 HD
HETATM   22  O3  UNL     1       2.312 -11.969 -13.878  1.00  0.00    -0.272 OA
BRANCH  20  23
HETATM   23  C8  UNL     1       0.696 -13.166 -11.894  1.00  0.00     0.125 C 
BRANCH  23  24
HETATM   24  C7  UNL     1       0.199 -14.561 -11.952  1.00  0.00     0.060 C 
BRANCH  24  25
HETATM   25  C6  UNL     1       1.031 -15.517 -12.766  1.00  0.00     0.090 C 
HETATM   26  C5  UNL     1       0.574 -15.567 -14.215  1.00  0.00     0.067 C 
HETATM   27  C4  UNL     1       1.480 -16.604 -14.844  1.00  0.00     0.172 C 
HETATM   28  O1  UNL     1       1.089 -17.844 -14.421  1.00  0.00    -0.378 OA
HETATM   29  C2  UNL     1       0.939 -18.019 -13.081  1.00  0.00     0.082 C 
HETATM   30  C1  UNL     1      -0.474 -18.500 -12.839  1.00  0.00     0.048 C 
HETATM   31  C3  UNL     1       1.867 -19.171 -12.668  1.00  0.00     0.048 C 
HETATM   32  C20 UNL     1       1.236 -16.859 -12.203  1.00  0.00     0.186 C 
BRANCH  32  33
HETATM   33  O4  UNL     1       0.540 -16.955 -10.986  1.00  0.00    -0.390 OA
ATOM     34  H4  UNL     1       0.954 -16.426 -10.314  1.00  0.00     0.210 HD
ENDBRANCH  32  33
BRANCH  25  35
HETATM   35  O2  UNL     1       2.307 -14.882 -12.854  1.00  0.00    -0.387 OA
ATOM     36  H2  UNL     1       2.734 -15.147 -12.048  1.00  0.00     0.210 HD
ENDBRANCH  25  35
ENDBRANCH  24  25
ENDBRANCH  23  24
ENDBRANCH  20  23
ENDBRANCH   1  19
TORSDOF 6
ENDMDL
MODEL 3
REMARK VINA RESULT: -8.397646823      3.040      7.591
REMARK  6 active torsions:
REMARK  status: ('A' for Active; 'I' for Inactive)
REMARK    1  A    between atoms: C6_7  and  O2_8 
REMARK    2  A    between atoms: C6_7  and  C7_10 
REMARK    3  A    between atoms: C7_10  and  C8_11 
REMARK    4  A    between atoms: C8_11  and  N1_12 
REMARK       I    between atoms: N1_12  and  C9_14 
REMARK    5  A    between atoms: C9_14  and  C10_16 
REMARK    6  A    between atoms: C20_34  and  O4_35 
ROOT
HETATM    1  C10 UNL     1       0.821 -11.054 -15.202  1.00  0.00     0.157 A 
HETATM    2  C11 UNL     1       1.166 -11.622 -16.492  1.00  0.00    -0.011 A 
HETATM    3  C12 UNL     1       0.858 -12.952 -16.724  1.00  0.00     0.036 A 
HETATM    4  C13 UNL     1       1.170 -13.575 -17.928  1.00  0.00     0.056 A 
HETATM    5 CL1  UNL     1       0.782 -15.243 -18.216  1.00  0.00    -0.083 Cl
HETATM    6  C14 UNL     1       1.799 -12.820 -18.889  1.00  0.00     0.058 A 
HETATM    7 CL2  UNL     1       2.199 -13.604 -20.419  1.00  0.00    -0.082 Cl
HETATM    8  C15 UNL     1       2.112 -11.509 -18.685  1.00  0.00     0.055 A 
HETATM    9  C16 UNL     1       1.797 -10.885 -17.474  1.00  0.00     0.043 A 
HETATM   10  N2  UNL     1       2.098  -9.538 -17.294  1.00  0.00    -0.341 N 
ATOM     11  H2  UNL     1       2.564  -9.025 -18.041  1.00  0.00     0.167 HD
HETATM   12  C17 UNL     1       1.757  -8.854 -16.062  1.00  0.00     0.121 A 
HETATM   13  N3  UNL     1       1.971  -7.592 -15.800  1.00  0.00    -0.326 N 
ATOM     14  H3  UNL     1       2.433  -6.999 -16.489  1.00  0.00     0.169 HD
HETATM   15  C18 UNL     1       1.590  -7.090 -14.648  1.00  0.00     0.147 A 
HETATM   16 CL3  UNL     1       1.798  -5.407 -14.123  1.00  0.00    -0.056 Cl
HETATM   17  S1  UNL     1       0.891  -8.429 -13.865  1.00  0.00    -0.059 SA
HETATM   18  C19 UNL     1       1.136  -9.601 -15.104  1.00  0.00     0.047 A 
ENDROOT
BRANCH   1  19
HETATM   19  C9  UNL     1       1.497 -11.775 -14.102  1.00  0.00     0.231 C 
HETATM   20  N1  UNL     1       0.941 -12.762 -13.289  1.00  0.00    -0.360 N 
ATOM     21  H1  UNL     1      -0.030 -13.024 -13.458  1.00  0.00     0.162 HD
HETATM   22  O3  UNL     1       2.710 -11.431 -13.904  1.00  0.00    -0.272 OA
BRANCH  20  23
HETATM   23  C8  UNL     1       1.642 -13.438 -12.227  1.00  0.00     0.125 C 
BRANCH  23  24
HETATM   24  C7  UNL     1       1.982 -14.822 -12.636  1.00  0.00     0.060 C 
BRANCH  24  25
HETATM   25  C6  UNL     1       0.818 -15.770 -12.759  1.00  0.00     0.090 C 
HETATM   26  C5  UNL     1       0.948 -16.945 -11.803  1.00  0.00     0.067 C 
HETATM   27  C4  UNL     1      -0.265 -17.797 -12.112  1.00  0.00     0.172 C 
HETATM   28  O1  UNL     1      -0.066 -18.430 -13.307  1.00  0.00    -0.378 OA
HETATM   29  C2  UNL     1       0.314 -17.656 -14.357  1.00  0.00     0.082 C 
HETATM   30  C1  UNL     1       1.614 -18.218 -14.891  1.00  0.00     0.048 C 
HETATM   31  C3  UNL     1      -0.731 -17.852 -15.466  1.00  0.00     0.048 C 
HETATM   32  C20 UNL     1       0.455 -16.197 -14.117  1.00  0.00     0.186 C 
BRANCH  32  33
HETATM   33  O4  UNL     1       1.349 -15.618 -15.033  1.00  0.00    -0.390 OA
ATOM     34  H4  UNL     1       2.028 -15.129 -14.584  1.00  0.00     0.210 HD
ENDBRANCH  32  33
BRANCH  25  35
HETATM   35  O2  UNL     1      -0.286 -15.040 -12.222  1.00  0.00    -0.387 OA
ATOM     36  H2  UNL     1      -0.770 -14.784 -12.997  1.00  0.00     0.210 HD
ENDBRANCH  25  35
ENDBRANCH  24  25
ENDBRANCH  23  24
ENDBRANCH  20  23
ENDBRANCH   1  19
TORSDOF 6
ENDMDL
MODEL 4
REMARK VINA RESULT: -8.298116118      1.410      1.679
REMARK  6 active torsions:
REMARK  status: ('A' for Active; 'I' for Inactive)
REMARK    1  A    between atoms: C6_7  and  O2_8 
REMARK    2  A    between atoms: C6_7  and  C7_10 
REMARK    3  A    between atoms: C7_10  and  C8_11 
REMARK    4  A    between atoms: C8_11  and  N1_12 
REMARK       I    between atoms: N1_12  and  C9_14 
REMARK    5  A    between atoms: C9_14  and  C10_16 
REMARK    6  A    between atoms: C20_34  and  O4_35 
ROOT
HETATM    1  C10 UNL     1       2.111 -13.257 -16.593  1.00  0.00     0.157 A 
HETATM    2  C11 UNL     1       1.992 -12.754 -17.949  1.00  0.00    -0.011 A 
HETATM    3  C12 UNL     1       2.552 -11.521 -18.241  1.00  0.00     0.036 A 
HETATM    4  C13 UNL     1       2.467 -10.962 -19.511  1.00  0.00     0.056 A 
HETATM    5 CL1  UNL     1       3.170  -9.417 -19.874  1.00  0.00    -0.083 Cl
HETATM    6  C14 UNL     1       1.804 -11.681 -20.478  1.00  0.00     0.058 A 
HETATM    7 CL2  UNL     1       1.692 -10.978 -22.093  1.00  0.00    -0.082 Cl
HETATM    8  C15 UNL     1       1.245 -12.897 -20.216  1.00  0.00     0.055 A 
HETATM    9  C16 UNL     1       1.332 -13.456 -18.938  1.00  0.00     0.043 A 
HETATM   10  N2  UNL     1       0.781 -14.711 -18.696  1.00  0.00    -0.341 N 
ATOM     11  H2  UNL     1       0.301 -15.201 -19.450  1.00  0.00     0.167 HD
HETATM   12  C17 UNL     1       0.881 -15.332 -17.389  1.00  0.00     0.121 A 
HETATM   13  N3  UNL     1       0.423 -16.511 -17.063  1.00  0.00    -0.326 N 
ATOM     14  H3  UNL     1      -0.073 -17.075 -17.753  1.00  0.00     0.169 HD
HETATM   15  C18 UNL     1       0.602 -16.968 -15.844  1.00  0.00     0.147 A 
HETATM   16 CL3  UNL     1       0.050 -18.538 -15.227  1.00  0.00    -0.056 Cl
HETATM   17  S1  UNL     1       1.453 -15.703 -15.089  1.00  0.00    -0.059 SA
HETATM   18  C19 UNL     1       1.535 -14.620 -16.427  1.00  0.00     0.047 A 
ENDROOT
BRANCH   1  19
HETATM   19  C9  UNL     1       1.476 -12.337 -15.624  1.00  0.00     0.231 C 
HETATM   20  N1  UNL     1       2.117 -11.629 -14.607  1.00  0.00    -0.360 N 
ATOM     21  H1  UNL     1       3.125 -11.746 -14.510  1.00  0.00     0.162 HD
HETATM   22  O3  UNL     1       0.215 -12.206 -15.760  1.00  0.00    -0.272 OA
BRANCH  20  23
HETATM   23  C8  UNL     1       1.453 -10.742 -13.686  1.00  0.00     0.125 C 
BRANCH  23  24
HETATM   24  C7  UNL     1       2.037  -9.382 -13.772  1.00  0.00     0.060 C 
BRANCH  24  25
HETATM   25  C6  UNL     1       1.499  -8.509 -14.875  1.00  0.00     0.090 C 
HETATM   26  C5  UNL     1       2.376  -8.567 -16.116  1.00  0.00     0.067 C 
HETATM   27  C4  UNL     1       1.711  -7.599 -17.072  1.00  0.00     0.172 C 
HETATM   28  O1  UNL     1       1.964  -6.323 -16.653  1.00  0.00    -0.378 OA
HETATM   29  C2  UNL     1       1.700  -6.039 -15.350  1.00  0.00     0.082 C 
HETATM   30  C1  UNL     1       2.977  -5.515 -14.730  1.00  0.00     0.048 C 
HETATM   31  C3  UNL     1       0.699  -4.874 -15.333  1.00  0.00     0.048 C 
HETATM   32  C20 UNL     1       1.142  -7.130 -14.512  1.00  0.00     0.186 C 
BRANCH  32  33
HETATM   33  O4  UNL     1       1.436  -6.925 -13.153  1.00  0.00    -0.390 OA
ATOM     34  H4  UNL     1       1.209  -6.042 -12.885  1.00  0.00     0.210 HD
ENDBRANCH  32  33
BRANCH  25  35
HETATM   35  O2  UNL     1       0.305  -9.172 -15.294  1.00  0.00    -0.387 OA
ATOM     36  H2  UNL     1      -0.320  -8.933 -14.620  1.00  0.00     0.210 HD
ENDBRANCH  25  35
ENDBRANCH  24  25
ENDBRANCH  23  24
ENDBRANCH  20  23
ENDBRANCH   1  19
TORSDOF 6
ENDMDL
MODEL 5
REMARK VINA RESULT: -8.195892246      2.606      3.512
REMARK  6 active torsions:
REMARK  status: ('A' for Active; 'I' for Inactive)
REMARK    1  A    between atoms: C6_7  and  O2_8 
REMARK    2  A    between atoms: C6_7  and  C7_10 
REMARK    3  A    between atoms: C7_10  and  C8_11 
REMARK    4  A    between atoms: C8_11  and  N1_12 
REMARK       I    between atoms: N1_12  and  C9_14 
REMARK    5  A    between atoms: C9_14  and  C10_16 
REMARK    6  A    between atoms: C20_34  and  O4_35 
ROOT
HETATM    1  C10 UNL     1       0.088 -15.686 -17.305  1.00  0.00     0.157 A 
HETATM    2  C11 UNL     1       0.095 -14.945 -18.552  1.00  0.00    -0.011 A 
HETATM    3  C12 UNL     1       1.063 -13.969 -18.727  1.00  0.00     0.036 A 
HETATM    4  C13 UNL     1       1.128 -13.204 -19.887  1.00  0.00     0.056 A 
HETATM    5 CL1  UNL     1       2.342 -11.983 -20.103  1.00  0.00    -0.083 Cl
HETATM    6  C14 UNL     1       0.191 -13.450 -20.863  1.00  0.00     0.058 A 
HETATM    7 CL2  UNL     1       0.267 -12.483 -22.337  1.00  0.00    -0.082 Cl
HETATM    8  C15 UNL     1      -0.771 -14.405 -20.715  1.00  0.00     0.055 A 
HETATM    9  C16 UNL     1      -0.834 -15.173 -19.548  1.00  0.00     0.043 A 
HETATM   10  N2  UNL     1      -1.804 -16.163 -19.426  1.00  0.00    -0.341 N 
ATOM     11  H2  UNL     1      -2.473 -16.304 -20.182  1.00  0.00     0.167 HD
HETATM   12  C17 UNL     1      -1.877 -16.997 -18.242  1.00  0.00     0.121 A 
HETATM   13  N3  UNL     1      -2.728 -17.966 -18.037  1.00  0.00    -0.326 N 
ATOM     14  H3  UNL     1      -3.436 -18.180 -18.739  1.00  0.00     0.169 HD
HETATM   15  C18 UNL     1      -2.670 -18.663 -16.925  1.00  0.00     0.147 A 
HETATM   16 CL3  UNL     1      -3.740 -20.007 -16.479  1.00  0.00    -0.056 Cl
HETATM   17  S1  UNL     1      -1.364 -17.949 -16.100  1.00  0.00    -0.059 SA
HETATM   18  C19 UNL     1      -0.952 -16.753 -17.270  1.00  0.00     0.047 A 
ENDROOT
BRANCH   1  19
HETATM   19  C9  UNL     1      -0.100 -14.784 -16.147  1.00  0.00     0.231 C 
HETATM   20  N1  UNL     1       0.856 -14.455 -15.187  1.00  0.00    -0.360 N 
ATOM     21  H1  UNL     1       1.783 -14.870 -15.278  1.00  0.00     0.162 HD
HETATM   22  O3  UNL     1      -1.266 -14.278 -16.048  1.00  0.00    -0.272 OA
BRANCH  20  23
HETATM   23  C8  UNL     1       0.626 -13.569 -14.074  1.00  0.00     0.125 C 
BRANCH  23  24
HETATM   24  C7  UNL     1       1.638 -12.486 -14.063  1.00  0.00     0.060 C 
BRANCH  24  25
HETATM   25  C6  UNL     1       1.311 -11.277 -14.900  1.00  0.00     0.090 C 
HETATM   26  C5  UNL     1       2.226 -11.168 -16.110  1.00  0.00     0.067 C 
HETATM   27  C4  UNL     1       1.784  -9.885 -16.781  1.00  0.00     0.172 C 
HETATM   28  O1  UNL     1       2.229  -8.825 -16.041  1.00  0.00    -0.378 OA
HETATM   29  C2  UNL     1       1.954  -8.844 -14.710  1.00  0.00     0.082 C 
HETATM   30  C1  UNL     1       3.269  -8.733 -13.970  1.00  0.00     0.048 C 
HETATM   31  C3  UNL     1       1.167  -7.565 -14.391  1.00  0.00     0.048 C 
HETATM   32  C20 UNL     1       1.177  -9.998 -14.189  1.00  0.00     0.186 C 
BRANCH  32  33
HETATM   33  O4  UNL     1       1.434 -10.205 -12.823  1.00  0.00    -0.390 OA
ATOM     34  H4  UNL     1       0.641 -10.113 -12.309  1.00  0.00     0.210 HD
ENDBRANCH  32  33
BRANCH  25  35
HETATM   35  O2  UNL     1       0.045 -11.588 -15.481  1.00  0.00    -0.387 OA
ATOM     36  H2  UNL     1      -0.051 -12.516 -15.302  1.00  0.00     0.210 HD
ENDBRANCH  25  35
ENDBRANCH  24  25
ENDBRANCH  23  24
ENDBRANCH  20  23
ENDBRANCH   1  19
TORSDOF 6
ENDMDL
