MODEL 1
REMARK VINA RESULT: -8.763139271      0.000      0.000
REMARK  7 active torsions:
REMARK  status: ('A' for Active; 'I' for Inactive)
REMARK    1  A    between atoms: O1_2  and  C2_3 
REMARK    2  A    between atoms: C8_10  and  O2_11 
REMARK    3  A    between atoms: C12_18  and  O3_19 
REMARK    4  A    between atoms: C12_18  and  C13_21 
REMARK    5  A    between atoms: C17_27  and  C18_28 
REMARK    6  A    between atoms: C18_28  and  N2_29 
REMARK    7  A    between atoms: C19_33  and  O4_34 
ROOT
HETATM    1  C2  UNL     1       2.153  -8.603 -16.252  1.00  0.00     0.109 A 
HETATM    2  C3  UNL     1       2.063  -8.910 -14.916  1.00  0.00    -0.018 A 
HETATM    3  C4  UNL     1       2.078  -7.864 -13.833  1.00  0.00     0.052 C 
HETATM    4  C5  UNL     1       1.840 -10.203 -14.547  1.00  0.00    -0.031 A 
HETATM    5  C6  UNL     1       1.697 -11.194 -15.503  1.00  0.00    -0.024 A 
HETATM    6  C7  UNL     1       1.788 -10.824 -16.795  1.00  0.00     0.077 A 
HETATM    7 CL1  UNL     1       1.759 -12.043 -18.083  1.00  0.00    -0.081 Cl
HETATM    8  C8  UNL     1       2.022  -9.497 -17.258  1.00  0.00     0.124 A 
HETATM    9  C10 UNL     1       1.430 -12.649 -15.458  1.00  0.00     0.075 C 
HETATM   10  C11 UNL     1       0.347 -13.173 -14.618  1.00  0.00     0.209 C 
HETATM   11  N1  UNL     1       0.208 -14.577 -14.825  1.00  0.00    -0.033 N 
ATOM     12  H11 UNL     1       0.882 -14.960 -15.487  1.00  0.00     0.281 HD
ATOM     13  H12 UNL     1      -0.632 -14.831 -15.345  1.00  0.00     0.281 HD
HETATM   14  C12 UNL     1       0.280 -15.188 -13.501  1.00  0.00     0.257 C 
HETATM   15  C20 UNL     1       1.235 -14.291 -12.775  1.00  0.00     0.092 C 
HETATM   16  C21 UNL     1       0.539 -12.953 -13.082  1.00  0.00     0.088 C 
HETATM   17  C22 UNL     1       1.153 -11.736 -12.841  1.00  0.00    -0.172 C 
HETATM   18  C23 UNL     1       1.786 -10.448 -13.046  1.00  0.00     0.120 C 
ENDROOT
BRANCH  14  19
HETATM   19  O3  UNL     1      -0.945 -15.097 -12.854  1.00  0.00    -0.361 OA
ATOM     20  H3  UNL     1      -1.152 -14.191 -12.656  1.00  0.00     0.213 HD
ENDBRANCH  14  19
BRANCH  14  21
HETATM   21  C13 UNL     1       0.692 -16.602 -13.619  1.00  0.00     0.040 A 
HETATM   22  C14 UNL     1       0.920 -17.134 -14.858  1.00  0.00     0.040 A 
HETATM   23  C15 UNL     1       1.286 -18.443 -14.984  1.00  0.00     0.057 A 
HETATM   24 CL2  UNL     1       1.426 -19.191 -16.584  1.00  0.00    -0.083 Cl
HETATM   25  C16 UNL     1       1.448 -19.273 -13.912  1.00  0.00     0.066 A 
HETATM   26 CL3  UNL     1       1.892 -20.964 -14.064  1.00  0.00    -0.082 Cl
HETATM   27  C17 UNL     1       1.213 -18.724 -12.657  1.00  0.00     0.024 A 
HETATM   28  C19 UNL     1       0.831 -17.400 -12.505  1.00  0.00     0.086 A 
BRANCH  27  29
HETATM   29  C18 UNL     1       1.554 -19.619 -11.507  1.00  0.00     0.272 C 
BRANCH  29  30
HETATM   30  N2  UNL     1       0.327 -19.855 -10.703  1.00  0.00    -0.075 N 
ATOM     31  H23 UNL     1       0.158 -19.115 -10.022  1.00  0.00     0.274 HD
ATOM     32  H22 UNL     1      -0.526 -19.740 -11.251  1.00  0.00     0.274 HD
ATOM     33  H21 UNL     1       0.390 -20.776 -10.269  1.00  0.00     0.274 HD
ENDBRANCH  29  30
ENDBRANCH  27  29
BRANCH  28  34
HETATM   34  O4  UNL     1       0.623 -16.965 -11.178  1.00  0.00    -0.359 OA
ATOM     35  H4  UNL     1       1.222 -17.126 -10.459  1.00  0.00     0.217 HD
ENDBRANCH  28  34
ENDBRANCH  14  21
BRANCH   8  36
HETATM   36  O2  UNL     1       2.077  -9.300 -18.575  1.00  0.00    -0.351 OA
HETATM   37  C9  UNL     1       2.885  -8.989 -19.593  1.00  0.00     0.210 C 
ENDBRANCH   8  36
BRANCH   1  38
HETATM   38  O1  UNL     1       2.425  -7.254 -16.636  1.00  0.00    -0.352 OA
HETATM   39  C1  UNL     1       1.318  -6.372 -16.815  1.00  0.00     0.210 C 
ENDBRANCH   1  38
TORSDOF 7
ENDMDL
MODEL 2
REMARK VINA RESULT: -8.506676387      1.287      1.825
REMARK  7 active torsions:
REMARK  status: ('A' for Active; 'I' for Inactive)
REMARK    1  A    between atoms: O1_2  and  C2_3 
REMARK    2  A    between atoms: C8_10  and  O2_11 
REMARK    3  A    between atoms: C12_18  and  O3_19 
REMARK    4  A    between atoms: C12_18  and  C13_21 
REMARK    5  A    between atoms: C17_27  and  C18_28 
REMARK    6  A    between atoms: C18_28  and  N2_29 
REMARK    7  A    between atoms: C19_33  and  O4_34 
ROOT
HETATM    1  C2  UNL     1       2.059  -8.519 -16.137  1.00  0.00     0.109 A 
HETATM    2  C3  UNL     1       1.906  -8.770 -14.795  1.00  0.00    -0.018 A 
HETATM    3  C4  UNL     1       1.807  -7.677 -13.765  1.00  0.00     0.052 C 
HETATM    4  C5  UNL     1       1.725 -10.054 -14.377  1.00  0.00    -0.031 A 
HETATM    5  C6  UNL     1       1.686 -11.094 -15.291  1.00  0.00    -0.024 A 
HETATM    6  C7  UNL     1       1.834 -10.778 -16.592  1.00  0.00     0.077 A 
HETATM    7 CL1  UNL     1       1.938 -12.055 -17.819  1.00  0.00    -0.081 Cl
HETATM    8  C8  UNL     1       2.031  -9.464 -17.105  1.00  0.00     0.124 A 
HETATM    9  C10 UNL     1       1.486 -12.557 -15.190  1.00  0.00     0.075 C 
HETATM   10  C11 UNL     1       0.383 -13.096 -14.388  1.00  0.00     0.209 C 
HETATM   11  N1  UNL     1       0.323 -14.514 -14.535  1.00  0.00    -0.033 N 
ATOM     12  H11 UNL     1       1.053 -14.891 -15.138  1.00  0.00     0.281 HD
ATOM     13  H12 UNL     1      -0.472 -14.833 -15.088  1.00  0.00     0.281 HD
HETATM   14  C12 UNL     1       0.347 -15.059 -13.181  1.00  0.00     0.257 C 
HETATM   15  C20 UNL     1       1.214 -14.083 -12.447  1.00  0.00     0.092 C 
HETATM   16  C21 UNL     1       0.473 -12.797 -12.857  1.00  0.00     0.088 C 
HETATM   17  C22 UNL     1       1.013 -11.541 -12.641  1.00  0.00    -0.172 C 
HETATM   18  C23 UNL     1       1.595 -10.233 -12.872  1.00  0.00     0.120 C 
ENDROOT
BRANCH  14  19
HETATM   19  O3  UNL     1      -0.917 -15.001 -12.609  1.00  0.00    -0.361 OA
ATOM     20  H3  UNL     1      -1.589 -15.070 -13.277  1.00  0.00     0.213 HD
ENDBRANCH  14  19
BRANCH  14  21
HETATM   21  C13 UNL     1       0.833 -16.455 -13.207  1.00  0.00     0.040 A 
HETATM   22  C14 UNL     1       1.746 -16.865 -12.275  1.00  0.00     0.040 A 
HETATM   23  C15 UNL     1       2.215 -18.147 -12.296  1.00  0.00     0.057 A 
HETATM   24 CL2  UNL     1       3.516 -18.649 -11.202  1.00  0.00    -0.083 Cl
HETATM   25  C16 UNL     1       1.809 -19.070 -13.216  1.00  0.00     0.066 A 
HETATM   26 CL3  UNL     1       2.425 -20.712 -13.268  1.00  0.00    -0.082 Cl
HETATM   27  C17 UNL     1       0.882 -18.643 -14.160  1.00  0.00     0.024 A 
HETATM   28  C19 UNL     1       0.397 -17.343 -14.165  1.00  0.00     0.086 A 
BRANCH  27  29
HETATM   29  C18 UNL     1       0.346 -19.724 -15.046  1.00  0.00     0.272 C 
BRANCH  29  30
HETATM   30  N2  UNL     1      -1.048 -20.032 -14.635  1.00  0.00    -0.075 N 
ATOM     31  H23 UNL     1      -1.462 -19.289 -14.071  1.00  0.00     0.274 HD
ATOM     32  H22 UNL     1      -1.702 -19.996 -15.417  1.00  0.00     0.274 HD
ATOM     33  H21 UNL     1      -1.059 -20.934 -14.159  1.00  0.00     0.274 HD
ENDBRANCH  29  30
ENDBRANCH  27  29
BRANCH  28  34
HETATM   34  O4  UNL     1      -0.539 -17.036 -15.174  1.00  0.00    -0.359 OA
ATOM     35  H4  UNL     1      -0.311 -16.755 -16.053  1.00  0.00     0.217 HD
ENDBRANCH  28  34
ENDBRANCH  14  21
BRANCH   8  36
HETATM   36  O2  UNL     1       2.153  -9.325 -18.425  1.00  0.00    -0.351 OA
HETATM   37  C9  UNL     1       2.995  -8.993 -19.407  1.00  0.00     0.210 C 
ENDBRANCH   8  36
BRANCH   1  38
HETATM   38  O1  UNL     1       2.288  -7.178 -16.570  1.00  0.00    -0.352 OA
HETATM   39  C1  UNL     1       1.157  -6.321 -16.725  1.00  0.00     0.210 C 
ENDBRANCH   1  38
TORSDOF 7
ENDMDL
MODEL 3
REMARK VINA RESULT: -8.327614002      4.494      6.063
REMARK  7 active torsions:
REMARK  status: ('A' for Active; 'I' for Inactive)
REMARK    1  A    between atoms: O1_2  and  C2_3 
REMARK    2  A    between atoms: C8_10  and  O2_11 
REMARK    3  A    between atoms: C12_18  and  O3_19 
REMARK    4  A    between atoms: C12_18  and  C13_21 
REMARK    5  A    between atoms: C17_27  and  C18_28 
REMARK    6  A    between atoms: C18_28  and  N2_29 
REMARK    7  A    between atoms: C19_33  and  O4_34 
ROOT
HETATM    1  C2  UNL     1       1.724  -9.542 -14.267  1.00  0.00     0.109 A 
HETATM    2  C3  UNL     1       1.916  -9.274 -15.600  1.00  0.00    -0.018 A 
HETATM    3  C4  UNL     1       2.366  -7.931 -16.109  1.00  0.00     0.052 C 
HETATM    4  C5  UNL     1       1.803 -10.289 -16.504  1.00  0.00    -0.031 A 
HETATM    5  C6  UNL     1       1.509 -11.576 -16.085  1.00  0.00    -0.024 A 
HETATM    6  C7  UNL     1       1.341 -11.771 -14.762  1.00  0.00     0.077 A 
HETATM    7 CL1  UNL     1       0.824 -13.353 -14.147  1.00  0.00    -0.081 Cl
HETATM    8  C8  UNL     1       1.439 -10.764 -13.760  1.00  0.00     0.124 A 
HETATM    9  C10 UNL     1       1.343 -12.878 -16.768  1.00  0.00     0.075 C 
HETATM   10  C11 UNL     1       2.337 -13.325 -17.751  1.00  0.00     0.209 C 
HETATM   11  N1  UNL     1       2.029 -14.647 -18.187  1.00  0.00    -0.033 N 
ATOM     12  H11 UNL     1       1.183 -15.028 -17.764  1.00  0.00     0.281 HD
ATOM     13  H12 UNL     1       2.673 -15.353 -17.830  1.00  0.00     0.281 HD
HETATM   14  C12 UNL     1       1.977 -14.588 -19.644  1.00  0.00     0.257 C 
HETATM   15  C20 UNL     1       1.442 -13.213 -19.900  1.00  0.00     0.092 C 
HETATM   16  C21 UNL     1       2.446 -12.434 -19.031  1.00  0.00     0.088 C 
HETATM   17  C22 UNL     1       2.255 -11.100 -18.709  1.00  0.00    -0.172 C 
HETATM   18  C23 UNL     1       2.003  -9.887 -17.957  1.00  0.00     0.120 C 
ENDROOT
BRANCH  14  19
HETATM   19  O3  UNL     1       3.256 -14.641 -20.180  1.00  0.00    -0.361 OA
ATOM     20  H3  UNL     1       3.259 -14.311 -21.071  1.00  0.00     0.213 HD
ENDBRANCH  14  19
BRANCH  14  21
HETATM   21  C13 UNL     1       1.157 -15.702 -20.166  1.00  0.00     0.040 A 
HETATM   22  C14 UNL     1       1.684 -16.535 -21.114  1.00  0.00     0.040 A 
HETATM   23  C15 UNL     1       0.934 -17.559 -21.617  1.00  0.00     0.057 A 
HETATM   24 CL2  UNL     1       1.538 -18.546 -22.959  1.00  0.00    -0.083 Cl
HETATM   25  C16 UNL     1      -0.346 -17.809 -21.211  1.00  0.00     0.066 A 
HETATM   26 CL3  UNL     1      -1.327 -19.106 -21.869  1.00  0.00    -0.082 Cl
HETATM   27  C17 UNL     1      -0.872 -16.956 -20.248  1.00  0.00     0.024 A 
HETATM   28  C19 UNL     1      -0.133 -15.903 -19.729  1.00  0.00     0.086 A 
BRANCH  27  29
HETATM   29  C18 UNL     1      -2.213 -17.360 -19.718  1.00  0.00     0.272 C 
BRANCH  29  30
HETATM   30  N2  UNL     1      -3.194 -16.290 -20.036  1.00  0.00    -0.075 N 
ATOM     31  H23 UNL     1      -2.757 -15.372 -20.118  1.00  0.00     0.274 HD
ATOM     32  H22 UNL     1      -3.555 -16.361 -20.987  1.00  0.00     0.274 HD
ATOM     33  H21 UNL     1      -3.936 -16.307 -19.335  1.00  0.00     0.274 HD
ENDBRANCH  29  30
ENDBRANCH  27  29
BRANCH  28  34
HETATM   34  O4  UNL     1      -0.782 -15.111 -18.758  1.00  0.00    -0.359 OA
ATOM     35  H4  UNL     1      -1.724 -15.005 -18.692  1.00  0.00     0.217 HD
ENDBRANCH  28  34
ENDBRANCH  14  21
BRANCH   8  36
HETATM   36  O2  UNL     1       1.252 -11.129 -12.492  1.00  0.00    -0.351 OA
HETATM   37  C9  UNL     1       0.422 -11.039 -11.448  1.00  0.00     0.210 C 
ENDBRANCH   8  36
BRANCH   1  38
HETATM   38  O1  UNL     1       1.804  -8.471 -13.326  1.00  0.00    -0.352 OA
HETATM   39  C1  UNL     1       0.811  -7.448 -13.389  1.00  0.00     0.210 C 
ENDBRANCH   1  38
TORSDOF 7
ENDMDL
MODEL 4
REMARK VINA RESULT: -8.293836416      2.672      3.656
REMARK  7 active torsions:
REMARK  status: ('A' for Active; 'I' for Inactive)
REMARK    1  A    between atoms: O1_2  and  C2_3 
REMARK    2  A    between atoms: C8_10  and  O2_11 
REMARK    3  A    between atoms: C12_18  and  O3_19 
REMARK    4  A    between atoms: C12_18  and  C13_21 
REMARK    5  A    between atoms: C17_27  and  C18_28 
REMARK    6  A    between atoms: C18_28  and  N2_29 
REMARK    7  A    between atoms: C19_33  and  O4_34 
ROOT
HETATM    1  C2  UNL     1       1.957  -9.817 -16.059  1.00  0.00     0.109 A 
HETATM    2  C3  UNL     1       1.891 -10.686 -17.120  1.00  0.00    -0.018 A 
HETATM    3  C4  UNL     1       2.319 -10.311 -18.514  1.00  0.00     0.052 C 
HETATM    4  C5  UNL     1       1.528 -11.981 -16.895  1.00  0.00    -0.031 A 
HETATM    5  C6  UNL     1       1.238 -12.419 -15.614  1.00  0.00    -0.024 A 
HETATM    6  C7  UNL     1       1.330 -11.517 -14.617  1.00  0.00     0.077 A 
HETATM    7 CL1  UNL     1       0.842 -11.949 -12.967  1.00  0.00    -0.081 Cl
HETATM    8  C8  UNL     1       1.698 -10.150 -14.774  1.00  0.00     0.124 A 
HETATM    9  C10 UNL     1       0.849 -13.720 -15.025  1.00  0.00     0.075 C 
HETATM   10  C11 UNL     1       1.589 -14.937 -15.374  1.00  0.00     0.209 C 
HETATM   11  N1  UNL     1       1.109 -16.036 -14.602  1.00  0.00    -0.033 N 
ATOM     12  H11 UNL     1       0.343 -15.790 -13.976  1.00  0.00     0.281 HD
ATOM     13  H12 UNL     1       1.763 -16.343 -13.881  1.00  0.00     0.281 HD
HETATM   14  C12 UNL     1       0.766 -17.081 -15.560  1.00  0.00     0.257 C 
HETATM   15  C20 UNL     1       0.285 -16.300 -16.744  1.00  0.00     0.092 C 
HETATM   16  C21 UNL     1       1.496 -15.357 -16.876  1.00  0.00     0.088 C 
HETATM   17  C22 UNL     1       1.466 -14.238 -17.691  1.00  0.00    -0.172 C 
HETATM   18  C23 UNL     1       1.455 -12.858 -18.136  1.00  0.00     0.120 C 
ENDROOT
BRANCH  14  19
HETATM   19  O3  UNL     1       1.903 -17.773 -15.956  1.00  0.00    -0.361 OA
ATOM     20  H3  UNL     1       2.572 -17.171 -16.258  1.00  0.00     0.213 HD
ENDBRANCH  14  19
BRANCH  14  21
HETATM   21  C13 UNL     1      -0.217 -18.011 -14.964  1.00  0.00     0.040 A 
HETATM   22  C14 UNL     1      -1.459 -18.125 -15.526  1.00  0.00     0.040 A 
HETATM   23  C15 UNL     1      -2.382 -18.968 -14.977  1.00  0.00     0.057 A 
HETATM   24 CL2  UNL     1      -4.044 -19.007 -15.589  1.00  0.00    -0.083 Cl
HETATM   25  C16 UNL     1      -2.126 -19.729 -13.872  1.00  0.00     0.066 A 
HETATM   26 CL3  UNL     1      -3.314 -20.796 -13.144  1.00  0.00    -0.082 Cl
HETATM   27  C17 UNL     1      -0.862 -19.605 -13.309  1.00  0.00     0.024 A 
HETATM   28  C19 UNL     1       0.090 -18.749 -13.842  1.00  0.00     0.086 A 
BRANCH  27  29
HETATM   29  C18 UNL     1      -0.571 -20.570 -12.202  1.00  0.00     0.272 C 
BRANCH  29  30
HETATM   30  N2  UNL     1      -0.016 -19.819 -11.046  1.00  0.00    -0.075 N 
ATOM     31  H23 UNL     1       0.696 -19.144 -11.325  1.00  0.00     0.274 HD
ATOM     32  H22 UNL     1      -0.688 -19.160 -10.650  1.00  0.00     0.274 HD
ATOM     33  H21 UNL     1       0.328 -20.486 -10.356  1.00  0.00     0.274 HD
ENDBRANCH  29  30
ENDBRANCH  27  29
BRANCH  28  34
HETATM   34  O4  UNL     1       1.334 -18.715 -13.177  1.00  0.00    -0.359 OA
ATOM     35  H4  UNL     1       2.160 -18.977 -13.567  1.00  0.00     0.217 HD
ENDBRANCH  28  34
ENDBRANCH  14  21
BRANCH   8  36
HETATM   36  O2  UNL     1       1.748  -9.392 -13.679  1.00  0.00    -0.351 OA
HETATM   37  C9  UNL     1       1.155  -8.388 -13.026  1.00  0.00     0.210 C 
ENDBRANCH   8  36
BRANCH   1  38
HETATM   38  O1  UNL     1       2.299  -8.452 -16.302  1.00  0.00    -0.352 OA
HETATM   39  C1  UNL     1       1.238  -7.507 -16.428  1.00  0.00     0.210 C 
ENDBRANCH   1  38
TORSDOF 7
ENDMDL
MODEL 5
REMARK VINA RESULT: -8.280276500      3.255      4.543
REMARK  7 active torsions:
REMARK  status: ('A' for Active; 'I' for Inactive)
REMARK    1  A    between atoms: O1_2  and  C2_3 
REMARK    2  A    between atoms: C8_10  and  O2_11 
REMARK    3  A    between atoms: C12_18  and  O3_19 
REMARK    4  A    between atoms: C12_18  and  C13_21 
REMARK    5  A    between atoms: C17_27  and  C18_28 
REMARK    6  A    between atoms: C18_28  and  N2_29 
REMARK    7  A    between atoms: C19_33  and  O4_34 
ROOT
HETATM    1  C2  UNL     1       1.725  -9.549 -14.230  1.00  0.00     0.109 A 
HETATM    2  C3  UNL     1       1.328 -10.642 -13.500  1.00  0.00    -0.018 A 
HETATM    3  C4  UNL     1       1.074 -10.589 -12.017  1.00  0.00     0.052 C 
HETATM    4  C5  UNL     1       1.041 -11.806 -14.151  1.00  0.00    -0.031 A 
HETATM    5  C6  UNL     1       1.140 -11.884 -15.530  1.00  0.00    -0.024 A 
HETATM    6  C7  UNL     1       1.526 -10.772 -16.186  1.00  0.00     0.077 A 
HETATM    7 CL1  UNL     1       1.815 -10.817 -17.935  1.00  0.00    -0.081 Cl
HETATM    8  C8  UNL     1       1.845  -9.524 -15.577  1.00  0.00     0.124 A 
HETATM    9  C10 UNL     1       0.888 -12.946 -16.530  1.00  0.00     0.075 C 
HETATM   10  C11 UNL     1      -0.355 -13.724 -16.481  1.00  0.00     0.209 C 
HETATM   11  N1  UNL     1      -0.424 -14.601 -17.603  1.00  0.00    -0.033 N 
ATOM     12  H11 UNL     1       0.392 -14.547 -18.212  1.00  0.00     0.281 HD
ATOM     13  H12 UNL     1      -1.115 -14.319 -18.298  1.00  0.00     0.281 HD
HETATM   14  C12 UNL     1      -0.656 -15.934 -17.057  1.00  0.00     0.257 C 
HETATM   15  C20 UNL     1       0.090 -15.895 -15.759  1.00  0.00     0.092 C 
HETATM   16  C21 UNL     1      -0.532 -14.603 -15.200  1.00  0.00     0.088 C 
HETATM   17  C22 UNL     1      -0.007 -13.957 -14.094  1.00  0.00    -0.172 C 
HETATM   18  C23 UNL     1       0.640 -12.967 -13.254  1.00  0.00     0.120 C 
ENDROOT
BRANCH  14  19
HETATM   19  O3  UNL     1      -2.000 -16.111 -16.756  1.00  0.00    -0.361 OA
ATOM     20  H3  UNL     1      -2.119 -16.244 -15.823  1.00  0.00     0.213 HD
ENDBRANCH  14  19
BRANCH  14  21
HETATM   21  C13 UNL     1      -0.210 -16.961 -18.023  1.00  0.00     0.040 A 
HETATM   22  C14 UNL     1      -1.049 -17.993 -18.341  1.00  0.00     0.040 A 
HETATM   23  C15 UNL     1      -0.645 -18.956 -19.220  1.00  0.00     0.057 A 
HETATM   24 CL2  UNL     1      -1.651 -20.384 -19.518  1.00  0.00    -0.083 Cl
HETATM   25  C16 UNL     1       0.581 -18.945 -19.820  1.00  0.00     0.066 A 
HETATM   26 CL3  UNL     1       1.120 -20.192 -20.930  1.00  0.00    -0.082 Cl
HETATM   27  C17 UNL     1       1.427 -17.892 -19.489  1.00  0.00     0.024 A 
HETATM   28  C19 UNL     1       1.043 -16.907 -18.592  1.00  0.00     0.086 A 
BRANCH  27  29
HETATM   29  C18 UNL     1       2.693 -17.831 -20.287  1.00  0.00     0.272 C 
BRANCH  29  30
HETATM   30  N2  UNL     1       2.659 -16.617 -21.144  1.00  0.00    -0.075 N 
ATOM     31  H23 UNL     1       1.810 -16.560 -21.707  1.00  0.00     0.274 HD
ATOM     32  H22 UNL     1       2.529 -15.762 -20.603  1.00  0.00     0.274 HD
ATOM     33  H21 UNL     1       3.506 -16.594 -21.712  1.00  0.00     0.274 HD
ENDBRANCH  29  30
ENDBRANCH  27  29
BRANCH  28  34
HETATM   34  O4  UNL     1       1.993 -15.894 -18.342  1.00  0.00    -0.359 OA
ATOM     35  H4  UNL     1       2.814 -15.799 -18.809  1.00  0.00     0.217 HD
ENDBRANCH  28  34
ENDBRANCH  14  21
BRANCH   8  36
HETATM   36  O2  UNL     1       2.205  -8.519 -16.375  1.00  0.00    -0.351 OA
HETATM   37  C9  UNL     1       1.771  -7.417 -16.994  1.00  0.00     0.210 C 
ENDBRANCH   8  36
BRANCH   1  38
HETATM   38  O1  UNL     1       2.062  -8.343 -13.543  1.00  0.00    -0.352 OA
HETATM   39  C1  UNL     1       1.088  -7.300 -13.502  1.00  0.00     0.210 C 
ENDBRANCH   1  38
TORSDOF 7
ENDMDL
