MODEL 1
REMARK VINA RESULT: -8.673161782      0.000      0.000
REMARK  7 active torsions:
REMARK  status: ('A' for Active; 'I' for Inactive)
REMARK    1  A    between atoms: N1_1  and  C1_5 
REMARK    2  A    between atoms: C1_5  and  C2_6 
REMARK    3  A    between atoms: C2_6  and  O1_7 
REMARK    4  A    between atoms: N2_9  and  O2_11 
REMARK    5  A    between atoms: N3_16  and  C6_18 
REMARK    6  A    between atoms: C6_18  and  C7_19 
REMARK       I    between atoms: C7_19  and  N4_21 
REMARK    7  A    between atoms: N4_21  and  C8_23 
ROOT
HETATM    1  C1  UNL     1       0.869 -18.420 -12.217  1.00  0.00     0.197 C 
HETATM    2  C3  UNL     1       1.920 -17.400 -12.728  1.00  0.00     0.054 C 
HETATM    3  C4  UNL     1       1.360 -16.061 -12.950  1.00  0.00     0.055 C 
HETATM    4  C5  UNL     1       1.233 -15.524 -14.282  1.00  0.00    -0.018 C 
HETATM    5  N3  UNL     1       0.812 -14.335 -14.431  1.00  0.00    -0.388 N 
ATOM      6  H3  UNL     1       0.720 -13.951 -15.372  1.00  0.00     0.159 HD
HETATM    7  C14 UNL     1       1.543 -16.200 -15.578  1.00  0.00     0.052 C 
HETATM    8  C15 UNL     1       0.277 -16.204 -16.456  1.00  0.00     0.006 C 
HETATM    9  C16 UNL     1      -0.054 -17.565 -16.982  1.00  0.00     0.000 C 
HETATM   10  C17 UNL     1      -1.468 -17.966 -16.959  1.00  0.00     0.001 C 
HETATM   11  C18 UNL     1      -2.123 -18.307 -15.686  1.00  0.00     0.010 C 
HETATM   12  C19 UNL     1      -1.920 -19.702 -15.164  1.00  0.00     0.074 C 
HETATM   13  S1  UNL     1      -1.367 -19.699 -13.400  1.00  0.00    -0.166 SA
HETATM   14  C20 UNL     1      -0.019 -18.575 -13.395  1.00  0.00     0.121 C 
ENDROOT
BRANCH   5  15
HETATM   15  C6  UNL     1       0.467 -13.534 -13.314  1.00  0.00     0.222 C 
BRANCH  15  16
HETATM   16  C7  UNL     1       0.808 -12.079 -13.528  1.00  0.00     0.239 C 
HETATM   17  O3  UNL     1       1.108 -11.451 -12.507  1.00  0.00    -0.271 OA
HETATM   18  N4  UNL     1       0.770 -11.534 -14.809  1.00  0.00    -0.324 N 
ATOM     19  H4  UNL     1       0.503 -12.172 -15.560  1.00  0.00     0.169 HD
BRANCH  18  20
HETATM   20  C8  UNL     1       1.056 -10.209 -15.194  1.00  0.00     0.058 A 
HETATM   21  C9  UNL     1       0.878  -9.098 -14.418  1.00  0.00     0.057 A 
HETATM   22  C10 UNL     1       1.189  -7.827 -14.879  1.00  0.00     0.058 A 
HETATM   23 CL1  UNL     1       0.946  -6.420 -13.846  1.00  0.00    -0.082 Cl
HETATM   24  C11 UNL     1       1.689  -7.635 -16.144  1.00  0.00     0.057 A 
HETATM   25 CL2  UNL     1       2.079  -6.005 -16.714  1.00  0.00    -0.082 Cl
HETATM   26  C12 UNL     1       1.871  -8.728 -16.926  1.00  0.00     0.051 A 
HETATM   27  C13 UNL     1       1.565  -9.985 -16.476  1.00  0.00     0.062 A 
HETATM   28 CL3  UNL     1       1.817 -11.369 -17.523  1.00  0.00    -0.082 Cl
ENDBRANCH  18  20
ENDBRANCH  15  16
ENDBRANCH   5  15
BRANCH   1  29
HETATM   29  N1  UNL     1       0.112 -17.817 -11.146  1.00  0.00    -0.062 N 
ATOM     30  H13 UNL     1       0.268 -18.313 -10.269  1.00  0.00     0.275 HD
ATOM     31  H12 UNL     1       0.499 -16.907 -10.897  1.00  0.00     0.275 HD
ATOM     32  H11 UNL     1      -0.885 -17.743 -11.349  1.00  0.00     0.275 HD
ENDBRANCH   1  29
BRANCH   1  33
HETATM   33  C2  UNL     1       1.564 -19.651 -11.817  1.00  0.00     0.173 C 
HETATM   34  N2  UNL     1       1.224 -20.294 -10.775  1.00  0.00    -0.249 N 
ATOM     35  H2  UNL     1       1.765 -21.137 -10.577  1.00  0.00     0.196 HD
BRANCH  33  36
HETATM   36  O1  UNL     1       2.629 -20.180 -12.552  1.00  0.00    -0.346 OA
ATOM     37  H1  UNL     1       3.311 -20.705 -12.150  1.00  0.00     0.219 HD
ENDBRANCH  33  36
BRANCH  34  38
HETATM   38  O2  UNL     1       0.237 -20.006  -9.893  1.00  0.00    -0.288 OA
ATOM     39  H2  UNL     1      -0.105 -20.549  -9.193  1.00  0.00     0.244 HD
ENDBRANCH  34  38
ENDBRANCH   1  33
TORSDOF 7
ENDMDL
MODEL 2
REMARK VINA RESULT: -8.443115486      1.408      1.969
REMARK  7 active torsions:
REMARK  status: ('A' for Active; 'I' for Inactive)
REMARK    1  A    between atoms: N1_1  and  C1_5 
REMARK    2  A    between atoms: C1_5  and  C2_6 
REMARK    3  A    between atoms: C2_6  and  O1_7 
REMARK    4  A    between atoms: N2_9  and  O2_11 
REMARK    5  A    between atoms: N3_16  and  C6_18 
REMARK    6  A    between atoms: C6_18  and  C7_19 
REMARK       I    between atoms: C7_19  and  N4_21 
REMARK    7  A    between atoms: N4_21  and  C8_23 
ROOT
HETATM    1  C1  UNL     1       0.788 -18.930 -12.185  1.00  0.00     0.197 C 
HETATM    2  C3  UNL     1       1.855 -18.229 -13.065  1.00  0.00     0.054 C 
HETATM    3  C4  UNL     1       1.448 -16.887 -13.501  1.00  0.00     0.055 C 
HETATM    4  C5  UNL     1       1.153 -16.617 -14.886  1.00  0.00    -0.018 C 
HETATM    5  N3  UNL     1       0.875 -15.428 -15.238  1.00  0.00    -0.388 N 
ATOM      6  H3  UNL     1       0.665 -15.232 -16.217  1.00  0.00     0.159 HD
HETATM    7  C14 UNL     1       1.128 -17.583 -16.025  1.00  0.00     0.052 C 
HETATM    8  C15 UNL     1      -0.266 -17.548 -16.679  1.00  0.00     0.006 C 
HETATM    9  C16 UNL     1      -0.867 -18.911 -16.826  1.00  0.00     0.000 C 
HETATM   10  C17 UNL     1      -2.294 -19.052 -16.501  1.00  0.00     0.001 C 
HETATM   11  C18 UNL     1      -2.745 -19.013 -15.102  1.00  0.00     0.010 C 
HETATM   12  C19 UNL     1      -2.639 -20.286 -14.311  1.00  0.00     0.074 C 
HETATM   13  S1  UNL     1      -1.777 -20.021 -12.697  1.00  0.00    -0.166 SA
HETATM   14  C20 UNL     1      -0.313 -19.166 -13.150  1.00  0.00     0.121 C 
ENDROOT
BRANCH   5  15
HETATM   15  C6  UNL     1       0.850 -14.371 -14.294  1.00  0.00     0.222 C 
BRANCH  15  16
HETATM   16  C7  UNL     1       0.773 -13.017 -14.956  1.00  0.00     0.239 C 
HETATM   17  O3  UNL     1      -0.064 -12.916 -15.860  1.00  0.00    -0.271 OA
HETATM   18  N4  UNL     1       1.612 -11.987 -14.538  1.00  0.00    -0.324 N 
ATOM     19  H4  UNL     1       2.256 -12.213 -13.780  1.00  0.00     0.169 HD
BRANCH  18  20
HETATM   20  C8  UNL     1       1.678 -10.669 -15.034  1.00  0.00     0.058 A 
HETATM   21  C9  UNL     1       1.943 -10.318 -16.328  1.00  0.00     0.057 A 
HETATM   22  C10 UNL     1       1.987  -8.992 -16.731  1.00  0.00     0.058 A 
HETATM   23 CL1  UNL     1       2.332  -8.580 -18.410  1.00  0.00    -0.082 Cl
HETATM   24  C11 UNL     1       1.766  -7.972 -15.837  1.00  0.00     0.057 A 
HETATM   25 CL2  UNL     1       1.828  -6.285 -16.371  1.00  0.00    -0.082 Cl
HETATM   26  C12 UNL     1       1.502  -8.305 -14.549  1.00  0.00     0.051 A 
HETATM   27  C13 UNL     1       1.457  -9.613 -14.146  1.00  0.00     0.062 A 
HETATM   28 CL3  UNL     1       1.111  -9.996 -12.470  1.00  0.00    -0.082 Cl
ENDBRANCH  18  20
ENDBRANCH  15  16
ENDBRANCH   5  15
BRANCH   1  29
HETATM   29  N1  UNL     1       0.327 -18.003 -11.179  1.00  0.00    -0.062 N 
ATOM     30  H13 UNL     1       0.101 -17.100 -11.595  1.00  0.00     0.275 HD
ATOM     31  H12 UNL     1      -0.597 -18.268 -10.839  1.00  0.00     0.275 HD
ATOM     32  H11 UNL     1       0.980 -17.891 -10.403  1.00  0.00     0.275 HD
ENDBRANCH   1  29
BRANCH   1  33
HETATM   33  C2  UNL     1       1.374 -20.155 -11.622  1.00  0.00     0.173 C 
HETATM   34  N2  UNL     1       1.103 -20.536 -10.440  1.00  0.00    -0.249 N 
ATOM     35  H2  UNL     1       1.557 -21.398 -10.137  1.00  0.00     0.196 HD
BRANCH  33  36
HETATM   36  O1  UNL     1       2.253 -20.963 -12.348  1.00  0.00    -0.346 OA
ATOM     37  H1  UNL     1       1.976 -21.775 -12.756  1.00  0.00     0.219 HD
ENDBRANCH  33  36
BRANCH  34  38
HETATM   38  O2  UNL     1       0.290 -19.945  -9.531  1.00  0.00    -0.288 OA
ATOM     39  H2  UNL     1       0.147 -20.187  -8.624  1.00  0.00     0.244 HD
ENDBRANCH  34  38
ENDBRANCH   1  33
TORSDOF 7
ENDMDL
MODEL 3
REMARK VINA RESULT: -8.272570536      3.000      4.501
REMARK  7 active torsions:
REMARK  status: ('A' for Active; 'I' for Inactive)
REMARK    1  A    between atoms: N1_1  and  C1_5 
REMARK    2  A    between atoms: C1_5  and  C2_6 
REMARK    3  A    between atoms: C2_6  and  O1_7 
REMARK    4  A    between atoms: N2_9  and  O2_11 
REMARK    5  A    between atoms: N3_16  and  C6_18 
REMARK    6  A    between atoms: C6_18  and  C7_19 
REMARK       I    between atoms: C7_19  and  N4_21 
REMARK    7  A    between atoms: N4_21  and  C8_23 
ROOT
HETATM    1  C1  UNL     1      -0.933 -17.041 -16.719  1.00  0.00     0.197 C 
HETATM    2  C3  UNL     1      -1.147 -15.665 -16.036  1.00  0.00     0.054 C 
HETATM    3  C4  UNL     1       0.101 -14.914 -15.854  1.00  0.00     0.055 C 
HETATM    4  C5  UNL     1       0.642 -14.687 -14.537  1.00  0.00    -0.018 C 
HETATM    5  N3  UNL     1       1.684 -13.972 -14.412  1.00  0.00    -0.388 N 
ATOM      6  H3  UNL     1       2.071 -13.808 -13.482  1.00  0.00     0.159 HD
HETATM    7  C14 UNL     1       0.126 -15.199 -13.232  1.00  0.00     0.052 C 
HETATM    8  C15 UNL     1       1.236 -16.013 -12.539  1.00  0.00     0.006 C 
HETATM    9  C16 UNL     1       0.769 -17.367 -12.106  1.00  0.00     0.000 C 
HETATM   10  C17 UNL     1       1.683 -18.495 -12.338  1.00  0.00     0.001 C 
HETATM   11  C18 UNL     1       1.894 -19.013 -13.699  1.00  0.00     0.010 C 
HETATM   12  C19 UNL     1       0.875 -19.981 -14.230  1.00  0.00     0.074 C 
HETATM   13  S1  UNL     1       0.257 -19.479 -15.899  1.00  0.00    -0.166 SA
HETATM   14  C20 UNL     1      -0.188 -17.796 -15.681  1.00  0.00     0.121 C 
ENDROOT
BRANCH   5  15
HETATM   15  C6  UNL     1       2.319 -13.396 -15.541  1.00  0.00     0.222 C 
BRANCH  15  16
HETATM   16  C7  UNL     1       1.922 -11.954 -15.746  1.00  0.00     0.239 C 
HETATM   17  O3  UNL     1       1.447 -11.690 -16.856  1.00  0.00    -0.271 OA
HETATM   18  N4  UNL     1       2.101 -11.029 -14.722  1.00  0.00    -0.324 N 
ATOM     19  H4  UNL     1       2.507 -11.389 -13.858  1.00  0.00     0.169 HD
BRANCH  18  20
HETATM   20  C8  UNL     1       1.790  -9.654 -14.734  1.00  0.00     0.058 A 
HETATM   21  C9  UNL     1       1.909  -8.820 -15.810  1.00  0.00     0.057 A 
HETATM   22  C10 UNL     1       1.578  -7.475 -15.733  1.00  0.00     0.058 A 
HETATM   23 CL1  UNL     1       1.745  -6.433 -17.143  1.00  0.00    -0.082 Cl
HETATM   24  C11 UNL     1       1.115  -6.927 -14.562  1.00  0.00     0.057 A 
HETATM   25 CL2  UNL     1       0.697  -5.208 -14.483  1.00  0.00    -0.082 Cl
HETATM   26  C12 UNL     1       0.991  -7.742 -13.484  1.00  0.00     0.051 A 
HETATM   27  C13 UNL     1       1.317  -9.070 -13.556  1.00  0.00     0.062 A 
HETATM   28 CL3  UNL     1       1.141 -10.086 -12.138  1.00  0.00    -0.082 Cl
ENDBRANCH  18  20
ENDBRANCH  15  16
ENDBRANCH   5  15
BRANCH   1  29
HETATM   29  N1  UNL     1      -0.074 -16.866 -17.866  1.00  0.00    -0.062 N 
ATOM     30  H13 UNL     1       0.216 -17.769 -18.242  1.00  0.00     0.275 HD
ATOM     31  H12 UNL     1      -0.603 -16.513 -18.664  1.00  0.00     0.275 HD
ATOM     32  H11 UNL     1       0.736 -16.275 -17.679  1.00  0.00     0.275 HD
ENDBRANCH   1  29
BRANCH   1  33
HETATM   33  C2  UNL     1      -2.245 -17.609 -17.056  1.00  0.00     0.173 C 
HETATM   34  N2  UNL     1      -2.833 -17.317 -18.144  1.00  0.00    -0.249 N 
ATOM     35  H2  UNL     1      -3.741 -17.760 -18.291  1.00  0.00     0.196 HD
BRANCH  33  36
HETATM   36  O1  UNL     1      -2.916 -18.493 -16.207  1.00  0.00    -0.346 OA
ATOM     37  H1  UNL     1      -3.833 -18.385 -15.983  1.00  0.00     0.219 HD
ENDBRANCH  33  36
BRANCH  34  38
HETATM   38  O2  UNL     1      -2.411 -16.495 -19.135  1.00  0.00    -0.288 OA
ATOM     39  H2  UNL     1      -2.740 -16.424 -20.023  1.00  0.00     0.244 HD
ENDBRANCH  34  38
ENDBRANCH   1  33
TORSDOF 7
ENDMDL
MODEL 4
REMARK VINA RESULT: -8.244094753      1.767      2.227
REMARK  7 active torsions:
REMARK  status: ('A' for Active; 'I' for Inactive)
REMARK    1  A    between atoms: N1_1  and  C1_5 
REMARK    2  A    between atoms: C1_5  and  C2_6 
REMARK    3  A    between atoms: C2_6  and  O1_7 
REMARK    4  A    between atoms: N2_9  and  O2_11 
REMARK    5  A    between atoms: N3_16  and  C6_18 
REMARK    6  A    between atoms: C6_18  and  C7_19 
REMARK       I    between atoms: C7_19  and  N4_21 
REMARK    7  A    between atoms: N4_21  and  C8_23 
ROOT
HETATM    1  C1  UNL     1       0.819 -19.036 -12.109  1.00  0.00     0.197 C 
HETATM    2  C3  UNL     1       1.842 -18.371 -13.066  1.00  0.00     0.054 C 
HETATM    3  C4  UNL     1       1.397 -17.061 -13.560  1.00  0.00     0.055 C 
HETATM    4  C5  UNL     1       1.048 -16.874 -14.946  1.00  0.00    -0.018 C 
HETATM    5  N3  UNL     1       0.738 -15.711 -15.353  1.00  0.00    -0.388 N 
ATOM      6  H3  UNL     1       0.490 -15.573 -16.333  1.00  0.00     0.159 HD
HETATM    7  C14 UNL     1       0.997 -17.903 -16.028  1.00  0.00     0.052 C 
HETATM    8  C15 UNL     1      -0.421 -17.925 -16.631  1.00  0.00     0.006 C 
HETATM    9  C16 UNL     1      -1.004 -19.302 -16.679  1.00  0.00     0.000 C 
HETATM   10  C17 UNL     1      -2.416 -19.444 -16.294  1.00  0.00     0.001 C 
HETATM   11  C18 UNL     1      -2.816 -19.333 -14.883  1.00  0.00     0.010 C 
HETATM   12  C19 UNL     1      -2.661 -20.558 -14.027  1.00  0.00     0.074 C 
HETATM   13  S1  UNL     1      -1.745 -20.191 -12.463  1.00  0.00    -0.166 SA
HETATM   14  C20 UNL     1      -0.312 -19.342 -13.018  1.00  0.00     0.121 C 
ENDROOT
BRANCH   5  15
HETATM   15  C6  UNL     1       0.730 -14.603 -14.470  1.00  0.00     0.222 C 
BRANCH  15  16
HETATM   16  C7  UNL     1       1.302 -13.360 -15.108  1.00  0.00     0.239 C 
HETATM   17  O3  UNL     1       1.936 -12.619 -14.348  1.00  0.00    -0.271 OA
HETATM   18  N4  UNL     1       1.099 -13.115 -16.463  1.00  0.00    -0.324 N 
ATOM     19  H4  UNL     1       0.554 -13.814 -16.968  1.00  0.00     0.169 HD
BRANCH  18  20
HETATM   20  C8  UNL     1       1.555 -12.018 -17.221  1.00  0.00     0.058 A 
HETATM   21  C9  UNL     1       1.564 -10.715 -16.811  1.00  0.00     0.057 A 
HETATM   22  C10 UNL     1       2.034  -9.695 -17.626  1.00  0.00     0.058 A 
HETATM   23 CL1  UNL     1       2.029  -8.026 -17.060  1.00  0.00    -0.082 Cl
HETATM   24  C11 UNL     1       2.512  -9.959 -18.886  1.00  0.00     0.057 A 
HETATM   25 CL2  UNL     1       3.107  -8.644 -19.911  1.00  0.00    -0.082 Cl
HETATM   26  C12 UNL     1       2.509 -11.248 -19.308  1.00  0.00     0.051 A 
HETATM   27  C13 UNL     1       2.046 -12.258 -18.508  1.00  0.00     0.062 A 
HETATM   28 CL3  UNL     1       2.063 -13.910 -19.095  1.00  0.00    -0.082 Cl
ENDBRANCH  18  20
ENDBRANCH  15  16
ENDBRANCH   5  15
BRANCH   1  29
HETATM   29  N1  UNL     1       0.380 -18.061 -11.139  1.00  0.00    -0.062 N 
ATOM     30  H13 UNL     1      -0.335 -18.454 -10.528  1.00  0.00     0.275 HD
ATOM     31  H12 UNL     1       1.111 -17.881 -10.451  1.00  0.00     0.275 HD
ATOM     32  H11 UNL     1       0.058 -17.190 -11.561  1.00  0.00     0.275 HD
ENDBRANCH   1  29
BRANCH   1  33
HETATM   33  C2  UNL     1       1.445 -20.219 -11.501  1.00  0.00     0.173 C 
HETATM   34  N2  UNL     1       1.127 -20.611 -10.335  1.00  0.00    -0.249 N 
ATOM     35  H2  UNL     1       1.614 -21.442  -9.997  1.00  0.00     0.196 HD
BRANCH  33  36
HETATM   36  O1  UNL     1       2.415 -20.974 -12.165  1.00  0.00    -0.346 OA
ATOM     37  H1  UNL     1       2.861 -21.704 -11.751  1.00  0.00     0.219 HD
ENDBRANCH  33  36
BRANCH  34  38
HETATM   38  O2  UNL     1       0.224 -20.069  -9.482  1.00  0.00    -0.288 OA
ATOM     39  H2  UNL     1       0.266 -20.014  -8.535  1.00  0.00     0.244 HD
ENDBRANCH  34  38
ENDBRANCH   1  33
TORSDOF 7
ENDMDL
MODEL 5
REMARK VINA RESULT: -8.110135971      6.811      8.971
REMARK  7 active torsions:
REMARK  status: ('A' for Active; 'I' for Inactive)
REMARK    1  A    between atoms: N1_1  and  C1_5 
REMARK    2  A    between atoms: C1_5  and  C2_6 
REMARK    3  A    between atoms: C2_6  and  O1_7 
REMARK    4  A    between atoms: N2_9  and  O2_11 
REMARK    5  A    between atoms: N3_16  and  C6_18 
REMARK    6  A    between atoms: C6_18  and  C7_19 
REMARK       I    between atoms: C7_19  and  N4_21 
REMARK    7  A    between atoms: N4_21  and  C8_23 
ROOT
HETATM    1  C1  UNL     1      -2.591 -14.122 -22.309  1.00  0.00     0.197 C 
HETATM    2  C3  UNL     1      -1.573 -15.260 -22.579  1.00  0.00     0.054 C 
HETATM    3  C4  UNL     1      -0.377 -15.173 -21.731  1.00  0.00     0.055 C 
HETATM    4  C5  UNL     1       0.909 -14.848 -22.297  1.00  0.00    -0.018 C 
HETATM    5  N3  UNL     1       1.933 -14.854 -21.545  1.00  0.00    -0.388 N 
ATOM      6  H3  UNL     1       2.845 -14.625 -21.940  1.00  0.00     0.159 HD
HETATM    7  C14 UNL     1       1.226 -14.490 -23.711  1.00  0.00     0.052 C 
HETATM    8  C15 UNL     1       1.897 -13.104 -23.738  1.00  0.00     0.006 C 
HETATM    9  C16 UNL     1       1.244 -12.168 -24.707  1.00  0.00     0.000 C 
HETATM   10  C17 UNL     1       1.039 -10.782 -24.262  1.00  0.00     0.001 C 
HETATM   11  C18 UNL     1      -0.001 -10.466 -23.270  1.00  0.00     0.010 C 
HETATM   12  C19 UNL     1      -1.407 -10.307 -23.776  1.00  0.00     0.074 C 
HETATM   13  S1  UNL     1      -2.604 -11.332 -22.808  1.00  0.00    -0.166 SA
HETATM   14  C20 UNL     1      -1.867 -12.925 -22.801  1.00  0.00     0.121 C 
ENDROOT
BRANCH   5  15
HETATM   15  C6  UNL     1       1.830 -15.172 -20.168  1.00  0.00     0.222 C 
BRANCH  15  16
HETATM   16  C7  UNL     1       2.289 -14.038 -19.284  1.00  0.00     0.239 C 
HETATM   17  O3  UNL     1       3.514 -13.914 -19.176  1.00  0.00    -0.271 OA
HETATM   18  N4  UNL     1       1.353 -13.219 -18.658  1.00  0.00    -0.324 N 
ATOM     19  H4  UNL     1       0.373 -13.440 -18.836  1.00  0.00     0.169 HD
BRANCH  18  20
HETATM   20  C8  UNL     1       1.596 -12.122 -17.807  1.00  0.00     0.058 A 
HETATM   21  C9  UNL     1       1.440 -12.117 -16.449  1.00  0.00     0.057 A 
HETATM   22  C10 UNL     1       1.704 -10.988 -15.687  1.00  0.00     0.058 A 
HETATM   23 CL1  UNL     1       1.490 -11.022 -13.938  1.00  0.00    -0.082 Cl
HETATM   24  C11 UNL     1       2.135  -9.823 -16.273  1.00  0.00     0.057 A 
HETATM   25 CL2  UNL     1       2.466  -8.393 -15.284  1.00  0.00    -0.082 Cl
HETATM   26  C12 UNL     1       2.295  -9.812 -17.620  1.00  0.00     0.051 A 
HETATM   27  C13 UNL     1       2.035 -10.924 -18.377  1.00  0.00     0.062 A 
HETATM   28 CL3  UNL     1       2.257 -10.864 -20.115  1.00  0.00    -0.082 Cl
ENDBRANCH  18  20
ENDBRANCH  15  16
ENDBRANCH   5  15
BRANCH   1  29
HETATM   29  N1  UNL     1      -2.781 -13.991 -20.884  1.00  0.00    -0.062 N 
ATOM     30  H13 UNL     1      -1.889 -13.842 -20.412  1.00  0.00     0.275 HD
ATOM     31  H12 UNL     1      -3.240 -13.108 -20.659  1.00  0.00     0.275 HD
ATOM     32  H11 UNL     1      -3.284 -14.775 -20.470  1.00  0.00     0.275 HD
ENDBRANCH   1  29
BRANCH   1  33
HETATM   33  C2  UNL     1      -3.833 -14.420 -23.036  1.00  0.00     0.173 C 
HETATM   34  N2  UNL     1      -4.763 -15.104 -22.505  1.00  0.00    -0.249 N 
ATOM     35  H2  UNL     1      -5.587 -15.260 -23.086  1.00  0.00     0.196 HD
BRANCH  33  36
HETATM   36  O1  UNL     1      -4.061 -13.972 -24.340  1.00  0.00    -0.346 OA
ATOM     37  H1  UNL     1      -3.548 -13.275 -24.734  1.00  0.00     0.219 HD
ENDBRANCH  33  36
BRANCH  34  38
HETATM   38  O2  UNL     1      -4.802 -15.654 -21.267  1.00  0.00    -0.288 OA
ATOM     39  H2  UNL     1      -4.623 -15.239 -20.432  1.00  0.00     0.244 HD
ENDBRANCH  34  38
ENDBRANCH   1  33
TORSDOF 7
ENDMDL
