MODEL 1
REMARK VINA RESULT: -5.647517266      0.000      0.000
REMARK  8 active torsions:
REMARK  status: ('A' for Active; 'I' for Inactive)
REMARK    1  A    between atoms: N1_1  and  C1_4 
REMARK    2  A    between atoms: C2_7  and  N3_8 
REMARK    3  A    between atoms: N6_16  and  C4_17 
REMARK    4  A    between atoms: C4_17  and  C5_18 
REMARK    5  A    between atoms: C5_18  and  N7_19 
REMARK    6  A    between atoms: N7_19  and  C6_22 
REMARK    7  A    between atoms: C6_22  and  C7_23 
REMARK    8  A    between atoms: C7_23  and  O1_24 
ROOT
HETATM    1  C1  UNL     1     -13.916   2.523 -31.906  1.00  0.00     0.679 A 
HETATM    2  N2  UNL     1     -14.734   3.561 -32.192  1.00  0.00    -0.175 N 
ATOM      3  H2  UNL     1     -15.696   3.403 -32.491  1.00  0.00     0.186 HD
HETATM    4  C2  UNL     1     -14.245   4.803 -32.071  1.00  0.00     0.147 A 
HETATM    5  C3  UNL     1     -12.936   4.982 -31.663  1.00  0.00     0.140 A 
HETATM    6  N4  UNL     1     -12.166   6.070 -31.446  1.00  0.00    -0.279 N 
ATOM      7  H4  UNL     1     -12.463   7.039 -31.565  1.00  0.00     0.189 HD
HETATM    8  N5  UNL     1     -10.968   5.680 -31.056  1.00  0.00    -0.238 N 
ATOM      9  H5  UNL     1     -10.200   6.309 -30.826  1.00  0.00     0.208 HD
HETATM   10  N6  UNL     1     -10.901   4.370 -31.006  1.00  0.00    -0.258 N 
HETATM   11  C8  UNL     1     -12.121   3.909 -31.380  1.00  0.00     0.171 A 
HETATM   12  N8  UNL     1     -12.638   2.672 -31.508  1.00  0.00    -0.173 N 
ATOM     13  H8  UNL     1     -12.065   1.852 -31.304  1.00  0.00     0.186 HD
ENDROOT
BRANCH  10  14
HETATM   14  C4  UNL     1      -9.740   3.583 -30.615  1.00  0.00     0.180 C 
BRANCH  14  15
HETATM   15  C5  UNL     1      -8.540   4.448 -30.909  1.00  0.00     0.254 C 
BRANCH  15  16
HETATM   16  N7  UNL     1      -7.988   4.109 -32.208  1.00  0.00    -0.072 N 
ATOM     17  H72 UNL     1      -8.209   4.815 -32.910  1.00  0.00     0.277 HD
ATOM     18  H71 UNL     1      -6.972   4.193 -32.221  1.00  0.00     0.277 HD
BRANCH  16  19
HETATM   19  C6  UNL     1      -8.427   2.781 -32.619  1.00  0.00     0.258 C 
BRANCH  19  20
HETATM   20  C7  UNL     1      -9.172   2.919 -33.931  1.00  0.00     0.191 C 
BRANCH  20  21
HETATM   21  O1  UNL     1      -8.570   3.845 -34.773  1.00  0.00    -0.399 OA
ATOM     22  H1  UNL     1      -8.468   4.691 -34.354  1.00  0.00     0.209 HD
ENDBRANCH  20  21
ENDBRANCH  19  20
ENDBRANCH  16  19
ENDBRANCH  15  16
ENDBRANCH  14  15
ENDBRANCH  10  14
BRANCH   4  23
HETATM   23  N3  UNL     1     -14.970   5.855 -32.313  1.00  0.00    -0.383 N 
ATOM     24  H32 UNL     1     -15.608   5.835 -33.109  1.00  0.00     0.157 HD
ATOM     25  H31 UNL     1     -14.909   6.696 -31.739  1.00  0.00     0.157 HD
ENDBRANCH   4  23
BRANCH   1  26
HETATM   26  N1  UNL     1     -14.395   1.326 -32.026  1.00  0.00    -0.234 N 
ATOM     27  H12 UNL     1     -15.249   1.086 -31.521  1.00  0.00     0.174 HD
ATOM     28  H11 UNL     1     -13.892   0.671 -32.625  1.00  0.00     0.174 HD
ENDBRANCH   1  26
TORSDOF 8
ENDMDL
MODEL 2
REMARK VINA RESULT: -5.405962161      3.018      5.895
REMARK  8 active torsions:
REMARK  status: ('A' for Active; 'I' for Inactive)
REMARK    1  A    between atoms: N1_1  and  C1_4 
REMARK    2  A    between atoms: C2_7  and  N3_8 
REMARK    3  A    between atoms: N6_16  and  C4_17 
REMARK    4  A    between atoms: C4_17  and  C5_18 
REMARK    5  A    between atoms: C5_18  and  N7_19 
REMARK    6  A    between atoms: N7_19  and  C6_22 
REMARK    7  A    between atoms: C6_22  and  C7_23 
REMARK    8  A    between atoms: C7_23  and  O1_24 
ROOT
HETATM    1  C1  UNL     1     -10.520   4.883 -30.013  1.00  0.00     0.679 A 
HETATM    2  N2  UNL     1      -9.287   4.773 -30.559  1.00  0.00    -0.175 N 
ATOM      3  H2  UNL     1      -8.500   5.304 -30.188  1.00  0.00     0.186 HD
HETATM    4  C2  UNL     1      -9.129   3.945 -31.601  1.00  0.00     0.147 A 
HETATM    5  C3  UNL     1     -10.217   3.238 -32.079  1.00  0.00     0.140 A 
HETATM    6  N4  UNL     1     -10.385   2.348 -33.081  1.00  0.00    -0.279 N 
ATOM      7  H4  UNL     1      -9.654   2.023 -33.714  1.00  0.00     0.189 HD
HETATM    8  N5  UNL     1     -11.647   1.966 -33.112  1.00  0.00    -0.238 N 
ATOM      9  H5  UNL     1     -12.035   1.296 -33.775  1.00  0.00     0.208 HD
HETATM   10  N6  UNL     1     -12.336   2.568 -32.170  1.00  0.00    -0.258 N 
HETATM   11  C8  UNL     1     -11.463   3.369 -31.509  1.00  0.00     0.171 A 
HETATM   12  N8  UNL     1     -11.595   4.206 -30.462  1.00  0.00    -0.173 N 
ATOM     13  H8  UNL     1     -12.502   4.327 -30.011  1.00  0.00     0.186 HD
ENDROOT
BRANCH  10  14
HETATM   14  C4  UNL     1     -13.756   2.392 -31.897  1.00  0.00     0.180 C 
BRANCH  14  15
HETATM   15  C5  UNL     1     -14.319   1.678 -33.101  1.00  0.00     0.254 C 
BRANCH  15  16
HETATM   16  N7  UNL     1     -14.667   0.313 -32.751  1.00  0.00    -0.072 N 
ATOM     17  H72 UNL     1     -15.094  -0.183 -33.534  1.00  0.00     0.277 HD
ATOM     18  H71 UNL     1     -13.840  -0.271 -32.634  1.00  0.00     0.277 HD
BRANCH  16  19
HETATM   19  C6  UNL     1     -15.518   0.289 -31.568  1.00  0.00     0.258 C 
BRANCH  19  20
HETATM   20  C7  UNL     1     -16.897  -0.174 -31.991  1.00  0.00     0.191 C 
BRANCH  20  21
HETATM   21  O1  UNL     1     -17.710   0.890 -32.361  1.00  0.00    -0.399 OA
ATOM     22  H1  UNL     1     -18.421   0.613 -32.927  1.00  0.00     0.209 HD
ENDBRANCH  20  21
ENDBRANCH  19  20
ENDBRANCH  16  19
ENDBRANCH  15  16
ENDBRANCH  14  15
ENDBRANCH  10  14
BRANCH   4  23
HETATM   23  N3  UNL     1      -7.975   3.771 -32.173  1.00  0.00    -0.383 N 
ATOM     24  H32 UNL     1      -7.789   2.880 -32.634  1.00  0.00     0.157 HD
ATOM     25  H31 UNL     1      -7.253   4.491 -32.164  1.00  0.00     0.157 HD
ENDBRANCH   4  23
BRANCH   1  26
HETATM   26  N1  UNL     1     -10.664   5.685 -29.007  1.00  0.00    -0.234 N 
ATOM     27  H12 UNL     1     -10.222   6.604 -29.045  1.00  0.00     0.174 HD
ATOM     28  H11 UNL     1     -11.216   5.358 -28.214  1.00  0.00     0.174 HD
ENDBRANCH   1  26
TORSDOF 8
ENDMDL
MODEL 3
REMARK VINA RESULT: -5.305185208      2.462      4.387
REMARK  8 active torsions:
REMARK  status: ('A' for Active; 'I' for Inactive)
REMARK    1  A    between atoms: N1_1  and  C1_4 
REMARK    2  A    between atoms: C2_7  and  N3_8 
REMARK    3  A    between atoms: N6_16  and  C4_17 
REMARK    4  A    between atoms: C4_17  and  C5_18 
REMARK    5  A    between atoms: C5_18  and  N7_19 
REMARK    6  A    between atoms: N7_19  and  C6_22 
REMARK    7  A    between atoms: C6_22  and  C7_23 
REMARK    8  A    between atoms: C7_23  and  O1_24 
ROOT
HETATM    1  C1  UNL     1     -15.216  -0.174 -29.921  1.00  0.00     0.679 A 
HETATM    2  N2  UNL     1     -16.350  -0.522 -30.570  1.00  0.00    -0.175 N 
ATOM      3  H2  UNL     1     -16.954  -1.261 -30.211  1.00  0.00     0.186 HD
HETATM    4  C2  UNL     1     -16.659   0.132 -31.699  1.00  0.00     0.147 A 
HETATM    5  C3  UNL     1     -15.818   1.129 -32.159  1.00  0.00     0.140 A 
HETATM    6  N4  UNL     1     -15.844   1.954 -33.228  1.00  0.00    -0.279 N 
ATOM      7  H4  UNL     1     -16.569   1.970 -33.945  1.00  0.00     0.189 HD
HETATM    8  N5  UNL     1     -14.782   2.735 -33.197  1.00  0.00    -0.238 N 
ATOM      9  H5  UNL     1     -14.568   3.450 -33.891  1.00  0.00     0.208 HD
HETATM   10  N6  UNL     1     -14.040   2.465 -32.148  1.00  0.00    -0.258 N 
HETATM   11  C8  UNL     1     -14.667   1.464 -31.481  1.00  0.00     0.171 A 
HETATM   12  N8  UNL     1     -14.382   0.793 -30.349  1.00  0.00    -0.173 N 
ATOM     13  H8  UNL     1     -13.539   1.015 -29.818  1.00  0.00     0.186 HD
ENDROOT
BRANCH  10  14
HETATM   14  C4  UNL     1     -12.795   3.127 -31.784  1.00  0.00     0.180 C 
BRANCH  14  15
HETATM   15  C5  UNL     1     -13.173   4.541 -31.420  1.00  0.00     0.254 C 
BRANCH  15  16
HETATM   16  N7  UNL     1     -12.002   5.397 -31.467  1.00  0.00    -0.072 N 
ATOM     17  H72 UNL     1     -11.973   5.954 -32.322  1.00  0.00     0.277 HD
ATOM     18  H71 UNL     1     -12.063   6.158 -30.791  1.00  0.00     0.277 HD
BRANCH  16  19
HETATM   19  C6  UNL     1     -10.787   4.612 -31.291  1.00  0.00     0.258 C 
BRANCH  19  20
HETATM   20  C7  UNL     1      -9.637   5.382 -31.908  1.00  0.00     0.191 C 
BRANCH  20  21
HETATM   21  O1  UNL     1     -10.077   6.500 -32.604  1.00  0.00    -0.399 OA
ATOM     22  H1  UNL     1      -9.447   6.782 -33.257  1.00  0.00     0.209 HD
ENDBRANCH  20  21
ENDBRANCH  19  20
ENDBRANCH  16  19
ENDBRANCH  15  16
ENDBRANCH  14  15
ENDBRANCH  10  14
BRANCH   4  23
HETATM   23  N3  UNL     1     -17.737  -0.132 -32.375  1.00  0.00    -0.383 N 
ATOM     24  H32 UNL     1     -18.245  -0.992 -32.166  1.00  0.00     0.157 HD
ATOM     25  H31 UNL     1     -18.079   0.487 -33.111  1.00  0.00     0.157 HD
ENDBRANCH   4  23
BRANCH   1  26
HETATM   26  N1  UNL     1     -14.925  -0.811 -28.832  1.00  0.00    -0.234 N 
ATOM     27  H12 UNL     1     -14.875  -1.830 -28.857  1.00  0.00     0.174 HD
ATOM     28  H11 UNL     1     -14.761  -0.260 -27.989  1.00  0.00     0.174 HD
ENDBRANCH   1  26
TORSDOF 8
ENDMDL
MODEL 4
REMARK VINA RESULT: -5.270089881      2.539      5.056
REMARK  8 active torsions:
REMARK  status: ('A' for Active; 'I' for Inactive)
REMARK    1  A    between atoms: N1_1  and  C1_4 
REMARK    2  A    between atoms: C2_7  and  N3_8 
REMARK    3  A    between atoms: N6_16  and  C4_17 
REMARK    4  A    between atoms: C4_17  and  C5_18 
REMARK    5  A    between atoms: C5_18  and  N7_19 
REMARK    6  A    between atoms: N7_19  and  C6_22 
REMARK    7  A    between atoms: C6_22  and  C7_23 
REMARK    8  A    between atoms: C7_23  and  O1_24 
ROOT
HETATM    1  C1  UNL     1      -9.290   3.167 -33.088  1.00  0.00     0.679 A 
HETATM    2  N2  UNL     1      -8.679   4.329 -32.762  1.00  0.00    -0.175 N 
ATOM      3  H2  UNL     1      -7.777   4.579 -33.167  1.00  0.00     0.186 HD
HETATM    4  C2  UNL     1      -9.293   5.144 -31.892  1.00  0.00     0.147 A 
HETATM    5  C3  UNL     1     -10.515   4.776 -31.362  1.00  0.00     0.140 A 
HETATM    6  N4  UNL     1     -11.369   5.356 -30.490  1.00  0.00    -0.279 N 
ATOM      7  H4  UNL     1     -11.227   6.257 -30.034  1.00  0.00     0.189 HD
HETATM    8  N5  UNL     1     -12.414   4.570 -30.322  1.00  0.00    -0.238 N 
ATOM      9  H5  UNL     1     -13.206   4.780 -29.714  1.00  0.00     0.208 HD
HETATM   10  N6  UNL     1     -12.297   3.481 -31.045  1.00  0.00    -0.258 N 
HETATM   11  C8  UNL     1     -11.117   3.586 -31.707  1.00  0.00     0.171 A 
HETATM   12  N8  UNL     1     -10.480   2.786 -32.584  1.00  0.00    -0.173 N 
ATOM     13  H8  UNL     1     -10.896   1.898 -32.866  1.00  0.00     0.186 HD
ENDROOT
BRANCH  10  14
HETATM   14  C4  UNL     1     -13.257   2.389 -31.118  1.00  0.00     0.180 C 
BRANCH  14  15
HETATM   15  C5  UNL     1     -14.124   2.685 -32.316  1.00  0.00     0.254 C 
BRANCH  15  16
HETATM   16  N7  UNL     1     -13.892   1.698 -33.355  1.00  0.00    -0.072 N 
ATOM     17  H72 UNL     1     -13.497   2.118 -34.196  1.00  0.00     0.277 HD
ATOM     18  H71 UNL     1     -13.120   1.075 -33.119  1.00  0.00     0.277 HD
BRANCH  16  19
HETATM   19  C6  UNL     1     -15.115   0.960 -33.642  1.00  0.00     0.258 C 
BRANCH  19  20
HETATM   20  C7  UNL     1     -15.289  -0.096 -32.569  1.00  0.00     0.191 C 
BRANCH  20  21
HETATM   21  O1  UNL     1     -14.282  -1.050 -32.614  1.00  0.00    -0.399 OA
ATOM     22  H1  UNL     1     -14.396  -1.717 -31.947  1.00  0.00     0.209 HD
ENDBRANCH  20  21
ENDBRANCH  19  20
ENDBRANCH  16  19
ENDBRANCH  15  16
ENDBRANCH  14  15
ENDBRANCH  10  14
BRANCH   4  23
HETATM   23  N3  UNL     1      -8.781   6.285 -31.538  1.00  0.00    -0.383 N 
ATOM     24  H32 UNL     1      -9.049   7.122 -32.056  1.00  0.00     0.157 HD
ATOM     25  H31 UNL     1      -8.114   6.362 -30.770  1.00  0.00     0.157 HD
ENDBRANCH   4  23
BRANCH   1  26
HETATM   26  N1  UNL     1      -8.690   2.386 -33.928  1.00  0.00    -0.234 N 
ATOM     27  H12 UNL     1      -8.445   1.441 -33.631  1.00  0.00     0.174 HD
ATOM     28  H11 UNL     1      -8.486   2.755 -34.857  1.00  0.00     0.174 HD
ENDBRANCH   1  26
TORSDOF 8
ENDMDL
MODEL 5
REMARK VINA RESULT: -5.234896376      3.076      5.629
REMARK  8 active torsions:
REMARK  status: ('A' for Active; 'I' for Inactive)
REMARK    1  A    between atoms: N1_1  and  C1_4 
REMARK    2  A    between atoms: C2_7  and  N3_8 
REMARK    3  A    between atoms: N6_16  and  C4_17 
REMARK    4  A    between atoms: C4_17  and  C5_18 
REMARK    5  A    between atoms: C5_18  and  N7_19 
REMARK    6  A    between atoms: N7_19  and  C6_22 
REMARK    7  A    between atoms: C6_22  and  C7_23 
REMARK    8  A    between atoms: C7_23  and  O1_24 
ROOT
HETATM    1  C1  UNL     1      -9.472   3.189 -32.192  1.00  0.00     0.679 A 
HETATM    2  N2  UNL     1      -9.145   4.459 -31.859  1.00  0.00    -0.175 N 
ATOM      3  H2  UNL     1      -8.172   4.766 -31.855  1.00  0.00     0.186 HD
HETATM    4  C2  UNL     1     -10.135   5.302 -31.534  1.00  0.00     0.147 A 
HETATM    5  C3  UNL     1     -11.442   4.854 -31.549  1.00  0.00     0.140 A 
HETATM    6  N4  UNL     1     -12.633   5.435 -31.285  1.00  0.00    -0.279 N 
ATOM      7  H4  UNL     1     -12.767   6.405 -30.998  1.00  0.00     0.189 HD
HETATM    8  N5  UNL     1     -13.594   4.549 -31.456  1.00  0.00    -0.238 N 
ATOM      9  H5  UNL     1     -14.587   4.737 -31.322  1.00  0.00     0.208 HD
HETATM   10  N6  UNL     1     -13.096   3.391 -31.822  1.00  0.00    -0.258 N 
HETATM   11  C8  UNL     1     -11.751   3.555 -31.889  1.00  0.00     0.171 A 
HETATM   12  N8  UNL     1     -10.738   2.729 -32.213  1.00  0.00    -0.173 N 
ATOM     13  H8  UNL     1     -10.928   1.761 -32.473  1.00  0.00     0.186 HD
ENDROOT
BRANCH  10  14
HETATM   14  C4  UNL     1     -13.854   2.180 -32.106  1.00  0.00     0.180 C 
BRANCH  14  15
HETATM   15  C5  UNL     1     -14.767   2.527 -33.255  1.00  0.00     0.254 C 
BRANCH  15  16
HETATM   16  N7  UNL     1     -15.869   1.585 -33.318  1.00  0.00    -0.072 N 
ATOM     17  H72 UNL     1     -16.762   2.055 -33.468  1.00  0.00     0.277 HD
ATOM     18  H71 UNL     1     -15.844   1.030 -34.174  1.00  0.00     0.277 HD
BRANCH  16  19
HETATM   19  C6  UNL     1     -15.892   0.745 -32.128  1.00  0.00     0.258 C 
BRANCH  19  20
HETATM   20  C7  UNL     1     -17.229   0.034 -32.082  1.00  0.00     0.191 C 
BRANCH  20  21
HETATM   21  O1  UNL     1     -18.253   0.822 -32.590  1.00  0.00    -0.399 OA
ATOM     22  H1  UNL     1     -18.585   0.483 -33.413  1.00  0.00     0.209 HD
ENDBRANCH  20  21
ENDBRANCH  19  20
ENDBRANCH  16  19
ENDBRANCH  15  16
ENDBRANCH  14  15
ENDBRANCH  10  14
BRANCH   4  23
HETATM   23  N3  UNL     1      -9.907   6.541 -31.216  1.00  0.00    -0.383 N 
ATOM     24  H32 UNL     1     -10.478   7.269 -31.647  1.00  0.00     0.157 HD
ATOM     25  H31 UNL     1      -9.170   6.804 -30.560  1.00  0.00     0.157 HD
ENDBRANCH   4  23
BRANCH   1  26
HETATM   26  N1  UNL     1      -8.510   2.381 -32.503  1.00  0.00    -0.234 N 
ATOM     27  H12 UNL     1      -7.590   2.769 -32.712  1.00  0.00     0.174 HD
ATOM     28  H11 UNL     1      -8.718   1.382 -32.528  1.00  0.00     0.174 HD
ENDBRANCH   1  26
TORSDOF 8
ENDMDL
