MODEL 1
REMARK VINA RESULT: -7.234130785      0.000      0.000
REMARK  4 active torsions:
REMARK  status: ('A' for Active; 'I' for Inactive)
REMARK    1  A    between atoms: C2_3  and  C3_4 
REMARK    2  A    between atoms: C3_4  and  C4_5 
REMARK    3  A    between atoms: C4_5  and  N2_6 
REMARK    4  A    between atoms: N2_6  and  C5_9 
ROOT
HETATM    1  C4  UNL     1     -13.514   3.189 -31.841  1.00  0.00     0.240 C 
ENDROOT
BRANCH   1   2
HETATM    2  C3  UNL     1     -12.325   3.149 -30.963  1.00  0.00     0.087 C 
BRANCH   2   3
HETATM    3  C2  UNL     1     -11.188   4.000 -31.301  1.00  0.00     0.041 A 
HETATM    4  C1  UNL     1     -10.153   3.661 -32.126  1.00  0.00     0.136 A 
HETATM    5  N1  UNL     1     -10.114   2.402 -32.771  1.00  0.00    -0.094 NA
HETATM    6  C8  UNL     1      -9.077   4.521 -32.375  1.00  0.00     0.272 A 
HETATM    7  N8  UNL     1      -9.041   5.732 -31.793  1.00  0.00    -0.318 N 
HETATM    8  O1  UNL     1      -8.116   4.225 -33.129  1.00  0.00    -0.266 OA
HETATM    9  C7  UNL     1     -10.057   6.073 -30.980  1.00  0.00     0.183 A 
ATOM     10  H8  UNL     1      -8.265   6.374 -31.962  1.00  0.00     0.169 HD
HETATM   11  N7  UNL     1     -11.093   5.249 -30.737  1.00  0.00    -0.354 N 
ATOM     12  H7  UNL     1     -11.835   5.563 -30.111  1.00  0.00     0.166 HD
ENDBRANCH   2   3
ENDBRANCH   1   2
BRANCH   1  13
HETATM   13  N2  UNL     1     -13.821   1.992 -32.546  1.00  0.00    -0.054 N 
ATOM     14  H22 UNL     1     -13.781   2.138 -33.555  1.00  0.00     0.279 HD
ATOM     15  H21 UNL     1     -13.072   1.305 -32.452  1.00  0.00     0.279 HD
BRANCH  13  16
HETATM   16  C5  UNL     1     -15.062   1.448 -32.158  1.00  0.00     0.314 C 
HETATM   17  C6  UNL     1     -16.102   1.208 -33.191  1.00  0.00     0.192 C 
HETATM   18  N3  UNL     1     -17.302   0.728 -32.519  1.00  0.00    -0.321 N 
HETATM   19  N4  UNL     1     -17.123  -0.244 -31.590  1.00  0.00    -0.234 N 
ATOM     20  H3  UNL     1     -18.225   1.103 -32.736  1.00  0.00     0.181 HD
HETATM   21  N5  UNL     1     -16.003  -0.217 -30.806  1.00  0.00    -0.014 NA
ATOM     22  H4  UNL     1     -17.815  -0.985 -31.477  1.00  0.00     0.204 HD
HETATM   23  N6  UNL     1     -14.841   0.162 -31.475  1.00  0.00    -0.090 NA
ENDBRANCH  13  16
ENDBRANCH   1  13
TORSDOF 4
ENDMDL
MODEL 2
REMARK VINA RESULT: -7.179458900      1.003      1.095
REMARK  4 active torsions:
REMARK  status: ('A' for Active; 'I' for Inactive)
REMARK    1  A    between atoms: C2_3  and  C3_4 
REMARK    2  A    between atoms: C3_4  and  C4_5 
REMARK    3  A    between atoms: C4_5  and  N2_6 
REMARK    4  A    between atoms: N2_6  and  C5_9 
ROOT
HETATM    1  C4  UNL     1     -13.230   3.198 -31.949  1.00  0.00     0.240 C 
ENDROOT
BRANCH   1   2
HETATM    2  C3  UNL     1     -11.997   3.047 -31.147  1.00  0.00     0.087 C 
BRANCH   2   3
HETATM    3  C2  UNL     1     -10.724   3.410 -31.762  1.00  0.00     0.041 A 
HETATM    4  C1  UNL     1     -10.093   2.725 -32.761  1.00  0.00     0.136 A 
HETATM    5  N1  UNL     1     -10.667   1.560 -33.324  1.00  0.00    -0.094 NA
HETATM    6  C8  UNL     1      -8.852   3.118 -33.276  1.00  0.00     0.272 A 
HETATM    7  N8  UNL     1      -8.241   4.211 -32.786  1.00  0.00    -0.318 N 
HETATM    8  O1  UNL     1      -8.256   2.498 -34.192  1.00  0.00    -0.266 OA
HETATM    9  C7  UNL     1      -8.858   4.892 -31.803  1.00  0.00     0.183 A 
ATOM     10  H8  UNL     1      -7.337   4.515 -33.148  1.00  0.00     0.169 HD
HETATM   11  N7  UNL     1     -10.050   4.516 -31.303  1.00  0.00    -0.354 N 
ATOM     12  H7  UNL     1     -10.468   5.073 -30.558  1.00  0.00     0.166 HD
ENDBRANCH   2   3
ENDBRANCH   1   2
BRANCH   1  13
HETATM   13  N2  UNL     1     -13.640   2.061 -32.701  1.00  0.00    -0.054 N 
ATOM     14  H22 UNL     1     -13.639   2.261 -33.701  1.00  0.00     0.279 HD
ATOM     15  H21 UNL     1     -12.931   1.329 -32.680  1.00  0.00     0.279 HD
BRANCH  13  16
HETATM   16  C5  UNL     1     -14.893   1.569 -32.280  1.00  0.00     0.314 C 
HETATM   17  C6  UNL     1     -15.948   1.315 -33.295  1.00  0.00     0.192 C 
HETATM   18  N3  UNL     1     -17.154   0.898 -32.595  1.00  0.00    -0.321 N 
HETATM   19  N4  UNL     1     -16.995  -0.038 -31.626  1.00  0.00    -0.234 N 
ATOM     20  H3  UNL     1     -18.069   1.289 -32.820  1.00  0.00     0.181 HD
HETATM   21  N5  UNL     1     -15.868  -0.010 -30.852  1.00  0.00    -0.014 NA
ATOM     22  H4  UNL     1     -17.707  -0.754 -31.477  1.00  0.00     0.204 HD
HETATM   23  N6  UNL     1     -14.701   0.308 -31.545  1.00  0.00    -0.090 NA
ENDBRANCH  13  16
ENDBRANCH   1  13
TORSDOF 4
ENDMDL
MODEL 3
REMARK VINA RESULT: -6.656683730      1.031      1.634
REMARK  4 active torsions:
REMARK  status: ('A' for Active; 'I' for Inactive)
REMARK    1  A    between atoms: C2_3  and  C3_4 
REMARK    2  A    between atoms: C3_4  and  C4_5 
REMARK    3  A    between atoms: C4_5  and  N2_6 
REMARK    4  A    between atoms: N2_6  and  C5_9 
ROOT
HETATM    1  C4  UNL     1     -13.414   2.992 -31.781  1.00  0.00     0.240 C 
ENDROOT
BRANCH   1   2
HETATM    2  C3  UNL     1     -12.269   3.128 -30.857  1.00  0.00     0.087 C 
BRANCH   2   3
HETATM    3  C2  UNL     1     -11.161   3.994 -31.251  1.00  0.00     0.041 A 
HETATM    4  C1  UNL     1     -10.152   3.661 -32.109  1.00  0.00     0.136 A 
HETATM    5  N1  UNL     1     -10.113   2.392 -32.735  1.00  0.00    -0.094 NA
HETATM    6  C8  UNL     1      -9.102   4.536 -32.412  1.00  0.00     0.272 A 
HETATM    7  N8  UNL     1      -9.067   5.757 -31.850  1.00  0.00    -0.318 N 
HETATM    8  O1  UNL     1      -8.165   4.245 -33.197  1.00  0.00    -0.266 OA
HETATM    9  C7  UNL     1     -10.058   6.092 -31.005  1.00  0.00     0.183 A 
ATOM     10  H8  UNL     1      -8.311   6.410 -32.059  1.00  0.00     0.169 HD
HETATM   11  N7  UNL     1     -11.069   5.253 -30.710  1.00  0.00    -0.354 N 
ATOM     12  H7  UNL     1     -11.792   5.564 -30.061  1.00  0.00     0.166 HD
ENDBRANCH   2   3
ENDBRANCH   1   2
BRANCH   1  13
HETATM   13  N2  UNL     1     -13.311   1.977 -32.773  1.00  0.00    -0.054 N 
ATOM     14  H22 UNL     1     -12.754   2.293 -33.568  1.00  0.00     0.279 HD
ATOM     15  H21 UNL     1     -12.719   1.209 -32.456  1.00  0.00     0.279 HD
BRANCH  13  16
HETATM   16  C5  UNL     1     -14.574   1.509 -33.189  1.00  0.00     0.314 C 
HETATM   17  C6  UNL     1     -15.674   1.416 -32.195  1.00  0.00     0.192 C 
HETATM   18  N3  UNL     1     -16.831   0.830 -32.857  1.00  0.00    -0.321 N 
HETATM   19  N4  UNL     1     -17.145   1.334 -34.076  1.00  0.00    -0.234 N 
ATOM     20  H3  UNL     1     -17.374   0.081 -32.427  1.00  0.00     0.181 HD
HETATM   21  N5  UNL     1     -16.139   1.715 -34.919  1.00  0.00    -0.014 NA
ATOM     22  H4  UNL     1     -18.121   1.428 -34.361  1.00  0.00     0.204 HD
HETATM   23  N6  UNL     1     -15.070   2.351 -34.291  1.00  0.00    -0.090 NA
ENDBRANCH  13  16
ENDBRANCH   1  13
TORSDOF 4
ENDMDL
MODEL 4
REMARK VINA RESULT: -6.601055356      1.061      1.930
REMARK  4 active torsions:
REMARK  status: ('A' for Active; 'I' for Inactive)
REMARK    1  A    between atoms: C2_3  and  C3_4 
REMARK    2  A    between atoms: C3_4  and  C4_5 
REMARK    3  A    between atoms: C4_5  and  N2_6 
REMARK    4  A    between atoms: N2_6  and  C5_9 
ROOT
HETATM    1  C4  UNL     1     -12.993   2.682 -31.154  1.00  0.00     0.240 C 
ENDROOT
BRANCH   1   2
HETATM    2  C3  UNL     1     -12.030   3.802 -31.202  1.00  0.00     0.087 C 
BRANCH   2   3
HETATM    3  C2  UNL     1     -10.701   3.548 -31.752  1.00  0.00     0.041 A 
HETATM    4  C1  UNL     1      -9.544   4.164 -31.367  1.00  0.00     0.136 A 
HETATM    5  N1  UNL     1      -9.540   5.130 -30.333  1.00  0.00    -0.094 NA
HETATM    6  C8  UNL     1      -8.310   3.892 -31.969  1.00  0.00     0.272 A 
HETATM    7  N8  UNL     1      -8.237   2.990 -32.964  1.00  0.00    -0.318 N 
HETATM    8  O1  UNL     1      -7.237   4.450 -31.629  1.00  0.00    -0.266 OA
HETATM    9  C7  UNL     1      -9.372   2.379 -33.348  1.00  0.00     0.183 A 
ATOM     10  H8  UNL     1      -7.346   2.776 -33.415  1.00  0.00     0.169 HD
HETATM   11  N7  UNL     1     -10.561   2.639 -32.773  1.00  0.00    -0.354 N 
ATOM     12  H7  UNL     1     -11.388   2.143 -33.107  1.00  0.00     0.166 HD
ENDBRANCH   2   3
ENDBRANCH   1   2
BRANCH   1  13
HETATM   13  N2  UNL     1     -13.578   2.297 -32.393  1.00  0.00    -0.054 N 
ATOM     14  H22 UNL     1     -13.599   3.077 -33.050  1.00  0.00     0.279 HD
ATOM     15  H21 UNL     1     -12.966   1.666 -32.910  1.00  0.00     0.279 HD
BRANCH  13  16
HETATM   16  C5  UNL     1     -14.861   1.737 -32.224  1.00  0.00     0.314 C 
HETATM   17  C6  UNL     1     -15.715   1.512 -33.419  1.00  0.00     0.192 C 
HETATM   18  N3  UNL     1     -17.004   1.010 -32.962  1.00  0.00    -0.321 N 
HETATM   19  N4  UNL     1     -16.971   0.020 -32.036  1.00  0.00    -0.234 N 
ATOM     20  H3  UNL     1     -17.883   1.383 -33.320  1.00  0.00     0.181 HD
HETATM   21  N5  UNL     1     -15.995   0.038 -31.078  1.00  0.00    -0.014 NA
ATOM     22  H4  UNL     1     -17.665  -0.727 -32.052  1.00  0.00     0.204 HD
HETATM   23  N6  UNL     1     -14.742   0.438 -31.539  1.00  0.00    -0.090 NA
ENDBRANCH  13  16
ENDBRANCH   1  13
TORSDOF 4
ENDMDL
MODEL 5
REMARK VINA RESULT: -6.377375555      1.618      1.924
REMARK  4 active torsions:
REMARK  status: ('A' for Active; 'I' for Inactive)
REMARK    1  A    between atoms: C2_3  and  C3_4 
REMARK    2  A    between atoms: C3_4  and  C4_5 
REMARK    3  A    between atoms: C4_5  and  N2_6 
REMARK    4  A    between atoms: N2_6  and  C5_9 
ROOT
HETATM    1  C4  UNL     1     -12.097   0.973 -33.580  1.00  0.00     0.240 C 
ENDROOT
BRANCH   1   2
HETATM    2  C3  UNL     1     -10.890   1.724 -33.986  1.00  0.00     0.087 C 
BRANCH   2   3
HETATM    3  C2  UNL     1     -10.291   2.643 -33.022  1.00  0.00     0.041 A 
HETATM    4  C1  UNL     1      -8.984   3.038 -32.998  1.00  0.00     0.136 A 
HETATM    5  N1  UNL     1      -8.065   2.583 -33.974  1.00  0.00    -0.094 NA
HETATM    6  C8  UNL     1      -8.475   3.897 -32.018  1.00  0.00     0.272 A 
HETATM    7  N8  UNL     1      -9.286   4.366 -31.053  1.00  0.00    -0.318 N 
HETATM    8  O1  UNL     1      -7.275   4.269 -31.980  1.00  0.00    -0.266 OA
HETATM    9  C7  UNL     1     -10.575   3.982 -31.071  1.00  0.00     0.183 A 
ATOM     10  H8  UNL     1      -8.935   4.994 -30.330  1.00  0.00     0.169 HD
HETATM   11  N7  UNL     1     -11.069   3.155 -32.011  1.00  0.00    -0.354 N 
ATOM     12  H7  UNL     1     -12.056   2.899 -31.972  1.00  0.00     0.166 HD
ENDBRANCH   2   3
ENDBRANCH   1   2
BRANCH   1  13
HETATM   13  N2  UNL     1     -13.350   1.544 -33.940  1.00  0.00    -0.054 N 
ATOM     14  H22 UNL     1     -13.285   2.559 -34.012  1.00  0.00     0.279 HD
ATOM     15  H21 UNL     1     -13.589   1.328 -34.908  1.00  0.00     0.279 HD
BRANCH  13  16
HETATM   16  C5  UNL     1     -14.383   1.159 -33.061  1.00  0.00     0.314 C 
HETATM   17  C6  UNL     1     -15.771   1.609 -33.336  1.00  0.00     0.192 C 
HETATM   18  N3  UNL     1     -16.617   1.151 -32.243  1.00  0.00    -0.321 N 
HETATM   19  N4  UNL     1     -16.455  -0.140 -31.857  1.00  0.00    -0.234 N 
ATOM     20  H3  UNL     1     -17.295   1.766 -31.792  1.00  0.00     0.181 HD
HETATM   21  N5  UNL     1     -15.202  -0.687 -31.876  1.00  0.00    -0.014 NA
ATOM     22  H4  UNL     1     -17.256  -0.694 -31.555  1.00  0.00     0.204 HD
HETATM   23  N6  UNL     1     -14.425  -0.310 -32.970  1.00  0.00    -0.090 NA
ENDBRANCH  13  16
ENDBRANCH   1  13
TORSDOF 4
ENDMDL
