MODEL 1
REMARK VINA RESULT: -5.798779113      0.000      0.000
REMARK  10 active torsions:
REMARK  status: ('A' for Active; 'I' for Inactive)
REMARK    1  A    between atoms: N1_1  and  C1_5 
REMARK    2  A    between atoms: C1_5  and  C2_6 
REMARK    3  A    between atoms: C2_6  and  C3_7 
REMARK    4  A    between atoms: C3_7  and  C4_8 
REMARK    5  A    between atoms: C4_8  and  C5_9 
REMARK    6  A    between atoms: C5_9  and  N2_10 
REMARK    7  A    between atoms: N2_10  and  C6_12 
REMARK    8  A    between atoms: C7_17  and  N5_18 
REMARK    9  A    between atoms: N7_23  and  O1_24 
REMARK   10  A    between atoms: O1_24  and  N8_25 
ROOT
HETATM    1  C6  UNL     1     -10.752   5.459 -30.976  1.00  0.00     0.733 C 
HETATM    2  N3  UNL     1     -11.100   6.241 -31.933  1.00  0.00    -0.131 N 
ATOM      3  H3  UNL     1     -10.418   6.851 -32.384  1.00  0.00     0.205 HD
HETATM    4  N4  UNL     1     -12.443   6.236 -32.344  1.00  0.00    -0.277 N 
ATOM      5  H4  UNL     1     -12.711   6.639 -33.242  1.00  0.00     0.184 HD
HETATM    6  C7  UNL     1     -13.450   5.648 -31.468  1.00  0.00     0.414 C 
HETATM    7  N6  UNL     1     -12.981   4.366 -30.957  1.00  0.00    -0.038 NA
HETATM    8  N7  UNL     1     -11.741   4.620 -30.371  1.00  0.00     0.041 N 
ENDROOT
BRANCH   1   9
HETATM    9  N2  UNL     1      -9.441   5.365 -30.469  1.00  0.00    -0.222 N 
ATOM     10  H2  UNL     1      -9.099   6.090 -29.838  1.00  0.00     0.177 HD
BRANCH   9  11
HETATM   11  C5  UNL     1      -8.575   4.279 -30.815  1.00  0.00     0.138 C 
BRANCH  11  12
HETATM   12  C4  UNL     1      -8.121   4.401 -32.235  1.00  0.00     0.020 C 
BRANCH  12  13
HETATM   13  C3  UNL     1      -8.083   3.064 -32.953  1.00  0.00     0.003 C 
BRANCH  13  14
HETATM   14  C2  UNL     1      -9.240   3.033 -33.912  1.00  0.00     0.027 C 
BRANCH  14  15
HETATM   15  C1  UNL     1     -10.192   1.886 -33.656  1.00  0.00     0.229 C 
BRANCH  15  16
HETATM   16  N1  UNL     1     -11.176   2.331 -32.713  1.00  0.00    -0.079 N 
ATOM     17  H13 UNL     1     -11.945   1.670 -32.603  1.00  0.00     0.274 HD
ATOM     18  H12 UNL     1     -10.838   2.308 -31.750  1.00  0.00     0.274 HD
ATOM     19  H11 UNL     1     -11.488   3.258 -33.000  1.00  0.00     0.274 HD
ENDBRANCH  15  16
ENDBRANCH  14  15
ENDBRANCH  13  14
ENDBRANCH  12  13
ENDBRANCH  11  12
ENDBRANCH   9  11
ENDBRANCH   1   9
BRANCH   8  20
HETATM   20  O1  UNL     1     -11.482   4.046 -29.176  1.00  0.00    -0.129 OA
BRANCH  20  21
HETATM   21  N8  UNL     1     -11.665   4.910 -28.157  1.00  0.00    -0.284 N 
ATOM     22  H82 UNL     1     -12.582   5.252 -27.871  1.00  0.00     0.186 HD
ATOM     23  H81 UNL     1     -10.780   5.170 -27.721  1.00  0.00     0.186 HD
ENDBRANCH  20  21
ENDBRANCH   8  20
BRANCH   6  24
HETATM   24  N5  UNL     1     -14.689   5.478 -32.150  1.00  0.00    -0.041 N 
ATOM     25  H53 UNL     1     -14.707   5.993 -33.031  1.00  0.00     0.278 HD
ATOM     26  H52 UNL     1     -14.788   4.532 -32.520  1.00  0.00     0.278 HD
ATOM     27  H51 UNL     1     -15.476   5.730 -31.553  1.00  0.00     0.278 HD
ENDBRANCH   6  24
TORSDOF 10
ENDMDL
MODEL 2
REMARK VINA RESULT: -5.701666819      4.419      5.786
REMARK  10 active torsions:
REMARK  status: ('A' for Active; 'I' for Inactive)
REMARK    1  A    between atoms: N1_1  and  C1_5 
REMARK    2  A    between atoms: C1_5  and  C2_6 
REMARK    3  A    between atoms: C2_6  and  C3_7 
REMARK    4  A    between atoms: C3_7  and  C4_8 
REMARK    5  A    between atoms: C4_8  and  C5_9 
REMARK    6  A    between atoms: C5_9  and  N2_10 
REMARK    7  A    between atoms: N2_10  and  C6_12 
REMARK    8  A    between atoms: C7_17  and  N5_18 
REMARK    9  A    between atoms: N7_23  and  O1_24 
REMARK   10  A    between atoms: O1_24  and  N8_25 
ROOT
HETATM    1  C6  UNL     1     -15.117   1.346 -32.601  1.00  0.00     0.733 C 
HETATM    2  N3  UNL     1     -15.913   1.779 -33.510  1.00  0.00    -0.131 N 
ATOM      3  H3  UNL     1     -15.622   2.517 -34.151  1.00  0.00     0.205 HD
HETATM    4  N4  UNL     1     -17.195   1.211 -33.600  1.00  0.00    -0.277 N 
ATOM      5  H4  UNL     1     -17.757   1.336 -34.441  1.00  0.00     0.184 HD
HETATM    6  C7  UNL     1     -17.709   0.441 -32.474  1.00  0.00     0.414 C 
HETATM    7  N6  UNL     1     -16.687  -0.476 -31.986  1.00  0.00    -0.038 NA
HETATM    8  N7  UNL     1     -15.565   0.310 -31.721  1.00  0.00     0.041 N 
ENDROOT
BRANCH   1   9
HETATM    9  N2  UNL     1     -13.807   1.827 -32.401  1.00  0.00    -0.222 N 
ATOM     10  H2  UNL     1     -13.017   1.250 -32.690  1.00  0.00     0.177 HD
BRANCH   9  11
HETATM   11  C5  UNL     1     -13.556   3.104 -31.806  1.00  0.00     0.138 C 
BRANCH  11  12
HETATM   12  C4  UNL     1     -12.259   3.091 -31.060  1.00  0.00     0.020 C 
BRANCH  12  13
HETATM   13  C3  UNL     1     -11.874   4.461 -30.534  1.00  0.00     0.003 C 
BRANCH  13  14
HETATM   14  C2  UNL     1     -10.536   4.811 -31.122  1.00  0.00     0.027 C 
BRANCH  14  15
HETATM   15  C1  UNL     1     -10.534   6.140 -31.845  1.00  0.00     0.229 C 
BRANCH  15  16
HETATM   16  N1  UNL     1     -11.884   6.435 -32.227  1.00  0.00    -0.079 N 
ATOM     17  H13 UNL     1     -12.017   6.440 -33.238  1.00  0.00     0.274 HD
ATOM     18  H12 UNL     1     -12.531   5.677 -32.008  1.00  0.00     0.274 HD
ATOM     19  H11 UNL     1     -12.147   7.318 -31.789  1.00  0.00     0.274 HD
ENDBRANCH  15  16
ENDBRANCH  14  15
ENDBRANCH  13  14
ENDBRANCH  12  13
ENDBRANCH  11  12
ENDBRANCH   9  11
ENDBRANCH   1   9
BRANCH   8  20
HETATM   20  O1  UNL     1     -14.887   0.073 -30.576  1.00  0.00    -0.129 OA
BRANCH  20  21
HETATM   21  N8  UNL     1     -15.713  -0.293 -29.575  1.00  0.00    -0.284 N 
ATOM     22  H82 UNL     1     -16.612  -0.750 -29.728  1.00  0.00     0.186 HD
ATOM     23  H81 UNL     1     -15.326  -0.054 -28.662  1.00  0.00     0.186 HD
ENDBRANCH  20  21
ENDBRANCH   8  20
BRANCH   6  24
HETATM   24  N5  UNL     1     -18.880  -0.283 -32.837  1.00  0.00    -0.041 N 
ATOM     25  H53 UNL     1     -18.650  -1.183 -33.260  1.00  0.00     0.278 HD
ATOM     26  H52 UNL     1     -19.383  -0.622 -32.017  1.00  0.00     0.278 HD
ATOM     27  H51 UNL     1     -19.484   0.272 -33.443  1.00  0.00     0.278 HD
ENDBRANCH   6  24
TORSDOF 10
ENDMDL
MODEL 3
REMARK VINA RESULT: -5.624092380      3.693      5.476
REMARK  10 active torsions:
REMARK  status: ('A' for Active; 'I' for Inactive)
REMARK    1  A    between atoms: N1_1  and  C1_5 
REMARK    2  A    between atoms: C1_5  and  C2_6 
REMARK    3  A    between atoms: C2_6  and  C3_7 
REMARK    4  A    between atoms: C3_7  and  C4_8 
REMARK    5  A    between atoms: C4_8  and  C5_9 
REMARK    6  A    between atoms: C5_9  and  N2_10 
REMARK    7  A    between atoms: N2_10  and  C6_12 
REMARK    8  A    between atoms: C7_17  and  N5_18 
REMARK    9  A    between atoms: N7_23  and  O1_24 
REMARK   10  A    between atoms: O1_24  and  N8_25 
ROOT
HETATM    1  C6  UNL     1     -12.259   3.430 -31.584  1.00  0.00     0.733 C 
HETATM    2  N3  UNL     1     -12.489   4.609 -31.132  1.00  0.00    -0.131 N 
ATOM      3  H3  UNL     1     -13.424   4.879 -30.829  1.00  0.00     0.205 HD
HETATM    4  N4  UNL     1     -11.420   5.518 -31.063  1.00  0.00    -0.277 N 
ATOM      5  H4  UNL     1     -11.492   6.358 -30.490  1.00  0.00     0.184 HD
HETATM    6  C7  UNL     1     -10.206   5.243 -31.823  1.00  0.00     0.414 C 
HETATM    7  N6  UNL     1      -9.813   3.850 -31.650  1.00  0.00    -0.038 NA
HETATM    8  N7  UNL     1     -10.931   3.093 -31.999  1.00  0.00     0.041 N 
ENDROOT
BRANCH   1   9
HETATM    9  N2  UNL     1     -13.238   2.424 -31.705  1.00  0.00    -0.222 N 
ATOM     10  H2  UNL     1     -13.106   1.541 -31.213  1.00  0.00     0.177 HD
BRANCH   9  11
HETATM   11  C5  UNL     1     -14.414   2.609 -32.500  1.00  0.00     0.138 C 
BRANCH  11  12
HETATM   12  C4  UNL     1     -14.606   1.455 -33.432  1.00  0.00     0.020 C 
BRANCH  12  13
HETATM   13  C3  UNL     1     -15.018   0.184 -32.711  1.00  0.00     0.003 C 
BRANCH  13  14
HETATM   14  C2  UNL     1     -16.196   0.521 -31.840  1.00  0.00     0.027 C 
BRANCH  14  15
HETATM   15  C1  UNL     1     -17.473  -0.159 -32.281  1.00  0.00     0.229 C 
BRANCH  15  16
HETATM   16  N1  UNL     1     -18.408   0.861 -32.659  1.00  0.00    -0.079 N 
ATOM     17  H13 UNL     1     -19.354   0.671 -32.330  1.00  0.00     0.274 HD
ATOM     18  H12 UNL     1     -18.261   1.737 -32.156  1.00  0.00     0.274 HD
ATOM     19  H11 UNL     1     -18.356   0.973 -33.671  1.00  0.00     0.274 HD
ENDBRANCH  15  16
ENDBRANCH  14  15
ENDBRANCH  13  14
ENDBRANCH  12  13
ENDBRANCH  11  12
ENDBRANCH   9  11
ENDBRANCH   1   9
BRANCH   8  20
HETATM   20  O1  UNL     1     -10.735   1.998 -32.767  1.00  0.00    -0.129 OA
BRANCH  20  21
HETATM   21  N8  UNL     1     -10.144   2.311 -33.938  1.00  0.00    -0.284 N 
ATOM     22  H82 UNL     1     -10.582   2.898 -34.647  1.00  0.00     0.186 HD
ATOM     23  H81 UNL     1      -9.218   1.890 -34.016  1.00  0.00     0.186 HD
ENDBRANCH  20  21
ENDBRANCH   8  20
BRANCH   6  24
HETATM   24  N5  UNL     1      -9.143   6.103 -31.424  1.00  0.00    -0.041 N 
ATOM     25  H53 UNL     1      -9.424   7.084 -31.450  1.00  0.00     0.278 HD
ATOM     26  H52 UNL     1      -8.949   6.023 -30.426  1.00  0.00     0.278 HD
ATOM     27  H51 UNL     1      -8.306   5.938 -31.982  1.00  0.00     0.278 HD
ENDBRANCH   6  24
TORSDOF 10
ENDMDL
MODEL 4
REMARK VINA RESULT: -5.391627117      4.368      5.817
REMARK  10 active torsions:
REMARK  status: ('A' for Active; 'I' for Inactive)
REMARK    1  A    between atoms: N1_1  and  C1_5 
REMARK    2  A    between atoms: C1_5  and  C2_6 
REMARK    3  A    between atoms: C2_6  and  C3_7 
REMARK    4  A    between atoms: C3_7  and  C4_8 
REMARK    5  A    between atoms: C4_8  and  C5_9 
REMARK    6  A    between atoms: C5_9  and  N2_10 
REMARK    7  A    between atoms: N2_10  and  C6_12 
REMARK    8  A    between atoms: C7_17  and  N5_18 
REMARK    9  A    between atoms: N7_23  and  O1_24 
REMARK   10  A    between atoms: O1_24  and  N8_25 
ROOT
HETATM    1  C6  UNL     1     -15.051   1.447 -32.537  1.00  0.00     0.733 C 
HETATM    2  N3  UNL     1     -15.797   1.910 -33.473  1.00  0.00    -0.131 N 
ATOM      3  H3  UNL     1     -15.469   2.662 -34.079  1.00  0.00     0.205 HD
HETATM    4  N4  UNL     1     -17.077   1.357 -33.641  1.00  0.00    -0.277 N 
ATOM      5  H4  UNL     1     -17.596   1.508 -34.506  1.00  0.00     0.184 HD
HETATM    6  C7  UNL     1     -17.653   0.562 -32.563  1.00  0.00     0.414 C 
HETATM    7  N6  UNL     1     -16.663  -0.377 -32.050  1.00  0.00    -0.038 NA
HETATM    8  N7  UNL     1     -15.550   0.392 -31.709  1.00  0.00     0.041 N 
ENDROOT
BRANCH   1   9
HETATM    9  N2  UNL     1     -13.749   1.911 -32.260  1.00  0.00    -0.222 N 
ATOM     10  H2  UNL     1     -12.959   1.279 -32.389  1.00  0.00     0.177 HD
BRANCH   9  11
HETATM   11  C5  UNL     1     -13.506   3.245 -31.805  1.00  0.00     0.138 C 
BRANCH  11  12
HETATM   12  C4  UNL     1     -12.195   3.327 -31.088  1.00  0.00     0.020 C 
BRANCH  12  13
HETATM   13  C3  UNL     1     -11.594   4.720 -31.126  1.00  0.00     0.003 C 
BRANCH  13  14
HETATM   14  C2  UNL     1     -10.368   4.706 -30.256  1.00  0.00     0.027 C 
BRANCH  14  15
HETATM   15  C1  UNL     1     -10.652   4.259 -28.839  1.00  0.00     0.229 C 
BRANCH  15  16
HETATM   16  N1  UNL     1     -11.430   5.281 -28.202  1.00  0.00    -0.079 N 
ATOM     17  H13 UNL     1     -12.140   5.678 -28.817  1.00  0.00     0.274 HD
ATOM     18  H12 UNL     1     -12.058   4.912 -27.488  1.00  0.00     0.274 HD
ATOM     19  H11 UNL     1     -10.786   5.983 -27.836  1.00  0.00     0.274 HD
ENDBRANCH  15  16
ENDBRANCH  14  15
ENDBRANCH  13  14
ENDBRANCH  12  13
ENDBRANCH  11  12
ENDBRANCH   9  11
ENDBRANCH   1   9
BRANCH   8  20
HETATM   20  O1  UNL     1     -14.932   0.119 -30.538  1.00  0.00    -0.129 OA
BRANCH  20  21
HETATM   21  N8  UNL     1     -15.803  -0.308 -29.603  1.00  0.00    -0.284 N 
ATOM     22  H82 UNL     1     -16.806  -0.128 -29.647  1.00  0.00     0.186 HD
ATOM     23  H81 UNL     1     -15.334  -0.824 -28.859  1.00  0.00     0.186 HD
ENDBRANCH  20  21
ENDBRANCH   8  20
BRANCH   6  24
HETATM   24  N5  UNL     1     -18.810  -0.142 -33.003  1.00  0.00    -0.041 N 
ATOM     25  H53 UNL     1     -19.504   0.490 -33.404  1.00  0.00     0.278 HD
ATOM     26  H52 UNL     1     -18.615  -0.705 -33.832  1.00  0.00     0.278 HD
ATOM     27  H51 UNL     1     -19.206  -0.707 -32.253  1.00  0.00     0.278 HD
ENDBRANCH   6  24
TORSDOF 10
ENDMDL
MODEL 5
REMARK VINA RESULT: -5.310287348      3.576      5.393
REMARK  10 active torsions:
REMARK  status: ('A' for Active; 'I' for Inactive)
REMARK    1  A    between atoms: N1_1  and  C1_5 
REMARK    2  A    between atoms: C1_5  and  C2_6 
REMARK    3  A    between atoms: C2_6  and  C3_7 
REMARK    4  A    between atoms: C3_7  and  C4_8 
REMARK    5  A    between atoms: C4_8  and  C5_9 
REMARK    6  A    between atoms: C5_9  and  N2_10 
REMARK    7  A    between atoms: N2_10  and  C6_12 
REMARK    8  A    between atoms: C7_17  and  N5_18 
REMARK    9  A    between atoms: N7_23  and  O1_24 
REMARK   10  A    between atoms: O1_24  and  N8_25 
ROOT
HETATM    1  C6  UNL     1     -11.853   3.047 -31.657  1.00  0.00     0.733 C 
HETATM    2  N3  UNL     1     -11.089   2.595 -32.584  1.00  0.00    -0.131 N 
ATOM      3  H3  UNL     1     -11.432   1.907 -33.254  1.00  0.00     0.205 HD
HETATM    4  N4  UNL     1      -9.770   3.073 -32.655  1.00  0.00    -0.277 N 
ATOM      5  H4  UNL     1      -9.217   2.942 -33.502  1.00  0.00     0.184 HD
HETATM    6  C7  UNL     1      -9.202   3.758 -31.500  1.00  0.00     0.414 C 
HETATM    7  N6  UNL     1     -10.156   4.726 -30.974  1.00  0.00    -0.038 NA
HETATM    8  N7  UNL     1     -11.332   4.013 -30.738  1.00  0.00     0.041 N 
ENDROOT
BRANCH   1   9
HETATM    9  N2  UNL     1     -13.194   2.654 -31.474  1.00  0.00    -0.222 N 
ATOM     10  H2  UNL     1     -13.476   2.251 -30.581  1.00  0.00     0.177 HD
BRANCH   9  11
HETATM   11  C5  UNL     1     -14.171   2.805 -32.509  1.00  0.00     0.138 C 
BRANCH  11  12
HETATM   12  C4  UNL     1     -14.397   1.504 -33.213  1.00  0.00     0.020 C 
BRANCH  12  13
HETATM   13  C3  UNL     1     -15.868   1.149 -33.327  1.00  0.00     0.003 C 
BRANCH  13  14
HETATM   14  C2  UNL     1     -16.232   0.342 -32.113  1.00  0.00     0.027 C 
BRANCH  14  15
HETATM   15  C1  UNL     1     -17.639  -0.211 -32.168  1.00  0.00     0.229 C 
BRANCH  15  16
HETATM   16  N1  UNL     1     -18.501   0.824 -32.658  1.00  0.00    -0.079 N 
ATOM     17  H13 UNL     1     -18.572   1.615 -32.018  1.00  0.00     0.274 HD
ATOM     18  H12 UNL     1     -18.104   1.327 -33.452  1.00  0.00     0.274 HD
ATOM     19  H11 UNL     1     -19.406   0.404 -32.869  1.00  0.00     0.274 HD
ENDBRANCH  15  16
ENDBRANCH  14  15
ENDBRANCH  13  14
ENDBRANCH  12  13
ENDBRANCH  11  12
ENDBRANCH   9  11
ENDBRANCH   1   9
BRANCH   8  20
HETATM   20  O1  UNL     1     -11.991   4.252 -29.583  1.00  0.00    -0.129 OA
BRANCH  20  21
HETATM   21  N8  UNL     1     -11.253   4.992 -28.732  1.00  0.00    -0.284 N 
ATOM     22  H82 UNL     1     -10.789   5.859 -29.001  1.00  0.00     0.186 HD
ATOM     23  H81 UNL     1     -11.222   4.577 -27.801  1.00  0.00     0.186 HD
ENDBRANCH  20  21
ENDBRANCH   8  20
BRANCH   6  24
HETATM   24  N5  UNL     1      -7.982   4.411 -31.837  1.00  0.00    -0.041 N 
ATOM     25  H53 UNL     1      -7.206   4.073 -31.267  1.00  0.00     0.278 HD
ATOM     26  H52 UNL     1      -7.640   4.118 -32.753  1.00  0.00     0.278 HD
ATOM     27  H51 UNL     1      -8.077   5.424 -31.780  1.00  0.00     0.278 HD
ENDBRANCH   6  24
TORSDOF 10
ENDMDL
