MODEL 1
REMARK VINA RESULT: -6.743034263      0.000      0.000
REMARK  8 active torsions:
REMARK  status: ('A' for Active; 'I' for Inactive)
REMARK    1  A    between atoms: N1_1  and  C1_4 
REMARK    2  A    between atoms: C2_9  and  S1_10 
REMARK    3  A    between atoms: S1_10  and  C3_13 
REMARK    4  A    between atoms: C3_13  and  C4_14 
REMARK    5  A    between atoms: C4_14  and  N4_15 
REMARK    6  A    between atoms: N4_15  and  N5_16 
REMARK    7  A    between atoms: N5_16  and  N6_17 
REMARK    8  A    between atoms: C5_20  and  N7_21 
ROOT
HETATM    1  C1  UNL     1     -13.443   5.084 -31.744  1.00  0.00     0.692 A 
HETATM    2  N2  UNL     1     -12.941   3.880 -31.375  1.00  0.00    -0.131 N 
ATOM      3  H2  UNL     1     -13.571   3.104 -31.174  1.00  0.00     0.205 HD
HETATM    4  N3  UNL     1     -11.637   3.711 -31.277  1.00  0.00    -0.273 N 
ATOM      5  H3  UNL     1     -11.270   2.802 -30.997  1.00  0.00     0.188 HD
HETATM    6  C2  UNL     1     -10.787   4.709 -31.535  1.00  0.00     0.188 A 
HETATM    7  C5  UNL     1     -11.286   5.935 -31.909  1.00  0.00     0.154 A 
HETATM    8  N8  UNL     1     -12.613   6.109 -32.010  1.00  0.00    -0.173 N 
ATOM      9  H8  UNL     1     -12.991   7.016 -32.288  1.00  0.00     0.186 HD
ENDROOT
BRANCH   6  10
HETATM   10  S1  UNL     1      -9.069   4.421 -31.386  1.00  0.00     0.197 S 
HETATM   11  O1  UNL     1      -8.280   5.497 -32.042  1.00  0.00    -0.221 OA
HETATM   12  O2  UNL     1      -8.740   4.346 -29.922  1.00  0.00    -0.221 OA
BRANCH  10  13
HETATM   13  C3  UNL     1      -8.737   2.836 -32.126  1.00  0.00     0.165 C 
BRANCH  13  14
HETATM   14  C4  UNL     1      -8.651   3.015 -33.637  1.00  0.00     0.147 C 
BRANCH  14  15
HETATM   15  N4  UNL     1      -9.728   2.279 -34.272  1.00  0.00    -0.126 NA
BRANCH  15  16
HETATM   16  N5  UNL     1     -10.449   1.509 -33.387  1.00  0.00    -0.039 NA
BRANCH  16  17
HETATM   17  N6  UNL     1     -11.786   1.509 -33.797  1.00  0.00    -0.332 N 
ATOM     18  H62 UNL     1     -12.377   2.337 -33.870  1.00  0.00     0.173 HD
ATOM     19  H61 UNL     1     -12.056   0.548 -34.004  1.00  0.00     0.173 HD
ENDBRANCH  16  17
ENDBRANCH  15  16
ENDBRANCH  14  15
ENDBRANCH  13  14
ENDBRANCH  10  13
ENDBRANCH   6  10
BRANCH   7  20
HETATM   20  N7  UNL     1     -10.459   6.909 -32.161  1.00  0.00    -0.383 N 
ATOM     21  H72 UNL     1      -9.510   6.904 -31.786  1.00  0.00     0.157 HD
ATOM     22  H71 UNL     1     -10.768   7.688 -32.743  1.00  0.00     0.157 HD
ENDBRANCH   7  20
BRANCH   1  23
HETATM   23  N1  UNL     1     -14.716   5.267 -31.845  1.00  0.00    -0.233 N 
ATOM     24  H12 UNL     1     -15.328   4.908 -31.112  1.00  0.00     0.174 HD
ATOM     25  H11 UNL     1     -15.111   5.762 -32.644  1.00  0.00     0.174 HD
ENDBRANCH   1  23
TORSDOF 8
ENDMDL
MODEL 2
REMARK VINA RESULT: -6.307786047      0.682      1.646
REMARK  8 active torsions:
REMARK  status: ('A' for Active; 'I' for Inactive)
REMARK    1  A    between atoms: N1_1  and  C1_4 
REMARK    2  A    between atoms: C2_9  and  S1_10 
REMARK    3  A    between atoms: S1_10  and  C3_13 
REMARK    4  A    between atoms: C3_13  and  C4_14 
REMARK    5  A    between atoms: C4_14  and  N4_15 
REMARK    6  A    between atoms: N4_15  and  N5_16 
REMARK    7  A    between atoms: N5_16  and  N6_17 
REMARK    8  A    between atoms: C5_20  and  N7_21 
ROOT
HETATM    1  C1  UNL     1     -13.356   5.758 -31.769  1.00  0.00     0.692 A 
HETATM    2  N2  UNL     1     -12.320   6.462 -32.287  1.00  0.00    -0.131 N 
ATOM      3  H2  UNL     1     -12.498   7.308 -32.829  1.00  0.00     0.205 HD
HETATM    4  N3  UNL     1     -11.082   6.054 -32.092  1.00  0.00    -0.273 N 
ATOM      5  H3  UNL     1     -10.310   6.590 -32.488  1.00  0.00     0.188 HD
HETATM    6  C2  UNL     1     -10.818   4.951 -31.387  1.00  0.00     0.188 A 
HETATM    7  C5  UNL     1     -11.862   4.229 -30.856  1.00  0.00     0.154 A 
HETATM    8  N8  UNL     1     -13.124   4.642 -31.053  1.00  0.00    -0.173 N 
ATOM      9  H8  UNL     1     -13.903   4.112 -30.663  1.00  0.00     0.186 HD
ENDROOT
BRANCH   6  10
HETATM   10  S1  UNL     1      -9.155   4.462 -31.164  1.00  0.00     0.197 S 
HETATM   11  O1  UNL     1      -8.213   5.512 -31.635  1.00  0.00    -0.221 OA
HETATM   12  O2  UNL     1      -8.948   4.189 -29.701  1.00  0.00    -0.221 OA
BRANCH  10  13
HETATM   13  C3  UNL     1      -8.929   2.943 -32.064  1.00  0.00     0.165 C 
BRANCH  13  14
HETATM   14  C4  UNL     1      -8.937   3.258 -33.555  1.00  0.00     0.147 C 
BRANCH  14  15
HETATM   15  N4  UNL     1      -9.702   2.244 -34.257  1.00  0.00    -0.126 NA
BRANCH  15  16
HETATM   16  N5  UNL     1     -10.404   1.416 -33.410  1.00  0.00    -0.039 NA
BRANCH  16  17
HETATM   17  N6  UNL     1     -11.769   1.603 -33.648  1.00  0.00    -0.332 N 
ATOM     18  H62 UNL     1     -12.518   1.055 -33.226  1.00  0.00     0.173 HD
ATOM     19  H61 UNL     1     -11.875   2.373 -34.309  1.00  0.00     0.173 HD
ENDBRANCH  16  17
ENDBRANCH  15  16
ENDBRANCH  14  15
ENDBRANCH  13  14
ENDBRANCH  10  13
ENDBRANCH   6  10
BRANCH   7  20
HETATM   20  N7  UNL     1     -11.607   3.153 -30.168  1.00  0.00    -0.383 N 
ATOM     21  H72 UNL     1     -11.062   3.196 -29.307  1.00  0.00     0.157 HD
ATOM     22  H71 UNL     1     -11.959   2.254 -30.498  1.00  0.00     0.157 HD
ENDBRANCH   7  20
BRANCH   1  23
HETATM   23  N1  UNL     1     -14.574   6.143 -31.950  1.00  0.00    -0.233 N 
ATOM     24  H12 UNL     1     -14.989   6.053 -32.877  1.00  0.00     0.174 HD
ATOM     25  H11 UNL     1     -15.119   6.533 -31.182  1.00  0.00     0.174 HD
ENDBRANCH   1  23
TORSDOF 8
ENDMDL
MODEL 3
REMARK VINA RESULT: -6.283929111      2.233      2.823
REMARK  8 active torsions:
REMARK  status: ('A' for Active; 'I' for Inactive)
REMARK    1  A    between atoms: N1_1  and  C1_4 
REMARK    2  A    between atoms: C2_9  and  S1_10 
REMARK    3  A    between atoms: S1_10  and  C3_13 
REMARK    4  A    between atoms: C3_13  and  C4_14 
REMARK    5  A    between atoms: C4_14  and  N4_15 
REMARK    6  A    between atoms: N4_15  and  N5_16 
REMARK    7  A    between atoms: N5_16  and  N6_17 
REMARK    8  A    between atoms: C5_20  and  N7_21 
ROOT
HETATM    1  C1  UNL     1     -14.656   2.647 -32.654  1.00  0.00     0.692 A 
HETATM    2  N2  UNL     1     -13.500   2.011 -32.346  1.00  0.00    -0.131 N 
ATOM      3  H2  UNL     1     -13.402   1.013 -32.532  1.00  0.00     0.205 HD
HETATM    4  N3  UNL     1     -12.500   2.682 -31.808  1.00  0.00    -0.273 N 
ATOM      5  H3  UNL     1     -11.635   2.193 -31.580  1.00  0.00     0.188 HD
HETATM    6  C2  UNL     1     -12.600   3.990 -31.555  1.00  0.00     0.188 A 
HETATM    7  C5  UNL     1     -13.769   4.645 -31.863  1.00  0.00     0.154 A 
HETATM    8  N8  UNL     1     -14.788   3.964 -32.411  1.00  0.00    -0.173 N 
ATOM      9  H8  UNL     1     -15.659   4.444 -32.643  1.00  0.00     0.186 HD
ENDROOT
BRANCH   6  10
HETATM   10  S1  UNL     1     -11.239   4.822 -30.841  1.00  0.00     0.197 S 
HETATM   11  O1  UNL     1     -11.079   6.187 -31.408  1.00  0.00    -0.221 OA
HETATM   12  O2  UNL     1     -11.471   4.893 -29.358  1.00  0.00    -0.221 OA
BRANCH  10  13
HETATM   13  C3  UNL     1      -9.796   3.825 -31.144  1.00  0.00     0.165 C 
BRANCH  13  14
HETATM   14  C4  UNL     1      -8.899   4.559 -32.134  1.00  0.00     0.147 C 
BRANCH  14  15
HETATM   15  N4  UNL     1      -7.648   3.838 -32.276  1.00  0.00    -0.126 NA
BRANCH  15  16
HETATM   16  N5  UNL     1      -7.573   3.114 -33.444  1.00  0.00    -0.039 NA
BRANCH  16  17
HETATM   17  N6  UNL     1      -8.660   3.468 -34.249  1.00  0.00    -0.332 N 
ATOM     18  H62 UNL     1      -9.595   3.688 -33.907  1.00  0.00     0.173 HD
ATOM     19  H61 UNL     1      -8.351   3.466 -35.221  1.00  0.00     0.173 HD
ENDBRANCH  16  17
ENDBRANCH  15  16
ENDBRANCH  14  15
ENDBRANCH  13  14
ENDBRANCH  10  13
ENDBRANCH   6  10
BRANCH   7  20
HETATM   20  N7  UNL     1     -13.868   5.920 -31.618  1.00  0.00    -0.383 N 
ATOM     21  H72 UNL     1     -13.048   6.527 -31.646  1.00  0.00     0.157 HD
ATOM     22  H71 UNL     1     -14.781   6.316 -31.392  1.00  0.00     0.157 HD
ENDBRANCH   7  20
BRANCH   1  23
HETATM   23  N1  UNL     1     -15.644   2.006 -33.181  1.00  0.00    -0.233 N 
ATOM     24  H12 UNL     1     -15.471   1.406 -33.987  1.00  0.00     0.174 HD
ATOM     25  H11 UNL     1     -16.586   2.094 -32.801  1.00  0.00     0.174 HD
ENDBRANCH   1  23
TORSDOF 8
ENDMDL
MODEL 4
REMARK VINA RESULT: -5.574750701      2.034      3.792
REMARK  8 active torsions:
REMARK  status: ('A' for Active; 'I' for Inactive)
REMARK    1  A    between atoms: N1_1  and  C1_4 
REMARK    2  A    between atoms: C2_9  and  S1_10 
REMARK    3  A    between atoms: S1_10  and  C3_13 
REMARK    4  A    between atoms: C3_13  and  C4_14 
REMARK    5  A    between atoms: C4_14  and  N4_15 
REMARK    6  A    between atoms: N4_15  and  N5_16 
REMARK    7  A    between atoms: N5_16  and  N6_17 
REMARK    8  A    between atoms: C5_20  and  N7_21 
ROOT
HETATM    1  C1  UNL     1     -13.258   2.165 -32.401  1.00  0.00     0.692 A 
HETATM    2  N2  UNL     1     -12.664   2.931 -31.453  1.00  0.00    -0.131 N 
ATOM      3  H2  UNL     1     -13.212   3.290 -30.670  1.00  0.00     0.205 HD
HETATM    4  N3  UNL     1     -11.379   3.212 -31.541  1.00  0.00    -0.273 N 
ATOM      5  H3  UNL     1     -10.943   3.790 -30.823  1.00  0.00     0.188 HD
HETATM    6  C2  UNL     1     -10.637   2.755 -32.553  1.00  0.00     0.188 A 
HETATM    7  C5  UNL     1     -11.229   1.977 -33.520  1.00  0.00     0.154 A 
HETATM    8  N8  UNL     1     -12.538   1.690 -33.433  1.00  0.00    -0.173 N 
ATOM      9  H8  UNL     1     -12.985   1.113 -34.147  1.00  0.00     0.186 HD
ENDROOT
BRANCH   6  10
HETATM   10  S1  UNL     1      -8.938   3.162 -32.613  1.00  0.00     0.197 S 
HETATM   11  O1  UNL     1      -8.087   1.943 -32.599  1.00  0.00    -0.221 OA
HETATM   12  O2  UNL     1      -8.700   3.956 -33.866  1.00  0.00    -0.221 OA
BRANCH  10  13
HETATM   13  C3  UNL     1      -8.599   4.201 -31.208  1.00  0.00     0.165 C 
BRANCH  13  14
HETATM   14  C4  UNL     1      -8.938   5.641 -31.576  1.00  0.00     0.147 C 
BRANCH  14  15
HETATM   15  N4  UNL     1     -10.189   6.018 -30.946  1.00  0.00    -0.126 NA
BRANCH  15  16
HETATM   16  N5  UNL     1     -11.236   6.105 -31.835  1.00  0.00    -0.039 NA
BRANCH  16  17
HETATM   17  N6  UNL     1     -10.969   7.153 -32.722  1.00  0.00    -0.332 N 
ATOM     18  H62 UNL     1     -10.044   7.536 -32.916  1.00  0.00     0.173 HD
ATOM     19  H61 UNL     1     -11.853   7.457 -33.131  1.00  0.00     0.173 HD
ENDBRANCH  16  17
ENDBRANCH  15  16
ENDBRANCH  14  15
ENDBRANCH  13  14
ENDBRANCH  10  13
ENDBRANCH   6  10
BRANCH   7  20
HETATM   20  N7  UNL     1     -10.508   1.530 -34.508  1.00  0.00    -0.383 N 
ATOM     21  H72 UNL     1     -10.923   0.967 -35.250  1.00  0.00     0.157 HD
ATOM     22  H71 UNL     1      -9.511   1.748 -34.537  1.00  0.00     0.157 HD
ENDBRANCH   7  20
BRANCH   1  23
HETATM   23  N1  UNL     1     -14.514   1.881 -32.330  1.00  0.00    -0.233 N 
ATOM     24  H12 UNL     1     -15.043   2.176 -31.509  1.00  0.00     0.174 HD
ATOM     25  H11 UNL     1     -14.977   1.369 -33.080  1.00  0.00     0.174 HD
ENDBRANCH   1  23
TORSDOF 8
ENDMDL
MODEL 5
REMARK VINA RESULT: -5.556855938      1.949      3.236
REMARK  8 active torsions:
REMARK  status: ('A' for Active; 'I' for Inactive)
REMARK    1  A    between atoms: N1_1  and  C1_4 
REMARK    2  A    between atoms: C2_9  and  S1_10 
REMARK    3  A    between atoms: S1_10  and  C3_13 
REMARK    4  A    between atoms: C3_13  and  C4_14 
REMARK    5  A    between atoms: C4_14  and  N4_15 
REMARK    6  A    between atoms: N4_15  and  N5_16 
REMARK    7  A    between atoms: N5_16  and  N6_17 
REMARK    8  A    between atoms: C5_20  and  N7_21 
ROOT
HETATM    1  C1  UNL     1     -13.509   5.357 -31.671  1.00  0.00     0.692 A 
HETATM    2  N2  UNL     1     -13.213   4.045 -31.506  1.00  0.00    -0.131 N 
ATOM      3  H2  UNL     1     -13.957   3.374 -31.315  1.00  0.00     0.205 HD
HETATM    4  N3  UNL     1     -11.963   3.635 -31.590  1.00  0.00    -0.273 N 
ATOM      5  H3  UNL     1     -11.751   2.645 -31.463  1.00  0.00     0.188 HD
HETATM    6  C2  UNL     1     -10.968   4.490 -31.840  1.00  0.00     0.188 A 
HETATM    7  C5  UNL     1     -11.257   5.824 -32.010  1.00  0.00     0.154 A 
HETATM    8  N8  UNL     1     -12.529   6.244 -31.924  1.00  0.00    -0.173 N 
ATOM      9  H8  UNL     1     -12.752   7.232 -32.049  1.00  0.00     0.186 HD
ENDROOT
BRANCH   6  10
HETATM   10  S1  UNL     1      -9.331   3.884 -31.940  1.00  0.00     0.197 S 
HETATM   11  O1  UNL     1      -9.302   2.483 -32.439  1.00  0.00    -0.221 OA
HETATM   12  O2  UNL     1      -8.562   4.787 -32.862  1.00  0.00    -0.221 OA
BRANCH  10  13
HETATM   13  C3  UNL     1      -8.627   4.002 -30.309  1.00  0.00     0.165 C 
BRANCH  13  14
HETATM   14  C4  UNL     1      -9.557   4.842 -29.440  1.00  0.00     0.147 C 
BRANCH  14  15
HETATM   15  N4  UNL     1     -10.393   3.964 -28.642  1.00  0.00    -0.126 NA
BRANCH  15  16
HETATM   16  N5  UNL     1     -11.707   4.368 -28.595  1.00  0.00    -0.039 NA
BRANCH  16  17
HETATM   17  N6  UNL     1     -11.802   5.447 -27.711  1.00  0.00    -0.332 N 
ATOM     18  H62 UNL     1     -11.674   5.390 -26.701  1.00  0.00     0.173 HD
ATOM     19  H61 UNL     1     -12.018   6.285 -28.251  1.00  0.00     0.173 HD
ENDBRANCH  16  17
ENDBRANCH  15  16
ENDBRANCH  14  15
ENDBRANCH  13  14
ENDBRANCH  10  13
ENDBRANCH   6  10
BRANCH   7  20
HETATM   20  N7  UNL     1     -10.288   6.660 -32.253  1.00  0.00    -0.383 N 
ATOM     21  H72 UNL     1      -9.353   6.327 -32.488  1.00  0.00     0.157 HD
ATOM     22  H71 UNL     1     -10.471   7.662 -32.206  1.00  0.00     0.157 HD
ENDBRANCH   7  20
BRANCH   1  23
HETATM   23  N1  UNL     1     -14.727   5.775 -31.592  1.00  0.00    -0.233 N 
ATOM     24  H12 UNL     1     -15.031   6.257 -30.745  1.00  0.00     0.174 HD
ATOM     25  H11 UNL     1     -15.381   5.630 -32.360  1.00  0.00     0.174 HD
ENDBRANCH   1  23
TORSDOF 8
ENDMDL
