MODEL 1
REMARK VINA RESULT: -5.759275811      0.000      0.000
REMARK  7 active torsions:
REMARK  status: ('A' for Active; 'I' for Inactive)
REMARK    1  A    between atoms: N1_1  and  C1_5 
REMARK    2  A    between atoms: C1_5  and  C2_6 
REMARK    3  A    between atoms: C2_6  and  C3_7 
REMARK    4  A    between atoms: C3_7  and  N2_8 
REMARK    5  A    between atoms: N2_8  and  C4_11 
REMARK    6  A    between atoms: C4_11  and  C5_12 
REMARK    7  A    between atoms: C8_23  and  O1_24 
ROOT
HETATM    1  C5  UNL     1     -14.299   2.511 -32.037  1.00  0.00     0.208 C 
HETATM    2  N3  UNL     1     -14.449   1.264 -31.357  1.00  0.00    -0.342 N 
ATOM      3  H3  UNL     1     -13.561   1.029 -30.914  1.00  0.00     0.164 HD
HETATM    4  C6  UNL     1     -15.296   0.327 -31.099  1.00  0.00     0.192 C 
HETATM    5  N4  UNL     1     -14.835  -0.755 -30.304  1.00  0.00    -0.063 NA
HETATM    6  N5  UNL     1     -16.675   0.220 -31.515  1.00  0.00    -0.305 N 
ATOM      7  H5  UNL     1     -17.290  -0.227 -30.834  1.00  0.00     0.171 HD
HETATM    8  C7  UNL     1     -17.272   0.602 -32.626  1.00  0.00     0.193 C 
HETATM    9  N6  UNL     1     -18.649   0.327 -32.676  1.00  0.00    -0.063 NA
HETATM   10  N7  UNL     1     -16.774   1.253 -33.810  1.00  0.00    -0.322 N 
ATOM     11  H7  UNL     1     -17.451   1.369 -34.564  1.00  0.00     0.166 HD
HETATM   12  C8  UNL     1     -15.424   1.774 -34.084  1.00  0.00     0.326 C 
HETATM   13  N8  UNL     1     -15.076   2.773 -33.167  1.00  0.00    -0.358 N 
ATOM     14  H8  UNL     1     -15.402   3.727 -33.330  1.00  0.00     0.159 HD
ENDROOT
BRANCH   1  15
HETATM   15  C4  UNL     1     -12.837   2.730 -32.330  1.00  0.00     0.278 C 
BRANCH  15  16
HETATM   16  N2  UNL     1     -12.065   3.018 -31.172  1.00  0.00    -0.071 N 
ATOM     17  H22 UNL     1     -11.104   2.699 -31.288  1.00  0.00     0.277 HD
ATOM     18  H21 UNL     1     -12.346   2.424 -30.392  1.00  0.00     0.277 HD
BRANCH  16  19
HETATM   19  C3  UNL     1     -12.103   4.401 -30.800  1.00  0.00     0.234 C 
BRANCH  19  20
HETATM   20  C2  UNL     1     -10.685   4.982 -30.783  1.00  0.00     0.055 C 
BRANCH  20  21
HETATM   21  C1  UNL     1     -10.613   6.128 -31.791  1.00  0.00     0.231 C 
BRANCH  21  22
HETATM   22  N1  UNL     1     -11.940   6.416 -32.234  1.00  0.00    -0.079 N 
ATOM     23  H13 UNL     1     -12.148   6.009 -33.146  1.00  0.00     0.274 HD
ATOM     24  H12 UNL     1     -12.650   5.919 -31.696  1.00  0.00     0.274 HD
ATOM     25  H11 UNL     1     -12.068   7.428 -32.215  1.00  0.00     0.274 HD
ENDBRANCH  21  22
ENDBRANCH  20  21
ENDBRANCH  19  20
ENDBRANCH  16  19
ENDBRANCH  15  16
ENDBRANCH   1  15
BRANCH  12  26
HETATM   26  O1  UNL     1     -14.505   0.749 -34.108  1.00  0.00    -0.360 OA
ATOM     27  H1  UNL     1     -13.722   0.991 -33.626  1.00  0.00     0.214 HD
ENDBRANCH  12  26
TORSDOF 7
ENDMDL
MODEL 2
REMARK VINA RESULT: -5.031991098      3.890      5.506
REMARK  7 active torsions:
REMARK  status: ('A' for Active; 'I' for Inactive)
REMARK    1  A    between atoms: N1_1  and  C1_5 
REMARK    2  A    between atoms: C1_5  and  C2_6 
REMARK    3  A    between atoms: C2_6  and  C3_7 
REMARK    4  A    between atoms: C3_7  and  N2_8 
REMARK    5  A    between atoms: N2_8  and  C4_11 
REMARK    6  A    between atoms: C4_11  and  C5_12 
REMARK    7  A    between atoms: C8_23  and  O1_24 
ROOT
HETATM    1  C5  UNL     1     -10.186   5.073 -30.180  1.00  0.00     0.208 C 
HETATM    2  N3  UNL     1     -11.045   4.001 -30.573  1.00  0.00    -0.342 N 
ATOM      3  H3  UNL     1     -10.535   3.124 -30.471  1.00  0.00     0.164 HD
HETATM    4  C6  UNL     1     -12.229   3.737 -31.009  1.00  0.00     0.192 C 
HETATM    5  N4  UNL     1     -12.541   2.370 -31.235  1.00  0.00    -0.063 NA
HETATM    6  N5  UNL     1     -13.305   4.654 -31.308  1.00  0.00    -0.305 N 
ATOM      7  H5  UNL     1     -14.238   4.292 -31.111  1.00  0.00     0.171 HD
HETATM    8  C7  UNL     1     -13.282   5.879 -31.792  1.00  0.00     0.193 C 
HETATM    9  N6  UNL     1     -14.547   6.471 -31.951  1.00  0.00    -0.063 NA
HETATM   10  N7  UNL     1     -12.195   6.734 -32.194  1.00  0.00    -0.322 N 
ATOM     11  H7  UNL     1     -12.469   7.625 -32.610  1.00  0.00     0.166 HD
HETATM   12  C8  UNL     1     -10.744   6.503 -32.088  1.00  0.00     0.326 C 
HETATM   13  N8  UNL     1     -10.359   6.334 -30.753  1.00  0.00    -0.358 N 
ATOM     14  H8  UNL     1     -10.199   7.162 -30.178  1.00  0.00     0.159 HD
ENDROOT
BRANCH   1  15
HETATM   15  C4  UNL     1      -8.755   4.618 -30.307  1.00  0.00     0.278 C 
BRANCH  15  16
HETATM   16  N2  UNL     1      -8.587   3.520 -31.193  1.00  0.00    -0.071 N 
ATOM     17  H22 UNL     1      -9.478   3.053 -31.366  1.00  0.00     0.277 HD
ATOM     18  H21 UNL     1      -8.085   2.758 -30.737  1.00  0.00     0.277 HD
BRANCH  16  19
HETATM   19  C3  UNL     1      -7.954   3.883 -32.426  1.00  0.00     0.234 C 
BRANCH  19  20
HETATM   20  C2  UNL     1      -8.429   2.962 -33.554  1.00  0.00     0.055 C 
BRANCH  20  21
HETATM   21  C1  UNL     1      -9.392   1.928 -32.971  1.00  0.00     0.231 C 
BRANCH  21  22
HETATM   22  N1  UNL     1     -10.604   1.973 -33.727  1.00  0.00    -0.079 N 
ATOM     23  H13 UNL     1     -11.435   2.006 -33.137  1.00  0.00     0.274 HD
ATOM     24  H12 UNL     1     -10.737   2.865 -34.203  1.00  0.00     0.274 HD
ATOM     25  H11 UNL     1     -10.608   1.180 -34.368  1.00  0.00     0.274 HD
ENDBRANCH  21  22
ENDBRANCH  20  21
ENDBRANCH  19  20
ENDBRANCH  16  19
ENDBRANCH  15  16
ENDBRANCH   1  15
BRANCH  12  26
HETATM   26  O1  UNL     1     -10.365   5.439 -32.876  1.00  0.00    -0.360 OA
ATOM     27  H1  UNL     1      -9.421   5.420 -32.980  1.00  0.00     0.214 HD
ENDBRANCH  12  26
TORSDOF 7
ENDMDL
MODEL 3
REMARK VINA RESULT: -4.855709144      2.200      6.580
REMARK  7 active torsions:
REMARK  status: ('A' for Active; 'I' for Inactive)
REMARK    1  A    between atoms: N1_1  and  C1_5 
REMARK    2  A    between atoms: C1_5  and  C2_6 
REMARK    3  A    between atoms: C2_6  and  C3_7 
REMARK    4  A    between atoms: C3_7  and  N2_8 
REMARK    5  A    between atoms: N2_8  and  C4_11 
REMARK    6  A    between atoms: C4_11  and  C5_12 
REMARK    7  A    between atoms: C8_23  and  O1_24 
ROOT
HETATM    1  C5  UNL     1     -13.043   3.077 -32.274  1.00  0.00     0.208 C 
HETATM    2  N3  UNL     1     -11.779   2.466 -32.535  1.00  0.00    -0.342 N 
ATOM      3  H3  UNL     1     -11.923   1.464 -32.655  1.00  0.00     0.164 HD
HETATM    4  C6  UNL     1     -10.523   2.719 -32.676  1.00  0.00     0.192 C 
HETATM    5  N4  UNL     1      -9.672   1.615 -32.950  1.00  0.00    -0.063 NA
HETATM    6  N5  UNL     1      -9.844   3.991 -32.591  1.00  0.00    -0.305 N 
ATOM      7  H5  UNL     1      -9.047   4.090 -33.220  1.00  0.00     0.171 HD
HETATM    8  C7  UNL     1     -10.083   5.045 -31.837  1.00  0.00     0.193 C 
HETATM    9  N6  UNL     1      -9.197   6.119 -32.032  1.00  0.00    -0.063 NA
HETATM   10  N7  UNL     1     -11.087   5.307 -30.839  1.00  0.00    -0.322 N 
ATOM     11  H7  UNL     1     -10.996   6.195 -30.346  1.00  0.00     0.166 HD
HETATM   12  C8  UNL     1     -12.229   4.470 -30.431  1.00  0.00     0.326 C 
HETATM   13  N8  UNL     1     -13.095   4.243 -31.507  1.00  0.00    -0.358 N 
ATOM     14  H8  UNL     1     -13.789   4.955 -31.739  1.00  0.00     0.159 HD
ENDROOT
BRANCH   1  15
HETATM   15  C4  UNL     1     -13.981   2.033 -31.725  1.00  0.00     0.278 C 
BRANCH  15  16
HETATM   16  N2  UNL     1     -14.324   1.029 -32.670  1.00  0.00    -0.071 N 
ATOM     17  H22 UNL     1     -13.916   0.131 -32.410  1.00  0.00     0.277 HD
ATOM     18  H21 UNL     1     -13.842   1.183 -33.555  1.00  0.00     0.277 HD
BRANCH  16  19
HETATM   19  C3  UNL     1     -15.737   0.907 -32.874  1.00  0.00     0.234 C 
BRANCH  19  20
HETATM   20  C2  UNL     1     -16.348  -0.008 -31.806  1.00  0.00     0.055 C 
BRANCH  20  21
HETATM   21  C1  UNL     1     -17.788  -0.332 -32.203  1.00  0.00     0.231 C 
BRANCH  21  22
HETATM   22  N1  UNL     1     -18.400   0.870 -32.673  1.00  0.00    -0.079 N 
ATOM     23  H13 UNL     1     -19.375   0.954 -32.385  1.00  0.00     0.274 HD
ATOM     24  H12 UNL     1     -18.045   1.702 -32.203  1.00  0.00     0.274 HD
ATOM     25  H11 UNL     1     -18.284   0.910 -33.686  1.00  0.00     0.274 HD
ENDBRANCH  21  22
ENDBRANCH  20  21
ENDBRANCH  19  20
ENDBRANCH  16  19
ENDBRANCH  15  16
ENDBRANCH   1  15
BRANCH  12  26
HETATM   26  O1  UNL     1     -11.790   3.296 -29.862  1.00  0.00    -0.360 OA
ATOM     27  H1  UNL     1     -12.476   2.902 -29.335  1.00  0.00     0.214 HD
ENDBRANCH  12  26
TORSDOF 7
ENDMDL
MODEL 4
REMARK VINA RESULT: -4.540374865      2.236      6.488
REMARK  7 active torsions:
REMARK  status: ('A' for Active; 'I' for Inactive)
REMARK    1  A    between atoms: N1_1  and  C1_5 
REMARK    2  A    between atoms: C1_5  and  C2_6 
REMARK    3  A    between atoms: C2_6  and  C3_7 
REMARK    4  A    between atoms: C3_7  and  N2_8 
REMARK    5  A    between atoms: N2_8  and  C4_11 
REMARK    6  A    between atoms: C4_11  and  C5_12 
REMARK    7  A    between atoms: C8_23  and  O1_24 
ROOT
HETATM    1  C5  UNL     1     -13.076   3.246 -32.232  1.00  0.00     0.208 C 
HETATM    2  N3  UNL     1     -11.873   2.535 -32.527  1.00  0.00    -0.342 N 
ATOM      3  H3  UNL     1     -12.106   1.554 -32.678  1.00  0.00     0.164 HD
HETATM    4  C6  UNL     1     -10.600   2.681 -32.671  1.00  0.00     0.192 C 
HETATM    5  N4  UNL     1      -9.852   1.516 -32.990  1.00  0.00    -0.063 NA
HETATM    6  N5  UNL     1      -9.811   3.884 -32.549  1.00  0.00    -0.305 N 
ATOM      7  H5  UNL     1      -9.013   3.934 -33.182  1.00  0.00     0.171 HD
HETATM    8  C7  UNL     1      -9.950   4.928 -31.758  1.00  0.00     0.193 C 
HETATM    9  N6  UNL     1      -8.974   5.926 -31.925  1.00  0.00    -0.063 NA
HETATM   10  N7  UNL     1     -10.922   5.243 -30.742  1.00  0.00    -0.322 N 
ATOM     11  H7  UNL     1     -10.749   6.103 -30.221  1.00  0.00     0.166 HD
HETATM   12  C8  UNL     1     -12.130   4.497 -30.351  1.00  0.00     0.326 C 
HETATM   13  N8  UNL     1     -13.020   4.385 -31.426  1.00  0.00    -0.358 N 
ATOM     14  H8  UNL     1     -13.649   5.162 -31.628  1.00  0.00     0.159 HD
ENDROOT
BRANCH   1  15
HETATM   15  C4  UNL     1     -14.100   2.270 -31.710  1.00  0.00     0.278 C 
BRANCH  15  16
HETATM   16  N2  UNL     1     -15.238   2.142 -32.550  1.00  0.00    -0.071 N 
ATOM     17  H22 UNL     1     -15.300   2.925 -33.200  1.00  0.00     0.277 HD
ATOM     18  H21 UNL     1     -16.098   2.293 -32.022  1.00  0.00     0.277 HD
BRANCH  16  19
HETATM   19  C3  UNL     1     -15.283   0.893 -33.250  1.00  0.00     0.234 C 
BRANCH  19  20
HETATM   20  C2  UNL     1     -15.304  -0.271 -32.254  1.00  0.00     0.055 C 
BRANCH  20  21
HETATM   21  C1  UNL     1     -16.653  -0.277 -31.535  1.00  0.00     0.231 C 
BRANCH  21  22
HETATM   22  N1  UNL     1     -16.409  -0.394 -30.133  1.00  0.00    -0.079 N 
ATOM     23  H13 UNL     1     -15.415  -0.443 -29.908  1.00  0.00     0.274 HD
ATOM     24  H12 UNL     1     -16.624   0.463 -29.623  1.00  0.00     0.274 HD
ATOM     25  H11 UNL     1     -16.931  -1.200 -29.786  1.00  0.00     0.274 HD
ENDBRANCH  21  22
ENDBRANCH  20  21
ENDBRANCH  19  20
ENDBRANCH  16  19
ENDBRANCH  15  16
ENDBRANCH   1  15
BRANCH  12  26
HETATM   26  O1  UNL     1     -11.793   3.270 -29.827  1.00  0.00    -0.360 OA
ATOM     27  H1  UNL     1     -10.894   3.050 -30.042  1.00  0.00     0.214 HD
ENDBRANCH  12  26
TORSDOF 7
ENDMDL
MODEL 5
REMARK VINA RESULT: -4.517708211      2.649      4.643
REMARK  7 active torsions:
REMARK  status: ('A' for Active; 'I' for Inactive)
REMARK    1  A    between atoms: N1_1  and  C1_5 
REMARK    2  A    between atoms: C1_5  and  C2_6 
REMARK    3  A    between atoms: C2_6  and  C3_7 
REMARK    4  A    between atoms: C3_7  and  N2_8 
REMARK    5  A    between atoms: N2_8  and  C4_11 
REMARK    6  A    between atoms: C4_11  and  C5_12 
REMARK    7  A    between atoms: C8_23  and  O1_24 
ROOT
HETATM    1  C5  UNL     1     -11.477   5.324 -31.913  1.00  0.00     0.208 C 
HETATM    2  N3  UNL     1     -12.810   5.795 -31.706  1.00  0.00    -0.342 N 
ATOM      3  H3  UNL     1     -12.765   6.745 -31.340  1.00  0.00     0.164 HD
HETATM    4  C6  UNL     1     -14.050   5.456 -31.814  1.00  0.00     0.192 C 
HETATM    5  N4  UNL     1     -15.016   6.421 -31.424  1.00  0.00    -0.063 NA
HETATM    6  N5  UNL     1     -14.606   4.209 -32.284  1.00  0.00    -0.305 N 
ATOM      7  H5  UNL     1     -15.486   4.300 -32.791  1.00  0.00     0.171 HD
HETATM    8  C7  UNL     1     -14.166   2.972 -32.166  1.00  0.00     0.193 C 
HETATM    9  N6  UNL     1     -14.987   1.998 -32.761  1.00  0.00    -0.063 NA
HETATM   10  N7  UNL     1     -12.993   2.424 -31.537  1.00  0.00    -0.322 N 
ATOM     11  H7  UNL     1     -12.933   1.405 -31.531  1.00  0.00     0.166 HD
HETATM   12  C8  UNL     1     -11.866   3.128 -30.901  1.00  0.00     0.326 C 
HETATM   13  N8  UNL     1     -11.210   3.957 -31.819  1.00  0.00    -0.358 N 
ATOM     14  H8  UNL     1     -10.513   3.548 -32.441  1.00  0.00     0.159 HD
ENDROOT
BRANCH   1  15
HETATM   15  C4  UNL     1     -10.543   6.114 -31.033  1.00  0.00     0.278 C 
BRANCH  15  16
HETATM   16  N2  UNL     1      -9.182   6.028 -31.431  1.00  0.00    -0.071 N 
ATOM     17  H22 UNL     1      -8.648   6.819 -31.072  1.00  0.00     0.277 HD
ATOM     18  H21 UNL     1      -9.085   6.201 -32.432  1.00  0.00     0.277 HD
BRANCH  16  19
HETATM   19  C3  UNL     1      -8.566   4.787 -31.066  1.00  0.00     0.234 C 
BRANCH  19  20
HETATM   20  C2  UNL     1      -7.677   4.283 -32.207  1.00  0.00     0.055 C 
BRANCH  20  21
HETATM   21  C1  UNL     1      -8.385   3.120 -32.902  1.00  0.00     0.231 C 
BRANCH  21  22
HETATM   22  N1  UNL     1      -8.826   3.570 -34.184  1.00  0.00    -0.079 N 
ATOM     23  H13 UNL     1      -9.470   2.918 -34.630  1.00  0.00     0.274 HD
ATOM     24  H12 UNL     1      -9.457   4.369 -34.124  1.00  0.00     0.274 HD
ATOM     25  H11 UNL     1      -8.002   3.762 -34.754  1.00  0.00     0.274 HD
ENDBRANCH  21  22
ENDBRANCH  20  21
ENDBRANCH  19  20
ENDBRANCH  16  19
ENDBRANCH  15  16
ENDBRANCH   1  15
BRANCH  12  26
HETATM   26  O1  UNL     1     -12.293   3.821 -29.790  1.00  0.00    -0.360 OA
ATOM     27  H1  UNL     1     -12.384   4.746 -29.987  1.00  0.00     0.214 HD
ENDBRANCH  12  26
TORSDOF 7
ENDMDL
