MODEL 1
REMARK VINA RESULT: -3.646155032      0.000      0.000
REMARK  6 active torsions:
REMARK  status: ('A' for Active; 'I' for Inactive)
REMARK    1  A    between atoms: N2_5  and  C4_6 
REMARK    2  A    between atoms: C7_9  and  N3_10 
REMARK    3  A    between atoms: N3_10  and  C8_12 
REMARK    4  A    between atoms: C10_18  and  N6_19 
REMARK    5  A    between atoms: N6_19  and  C11_21 
REMARK    6  A    between atoms: C14_24  and  C15_25 
ROOT
HETATM    1  C8  UNL     1      25.505 -51.028 -41.190  1.00  0.00     0.698 A 
HETATM    2  N4  UNL     1      25.279 -50.989 -42.517  1.00  0.00    -0.187 N 
ATOM      3  H4  UNL     1      25.014 -50.104 -42.949  1.00  0.00     0.185 HD
HETATM    4  C9  UNL     1      25.395 -52.084 -43.288  1.00  0.00     0.215 A 
HETATM    5  N5  UNL     1      25.746 -53.243 -42.713  1.00  0.00    -0.187 N 
ATOM      6  H5  UNL     1      25.837 -54.079 -43.291  1.00  0.00     0.185 HD
HETATM    7  C10 UNL     1      25.984 -53.330 -41.375  1.00  0.00     0.698 A 
HETATM    8  N8  UNL     1      25.854 -52.202 -40.640  1.00  0.00    -0.022 N 
ATOM      9  H8  UNL     1      26.028 -52.244 -39.636  1.00  0.00     0.203 HD
ENDROOT
BRANCH   7  10
HETATM   10  N6  UNL     1      26.319 -54.449 -40.841  1.00  0.00    -0.191 N 
ATOM     11  H6  UNL     1      26.220 -55.321 -41.361  1.00  0.00     0.184 HD
BRANCH  10  12
HETATM   12  C11 UNL     1      26.824 -54.453 -39.526  1.00  0.00     0.049 A 
HETATM   13  C12 UNL     1      28.126 -54.111 -39.236  1.00  0.00     0.031 A 
HETATM   14  C13 UNL     1      28.612 -54.119 -37.939  1.00  0.00     0.016 A 
HETATM   15  C14 UNL     1      27.804 -54.473 -36.883  1.00  0.00    -0.009 A 
HETATM   16  C24 UNL     1      26.501 -54.818 -37.157  1.00  0.00     0.016 A 
HETATM   17  C25 UNL     1      26.037 -54.803 -38.456  1.00  0.00     0.031 A 
BRANCH  15  18
HETATM   18  C15 UNL     1      28.336 -54.475 -35.523  1.00  0.00     0.043 A 
HETATM   19  C16 UNL     1      29.451 -55.186 -35.141  1.00  0.00     0.031 A 
HETATM   20  C17 UNL     1      29.830 -55.081 -33.797  1.00  0.00     0.016 A 
HETATM   21  C18 UNL     1      29.131 -54.313 -32.901  1.00  0.00    -0.003 A 
HETATM   22  C19 UNL     1      29.478 -54.188 -31.569  1.00  0.00     0.056 A 
HETATM   23  C23 UNL     1      28.020 -53.620 -33.334  1.00  0.00     0.082 A 
HETATM   24  C20 UNL     1      28.707 -53.383 -30.725  1.00  0.00     0.120 A 
HETATM   25  F1  UNL     1      29.030 -53.251 -29.429  1.00  0.00    -0.206 F 
HETATM   26  C21 UNL     1      27.603 -52.706 -31.193  1.00  0.00     0.086 A 
HETATM   27  C22 UNL     1      27.257 -52.825 -32.505  1.00  0.00     0.146 A 
HETATM   28  F2  UNL     1      26.168 -52.175 -33.027  1.00  0.00    -0.204 F 
HETATM   29  N7  UNL     1      27.666 -53.724 -34.606  1.00  0.00    -0.352 N 
ATOM     30  H7  UNL     1      26.843 -53.209 -34.918  1.00  0.00     0.166 HD
ENDBRANCH  15  18
ENDBRANCH  10  12
ENDBRANCH   7  10
BRANCH   1  31
HETATM   31  N3  UNL     1      25.394 -49.983 -40.457  1.00  0.00    -0.191 N 
ATOM     32  H3  UNL     1      25.035 -49.130 -40.886  1.00  0.00     0.184 HD
BRANCH  31  33
HETATM   33  C7  UNL     1      25.740 -49.946 -39.086  1.00  0.00     0.049 A 
HETATM   34  C6  UNL     1      25.273 -48.952 -38.264  1.00  0.00     0.032 A 
HETATM   35  C5  UNL     1      25.604 -48.907 -36.927  1.00  0.00     0.031 A 
HETATM   36  C4  UNL     1      26.436 -49.890 -36.378  1.00  0.00     0.030 A 
HETATM   37  C27 UNL     1      26.900 -50.880 -37.200  1.00  0.00     0.031 A 
HETATM   38  C26 UNL     1      26.551 -50.909 -38.563  1.00  0.00     0.032 A 
BRANCH  36  39
HETATM   39  N2  UNL     1      26.786 -49.876 -35.011  1.00  0.00    -0.378 N 
HETATM   40  C3  UNL     1      25.941 -49.436 -33.925  1.00  0.00     0.153 C 
HETATM   41  C2  UNL     1      26.452 -48.060 -33.527  1.00  0.00     0.291 C 
HETATM   42  N1  UNL     1      27.896 -48.153 -33.427  1.00  0.00     0.087 N 
HETATM   43  C1  UNL     1      28.533 -47.378 -34.447  1.00  0.00     0.310 C 
HETATM   44  C29 UNL     1      28.388 -49.500 -33.311  1.00  0.00     0.291 C 
HETATM   45  C28 UNL     1      28.126 -50.328 -34.570  1.00  0.00     0.153 C 
ENDBRANCH  36  39
ENDBRANCH  31  33
ENDBRANCH   1  31
TORSDOF 6
ENDMDL
MODEL 2
REMARK VINA RESULT: -3.255389011      1.348      1.978
REMARK  6 active torsions:
REMARK  status: ('A' for Active; 'I' for Inactive)
REMARK    1  A    between atoms: N2_5  and  C4_6 
REMARK    2  A    between atoms: C7_9  and  N3_10 
REMARK    3  A    between atoms: N3_10  and  C8_12 
REMARK    4  A    between atoms: C10_18  and  N6_19 
REMARK    5  A    between atoms: N6_19  and  C11_21 
REMARK    6  A    between atoms: C14_24  and  C15_25 
ROOT
HETATM    1  C8  UNL     1      25.437 -51.290 -41.318  1.00  0.00     0.698 A 
HETATM    2  N4  UNL     1      25.395 -51.447 -42.654  1.00  0.00    -0.187 N 
ATOM      3  H4  UNL     1      25.136 -50.653 -43.239  1.00  0.00     0.185 HD
HETATM    4  C9  UNL     1      25.685 -52.622 -43.239  1.00  0.00     0.215 A 
HETATM    5  N5  UNL     1      26.027 -53.661 -42.463  1.00  0.00    -0.187 N 
ATOM      6  H5  UNL     1      26.249 -54.556 -42.899  1.00  0.00     0.185 HD
HETATM    7  C10 UNL     1      26.083 -53.548 -41.107  1.00  0.00     0.698 A 
HETATM    8  N8  UNL     1      25.781 -52.346 -40.565  1.00  0.00    -0.022 N 
ATOM      9  H8  UNL     1      25.817 -52.239 -39.551  1.00  0.00     0.203 HD
ENDROOT
BRANCH   7  10
HETATM   10  N6  UNL     1      26.411 -54.554 -40.380  1.00  0.00    -0.191 N 
ATOM     11  H6  UNL     1      26.460 -55.490 -40.782  1.00  0.00     0.184 HD
BRANCH  10  12
HETATM   12  C11 UNL     1      26.702 -54.345 -39.017  1.00  0.00     0.049 A 
HETATM   13  C12 UNL     1      27.946 -53.945 -38.582  1.00  0.00     0.031 A 
HETATM   14  C13 UNL     1      28.220 -53.743 -37.240  1.00  0.00     0.016 A 
HETATM   15  C14 UNL     1      27.251 -53.935 -36.283  1.00  0.00    -0.009 A 
HETATM   16  C24 UNL     1      26.003 -54.335 -36.702  1.00  0.00     0.016 A 
HETATM   17  C25 UNL     1      25.751 -54.530 -38.044  1.00  0.00     0.031 A 
BRANCH  15  18
HETATM   18  C15 UNL     1      27.560 -53.716 -34.872  1.00  0.00     0.043 A 
HETATM   19  C16 UNL     1      26.614 -53.399 -33.924  1.00  0.00     0.031 A 
HETATM   20  C17 UNL     1      27.076 -53.221 -32.615  1.00  0.00     0.016 A 
HETATM   21  C18 UNL     1      28.401 -53.354 -32.286  1.00  0.00    -0.003 A 
HETATM   22  C19 UNL     1      28.890 -53.184 -31.004  1.00  0.00     0.056 A 
HETATM   23  C23 UNL     1      29.310 -53.672 -33.272  1.00  0.00     0.082 A 
HETATM   24  C20 UNL     1      30.257 -53.337 -30.757  1.00  0.00     0.120 A 
HETATM   25  F1  UNL     1      30.748 -53.177 -29.519  1.00  0.00    -0.206 F 
HETATM   26  C21 UNL     1      31.135 -53.656 -31.770  1.00  0.00     0.086 A 
HETATM   27  C22 UNL     1      30.660 -53.824 -33.035  1.00  0.00     0.146 A 
HETATM   28  F2  UNL     1      31.486 -54.141 -34.082  1.00  0.00    -0.204 F 
HETATM   29  N7  UNL     1      28.866 -53.839 -34.510  1.00  0.00    -0.352 N 
ATOM     30  H7  UNL     1      29.545 -54.073 -35.234  1.00  0.00     0.166 HD
ENDBRANCH  15  18
ENDBRANCH  10  12
ENDBRANCH   7  10
BRANCH   1  31
HETATM   31  N3  UNL     1      25.160 -50.168 -40.763  1.00  0.00    -0.191 N 
ATOM     32  H3  UNL     1      24.758 -49.431 -41.342  1.00  0.00     0.184 HD
BRANCH  31  33
HETATM   33  C7  UNL     1      25.379 -49.895 -39.393  1.00  0.00     0.049 A 
HETATM   34  C6  UNL     1      25.545 -50.912 -38.485  1.00  0.00     0.032 A 
HETATM   35  C5  UNL     1      25.760 -50.656 -37.149  1.00  0.00     0.031 A 
HETATM   36  C4  UNL     1      25.814 -49.336 -36.687  1.00  0.00     0.030 A 
HETATM   37  C27 UNL     1      25.650 -48.325 -37.594  1.00  0.00     0.031 A 
HETATM   38  C26 UNL     1      25.431 -48.604 -38.955  1.00  0.00     0.032 A 
BRANCH  36  39
HETATM   39  N2  UNL     1      26.042 -49.043 -35.326  1.00  0.00    -0.378 N 
HETATM   40  C3  UNL     1      26.509 -47.781 -34.798  1.00  0.00     0.153 C 
HETATM   41  C2  UNL     1      27.976 -47.988 -34.453  1.00  0.00     0.291 C 
HETATM   42  N1  UNL     1      28.072 -49.240 -33.729  1.00  0.00     0.087 N 
HETATM   43  C1  UNL     1      28.785 -50.221 -34.489  1.00  0.00     0.310 C 
HETATM   44  C29 UNL     1      26.821 -49.702 -33.191  1.00  0.00     0.291 C 
HETATM   45  C28 UNL     1      25.815 -50.071 -34.283  1.00  0.00     0.153 C 
ENDBRANCH  36  39
ENDBRANCH  31  33
ENDBRANCH   1  31
TORSDOF 6
ENDMDL
MODEL 3
REMARK VINA RESULT: -3.080109698      2.870      7.539
REMARK  6 active torsions:
REMARK  status: ('A' for Active; 'I' for Inactive)
REMARK    1  A    between atoms: N2_5  and  C4_6 
REMARK    2  A    between atoms: C7_9  and  N3_10 
REMARK    3  A    between atoms: N3_10  and  C8_12 
REMARK    4  A    between atoms: C10_18  and  N6_19 
REMARK    5  A    between atoms: N6_19  and  C11_21 
REMARK    6  A    between atoms: C14_24  and  C15_25 
ROOT
HETATM    1  C8  UNL     1      27.054 -48.731 -34.237  1.00  0.00     0.698 A 
HETATM    2  N4  UNL     1      27.720 -48.106 -33.249  1.00  0.00    -0.187 N 
ATOM      3  H4  UNL     1      27.829 -47.092 -33.288  1.00  0.00     0.185 HD
HETATM    4  C9  UNL     1      28.246 -48.780 -32.212  1.00  0.00     0.215 A 
HETATM    5  N5  UNL     1      28.099 -50.112 -32.167  1.00  0.00    -0.187 N 
ATOM      6  H5  UNL     1      28.494 -50.631 -31.383  1.00  0.00     0.185 HD
HETATM    7  C10 UNL     1      27.432 -50.786 -33.145  1.00  0.00     0.698 A 
HETATM    8  N8  UNL     1      26.921 -50.065 -34.169  1.00  0.00    -0.022 N 
ATOM      9  H8  UNL     1      26.418 -50.550 -34.911  1.00  0.00     0.203 HD
ENDROOT
BRANCH   7  10
HETATM   10  N6  UNL     1      27.301 -52.062 -33.086  1.00  0.00    -0.191 N 
ATOM     11  H6  UNL     1      27.450 -52.558 -32.208  1.00  0.00     0.184 HD
BRANCH  10  12
HETATM   12  C11 UNL     1      26.949 -52.766 -34.255  1.00  0.00     0.049 A 
HETATM   13  C12 UNL     1      27.891 -53.248 -35.137  1.00  0.00     0.031 A 
HETATM   14  C13 UNL     1      27.533 -53.939 -36.282  1.00  0.00     0.016 A 
HETATM   15  C14 UNL     1      26.212 -54.172 -36.584  1.00  0.00    -0.009 A 
HETATM   16  C24 UNL     1      25.259 -53.697 -35.713  1.00  0.00     0.016 A 
HETATM   17  C25 UNL     1      25.637 -53.011 -34.577  1.00  0.00     0.031 A 
BRANCH  15  18
HETATM   18  C15 UNL     1      25.855 -54.904 -37.797  1.00  0.00     0.043 A 
HETATM   19  C16 UNL     1      24.625 -55.487 -38.003  1.00  0.00     0.031 A 
HETATM   20  C17 UNL     1      24.445 -56.152 -39.221  1.00  0.00     0.016 A 
HETATM   21  C18 UNL     1      25.436 -56.224 -40.166  1.00  0.00    -0.003 A 
HETATM   22  C19 UNL     1      25.290 -56.873 -41.377  1.00  0.00     0.056 A 
HETATM   23  C23 UNL     1      26.651 -55.624 -39.912  1.00  0.00     0.082 A 
HETATM   24  C20 UNL     1      26.355 -56.898 -42.283  1.00  0.00     0.120 A 
HETATM   25  F1  UNL     1      26.230 -57.523 -43.464  1.00  0.00    -0.206 F 
HETATM   26  C21 UNL     1      27.555 -56.286 -41.993  1.00  0.00     0.086 A 
HETATM   27  C22 UNL     1      27.704 -55.646 -40.801  1.00  0.00     0.146 A 
HETATM   28  F2  UNL     1      28.875 -55.019 -40.459  1.00  0.00    -0.204 F 
HETATM   29  N7  UNL     1      26.816 -54.996 -38.757  1.00  0.00    -0.352 N 
ATOM     30  H7  UNL     1      27.718 -54.555 -38.576  1.00  0.00     0.166 HD
ENDBRANCH  15  18
ENDBRANCH  10  12
ENDBRANCH   7  10
BRANCH   1  31
HETATM   31  N3  UNL     1      26.554 -48.086 -35.226  1.00  0.00    -0.191 N 
ATOM     32  H3  UNL     1      26.440 -47.076 -35.133  1.00  0.00     0.184 HD
BRANCH  31  33
HETATM   33  C7  UNL     1      26.151 -48.694 -36.437  1.00  0.00     0.049 A 
HETATM   34  C6  UNL     1      25.747 -47.940 -37.509  1.00  0.00     0.032 A 
HETATM   35  C5  UNL     1      25.354 -48.523 -38.694  1.00  0.00     0.031 A 
HETATM   36  C4  UNL     1      25.360 -49.917 -38.825  1.00  0.00     0.030 A 
HETATM   37  C27 UNL     1      25.765 -50.667 -37.754  1.00  0.00     0.031 A 
HETATM   38  C26 UNL     1      26.163 -50.054 -36.552  1.00  0.00     0.032 A 
BRANCH  36  39
HETATM   39  N2  UNL     1      24.972 -50.544 -40.028  1.00  0.00    -0.378 N 
HETATM   40  C3  UNL     1      24.105 -51.694 -40.141  1.00  0.00     0.153 C 
HETATM   41  C2  UNL     1      25.015 -52.877 -40.436  1.00  0.00     0.291 C 
HETATM   42  N1  UNL     1      25.931 -52.462 -41.481  1.00  0.00     0.087 N 
HETATM   43  C1  UNL     1      27.272 -52.386 -40.989  1.00  0.00     0.310 C 
HETATM   44  C29 UNL     1      25.499 -51.298 -42.208  1.00  0.00     0.291 C 
HETATM   45  C28 UNL     1      25.462 -50.043 -41.334  1.00  0.00     0.153 C 
ENDBRANCH  36  39
ENDBRANCH  31  33
ENDBRANCH   1  31
TORSDOF 6
ENDMDL
MODEL 4
REMARK VINA RESULT: -2.940426708      1.376      2.015
REMARK  6 active torsions:
REMARK  status: ('A' for Active; 'I' for Inactive)
REMARK    1  A    between atoms: N2_5  and  C4_6 
REMARK    2  A    between atoms: C7_9  and  N3_10 
REMARK    3  A    between atoms: N3_10  and  C8_12 
REMARK    4  A    between atoms: C10_18  and  N6_19 
REMARK    5  A    between atoms: N6_19  and  C11_21 
REMARK    6  A    between atoms: C14_24  and  C15_25 
ROOT
HETATM    1  C8  UNL     1      25.381 -51.341 -41.280  1.00  0.00     0.698 A 
HETATM    2  N4  UNL     1      25.402 -51.480 -42.618  1.00  0.00    -0.187 N 
ATOM      3  H4  UNL     1      25.147 -50.685 -43.204  1.00  0.00     0.185 HD
HETATM    4  C9  UNL     1      25.750 -52.639 -43.205  1.00  0.00     0.215 A 
HETATM    5  N5  UNL     1      26.084 -53.679 -42.428  1.00  0.00    -0.187 N 
ATOM      6  H5  UNL     1      26.350 -54.562 -42.865  1.00  0.00     0.185 HD
HETATM    7  C10 UNL     1      26.077 -53.584 -41.070  1.00  0.00     0.698 A 
HETATM    8  N8  UNL     1      25.720 -52.398 -40.525  1.00  0.00    -0.022 N 
ATOM      9  H8  UNL     1      25.708 -52.305 -39.510  1.00  0.00     0.203 HD
ENDROOT
BRANCH   7  10
HETATM   10  N6  UNL     1      26.400 -54.591 -40.342  1.00  0.00    -0.191 N 
ATOM     11  H6  UNL     1      26.437 -55.528 -40.742  1.00  0.00     0.184 HD
BRANCH  10  12
HETATM   12  C11 UNL     1      26.701 -54.381 -38.982  1.00  0.00     0.049 A 
HETATM   13  C12 UNL     1      25.839 -54.746 -37.971  1.00  0.00     0.031 A 
HETATM   14  C13 UNL     1      26.147 -54.535 -36.637  1.00  0.00     0.016 A 
HETATM   15  C14 UNL     1      27.335 -53.948 -36.269  1.00  0.00    -0.009 A 
HETATM   16  C24 UNL     1      28.206 -53.577 -37.267  1.00  0.00     0.016 A 
HETATM   17  C25 UNL     1      27.881 -53.797 -38.590  1.00  0.00     0.031 A 
BRANCH  15  18
HETATM   18  C15 UNL     1      27.639 -53.734 -34.857  1.00  0.00     0.043 A 
HETATM   19  C16 UNL     1      26.685 -53.459 -33.903  1.00  0.00     0.031 A 
HETATM   20  C17 UNL     1      27.143 -53.280 -32.593  1.00  0.00     0.016 A 
HETATM   21  C18 UNL     1      28.472 -53.373 -32.267  1.00  0.00    -0.003 A 
HETATM   22  C19 UNL     1      28.957 -53.201 -30.984  1.00  0.00     0.056 A 
HETATM   23  C23 UNL     1      29.389 -53.650 -33.258  1.00  0.00     0.082 A 
HETATM   24  C20 UNL     1      30.329 -53.313 -30.741  1.00  0.00     0.120 A 
HETATM   25  F1  UNL     1      30.817 -53.150 -29.502  1.00  0.00    -0.206 F 
HETATM   26  C21 UNL     1      31.216 -53.591 -31.759  1.00  0.00     0.086 A 
HETATM   27  C22 UNL     1      30.744 -53.761 -33.024  1.00  0.00     0.146 A 
HETATM   28  F2  UNL     1      31.578 -54.040 -34.076  1.00  0.00    -0.204 F 
HETATM   29  N7  UNL     1      28.949 -53.818 -34.497  1.00  0.00    -0.352 N 
ATOM     30  H7  UNL     1      29.634 -54.022 -35.225  1.00  0.00     0.166 HD
ENDBRANCH  15  18
ENDBRANCH  10  12
ENDBRANCH   7  10
BRANCH   1  31
HETATM   31  N3  UNL     1      25.049 -50.235 -40.723  1.00  0.00    -0.191 N 
ATOM     32  H3  UNL     1      24.587 -49.528 -41.295  1.00  0.00     0.184 HD
BRANCH  31  33
HETATM   33  C7  UNL     1      25.286 -49.940 -39.360  1.00  0.00     0.049 A 
HETATM   34  C6  UNL     1      25.585 -48.664 -38.953  1.00  0.00     0.032 A 
HETATM   35  C5  UNL     1      25.818 -48.367 -37.628  1.00  0.00     0.031 A 
HETATM   36  C4  UNL     1      25.752 -49.377 -36.661  1.00  0.00     0.030 A 
HETATM   37  C27 UNL     1      25.453 -50.648 -37.070  1.00  0.00     0.031 A 
HETATM   38  C26 UNL     1      25.219 -50.933 -38.427  1.00  0.00     0.032 A 
BRANCH  36  39
HETATM   39  N2  UNL     1      25.977 -49.102 -35.295  1.00  0.00    -0.378 N 
HETATM   40  C3  UNL     1      26.397 -47.834 -34.744  1.00  0.00     0.153 C 
HETATM   41  C2  UNL     1      27.873 -47.990 -34.412  1.00  0.00     0.291 C 
HETATM   42  N1  UNL     1      28.024 -49.251 -33.714  1.00  0.00     0.087 N 
HETATM   43  C1  UNL     1      28.769 -50.187 -34.498  1.00  0.00     0.310 C 
HETATM   44  C29 UNL     1      26.795 -49.773 -33.178  1.00  0.00     0.291 C 
HETATM   45  C28 UNL     1      25.797 -50.159 -34.272  1.00  0.00     0.153 C 
ENDBRANCH  36  39
ENDBRANCH  31  33
ENDBRANCH   1  31
TORSDOF 6
ENDMDL
MODEL 5
REMARK VINA RESULT: -2.819674136      0.635      1.378
REMARK  6 active torsions:
REMARK  status: ('A' for Active; 'I' for Inactive)
REMARK    1  A    between atoms: N2_5  and  C4_6 
REMARK    2  A    between atoms: C7_9  and  N3_10 
REMARK    3  A    between atoms: N3_10  and  C8_12 
REMARK    4  A    between atoms: C10_18  and  N6_19 
REMARK    5  A    between atoms: N6_19  and  C11_21 
REMARK    6  A    between atoms: C14_24  and  C15_25 
ROOT
HETATM    1  C8  UNL     1      25.332 -51.164 -41.233  1.00  0.00     0.698 A 
HETATM    2  N4  UNL     1      25.520 -51.232 -42.564  1.00  0.00    -0.187 N 
ATOM      3  H4  UNL     1      25.441 -50.381 -43.121  1.00  0.00     0.185 HD
HETATM    4  C9  UNL     1      25.810 -52.391 -43.180  1.00  0.00     0.215 A 
HETATM    5  N5  UNL     1      25.914 -53.505 -42.441  1.00  0.00    -0.187 N 
ATOM      6  H5  UNL     1      26.134 -54.389 -42.901  1.00  0.00     0.185 HD
HETATM    7  C10 UNL     1      25.732 -53.483 -41.092  1.00  0.00     0.698 A 
HETATM    8  N8  UNL     1      25.441 -52.294 -40.517  1.00  0.00    -0.022 N 
ATOM      9  H8  UNL     1      25.301 -52.255 -39.508  1.00  0.00     0.203 HD
ENDROOT
BRANCH   7  10
HETATM   10  N6  UNL     1      25.834 -54.560 -40.401  1.00  0.00    -0.191 N 
ATOM     11  H6  UNL     1      25.472 -55.443 -40.760  1.00  0.00     0.184 HD
BRANCH  10  12
HETATM   12  C11 UNL     1      26.455 -54.503 -39.137  1.00  0.00     0.049 A 
HETATM   13  C12 UNL     1      25.782 -54.795 -37.971  1.00  0.00     0.031 A 
HETATM   14  C13 UNL     1      26.403 -54.736 -36.735  1.00  0.00     0.016 A 
HETATM   15  C14 UNL     1      27.727 -54.381 -36.625  1.00  0.00    -0.009 A 
HETATM   16  C24 UNL     1      28.413 -54.086 -37.780  1.00  0.00     0.016 A 
HETATM   17  C25 UNL     1      27.775 -54.152 -39.002  1.00  0.00     0.031 A 
BRANCH  15  18
HETATM   18  C15 UNL     1      28.363 -54.325 -35.311  1.00  0.00     0.043 A 
HETATM   19  C16 UNL     1      29.587 -54.890 -35.031  1.00  0.00     0.031 A 
HETATM   20  C17 UNL     1      30.057 -54.747 -33.720  1.00  0.00     0.016 A 
HETATM   21  C18 UNL     1      29.342 -54.081 -32.759  1.00  0.00    -0.003 A 
HETATM   22  C19 UNL     1      29.777 -53.923 -31.456  1.00  0.00     0.056 A 
HETATM   23  C23 UNL     1      28.121 -53.533 -33.089  1.00  0.00     0.082 A 
HETATM   24  C20 UNL     1      28.982 -53.228 -30.540  1.00  0.00     0.120 A 
HETATM   25  F1  UNL     1      29.390 -53.064 -29.272  1.00  0.00    -0.206 F 
HETATM   26  C21 UNL     1      27.767 -52.694 -30.907  1.00  0.00     0.086 A 
HETATM   27  C22 UNL     1      27.333 -52.847 -32.189  1.00  0.00     0.146 A 
HETATM   28  F2  UNL     1      26.132 -52.337 -32.612  1.00  0.00    -0.204 F 
HETATM   29  N7  UNL     1      27.681 -53.671 -34.331  1.00  0.00    -0.352 N 
ATOM     30  H7  UNL     1      26.777 -53.264 -34.567  1.00  0.00     0.166 HD
ENDBRANCH  15  18
ENDBRANCH  10  12
ENDBRANCH   7  10
BRANCH   1  31
HETATM   31  N3  UNL     1      25.055 -50.057 -40.648  1.00  0.00    -0.191 N 
ATOM     32  H3  UNL     1      24.612 -49.321 -41.197  1.00  0.00     0.184 HD
BRANCH  31  33
HETATM   33  C7  UNL     1      25.329 -49.800 -39.285  1.00  0.00     0.049 A 
HETATM   34  C6  UNL     1      25.590 -50.825 -38.409  1.00  0.00     0.032 A 
HETATM   35  C5  UNL     1      25.860 -50.585 -37.080  1.00  0.00     0.031 A 
HETATM   36  C4  UNL     1      25.872 -49.273 -36.592  1.00  0.00     0.030 A 
HETATM   37  C27 UNL     1      25.612 -48.253 -37.468  1.00  0.00     0.031 A 
HETATM   38  C26 UNL     1      25.338 -48.517 -38.822  1.00  0.00     0.032 A 
BRANCH  36  39
HETATM   39  N2  UNL     1      26.152 -48.995 -35.238  1.00  0.00    -0.378 N 
HETATM   40  C3  UNL     1      26.624 -47.734 -34.712  1.00  0.00     0.153 C 
HETATM   41  C2  UNL     1      28.107 -47.925 -34.432  1.00  0.00     0.291 C 
HETATM   42  N1  UNL     1      28.251 -49.186 -33.731  1.00  0.00     0.087 N 
HETATM   43  C1  UNL     1      28.944 -50.146 -34.534  1.00  0.00     0.310 C 
HETATM   44  C29 UNL     1      27.029 -49.672 -33.147  1.00  0.00     0.291 C 
HETATM   45  C28 UNL     1      25.984 -50.040 -34.201  1.00  0.00     0.153 C 
ENDBRANCH  36  39
ENDBRANCH  31  33
ENDBRANCH   1  31
TORSDOF 6
ENDMDL
