MODEL 1
REMARK VINA RESULT: -10.096278295      0.000      0.000
REMARK  6 active torsions:
REMARK  status: ('A' for Active; 'I' for Inactive)
REMARK    1  A    between atoms: C4_4  and  C5_5 
REMARK    2  A    between atoms: C11_14  and  C12_15 
REMARK    3  A    between atoms: C12_15  and  O1_16 
REMARK    4  A    between atoms: C13_18  and  C14_19 
REMARK    5  A    between atoms: C19_26  and  N3_27 
REMARK    6  A    between atoms: N3_27  and  C20_29 
ROOT
HETATM    1  C14 UNL     1      26.280 -49.428 -35.089  1.00  0.00     0.085 A 
HETATM    2  C15 UNL     1      26.560 -48.111 -34.812  1.00  0.00     0.122 A 
HETATM    3  N2  UNL     1      26.328 -47.388 -35.896  1.00  0.00    -0.349 N 
ATOM      4  H2  UNL     1      26.447 -46.380 -35.988  1.00  0.00     0.167 HD
HETATM    5  C16 UNL     1      25.902 -48.242 -36.863  1.00  0.00     0.127 A 
HETATM    6  C17 UNL     1      25.540 -47.949 -38.171  1.00  0.00     0.054 A 
HETATM    7  C18 UNL     1      25.138 -49.003 -38.979  1.00  0.00     0.053 A 
HETATM    8  C19 UNL     1      25.112 -50.268 -38.467  1.00  0.00     0.120 A 
HETATM    9  N6  UNL     1      25.475 -50.475 -37.184  1.00  0.00    -0.277 N 
ATOM     10  H6  UNL     1      25.448 -51.423 -36.810  1.00  0.00     0.189 HD
HETATM   11  N7  UNL     1      25.868 -49.476 -36.388  1.00  0.00    -0.236 N 
ENDROOT
BRANCH   1  12
HETATM   12  C13 UNL     1      26.336 -50.538 -34.151  1.00  0.00     0.008 A 
HETATM   13  C11 UNL     1      27.395 -51.358 -33.987  1.00  0.00     0.011 A 
HETATM   14  C4  UNL     1      27.261 -52.610 -33.295  1.00  0.00     0.005 A 
HETATM   15  C3  UNL     1      26.019 -52.924 -32.798  1.00  0.00     0.021 A 
HETATM   16  C2  UNL     1      24.946 -52.087 -32.956  1.00  0.00    -0.060 A 
HETATM   17  C1  UNL     1      23.623 -52.484 -32.390  1.00  0.00     0.048 C 
HETATM   18  C29 UNL     1      25.060 -50.889 -33.624  1.00  0.00     0.021 A 
BRANCH  13  19
HETATM   19  C12 UNL     1      28.780 -51.028 -34.308  1.00  0.00     0.144 C 
BRANCH  19  20
HETATM   20  O1  UNL     1      29.238 -50.964 -35.570  1.00  0.00    -0.372 OA
ATOM     21  H1  UNL     1      30.109 -51.250 -35.815  1.00  0.00     0.216 HD
ENDBRANCH  19  20
ENDBRANCH  13  19
BRANCH  14  22
HETATM   22  C5  UNL     1      28.387 -53.518 -33.182  1.00  0.00     0.049 A 
HETATM   23  N1  UNL     1      29.175 -53.668 -32.122  1.00  0.00    -0.362 N 
HETATM   24  C6  UNL     1      30.229 -54.488 -32.075  1.00  0.00     0.130 A 
ATOM     25  H1  UNL     1      28.962 -53.120 -31.288  1.00  0.00     0.165 HD
HETATM   26  C7  UNL     1      30.568 -55.251 -33.169  1.00  0.00     0.132 A 
HETATM   27  F1  UNL     1      31.651 -56.103 -33.162  1.00  0.00    -0.205 F 
HETATM   28  C8  UNL     1      29.790 -55.149 -34.314  1.00  0.00     0.052 A 
HETATM   29  C9  UNL     1      28.705 -54.279 -34.306  1.00  0.00    -0.031 A 
HETATM   30  C10 UNL     1      27.928 -54.230 -35.577  1.00  0.00     0.050 C 
ENDBRANCH  14  22
ENDBRANCH   1  12
BRANCH   8  31
HETATM   31  N3  UNL     1      24.779 -51.282 -39.206  1.00  0.00    -0.340 N 
ATOM     32  H3  UNL     1      23.796 -51.435 -39.433  1.00  0.00     0.167 HD
BRANCH  31  33
HETATM   33  C20 UNL     1      25.743 -52.169 -39.697  1.00  0.00     0.063 A 
HETATM   34  C21 UNL     1      26.870 -51.716 -40.346  1.00  0.00     0.137 A 
HETATM   35  N4  UNL     1      27.817 -52.522 -40.838  1.00  0.00    -0.307 N 
HETATM   36  N5  UNL     1      27.660 -53.825 -40.692  1.00  0.00    -0.296 N 
ATOM     37  H4  UNL     1      28.637 -52.142 -41.312  1.00  0.00     0.186 HD
HETATM   38  C22 UNL     1      28.647 -54.747 -41.222  1.00  0.00     0.178 C 
HETATM   39  C23 UNL     1      26.577 -54.350 -40.063  1.00  0.00     0.063 A 
HETATM   40  C24 UNL     1      26.478 -55.712 -39.936  1.00  0.00     0.035 A 
HETATM   41  C28 UNL     1      25.585 -53.529 -39.547  1.00  0.00     0.023 A 
HETATM   42  C25 UNL     1      25.365 -56.252 -39.280  1.00  0.00     0.044 A 
HETATM   43  C26 UNL     1      24.383 -55.432 -38.770  1.00  0.00     0.117 A 
HETATM   44  F2  UNL     1      23.295 -55.962 -38.125  1.00  0.00    -0.206 F 
HETATM   45  C27 UNL     1      24.484 -54.063 -38.898  1.00  0.00     0.058 A 
ENDBRANCH  31  33
ENDBRANCH   8  31
TORSDOF 6
ENDMDL
MODEL 2
REMARK VINA RESULT: -9.640152705      0.611      1.101
REMARK  6 active torsions:
REMARK  status: ('A' for Active; 'I' for Inactive)
REMARK    1  A    between atoms: C4_4  and  C5_5 
REMARK    2  A    between atoms: C11_14  and  C12_15 
REMARK    3  A    between atoms: C12_15  and  O1_16 
REMARK    4  A    between atoms: C13_18  and  C14_19 
REMARK    5  A    between atoms: C19_26  and  N3_27 
REMARK    6  A    between atoms: N3_27  and  C20_29 
ROOT
HETATM    1  C14 UNL     1      26.283 -49.499 -35.100  1.00  0.00     0.085 A 
HETATM    2  C15 UNL     1      26.572 -48.188 -34.803  1.00  0.00     0.122 A 
HETATM    3  N2  UNL     1      26.350 -47.449 -35.878  1.00  0.00    -0.349 N 
ATOM      4  H2  UNL     1      26.477 -46.440 -35.956  1.00  0.00     0.167 HD
HETATM    5  C16 UNL     1      25.922 -48.286 -36.859  1.00  0.00     0.127 A 
HETATM    6  C17 UNL     1      25.568 -47.972 -38.165  1.00  0.00     0.054 A 
HETATM    7  C18 UNL     1      25.162 -49.013 -38.988  1.00  0.00     0.053 A 
HETATM    8  C19 UNL     1      25.124 -50.284 -38.494  1.00  0.00     0.120 A 
HETATM    9  N6  UNL     1      25.480 -50.511 -37.213  1.00  0.00    -0.277 N 
ATOM     10  H6  UNL     1      25.444 -51.464 -36.852  1.00  0.00     0.189 HD
HETATM   11  N7  UNL     1      25.877 -49.526 -36.401  1.00  0.00    -0.236 N 
ENDROOT
BRANCH   1  12
HETATM   12  C13 UNL     1      26.327 -50.622 -34.177  1.00  0.00     0.008 A 
HETATM   13  C11 UNL     1      27.343 -51.505 -34.081  1.00  0.00     0.011 A 
HETATM   14  C4  UNL     1      27.175 -52.755 -33.395  1.00  0.00     0.005 A 
HETATM   15  C3  UNL     1      25.946 -53.002 -32.829  1.00  0.00     0.021 A 
HETATM   16  C2  UNL     1      24.918 -52.103 -32.918  1.00  0.00    -0.060 A 
HETATM   17  C1  UNL     1      23.608 -52.428 -32.280  1.00  0.00     0.048 C 
HETATM   18  C29 UNL     1      25.064 -50.904 -33.581  1.00  0.00     0.021 A 
BRANCH  13  19
HETATM   19  C12 UNL     1      28.724 -51.252 -34.479  1.00  0.00     0.144 C 
BRANCH  19  20
HETATM   20  O1  UNL     1      29.193 -51.545 -35.703  1.00  0.00    -0.372 OA
ATOM     21  H1  UNL     1      29.591 -52.381 -35.914  1.00  0.00     0.216 HD
ENDBRANCH  19  20
ENDBRANCH  13  19
BRANCH  14  22
HETATM   22  C5  UNL     1      28.249 -53.729 -33.355  1.00  0.00     0.049 A 
HETATM   23  N1  UNL     1      28.648 -54.502 -34.362  1.00  0.00    -0.362 N 
HETATM   24  C6  UNL     1      29.616 -55.419 -34.271  1.00  0.00     0.130 A 
ATOM     25  H1  UNL     1      28.184 -54.388 -35.263  1.00  0.00     0.165 HD
HETATM   26  C7  UNL     1      30.277 -55.620 -33.080  1.00  0.00     0.132 A 
HETATM   27  F1  UNL     1      31.276 -56.559 -32.945  1.00  0.00    -0.205 F 
HETATM   28  C8  UNL     1      29.915 -54.849 -31.984  1.00  0.00     0.052 A 
HETATM   29  C9  UNL     1      28.901 -53.909 -32.136  1.00  0.00    -0.031 A 
HETATM   30  C10 UNL     1      28.575 -53.130 -30.909  1.00  0.00     0.050 C 
ENDBRANCH  14  22
ENDBRANCH   1  12
BRANCH   8  31
HETATM   31  N3  UNL     1      24.787 -51.286 -39.248  1.00  0.00    -0.340 N 
ATOM     32  H3  UNL     1      23.805 -51.424 -39.487  1.00  0.00     0.167 HD
BRANCH  31  33
HETATM   33  C20 UNL     1      25.746 -52.177 -39.741  1.00  0.00     0.063 A 
HETATM   34  C21 UNL     1      26.881 -51.730 -40.380  1.00  0.00     0.137 A 
HETATM   35  N4  UNL     1      27.823 -52.540 -40.873  1.00  0.00    -0.307 N 
HETATM   36  N5  UNL     1      27.653 -53.843 -40.738  1.00  0.00    -0.296 N 
ATOM     37  H4  UNL     1      28.648 -52.164 -41.340  1.00  0.00     0.186 HD
HETATM   38  C22 UNL     1      28.635 -54.770 -41.270  1.00  0.00     0.178 C 
HETATM   39  C23 UNL     1      26.562 -54.363 -40.119  1.00  0.00     0.063 A 
HETATM   40  C24 UNL     1      26.450 -55.725 -40.003  1.00  0.00     0.035 A 
HETATM   41  C28 UNL     1      25.574 -53.537 -39.602  1.00  0.00     0.023 A 
HETATM   42  C25 UNL     1      25.328 -56.260 -39.358  1.00  0.00     0.044 A 
HETATM   43  C26 UNL     1      24.351 -55.434 -38.847  1.00  0.00     0.117 A 
HETATM   44  F2  UNL     1      23.255 -55.960 -38.212  1.00  0.00    -0.206 F 
HETATM   45  C27 UNL     1      24.465 -54.066 -38.964  1.00  0.00     0.058 A 
ENDBRANCH  31  33
ENDBRANCH   8  31
TORSDOF 6
ENDMDL
MODEL 3
REMARK VINA RESULT: -8.690907805      1.225      1.886
REMARK  6 active torsions:
REMARK  status: ('A' for Active; 'I' for Inactive)
REMARK    1  A    between atoms: C4_4  and  C5_5 
REMARK    2  A    between atoms: C11_14  and  C12_15 
REMARK    3  A    between atoms: C12_15  and  O1_16 
REMARK    4  A    between atoms: C13_18  and  C14_19 
REMARK    5  A    between atoms: C19_26  and  N3_27 
REMARK    6  A    between atoms: N3_27  and  C20_29 
ROOT
HETATM    1  C14 UNL     1      26.028 -50.085 -36.436  1.00  0.00     0.085 A 
HETATM    2  C15 UNL     1      25.299 -48.931 -36.601  1.00  0.00     0.122 A 
HETATM    3  N2  UNL     1      25.260 -48.632 -37.890  1.00  0.00    -0.349 N 
ATOM      4  H2  UNL     1      24.790 -47.831 -38.311  1.00  0.00     0.167 HD
HETATM    5  C16 UNL     1      25.962 -49.592 -38.546  1.00  0.00     0.127 A 
HETATM    6  C17 UNL     1      26.201 -49.704 -39.909  1.00  0.00     0.054 A 
HETATM    7  C18 UNL     1      26.959 -50.782 -40.343  1.00  0.00     0.053 A 
HETATM    8  C19 UNL     1      27.432 -51.680 -39.431  1.00  0.00     0.120 A 
HETATM    9  N6  UNL     1      27.155 -51.507 -38.122  1.00  0.00    -0.277 N 
ATOM     10  H6  UNL     1      27.510 -52.186 -37.449  1.00  0.00     0.189 HD
HETATM   11  N7  UNL     1      26.431 -50.476 -37.680  1.00  0.00    -0.236 N 
ENDROOT
BRANCH   1  12
HETATM   12  C13 UNL     1      26.253 -50.792 -35.186  1.00  0.00     0.008 A 
HETATM   13  C11 UNL     1      27.380 -51.465 -34.870  1.00  0.00     0.011 A 
HETATM   14  C4  UNL     1      27.404 -52.397 -33.778  1.00  0.00     0.005 A 
HETATM   15  C3  UNL     1      26.241 -52.560 -33.064  1.00  0.00     0.021 A 
HETATM   16  C2  UNL     1      25.100 -51.871 -33.379  1.00  0.00    -0.060 A 
HETATM   17  C1  UNL     1      23.869 -52.089 -32.563  1.00  0.00     0.048 C 
HETATM   18  C29 UNL     1      25.062 -50.980 -34.428  1.00  0.00     0.021 A 
BRANCH  13  19
HETATM   19  C12 UNL     1      28.701 -51.220 -35.442  1.00  0.00     0.144 C 
BRANCH  19  20
HETATM   20  O1  UNL     1      29.225 -49.988 -35.558  1.00  0.00    -0.372 OA
ATOM     21  H1  UNL     1      29.704 -49.704 -36.327  1.00  0.00     0.216 HD
ENDBRANCH  19  20
ENDBRANCH  13  19
BRANCH  14  22
HETATM   22  C5  UNL     1      28.599 -53.168 -33.488  1.00  0.00     0.049 A 
HETATM   23  N1  UNL     1      29.444 -52.961 -32.482  1.00  0.00    -0.362 N 
HETATM   24  C6  UNL     1      30.558 -53.670 -32.275  1.00  0.00     0.130 A 
ATOM     25  H1  UNL     1      29.229 -52.212 -31.825  1.00  0.00     0.165 HD
HETATM   26  C7  UNL     1      30.902 -54.694 -33.129  1.00  0.00     0.132 A 
HETATM   27  F1  UNL     1      32.045 -55.443 -32.953  1.00  0.00    -0.205 F 
HETATM   28  C8  UNL     1      30.067 -54.968 -34.204  1.00  0.00     0.052 A 
HETATM   29  C9  UNL     1      28.920 -54.198 -34.370  1.00  0.00    -0.031 A 
HETATM   30  C10 UNL     1      28.085 -54.560 -35.550  1.00  0.00     0.050 C 
ENDBRANCH  14  22
ENDBRANCH   1  12
BRANCH   8  31
HETATM   31  N3  UNL     1      28.176 -52.678 -39.798  1.00  0.00    -0.340 N 
ATOM     32  H3  UNL     1      29.187 -52.621 -39.675  1.00  0.00     0.167 HD
BRANCH  31  33
HETATM   33  C20 UNL     1      27.617 -53.831 -40.359  1.00  0.00     0.063 A 
HETATM   34  C21 UNL     1      28.140 -54.400 -41.500  1.00  0.00     0.137 A 
HETATM   35  N4  UNL     1      27.639 -55.497 -42.078  1.00  0.00    -0.307 N 
HETATM   36  N5  UNL     1      26.584 -56.065 -41.522  1.00  0.00    -0.296 N 
ATOM     37  H4  UNL     1      28.059 -55.884 -42.923  1.00  0.00     0.186 HD
HETATM   38  C22 UNL     1      25.988 -57.247 -42.117  1.00  0.00     0.178 C 
HETATM   39  C23 UNL     1      26.011 -55.565 -40.397  1.00  0.00     0.063 A 
HETATM   40  C24 UNL     1      24.923 -56.207 -39.863  1.00  0.00     0.035 A 
HETATM   41  C28 UNL     1      26.517 -54.428 -39.784  1.00  0.00     0.023 A 
HETATM   42  C25 UNL     1      24.338 -55.695 -38.699  1.00  0.00     0.044 A 
HETATM   43  C26 UNL     1      24.845 -54.566 -38.095  1.00  0.00     0.117 A 
HETATM   44  F2  UNL     1      24.273 -54.069 -36.952  1.00  0.00    -0.206 F 
HETATM   45  C27 UNL     1      25.939 -53.922 -38.632  1.00  0.00     0.058 A 
ENDBRANCH  31  33
ENDBRANCH   8  31
TORSDOF 6
ENDMDL
MODEL 4
REMARK VINA RESULT: -8.340052986      1.570      2.165
REMARK  6 active torsions:
REMARK  status: ('A' for Active; 'I' for Inactive)
REMARK    1  A    between atoms: C4_4  and  C5_5 
REMARK    2  A    between atoms: C11_14  and  C12_15 
REMARK    3  A    between atoms: C12_15  and  O1_16 
REMARK    4  A    between atoms: C13_18  and  C14_19 
REMARK    5  A    between atoms: C19_26  and  N3_27 
REMARK    6  A    between atoms: N3_27  and  C20_29 
ROOT
HETATM    1  C14 UNL     1      26.189 -49.444 -35.513  1.00  0.00     0.085 A 
HETATM    2  C15 UNL     1      25.938 -48.109 -35.301  1.00  0.00     0.122 A 
HETATM    3  N2  UNL     1      25.769 -47.515 -36.472  1.00  0.00    -0.349 N 
ATOM      4  H2  UNL     1      25.569 -46.527 -36.626  1.00  0.00     0.167 HD
HETATM    5  C16 UNL     1      25.913 -48.468 -37.428  1.00  0.00     0.127 A 
HETATM    6  C17 UNL     1      25.826 -48.324 -38.807  1.00  0.00     0.054 A 
HETATM    7  C18 UNL     1      26.016 -49.457 -39.586  1.00  0.00     0.053 A 
HETATM    8  C19 UNL     1      26.277 -50.651 -38.979  1.00  0.00     0.120 A 
HETATM    9  N6  UNL     1      26.343 -50.714 -37.634  1.00  0.00    -0.277 N 
ATOM     10  H6  UNL     1      26.534 -51.613 -37.190  1.00  0.00     0.189 HD
HETATM   11  N7  UNL     1      26.166 -49.637 -36.863  1.00  0.00    -0.236 N 
ENDROOT
BRANCH   1  12
HETATM   12  C13 UNL     1      26.362 -50.462 -34.490  1.00  0.00     0.008 A 
HETATM   13  C11 UNL     1      27.480 -51.199 -34.315  1.00  0.00     0.011 A 
HETATM   14  C4  UNL     1      27.462 -52.391 -33.514  1.00  0.00     0.005 A 
HETATM   15  C3  UNL     1      26.268 -52.737 -32.926  1.00  0.00     0.021 A 
HETATM   16  C2  UNL     1      25.137 -51.984 -33.097  1.00  0.00    -0.060 A 
HETATM   17  C1  UNL     1      23.871 -52.410 -32.429  1.00  0.00     0.048 C 
HETATM   18  C29 UNL     1      25.139 -50.844 -33.868  1.00  0.00     0.021 A 
BRANCH  13  19
HETATM   19  C12 UNL     1      28.823 -50.814 -34.736  1.00  0.00     0.144 C 
BRANCH  19  20
HETATM   20  O1  UNL     1      29.185 -50.737 -36.028  1.00  0.00    -0.372 OA
ATOM     21  H1  UNL     1      28.912 -51.375 -36.677  1.00  0.00     0.216 HD
ENDBRANCH  19  20
ENDBRANCH  13  19
BRANCH  14  22
HETATM   22  C5  UNL     1      28.649 -53.216 -33.387  1.00  0.00     0.049 A 
HETATM   23  N1  UNL     1      29.543 -53.163 -32.403  1.00  0.00    -0.362 N 
HETATM   24  C6  UNL     1      30.647 -53.914 -32.346  1.00  0.00     0.130 A 
ATOM     25  H1  UNL     1      29.375 -52.505 -31.642  1.00  0.00     0.165 HD
HETATM   26  C7  UNL     1      30.928 -54.818 -33.345  1.00  0.00     0.132 A 
HETATM   27  F1  UNL     1      32.059 -55.605 -33.325  1.00  0.00    -0.205 F 
HETATM   28  C8  UNL     1      30.039 -54.930 -34.406  1.00  0.00     0.052 A 
HETATM   29  C9  UNL     1      28.906 -54.124 -34.413  1.00  0.00    -0.031 A 
HETATM   30  C10 UNL     1      28.011 -54.307 -35.590  1.00  0.00     0.050 C 
ENDBRANCH  14  22
ENDBRANCH   1  12
BRANCH   8  31
HETATM   31  N3  UNL     1      26.499 -51.722 -39.679  1.00  0.00    -0.340 N 
ATOM     32  H3  UNL     1      27.155 -51.683 -40.459  1.00  0.00     0.167 HD
BRANCH  31  33
HETATM   33  C20 UNL     1      25.856 -52.928 -39.382  1.00  0.00     0.063 A 
HETATM   34  C21 UNL     1      24.788 -52.977 -38.512  1.00  0.00     0.137 A 
HETATM   35  N4  UNL     1      24.144 -54.104 -38.192  1.00  0.00    -0.307 N 
HETATM   36  N5  UNL     1      24.556 -55.232 -38.741  1.00  0.00    -0.296 N 
ATOM     37  H4  UNL     1      23.357 -54.092 -37.542  1.00  0.00     0.186 HD
HETATM   38  C22 UNL     1      23.905 -56.487 -38.415  1.00  0.00     0.178 C 
HETATM   39  C23 UNL     1      25.601 -55.267 -39.607  1.00  0.00     0.063 A 
HETATM   40  C24 UNL     1      25.974 -56.470 -40.151  1.00  0.00     0.035 A 
HETATM   41  C28 UNL     1      26.281 -54.108 -39.952  1.00  0.00     0.023 A 
HETATM   42  C25 UNL     1      27.046 -56.504 -41.050  1.00  0.00     0.044 A 
HETATM   43  C26 UNL     1      27.717 -55.350 -41.388  1.00  0.00     0.117 A 
HETATM   44  F2  UNL     1      28.764 -55.385 -42.272  1.00  0.00    -0.206 F 
HETATM   45  C27 UNL     1      27.341 -54.142 -40.842  1.00  0.00     0.058 A 
ENDBRANCH  31  33
ENDBRANCH   8  31
TORSDOF 6
ENDMDL
MODEL 5
REMARK VINA RESULT: -7.630639305      1.621      2.383
REMARK  6 active torsions:
REMARK  status: ('A' for Active; 'I' for Inactive)
REMARK    1  A    between atoms: C4_4  and  C5_5 
REMARK    2  A    between atoms: C11_14  and  C12_15 
REMARK    3  A    between atoms: C12_15  and  O1_16 
REMARK    4  A    between atoms: C13_18  and  C14_19 
REMARK    5  A    between atoms: C19_26  and  N3_27 
REMARK    6  A    between atoms: N3_27  and  C20_29 
ROOT
HETATM    1  C14 UNL     1      26.177 -49.551 -35.341  1.00  0.00     0.085 A 
HETATM    2  C15 UNL     1      26.020 -48.215 -35.058  1.00  0.00     0.122 A 
HETATM    3  N2  UNL     1      25.895 -47.550 -36.196  1.00  0.00    -0.349 N 
ATOM      4  H2  UNL     1      25.765 -46.544 -36.297  1.00  0.00     0.167 HD
HETATM    5  C16 UNL     1      25.974 -48.459 -37.201  1.00  0.00     0.127 A 
HETATM    6  C17 UNL     1      25.898 -48.236 -38.571  1.00  0.00     0.054 A 
HETATM    7  C18 UNL     1      26.011 -49.337 -39.408  1.00  0.00     0.053 A 
HETATM    8  C19 UNL     1      26.186 -50.577 -38.867  1.00  0.00     0.120 A 
HETATM    9  N6  UNL     1      26.245 -50.716 -37.526  1.00  0.00    -0.277 N 
ATOM     10  H6  UNL     1      26.372 -51.647 -37.131  1.00  0.00     0.189 HD
HETATM   11  N7  UNL     1      26.143 -49.671 -36.699  1.00  0.00    -0.236 N 
ENDROOT
BRANCH   1  12
HETATM   12  C13 UNL     1      26.277 -50.632 -34.374  1.00  0.00     0.008 A 
HETATM   13  C11 UNL     1      27.313 -51.493 -34.281  1.00  0.00     0.011 A 
HETATM   14  C4  UNL     1      27.195 -52.714 -33.535  1.00  0.00     0.005 A 
HETATM   15  C3  UNL     1      25.994 -52.958 -32.911  1.00  0.00     0.021 A 
HETATM   16  C2  UNL     1      24.946 -52.080 -32.998  1.00  0.00    -0.060 A 
HETATM   17  C1  UNL     1      23.669 -52.399 -32.295  1.00  0.00     0.048 C 
HETATM   18  C29 UNL     1      25.044 -50.910 -33.716  1.00  0.00     0.021 A 
BRANCH  13  19
HETATM   19  C12 UNL     1      28.672 -51.235 -34.744  1.00  0.00     0.144 C 
BRANCH  19  20
HETATM   20  O1  UNL     1      29.070 -51.480 -36.003  1.00  0.00    -0.372 OA
ATOM     21  H1  UNL     1      29.202 -50.791 -36.643  1.00  0.00     0.216 HD
ENDBRANCH  19  20
ENDBRANCH  13  19
BRANCH  14  22
HETATM   22  C5  UNL     1      28.288 -53.668 -33.497  1.00  0.00     0.049 A 
HETATM   23  N1  UNL     1      28.695 -54.439 -34.502  1.00  0.00    -0.362 N 
HETATM   24  C6  UNL     1      29.681 -55.336 -34.412  1.00  0.00     0.130 A 
ATOM     25  H1  UNL     1      28.224 -54.338 -35.401  1.00  0.00     0.165 HD
HETATM   26  C7  UNL     1      30.353 -55.518 -33.224  1.00  0.00     0.132 A 
HETATM   27  F1  UNL     1      31.370 -56.438 -33.090  1.00  0.00    -0.205 F 
HETATM   28  C8  UNL     1      29.982 -54.749 -32.129  1.00  0.00     0.052 A 
HETATM   29  C9  UNL     1      28.949 -53.829 -32.281  1.00  0.00    -0.031 A 
HETATM   30  C10 UNL     1      28.615 -53.050 -31.055  1.00  0.00     0.050 C 
ENDBRANCH  14  22
ENDBRANCH   1  12
BRANCH   8  31
HETATM   31  N3  UNL     1      26.333 -51.623 -39.622  1.00  0.00    -0.340 N 
ATOM     32  H3  UNL     1      26.903 -51.554 -40.465  1.00  0.00     0.167 HD
BRANCH  31  33
HETATM   33  C20 UNL     1      25.726 -52.841 -39.300  1.00  0.00     0.063 A 
HETATM   34  C21 UNL     1      24.674 -52.906 -38.412  1.00  0.00     0.137 A 
HETATM   35  N4  UNL     1      24.064 -54.045 -38.068  1.00  0.00    -0.307 N 
HETATM   36  N5  UNL     1      24.495 -55.169 -38.611  1.00  0.00    -0.296 N 
ATOM     37  H4  UNL     1      23.288 -54.045 -37.405  1.00  0.00     0.186 HD
HETATM   38  C22 UNL     1      23.882 -56.436 -38.260  1.00  0.00     0.178 C 
HETATM   39  C23 UNL     1      25.526 -55.188 -39.495  1.00  0.00     0.063 A 
HETATM   40  C24 UNL     1      25.920 -56.387 -40.031  1.00  0.00     0.035 A 
HETATM   41  C28 UNL     1      26.171 -54.016 -39.864  1.00  0.00     0.023 A 
HETATM   42  C25 UNL     1      26.977 -56.405 -40.948  1.00  0.00     0.044 A 
HETATM   43  C26 UNL     1      27.613 -55.239 -41.310  1.00  0.00     0.117 A 
HETATM   44  F2  UNL     1      28.646 -55.258 -42.212  1.00  0.00    -0.206 F 
HETATM   45  C27 UNL     1      27.216 -54.034 -40.772  1.00  0.00     0.058 A 
ENDBRANCH  31  33
ENDBRANCH   8  31
TORSDOF 6
ENDMDL
