MODEL 1
REMARK VINA RESULT: -4.664327827      0.000      0.000
REMARK  3 active torsions:
REMARK  status: ('A' for Active; 'I' for Inactive)
REMARK    1  A    between atoms: N1_1  and  C1_4 
REMARK    2  A    between atoms: C4_9  and  C5_10 
REMARK    3  A    between atoms: C12_20  and  C13_21 
ROOT
HETATM    1  C5  UNL     1       4.085  31.877  -8.408  1.00  0.00    -0.016 A 
HETATM    2  C6  UNL     1       4.760  32.847  -8.978  1.00  0.00     0.001 A 
HETATM    3  C7  UNL     1       5.432  32.541 -10.170  1.00  0.00     0.041 A 
HETATM    4  C8  UNL     1       6.149  33.552 -10.781  1.00  0.00     0.047 A 
HETATM    5  N3  UNL     1       6.821  33.224 -11.984  1.00  0.00    -0.102 NA
HETATM    6  C9  UNL     1       6.205  34.817 -10.246  1.00  0.00     0.029 A 
HETATM    7  C10 UNL     1       5.540  35.119  -9.066  1.00  0.00     0.032 A 
HETATM    8  C11 UNL     1       4.828  34.122  -8.454  1.00  0.00     0.039 A 
HETATM    9  N4  UNL     1       4.195  34.332  -7.374  1.00  0.00    -0.378 N 
ATOM     10  H4  UNL     1       4.258  35.280  -7.002  1.00  0.00     0.160 HD
HETATM   11  C12 UNL     1       3.411  33.423  -6.613  1.00  0.00     0.143 A 
HETATM   12  C21 UNL     1       3.342  32.068  -7.160  1.00  0.00     0.073 A 
ENDROOT
BRANCH   1  13
HETATM   13  C4  UNL     1       4.092  30.544  -9.073  1.00  0.00     0.057 A 
HETATM   14  C3  UNL     1       4.881  29.513  -8.613  1.00  0.00     0.048 A 
HETATM   15  C2  UNL     1       4.891  28.277  -9.223  1.00  0.00     0.108 A 
HETATM   16  N2  UNL     1       4.095  28.115 -10.294  1.00  0.00    -0.202 N 
HETATM   17  C1  UNL     1       3.318  29.127 -10.750  1.00  0.00     0.676 A 
ATOM     18  H2  UNL     1       4.075  27.214 -10.771  1.00  0.00     0.183 HD
HETATM   19  N5  UNL     1       3.320  30.324 -10.144  1.00  0.00    -0.192 N 
ATOM     20  H5  UNL     1       2.727  31.074 -10.502  1.00  0.00     0.184 HD
BRANCH  17  21
HETATM   21  N1  UNL     1       2.587  28.909 -11.767  1.00  0.00    -0.234 N 
ATOM     22  H12 UNL     1       2.429  27.960 -12.107  1.00  0.00     0.174 HD
ATOM     23  H11 UNL     1       2.163  29.710 -12.235  1.00  0.00     0.174 HD
ENDBRANCH  17  21
ENDBRANCH   1  13
BRANCH  11  24
HETATM   24  C13 UNL     1       3.957  33.384  -5.203  1.00  0.00     0.077 A 
HETATM   25  C14 UNL     1       3.874  32.321  -4.309  1.00  0.00     0.049 A 
HETATM   26  C15 UNL     1       4.501  32.718  -3.147  1.00  0.00     0.000 A 
HETATM   27  C16 UNL     1       4.751  32.142  -1.919  1.00  0.00     0.014 A 
HETATM   28  C20 UNL     1       4.939  34.006  -3.381  1.00  0.00     0.086 A 
HETATM   29  C17 UNL     1       5.427  32.815  -0.920  1.00  0.00     0.001 A 
HETATM   30  C18 UNL     1       5.867  34.107  -1.154  1.00  0.00     0.003 A 
HETATM   31  C19 UNL     1       5.618  34.672  -2.365  1.00  0.00     0.038 A 
HETATM   32  O1  UNL     1       4.591  34.344  -4.604  1.00  0.00    -0.312 OA
ENDBRANCH  11  24
TORSDOF 3
ENDMDL
MODEL 2
REMARK VINA RESULT: -4.430047783      0.802      1.361
REMARK  3 active torsions:
REMARK  status: ('A' for Active; 'I' for Inactive)
REMARK    1  A    between atoms: N1_1  and  C1_4 
REMARK    2  A    between atoms: C4_9  and  C5_10 
REMARK    3  A    between atoms: C12_20  and  C13_21 
ROOT
HETATM    1  C5  UNL     1       3.747  32.335  -8.884  1.00  0.00    -0.016 A 
HETATM    2  C6  UNL     1       4.702  33.127  -9.308  1.00  0.00     0.001 A 
HETATM    3  C7  UNL     1       5.330  32.781 -10.513  1.00  0.00     0.041 A 
HETATM    4  C8  UNL     1       6.340  33.606 -10.972  1.00  0.00     0.047 A 
HETATM    5  N3  UNL     1       6.961  33.239 -12.191  1.00  0.00    -0.102 NA
HETATM    6  C9  UNL     1       6.720  34.729 -10.278  1.00  0.00     0.029 A 
HETATM    7  C10 UNL     1       6.098  35.071  -9.085  1.00  0.00     0.032 A 
HETATM    8  C11 UNL     1       5.097  34.259  -8.624  1.00  0.00     0.039 A 
HETATM    9  N4  UNL     1       4.487  34.516  -7.541  1.00  0.00    -0.378 N 
ATOM     10  H4  UNL     1       4.794  35.356  -7.049  1.00  0.00     0.160 HD
HETATM   11  C12 UNL     1       3.433  33.791  -6.921  1.00  0.00     0.143 A 
HETATM   12  C21 UNL     1       3.015  32.586  -7.640  1.00  0.00     0.073 A 
ENDROOT
BRANCH   1  13
HETATM   13  C4  UNL     1       3.414  31.144  -9.714  1.00  0.00     0.057 A 
HETATM   14  C3  UNL     1       2.521  31.221 -10.761  1.00  0.00     0.048 A 
HETATM   15  C2  UNL     1       2.210  30.124 -11.533  1.00  0.00     0.108 A 
HETATM   16  N2  UNL     1       2.816  28.964 -11.224  1.00  0.00    -0.202 N 
HETATM   17  C1  UNL     1       3.694  28.884 -10.196  1.00  0.00     0.676 A 
ATOM     18  H2  UNL     1       2.611  28.130 -11.775  1.00  0.00     0.183 HD
HETATM   19  N5  UNL     1       3.986  29.963  -9.453  1.00  0.00    -0.192 N 
ATOM     20  H5  UNL     1       4.650  29.882  -8.683  1.00  0.00     0.184 HD
BRANCH  17  21
HETATM   21  N1  UNL     1       4.234  27.758  -9.956  1.00  0.00    -0.234 N 
ATOM     22  H12 UNL     1       4.579  27.168 -10.713  1.00  0.00     0.174 HD
ATOM     23  H11 UNL     1       4.311  27.460  -8.983  1.00  0.00     0.174 HD
ENDBRANCH  17  21
ENDBRANCH   1  13
BRANCH  11  24
HETATM   24  C13 UNL     1       3.860  33.433  -5.516  1.00  0.00     0.077 A 
HETATM   25  C14 UNL     1       3.667  32.214  -4.874  1.00  0.00     0.049 A 
HETATM   26  C15 UNL     1       4.210  32.328  -3.612  1.00  0.00     0.000 A 
HETATM   27  C16 UNL     1       4.338  31.498  -2.518  1.00  0.00     0.014 A 
HETATM   28  C20 UNL     1       4.711  33.613  -3.537  1.00  0.00     0.086 A 
HETATM   29  C17 UNL     1       4.954  31.914  -1.353  1.00  0.00     0.001 A 
HETATM   30  C18 UNL     1       5.456  33.202  -1.277  1.00  0.00     0.003 A 
HETATM   31  C19 UNL     1       5.328  34.018  -2.357  1.00  0.00     0.038 A 
HETATM   32  O1  UNL     1       4.477  34.213  -4.684  1.00  0.00    -0.312 OA
ENDBRANCH  11  24
TORSDOF 3
ENDMDL
MODEL 3
REMARK VINA RESULT: -4.378640418      0.469      1.088
REMARK  3 active torsions:
REMARK  status: ('A' for Active; 'I' for Inactive)
REMARK    1  A    between atoms: N1_1  and  C1_4 
REMARK    2  A    between atoms: C4_9  and  C5_10 
REMARK    3  A    between atoms: C12_20  and  C13_21 
ROOT
HETATM    1  C5  UNL     1       4.126  31.900  -8.395  1.00  0.00    -0.016 A 
HETATM    2  C6  UNL     1       4.790  32.860  -8.996  1.00  0.00     0.001 A 
HETATM    3  C7  UNL     1       5.454  32.527 -10.185  1.00  0.00     0.041 A 
HETATM    4  C8  UNL     1       6.159  33.527 -10.829  1.00  0.00     0.047 A 
HETATM    5  N3  UNL     1       6.822  33.172 -12.029  1.00  0.00    -0.102 NA
HETATM    6  C9  UNL     1       6.211  34.805 -10.326  1.00  0.00     0.029 A 
HETATM    7  C10 UNL     1       5.553  35.133  -9.149  1.00  0.00     0.032 A 
HETATM    8  C11 UNL     1       4.853  34.148  -8.506  1.00  0.00     0.039 A 
HETATM    9  N4  UNL     1       4.229  34.382  -7.426  1.00  0.00    -0.378 N 
ATOM     10  H4  UNL     1       4.289  35.340  -7.079  1.00  0.00     0.160 HD
HETATM   11  C12 UNL     1       3.458  33.489  -6.634  1.00  0.00     0.143 A 
HETATM   12  C21 UNL     1       3.393  32.119  -7.146  1.00  0.00     0.073 A 
ENDROOT
BRANCH   1  13
HETATM   13  C4  UNL     1       4.136  30.551  -9.026  1.00  0.00     0.057 A 
HETATM   14  C3  UNL     1       4.906  29.525  -8.521  1.00  0.00     0.048 A 
HETATM   15  C2  UNL     1       4.918  28.275  -9.099  1.00  0.00     0.108 A 
HETATM   16  N2  UNL     1       4.145  28.091 -10.183  1.00  0.00    -0.202 N 
HETATM   17  C1  UNL     1       3.388  29.097 -10.683  1.00  0.00     0.676 A 
ATOM     18  H2  UNL     1       4.128  27.178 -10.638  1.00  0.00     0.183 HD
HETATM   19  N5  UNL     1       3.387  30.310 -10.107  1.00  0.00    -0.192 N 
ATOM     20  H5  UNL     1       2.810  31.055 -10.499  1.00  0.00     0.184 HD
BRANCH  17  21
HETATM   21  N1  UNL     1       2.678  28.859 -11.711  1.00  0.00    -0.234 N 
ATOM     22  H12 UNL     1       2.635  27.924 -12.114  1.00  0.00     0.174 HD
ATOM     23  H11 UNL     1       2.154  29.631 -12.121  1.00  0.00     0.174 HD
ENDBRANCH  17  21
ENDBRANCH   1  13
BRANCH  11  24
HETATM   24  C13 UNL     1       4.015  33.490  -5.229  1.00  0.00     0.077 A 
HETATM   25  C14 UNL     1       4.720  34.520  -4.615  1.00  0.00     0.049 A 
HETATM   26  C15 UNL     1       5.035  34.095  -3.342  1.00  0.00     0.000 A 
HETATM   27  C16 UNL     1       5.705  34.634  -2.263  1.00  0.00     0.014 A 
HETATM   28  C20 UNL     1       4.510  32.823  -3.233  1.00  0.00     0.086 A 
HETATM   29  C17 UNL     1       5.863  33.939  -1.080  1.00  0.00     0.001 A 
HETATM   30  C18 UNL     1       5.336  32.663  -0.970  1.00  0.00     0.003 A 
HETATM   31  C19 UNL     1       4.677  32.135  -2.035  1.00  0.00     0.038 A 
HETATM   32  O1  UNL     1       3.922  32.522  -4.371  1.00  0.00    -0.312 OA
ENDBRANCH  11  24
TORSDOF 3
ENDMDL
MODEL 4
REMARK VINA RESULT: -3.447930945      2.296      2.883
REMARK  3 active torsions:
REMARK  status: ('A' for Active; 'I' for Inactive)
REMARK    1  A    between atoms: N1_1  and  C1_4 
REMARK    2  A    between atoms: C4_9  and  C5_10 
REMARK    3  A    between atoms: C12_20  and  C13_21 
ROOT
HETATM    1  C5  UNL     1       6.198  30.980  -8.229  1.00  0.00    -0.016 A 
HETATM    2  C6  UNL     1       5.923  31.963  -9.054  1.00  0.00     0.001 A 
HETATM    3  C7  UNL     1       6.687  32.042 -10.227  1.00  0.00     0.041 A 
HETATM    4  C8  UNL     1       6.411  33.073 -11.105  1.00  0.00     0.047 A 
HETATM    5  N3  UNL     1       7.193  33.136 -12.285  1.00  0.00    -0.102 NA
HETATM    6  C9  UNL     1       5.423  33.992 -10.844  1.00  0.00     0.029 A 
HETATM    7  C10 UNL     1       4.668  33.913  -9.683  1.00  0.00     0.032 A 
HETATM    8  C11 UNL     1       4.936  32.894  -8.808  1.00  0.00     0.039 A 
HETATM    9  N4  UNL     1       4.280  32.764  -7.729  1.00  0.00    -0.378 N 
ATOM     10  H4  UNL     1       3.555  33.463  -7.565  1.00  0.00     0.160 HD
HETATM   11  C12 UNL     1       4.422  31.775  -6.718  1.00  0.00     0.143 A 
HETATM   12  C21 UNL     1       5.473  30.789  -6.970  1.00  0.00     0.073 A 
ENDROOT
BRANCH   1  13
HETATM   13  C4  UNL     1       7.289  30.040  -8.609  1.00  0.00     0.057 A 
HETATM   14  C3  UNL     1       7.201  28.690  -8.346  1.00  0.00     0.048 A 
HETATM   15  C2  UNL     1       8.207  27.816  -8.696  1.00  0.00     0.108 A 
HETATM   16  N2  UNL     1       9.286  28.333  -9.308  1.00  0.00    -0.202 N 
HETATM   17  C1  UNL     1       9.376  29.660  -9.568  1.00  0.00     0.676 A 
ATOM     18  H2  UNL     1      10.050  27.716  -9.583  1.00  0.00     0.183 HD
HETATM   19  N5  UNL     1       8.387  30.499  -9.221  1.00  0.00    -0.192 N 
ATOM     20  H5  UNL     1       8.473  31.495  -9.425  1.00  0.00     0.184 HD
BRANCH  17  21
HETATM   21  N1  UNL     1      10.422  30.087 -10.150  1.00  0.00    -0.234 N 
ATOM     22  H12 UNL     1      10.522  31.071 -10.397  1.00  0.00     0.174 HD
ATOM     23  H11 UNL     1      11.160  29.416 -10.364  1.00  0.00     0.174 HD
ENDBRANCH  17  21
ENDBRANCH   1  13
BRANCH  11  24
HETATM   24  C13 UNL     1       4.671  32.471  -5.399  1.00  0.00     0.077 A 
HETATM   25  C14 UNL     1       4.459  31.944  -4.129  1.00  0.00     0.049 A 
HETATM   26  C15 UNL     1       4.818  32.918  -3.220  1.00  0.00     0.000 A 
HETATM   27  C16 UNL     1       4.841  33.018  -1.845  1.00  0.00     0.014 A 
HETATM   28  C20 UNL     1       5.234  33.996  -3.974  1.00  0.00     0.086 A 
HETATM   29  C17 UNL     1       5.268  34.164  -1.203  1.00  0.00     0.001 A 
HETATM   30  C18 UNL     1       5.686  35.246  -1.958  1.00  0.00     0.003 A 
HETATM   31  C19 UNL     1       5.662  35.144  -3.314  1.00  0.00     0.038 A 
HETATM   32  O1  UNL     1       5.126  33.675  -5.246  1.00  0.00    -0.312 OA
ENDBRANCH  11  24
TORSDOF 3
ENDMDL
MODEL 5
REMARK VINA RESULT: -3.329274933      2.428      2.939
REMARK  3 active torsions:
REMARK  status: ('A' for Active; 'I' for Inactive)
REMARK    1  A    between atoms: N1_1  and  C1_4 
REMARK    2  A    between atoms: C4_9  and  C5_10 
REMARK    3  A    between atoms: C12_20  and  C13_21 
ROOT
HETATM    1  C5  UNL     1       6.293  31.051  -8.332  1.00  0.00    -0.016 A 
HETATM    2  C6  UNL     1       5.929  32.013  -9.146  1.00  0.00     0.001 A 
HETATM    3  C7  UNL     1       6.665  32.158 -10.330  1.00  0.00     0.041 A 
HETATM    4  C8  UNL     1       6.294  33.169 -11.198  1.00  0.00     0.047 A 
HETATM    5  N3  UNL     1       7.050  33.299 -12.389  1.00  0.00    -0.102 NA
HETATM    6  C9  UNL     1       5.241  34.006 -10.916  1.00  0.00     0.029 A 
HETATM    7  C10 UNL     1       4.513  33.861  -9.743  1.00  0.00     0.032 A 
HETATM    8  C11 UNL     1       4.875  32.863  -8.879  1.00  0.00     0.039 A 
HETATM    9  N4  UNL     1       4.249  32.676  -7.790  1.00  0.00    -0.378 N 
ATOM     10  H4  UNL     1       3.474  33.314  -7.611  1.00  0.00     0.160 HD
HETATM   11  C12 UNL     1       4.485  31.696  -6.788  1.00  0.00     0.143 A 
HETATM   12  C21 UNL     1       5.606  30.797  -7.063  1.00  0.00     0.073 A 
ENDROOT
BRANCH   1  13
HETATM   13  C4  UNL     1       7.449  30.202  -8.735  1.00  0.00     0.057 A 
HETATM   14  C3  UNL     1       8.418  30.667  -9.597  1.00  0.00     0.048 A 
HETATM   15  C2  UNL     1       9.490  29.888  -9.973  1.00  0.00     0.108 A 
HETATM   16  N2  UNL     1       9.556  28.646  -9.463  1.00  0.00    -0.202 N 
HETATM   17  C1  UNL     1       8.604  28.185  -8.616  1.00  0.00     0.676 A 
ATOM     18  H2  UNL     1      10.336  28.040  -9.718  1.00  0.00     0.183 HD
HETATM   19  N5  UNL     1       7.566  28.958  -8.260  1.00  0.00    -0.192 N 
ATOM     20  H5  UNL     1       6.859  28.592  -7.620  1.00  0.00     0.184 HD
BRANCH  17  21
HETATM   21  N1  UNL     1       8.724  27.001  -8.168  1.00  0.00    -0.234 N 
ATOM     22  H12 UNL     1       9.281  26.305  -8.664  1.00  0.00     0.174 HD
ATOM     23  H11 UNL     1       8.245  26.766  -7.299  1.00  0.00     0.174 HD
ENDBRANCH  17  21
ENDBRANCH   1  13
BRANCH  11  24
HETATM   24  C13 UNL     1       4.700  32.402  -5.469  1.00  0.00     0.077 A 
HETATM   25  C14 UNL     1       4.418  31.901  -4.202  1.00  0.00     0.049 A 
HETATM   26  C15 UNL     1       4.768  32.876  -3.292  1.00  0.00     0.000 A 
HETATM   27  C16 UNL     1       4.736  32.996  -1.918  1.00  0.00     0.014 A 
HETATM   28  C20 UNL     1       5.250  33.930  -4.042  1.00  0.00     0.086 A 
HETATM   29  C17 UNL     1       5.172  34.137  -1.273  1.00  0.00     0.001 A 
HETATM   30  C18 UNL     1       5.655  35.195  -2.025  1.00  0.00     0.003 A 
HETATM   31  C19 UNL     1       5.685  35.074  -3.379  1.00  0.00     0.038 A 
HETATM   32  O1  UNL     1       5.186  33.594  -5.313  1.00  0.00    -0.312 OA
ENDBRANCH  11  24
TORSDOF 3
ENDMDL
