MODEL 1
REMARK VINA RESULT: -2.202390205      0.000      0.000
REMARK  3 active torsions:
REMARK  status: ('A' for Active; 'I' for Inactive)
REMARK    1  A    between atoms: N1_1  and  C1_4 
REMARK    2  A    between atoms: C3_8  and  C4_9 
REMARK    3  A    between atoms: C10_17  and  N4_18 
ROOT
HETATM    1  C1  UNL     1       1.605  32.966  -6.113  1.00  0.00     0.128 A 
HETATM    2  N2  UNL     1       1.187  33.441  -4.922  1.00  0.00    -0.350 N 
ATOM      3  H2  UNL     1       0.197  33.657  -4.806  1.00  0.00     0.166 HD
HETATM    4  C2  UNL     1       2.012  33.644  -3.884  1.00  0.00     0.102 A 
HETATM    5  C3  UNL     1       3.359  33.338  -4.083  1.00  0.00    -0.008 A 
HETATM    6  C9  UNL     1       3.815  32.845  -5.304  1.00  0.00     0.049 A 
HETATM    7  C10 UNL     1       2.936  32.658  -6.325  1.00  0.00     0.104 A 
ENDROOT
BRANCH   7   8
HETATM    8  N4  UNL     1       3.363  32.149  -7.609  1.00  0.00    -0.215 N 
HETATM    9  N5  UNL     1       3.234  30.910  -8.043  1.00  0.00    -0.289 N 
HETATM   10  C11 UNL     1       3.733  30.773  -9.278  1.00  0.00     0.079 A 
ATOM     11  H5  UNL     1       2.808  30.154  -7.508  1.00  0.00     0.188 HD
HETATM   12  C12 UNL     1       4.211  32.007  -9.650  1.00  0.00     0.114 A 
HETATM   13  C20 UNL     1       3.947  29.802 -10.349  1.00  0.00     0.007 A 
HETATM   14  C13 UNL     1       3.964  32.852  -8.580  1.00  0.00     0.283 A 
HETATM   15  C14 UNL     1       4.749  31.870 -10.977  1.00  0.00     0.201 A 
HETATM   16  O1  UNL     1       4.261  34.073  -8.546  1.00  0.00    -0.265 OA
HETATM   17  O2  UNL     1       5.277  32.773 -11.663  1.00  0.00    -0.286 OA
HETATM   18  C15 UNL     1       4.564  30.488 -11.370  1.00  0.00     0.028 A 
HETATM   19  C16 UNL     1       4.896  29.813 -12.535  1.00  0.00     0.016 A 
HETATM   20  C17 UNL     1       4.635  28.481 -12.725  1.00  0.00     0.001 A 
HETATM   21  C18 UNL     1       4.013  27.804 -11.687  1.00  0.00     0.001 A 
HETATM   22  C19 UNL     1       3.680  28.465 -10.525  1.00  0.00     0.015 A 
ENDBRANCH   7   8
BRANCH   1  23
HETATM   23  N1  UNL     1       0.765  32.786  -7.094  1.00  0.00    -0.384 N 
ATOM     24  H12 UNL     1      -0.191  32.512  -6.868  1.00  0.00     0.157 HD
ATOM     25  H11 UNL     1       1.057  32.915  -8.063  1.00  0.00     0.157 HD
ENDBRANCH   1  23
BRANCH   5  26
HETATM   26  C4  UNL     1       4.295  33.533  -3.003  1.00  0.00    -0.022 A 
HETATM   27  C5  UNL     1       4.945  34.730  -2.855  1.00  0.00     0.029 A 
HETATM   28  C6  UNL     1       5.858  34.935  -1.816  1.00  0.00     0.088 A 
HETATM   29  N3  UNL     1       6.084  33.932  -0.961  1.00  0.00    -0.375 N 
HETATM   30  C7  UNL     1       5.475  32.750  -1.065  1.00  0.00     0.088 A 
ATOM     31  H3  UNL     1       6.748  34.076  -0.200  1.00  0.00     0.164 HD
HETATM   32  C8  UNL     1       4.563  32.538  -2.101  1.00  0.00     0.029 A 
ENDBRANCH   5  26
TORSDOF 3
ENDMDL
MODEL 2
REMARK VINA RESULT: -2.058264182      1.870      7.976
REMARK  3 active torsions:
REMARK  status: ('A' for Active; 'I' for Inactive)
REMARK    1  A    between atoms: N1_1  and  C1_4 
REMARK    2  A    between atoms: C3_8  and  C4_9 
REMARK    3  A    between atoms: C10_17  and  N4_18 
ROOT
HETATM    1  C1  UNL     1       1.495  32.644  -7.814  1.00  0.00     0.128 A 
HETATM    2  N2  UNL     1       0.822  32.159  -8.878  1.00  0.00    -0.350 N 
ATOM      3  H2  UNL     1      -0.182  32.326  -8.934  1.00  0.00     0.166 HD
HETATM    4  C2  UNL     1       1.412  31.469  -9.865  1.00  0.00     0.102 A 
HETATM    5  C3  UNL     1       2.788  31.262  -9.752  1.00  0.00    -0.008 A 
HETATM    6  C9  UNL     1       3.505  31.752  -8.663  1.00  0.00     0.049 A 
HETATM    7  C10 UNL     1       2.858  32.446  -7.689  1.00  0.00     0.104 A 
ENDROOT
BRANCH   7   8
HETATM    8  N4  UNL     1       3.560  32.976  -6.541  1.00  0.00    -0.215 N 
HETATM    9  N5  UNL     1       3.614  32.438  -5.338  1.00  0.00    -0.289 N 
HETATM   10  C11 UNL     1       4.351  33.182  -4.504  1.00  0.00     0.079 A 
ATOM     11  H5  UNL     1       3.155  31.566  -5.076  1.00  0.00     0.188 HD
HETATM   12  C12 UNL     1       4.791  34.266  -5.227  1.00  0.00     0.114 A 
HETATM   13  C20 UNL     1       4.843  33.256  -3.130  1.00  0.00     0.007 A 
HETATM   14  C13 UNL     1       4.278  34.108  -6.505  1.00  0.00     0.283 A 
HETATM   15  C14 UNL     1       5.585  35.073  -4.339  1.00  0.00     0.201 A 
HETATM   16  O1  UNL     1       4.467  34.905  -7.457  1.00  0.00    -0.265 OA
HETATM   17  O2  UNL     1       6.162  36.145  -4.624  1.00  0.00    -0.286 OA
HETATM   18  C15 UNL     1       5.590  34.410  -3.052  1.00  0.00     0.028 A 
HETATM   19  C16 UNL     1       6.191  34.746  -1.848  1.00  0.00     0.016 A 
HETATM   20  C17 UNL     1       6.079  33.977  -0.718  1.00  0.00     0.001 A 
HETATM   21  C18 UNL     1       5.324  32.818  -0.814  1.00  0.00     0.001 A 
HETATM   22  C19 UNL     1       4.722  32.475  -2.005  1.00  0.00     0.015 A 
ENDBRANCH   7   8
BRANCH   1  23
HETATM   23  N1  UNL     1       0.878  33.309  -6.878  1.00  0.00    -0.384 N 
ATOM     24  H12 UNL     1      -0.133  33.425  -6.953  1.00  0.00     0.157 HD
ATOM     25  H11 UNL     1       1.392  33.706  -6.091  1.00  0.00     0.157 HD
ENDBRANCH   1  23
BRANCH   5  26
HETATM   26  C4  UNL     1       3.479  30.528 -10.783  1.00  0.00    -0.022 A 
HETATM   27  C5  UNL     1       3.569  29.162 -10.722  1.00  0.00     0.029 A 
HETATM   28  C6  UNL     1       4.238  28.435 -11.712  1.00  0.00     0.088 A 
HETATM   29  N3  UNL     1       4.791  29.105 -12.728  1.00  0.00    -0.375 N 
HETATM   30  C7  UNL     1       4.729  30.434 -12.830  1.00  0.00     0.088 A 
ATOM     31  H3  UNL     1       5.279  28.580 -13.454  1.00  0.00     0.164 HD
HETATM   32  C8  UNL     1       4.063  31.166 -11.845  1.00  0.00     0.029 A 
ENDBRANCH   5  26
TORSDOF 3
ENDMDL
MODEL 3
REMARK VINA RESULT: -1.914563310      2.033      2.697
REMARK  3 active torsions:
REMARK  status: ('A' for Active; 'I' for Inactive)
REMARK    1  A    between atoms: N1_1  and  C1_4 
REMARK    2  A    between atoms: C3_8  and  C4_9 
REMARK    3  A    between atoms: C10_17  and  N4_18 
ROOT
HETATM    1  C1  UNL     1       6.040  35.306  -7.340  1.00  0.00     0.128 A 
HETATM    2  N2  UNL     1       6.320  36.163  -6.337  1.00  0.00    -0.350 N 
ATOM      3  H2  UNL     1       6.653  37.097  -6.574  1.00  0.00     0.166 HD
HETATM    4  C2  UNL     1       6.182  35.843  -5.041  1.00  0.00     0.102 A 
HETATM    5  C3  UNL     1       5.724  34.556  -4.757  1.00  0.00    -0.008 A 
HETATM    6  C9  UNL     1       5.428  33.653  -5.776  1.00  0.00     0.049 A 
HETATM    7  C10 UNL     1       5.586  34.028  -7.074  1.00  0.00     0.104 A 
ENDROOT
BRANCH   7   8
HETATM    8  N4  UNL     1       5.290  33.127  -8.165  1.00  0.00    -0.215 N 
HETATM    9  N5  UNL     1       5.009  31.842  -8.067  1.00  0.00    -0.289 N 
HETATM   10  C11 UNL     1       4.783  31.300  -9.270  1.00  0.00     0.079 A 
ATOM     11  H5  UNL     1       4.967  31.328  -7.188  1.00  0.00     0.188 HD
HETATM   12  C12 UNL     1       4.933  32.309 -10.192  1.00  0.00     0.114 A 
HETATM   13  C20 UNL     1       4.442  30.047  -9.941  1.00  0.00     0.007 A 
HETATM   14  C13 UNL     1       5.251  33.446  -9.467  1.00  0.00     0.283 A 
HETATM   15  C14 UNL     1       4.691  31.735 -11.489  1.00  0.00     0.201 A 
HETATM   16  O1  UNL     1       5.464  34.579  -9.967  1.00  0.00    -0.265 OA
HETATM   17  O2  UNL     1       4.732  32.334 -12.587  1.00  0.00    -0.286 OA
HETATM   18  C15 UNL     1       4.391  30.333 -11.286  1.00  0.00     0.028 A 
HETATM   19  C16 UNL     1       4.085  29.320 -12.182  1.00  0.00     0.016 A 
HETATM   20  C17 UNL     1       3.826  28.032 -11.791  1.00  0.00     0.001 A 
HETATM   21  C18 UNL     1       3.882  27.760 -10.433  1.00  0.00     0.001 A 
HETATM   22  C19 UNL     1       4.185  28.759  -9.533  1.00  0.00     0.015 A 
ENDBRANCH   7   8
BRANCH   1  23
HETATM   23  N1  UNL     1       6.191  35.663  -8.585  1.00  0.00    -0.384 N 
ATOM     24  H12 UNL     1       5.858  35.030  -9.314  1.00  0.00     0.157 HD
ATOM     25  H11 UNL     1       6.632  36.551  -8.826  1.00  0.00     0.157 HD
ENDBRANCH   1  23
BRANCH   5  26
HETATM   26  C4  UNL     1       5.553  34.153  -3.382  1.00  0.00    -0.022 A 
HETATM   27  C5  UNL     1       4.930  32.972  -3.077  1.00  0.00     0.029 A 
HETATM   28  C6  UNL     1       4.754  32.567  -1.750  1.00  0.00     0.088 A 
HETATM   29  N3  UNL     1       5.211  33.363  -0.777  1.00  0.00    -0.375 N 
HETATM   30  C7  UNL     1       5.824  34.521  -1.026  1.00  0.00     0.088 A 
ATOM     31  H3  UNL     1       5.086  33.072   0.192  1.00  0.00     0.164 HD
HETATM   32  C8  UNL     1       6.003  34.931  -2.349  1.00  0.00     0.029 A 
ENDBRANCH   5  26
TORSDOF 3
ENDMDL
MODEL 4
REMARK VINA RESULT: -1.223625988      2.508      3.183
REMARK  3 active torsions:
REMARK  status: ('A' for Active; 'I' for Inactive)
REMARK    1  A    between atoms: N1_1  and  C1_4 
REMARK    2  A    between atoms: C3_8  and  C4_9 
REMARK    3  A    between atoms: C10_17  and  N4_18 
ROOT
HETATM    1  C1  UNL     1       6.022  34.950  -7.362  1.00  0.00     0.128 A 
HETATM    2  N2  UNL     1       6.231  36.041  -6.598  1.00  0.00    -0.350 N 
ATOM      3  H2  UNL     1       6.467  36.919  -7.060  1.00  0.00     0.166 HD
HETATM    4  C2  UNL     1       6.142  36.026  -5.260  1.00  0.00     0.102 A 
HETATM    5  C3  UNL     1       5.817  34.806  -4.665  1.00  0.00    -0.008 A 
HETATM    6  C9  UNL     1       5.597  33.665  -5.434  1.00  0.00     0.049 A 
HETATM    7  C10 UNL     1       5.700  33.734  -6.788  1.00  0.00     0.104 A 
ENDROOT
BRANCH   7   8
HETATM    8  N4  UNL     1       5.480  32.577  -7.626  1.00  0.00    -0.215 N 
HETATM    9  N5  UNL     1       4.468  32.387  -8.451  1.00  0.00    -0.289 N 
HETATM   10  C11 UNL     1       4.566  31.209  -9.079  1.00  0.00     0.079 A 
ATOM     11  H5  UNL     1       3.708  33.053  -8.593  1.00  0.00     0.188 HD
HETATM   12  C12 UNL     1       5.717  30.612  -8.620  1.00  0.00     0.114 A 
HETATM   13  C20 UNL     1       3.903  30.348 -10.056  1.00  0.00     0.007 A 
HETATM   14  C13 UNL     1       6.270  31.497  -7.708  1.00  0.00     0.283 A 
HETATM   15  C14 UNL     1       5.832  29.344  -9.290  1.00  0.00     0.201 A 
HETATM   16  O1  UNL     1       7.337  31.299  -7.074  1.00  0.00    -0.265 OA
HETATM   17  O2  UNL     1       6.747  28.504  -9.142  1.00  0.00    -0.286 OA
HETATM   18  C15 UNL     1       4.687  29.222 -10.169  1.00  0.00     0.028 A 
HETATM   19  C16 UNL     1       4.300  28.214 -11.038  1.00  0.00     0.016 A 
HETATM   20  C17 UNL     1       3.163  28.281 -11.801  1.00  0.00     0.001 A 
HETATM   21  C18 UNL     1       2.385  29.422 -11.675  1.00  0.00     0.001 A 
HETATM   22  C19 UNL     1       2.759  30.430 -10.814  1.00  0.00     0.015 A 
ENDBRANCH   7   8
BRANCH   1  23
HETATM   23  N1  UNL     1       6.121  35.014  -8.661  1.00  0.00    -0.384 N 
ATOM     24  H12 UNL     1       6.272  35.927  -9.091  1.00  0.00     0.157 HD
ATOM     25  H11 UNL     1       6.047  34.172  -9.233  1.00  0.00     0.157 HD
ENDBRANCH   1  23
BRANCH   5  26
HETATM   26  C4  UNL     1       5.705  34.726  -3.230  1.00  0.00    -0.022 A 
HETATM   27  C5  UNL     1       5.457  33.525  -2.618  1.00  0.00     0.029 A 
HETATM   28  C6  UNL     1       5.343  33.430  -1.227  1.00  0.00     0.088 A 
HETATM   29  N3  UNL     1       5.483  34.543  -0.501  1.00  0.00    -0.375 N 
HETATM   30  C7  UNL     1       5.725  35.734  -1.052  1.00  0.00     0.088 A 
ATOM     31  H3  UNL     1       5.402  34.480   0.514  1.00  0.00     0.164 HD
HETATM   32  C8  UNL     1       5.839  35.836  -2.439  1.00  0.00     0.029 A 
ENDBRANCH   5  26
TORSDOF 3
ENDMDL
MODEL 5
REMARK VINA RESULT: -0.967144408      2.126      2.910
REMARK  3 active torsions:
REMARK  status: ('A' for Active; 'I' for Inactive)
REMARK    1  A    between atoms: N1_1  and  C1_4 
REMARK    2  A    between atoms: C3_8  and  C4_9 
REMARK    3  A    between atoms: C10_17  and  N4_18 
ROOT
HETATM    1  C1  UNL     1       5.907  35.115  -7.398  1.00  0.00     0.128 A 
HETATM    2  N2  UNL     1       6.473  36.000  -6.552  1.00  0.00    -0.350 N 
ATOM      3  H2  UNL     1       6.954  36.808  -6.945  1.00  0.00     0.166 HD
HETATM    4  C2  UNL     1       6.431  35.866  -5.218  1.00  0.00     0.102 A 
HETATM    5  C3  UNL     1       5.763  34.747  -4.719  1.00  0.00    -0.008 A 
HETATM    6  C9  UNL     1       5.171  33.819  -5.573  1.00  0.00     0.049 A 
HETATM    7  C10 UNL     1       5.243  34.002  -6.919  1.00  0.00     0.104 A 
ENDROOT
BRANCH   7   8
HETATM    8  N4  UNL     1       4.643  33.067  -7.844  1.00  0.00    -0.215 N 
HETATM    9  N5  UNL     1       5.238  32.040  -8.418  1.00  0.00    -0.289 N 
HETATM   10  C11 UNL     1       4.397  31.375  -9.221  1.00  0.00     0.079 A 
ATOM     11  H5  UNL     1       6.214  31.784  -8.270  1.00  0.00     0.188 HD
HETATM   12  C12 UNL     1       3.188  32.026  -9.151  1.00  0.00     0.114 A 
HETATM   13  C20 UNL     1       4.305  30.231 -10.125  1.00  0.00     0.007 A 
HETATM   14  C13 UNL     1       3.373  33.086  -8.277  1.00  0.00     0.283 A 
HETATM   15  C14 UNL     1       2.276  31.318 -10.009  1.00  0.00     0.201 A 
HETATM   16  O1  UNL     1       2.485  33.915  -7.957  1.00  0.00    -0.265 OA
HETATM   17  O2  UNL     1       1.075  31.602 -10.215  1.00  0.00    -0.286 OA
HETATM   18  C15 UNL     1       3.010  30.214 -10.592  1.00  0.00     0.028 A 
HETATM   19  C16 UNL     1       2.625  29.224 -11.482  1.00  0.00     0.016 A 
HETATM   20  C17 UNL     1       3.479  28.246 -11.926  1.00  0.00     0.001 A 
HETATM   21  C18 UNL     1       4.779  28.277 -11.445  1.00  0.00     0.001 A 
HETATM   22  C19 UNL     1       5.173  29.257 -10.561  1.00  0.00     0.015 A 
ENDBRANCH   7   8
BRANCH   1  23
HETATM   23  N1  UNL     1       5.974  35.288  -8.689  1.00  0.00    -0.384 N 
ATOM     24  H12 UNL     1       6.642  35.968  -9.053  1.00  0.00     0.157 HD
ATOM     25  H11 UNL     1       5.373  34.757  -9.320  1.00  0.00     0.157 HD
ENDBRANCH   1  23
BRANCH   5  26
HETATM   26  C4  UNL     1       5.683  34.549  -3.293  1.00  0.00    -0.022 A 
HETATM   27  C5  UNL     1       5.353  33.322  -2.779  1.00  0.00     0.029 A 
HETATM   28  C6  UNL     1       5.268  33.113  -1.399  1.00  0.00     0.088 A 
HETATM   29  N3  UNL     1       5.520  34.142  -0.584  1.00  0.00    -0.375 N 
HETATM   30  C7  UNL     1       5.846  35.354  -1.037  1.00  0.00     0.088 A 
ATOM     31  H3  UNL     1       5.461  33.996   0.424  1.00  0.00     0.164 HD
HETATM   32  C8  UNL     1       5.932  35.570  -2.414  1.00  0.00     0.029 A 
ENDBRANCH   5  26
TORSDOF 3
ENDMDL
