MODEL 1
REMARK VINA RESULT: -9.292073499      0.000      0.000
REMARK  4 active torsions:
REMARK  status: ('A' for Active; 'I' for Inactive)
REMARK    1  A    between atoms: C8_9  and  N2_10 
REMARK    2  A    between atoms: N2_10  and  C9_12 
REMARK    3  A    between atoms: C11_18  and  N5_19 
REMARK    4  A    between atoms: N5_19  and  C12_21 
ROOT
HETATM    1  C1  UNL     1       5.615  33.713 -10.499  1.00  0.00     0.050 C 
HETATM    2  C2  UNL     1       5.725  32.269 -10.156  1.00  0.00    -0.033 A 
HETATM    3  C3  UNL     1       6.996  31.743  -9.917  1.00  0.00     0.031 A 
HETATM    4  C4  UNL     1       7.129  30.406  -9.597  1.00  0.00     0.045 A 
HETATM    5  C5  UNL     1       8.422  29.820  -9.342  1.00  0.00     0.099 C 
HETATM    6  N1  UNL     1       9.456  29.339  -9.138  1.00  0.00    -0.191 NA
HETATM    7  C6  UNL     1       5.998  29.597  -9.514  1.00  0.00     0.025 A 
HETATM    8  C7  UNL     1       4.733  30.096  -9.746  1.00  0.00     0.032 A 
HETATM    9  C8  UNL     1       4.627  31.449 -10.068  1.00  0.00     0.055 A 
ENDROOT
BRANCH   9  10
HETATM   10  N2  UNL     1       3.330  31.974 -10.309  1.00  0.00    -0.191 N 
ATOM     11  H2  UNL     1       3.058  32.336 -11.223  1.00  0.00     0.184 HD
BRANCH  10  12
HETATM   12  C9  UNL     1       2.501  31.969  -9.291  1.00  0.00     0.698 A 
HETATM   13  N3  UNL     1       1.212  32.321  -9.426  1.00  0.00    -0.187 N 
HETATM   14  C10 UNL     1       0.324  32.338  -8.437  1.00  0.00     0.215 A 
ATOM     15  H3  UNL     1       0.892  32.597 -10.354  1.00  0.00     0.185 HD
HETATM   16  N4  UNL     1       0.782  31.966  -7.216  1.00  0.00    -0.187 N 
HETATM   17  C11 UNL     1       2.066  31.603  -7.037  1.00  0.00     0.698 A 
ATOM     18  H4  UNL     1       0.143  31.959  -6.421  1.00  0.00     0.185 HD
HETATM   19  N7  UNL     1       2.926  31.604  -8.068  1.00  0.00    -0.022 N 
ATOM     20  H7  UNL     1       3.897  31.329  -7.924  1.00  0.00     0.203 HD
BRANCH  17  21
HETATM   21  N5  UNL     1       2.453  31.254  -5.836  1.00  0.00    -0.191 N 
ATOM     22  H5  UNL     1       2.178  30.347  -5.459  1.00  0.00     0.184 HD
BRANCH  21  23
HETATM   23  C12 UNL     1       3.253  32.130  -5.056  1.00  0.00     0.050 A 
HETATM   24  C13 UNL     1       3.268  32.026  -3.672  1.00  0.00     0.031 A 
HETATM   25  C14 UNL     1       4.056  32.893  -2.945  1.00  0.00     0.020 A 
HETATM   26  C15 UNL     1       4.842  33.868  -3.507  1.00  0.00     0.042 A 
HETATM   27  C16 UNL     1       5.620  34.720  -2.753  1.00  0.00     0.256 A 
HETATM   28  C19 UNL     1       4.817  33.959  -4.895  1.00  0.00    -0.017 A 
HETATM   29  O1  UNL     1       5.635  34.628  -1.499  1.00  0.00    -0.267 OA
HETATM   30  N6  UNL     1       6.362  35.649  -3.379  1.00  0.00    -0.333 N 
HETATM   31  C17 UNL     1       6.389  35.797  -4.707  1.00  0.00     0.092 A 
ATOM     32  H6  UNL     1       6.935  36.274  -2.811  1.00  0.00     0.168 HD
HETATM   33  C18 UNL     1       5.607  34.942  -5.470  1.00  0.00     0.029 A 
HETATM   34  C20 UNL     1       4.040  33.109  -5.644  1.00  0.00     0.042 A 
ENDBRANCH  21  23
ENDBRANCH  17  21
ENDBRANCH  10  12
ENDBRANCH   9  10
TORSDOF 4
ENDMDL
MODEL 2
REMARK VINA RESULT: -8.532873039      1.484      1.745
REMARK  4 active torsions:
REMARK  status: ('A' for Active; 'I' for Inactive)
REMARK    1  A    between atoms: C8_9  and  N2_10 
REMARK    2  A    between atoms: N2_10  and  C9_12 
REMARK    3  A    between atoms: C11_18  and  N5_19 
REMARK    4  A    between atoms: N5_19  and  C12_21 
ROOT
HETATM    1  C1  UNL     1       6.360  32.928 -11.252  1.00  0.00     0.050 C 
HETATM    2  C2  UNL     1       6.283  31.643 -10.506  1.00  0.00    -0.033 A 
HETATM    3  C3  UNL     1       7.445  31.156  -9.908  1.00  0.00     0.031 A 
HETATM    4  C4  UNL     1       7.403  29.964  -9.210  1.00  0.00     0.045 A 
HETATM    5  C5  UNL     1       8.581  29.424  -8.576  1.00  0.00     0.099 C 
HETATM    6  N1  UNL     1       9.521  28.979  -8.065  1.00  0.00    -0.191 NA
HETATM    7  C6  UNL     1       6.204  29.262  -9.109  1.00  0.00     0.025 A 
HETATM    8  C7  UNL     1       5.044  29.725  -9.691  1.00  0.00     0.032 A 
HETATM    9  C8  UNL     1       5.115  30.930 -10.391  1.00  0.00     0.055 A 
ENDROOT
BRANCH   9  10
HETATM   10  N2  UNL     1       3.926  31.417 -10.996  1.00  0.00    -0.191 N 
ATOM     11  H2  UNL     1       3.810  31.444 -12.009  1.00  0.00     0.184 HD
BRANCH  10  12
HETATM   12  C9  UNL     1       2.984  31.830 -10.180  1.00  0.00     0.698 A 
HETATM   13  N3  UNL     1       1.737  31.333 -10.229  1.00  0.00    -0.187 N 
HETATM   14  C10 UNL     1       0.740  31.708  -9.434  1.00  0.00     0.215 A 
ATOM     15  H3  UNL     1       1.540  30.616 -10.927  1.00  0.00     0.185 HD
HETATM   16  N4  UNL     1       1.035  32.662  -8.516  1.00  0.00    -0.187 N 
HETATM   17  C11 UNL     1       2.272  33.186  -8.432  1.00  0.00     0.698 A 
ATOM     18  H4  UNL     1       0.308  32.988  -7.879  1.00  0.00     0.185 HD
HETATM   19  N7  UNL     1       3.245  32.775  -9.259  1.00  0.00    -0.022 N 
ATOM     20  H7  UNL     1       4.180  33.177  -9.189  1.00  0.00     0.203 HD
BRANCH  17  21
HETATM   21  N5  UNL     1       2.499  34.105  -7.527  1.00  0.00    -0.191 N 
ATOM     22  H5  UNL     1       2.320  35.085  -7.742  1.00  0.00     0.184 HD
BRANCH  21  23
HETATM   23  C12 UNL     1       2.994  33.743  -6.245  1.00  0.00     0.050 A 
HETATM   24  C13 UNL     1       2.576  32.568  -5.636  1.00  0.00     0.031 A 
HETATM   25  C14 UNL     1       3.076  32.247  -4.391  1.00  0.00     0.020 A 
HETATM   26  C15 UNL     1       3.975  33.023  -3.703  1.00  0.00     0.042 A 
HETATM   27  C16 UNL     1       4.457  32.675  -2.460  1.00  0.00     0.256 A 
HETATM   28  C19 UNL     1       4.384  34.197  -4.328  1.00  0.00    -0.017 A 
HETATM   29  O1  UNL     1       4.080  31.611  -1.905  1.00  0.00    -0.267 OA
HETATM   30  N6  UNL     1       5.336  33.489  -1.851  1.00  0.00    -0.333 N 
HETATM   31  C17 UNL     1       5.773  34.632  -2.387  1.00  0.00     0.092 A 
ATOM     32  H6  UNL     1       5.686  33.222  -0.931  1.00  0.00     0.168 HD
HETATM   33  C18 UNL     1       5.290  34.986  -3.639  1.00  0.00     0.029 A 
HETATM   34  C20 UNL     1       3.902  34.542  -5.567  1.00  0.00     0.042 A 
ENDBRANCH  21  23
ENDBRANCH  17  21
ENDBRANCH  10  12
ENDBRANCH   9  10
TORSDOF 4
ENDMDL
MODEL 3
REMARK VINA RESULT: -8.296843205      0.971      1.600
REMARK  4 active torsions:
REMARK  status: ('A' for Active; 'I' for Inactive)
REMARK    1  A    between atoms: C8_9  and  N2_10 
REMARK    2  A    between atoms: N2_10  and  C9_12 
REMARK    3  A    between atoms: C11_18  and  N5_19 
REMARK    4  A    between atoms: N5_19  and  C12_21 
ROOT
HETATM    1  C1  UNL     1       5.343  33.719 -10.179  1.00  0.00     0.050 C 
HETATM    2  C2  UNL     1       5.438  32.250  -9.967  1.00  0.00    -0.033 A 
HETATM    3  C3  UNL     1       6.678  31.712  -9.618  1.00  0.00     0.031 A 
HETATM    4  C4  UNL     1       6.796  30.350  -9.416  1.00  0.00     0.045 A 
HETATM    5  C5  UNL     1       8.057  29.751  -9.055  1.00  0.00     0.099 C 
HETATM    6  N1  UNL     1       9.066  29.259  -8.767  1.00  0.00    -0.191 NA
HETATM    7  C6  UNL     1       5.679  29.529  -9.559  1.00  0.00     0.025 A 
HETATM    8  C7  UNL     1       4.445  30.039  -9.902  1.00  0.00     0.032 A 
HETATM    9  C8  UNL     1       4.355  31.417 -10.101  1.00  0.00     0.055 A 
ENDROOT
BRANCH   9  10
HETATM   10  N2  UNL     1       3.089  31.954 -10.455  1.00  0.00    -0.191 N 
ATOM     11  H2  UNL     1       2.896  32.305 -11.393  1.00  0.00     0.184 HD
BRANCH  10  12
HETATM   12  C9  UNL     1       2.179  31.974  -9.508  1.00  0.00     0.698 A 
HETATM   13  N3  UNL     1       0.867  32.025  -9.789  1.00  0.00    -0.187 N 
HETATM   14  C10 UNL     1      -0.102  32.048  -8.879  1.00  0.00     0.215 A 
ATOM     15  H3  UNL     1       0.593  32.048 -10.771  1.00  0.00     0.185 HD
HETATM   16  N4  UNL     1       0.295  32.016  -7.583  1.00  0.00    -0.187 N 
HETATM   17  C11 UNL     1       1.600  31.963  -7.258  1.00  0.00     0.698 A 
ATOM     18  H4  UNL     1      -0.406  32.031  -6.842  1.00  0.00     0.185 HD
HETATM   19  N7  UNL     1       2.541  31.943  -8.214  1.00  0.00    -0.022 N 
ATOM     20  H7  UNL     1       3.529  31.903  -7.959  1.00  0.00     0.203 HD
BRANCH  17  21
HETATM   21  N5  UNL     1       1.925  31.934  -5.990  1.00  0.00    -0.191 N 
ATOM     22  H5  UNL     1       1.450  31.289  -5.358  1.00  0.00     0.184 HD
BRANCH  21  23
HETATM   23  C12 UNL     1       2.938  32.795  -5.488  1.00  0.00     0.050 A 
HETATM   24  C13 UNL     1       3.561  33.710  -6.325  1.00  0.00     0.031 A 
HETATM   25  C14 UNL     1       4.540  34.531  -5.806  1.00  0.00     0.020 A 
HETATM   26  C15 UNL     1       4.947  34.505  -4.496  1.00  0.00     0.042 A 
HETATM   27  C16 UNL     1       5.929  35.338  -4.006  1.00  0.00     0.256 A 
HETATM   28  C19 UNL     1       4.313  33.581  -3.670  1.00  0.00    -0.017 A 
HETATM   29  O1  UNL     1       6.495  36.169  -4.762  1.00  0.00    -0.267 OA
HETATM   30  N6  UNL     1       6.271  35.250  -2.709  1.00  0.00    -0.333 N 
HETATM   31  C17 UNL     1       5.708  34.390  -1.857  1.00  0.00     0.092 A 
ATOM     32  H6  UNL     1       6.998  35.873  -2.357  1.00  0.00     0.168 HD
HETATM   33  C18 UNL     1       4.719  33.548  -2.346  1.00  0.00     0.029 A 
HETATM   34  C20 UNL     1       3.334  32.751  -4.160  1.00  0.00     0.042 A 
ENDBRANCH  21  23
ENDBRANCH  17  21
ENDBRANCH  10  12
ENDBRANCH   9  10
TORSDOF 4
ENDMDL
MODEL 4
REMARK VINA RESULT: -8.159915523      1.431      2.229
REMARK  4 active torsions:
REMARK  status: ('A' for Active; 'I' for Inactive)
REMARK    1  A    between atoms: C8_9  and  N2_10 
REMARK    2  A    between atoms: N2_10  and  C9_12 
REMARK    3  A    between atoms: C11_18  and  N5_19 
REMARK    4  A    between atoms: N5_19  and  C12_21 
ROOT
HETATM    1  C1  UNL     1       6.293  32.436 -11.177  1.00  0.00     0.050 C 
HETATM    2  C2  UNL     1       6.289  31.253 -10.275  1.00  0.00    -0.033 A 
HETATM    3  C3  UNL     1       7.512  30.787  -9.792  1.00  0.00     0.031 A 
HETATM    4  C4  UNL     1       7.538  29.689  -8.953  1.00  0.00     0.045 A 
HETATM    5  C5  UNL     1       8.780  29.174  -8.430  1.00  0.00     0.099 C 
HETATM    6  N1  UNL     1       9.772  28.750  -8.006  1.00  0.00    -0.191 NA
HETATM    7  C6  UNL     1       6.347  29.060  -8.597  1.00  0.00     0.025 A 
HETATM    8  C7  UNL     1       5.128  29.504  -9.062  1.00  0.00     0.032 A 
HETATM    9  C8  UNL     1       5.130  30.614  -9.908  1.00  0.00     0.055 A 
ENDROOT
BRANCH   9  10
HETATM   10  N2  UNL     1       3.880  31.080 -10.393  1.00  0.00    -0.191 N 
ATOM     11  H2  UNL     1       3.524  30.809 -11.310  1.00  0.00     0.184 HD
BRANCH  10  12
HETATM   12  C9  UNL     1       3.207  31.879  -9.598  1.00  0.00     0.698 A 
HETATM   13  N3  UNL     1       1.884  31.744  -9.413  1.00  0.00    -0.187 N 
HETATM   14  C10 UNL     1       1.146  32.519  -8.625  1.00  0.00     0.215 A 
ATOM     15  H3  UNL     1       1.410  30.993  -9.914  1.00  0.00     0.185 HD
HETATM   16  N4  UNL     1       1.806  33.507  -7.972  1.00  0.00    -0.187 N 
HETATM   17  C11 UNL     1       3.132  33.677  -8.128  1.00  0.00     0.698 A 
ATOM     18  H4  UNL     1       1.289  34.132  -7.353  1.00  0.00     0.185 HD
HETATM   19  N7  UNL     1       3.833  32.869  -8.937  1.00  0.00    -0.022 N 
ATOM     20  H7  UNL     1       4.838  33.005  -9.051  1.00  0.00     0.203 HD
BRANCH  17  21
HETATM   21  N5  UNL     1       3.717  34.649  -7.473  1.00  0.00    -0.191 N 
ATOM     22  H5  UNL     1       3.862  35.551  -7.926  1.00  0.00     0.184 HD
BRANCH  21  23
HETATM   23  C12 UNL     1       4.149  34.454  -6.134  1.00  0.00     0.050 A 
HETATM   24  C13 UNL     1       4.981  35.380  -5.521  1.00  0.00     0.031 A 
HETATM   25  C14 UNL     1       5.383  35.159  -4.220  1.00  0.00     0.020 A 
HETATM   26  C15 UNL     1       5.008  34.068  -3.477  1.00  0.00     0.042 A 
HETATM   27  C16 UNL     1       5.425  33.875  -2.178  1.00  0.00     0.256 A 
HETATM   28  C19 UNL     1       4.174  33.149  -4.106  1.00  0.00    -0.017 A 
HETATM   29  O1  UNL     1       6.179  34.713  -1.620  1.00  0.00    -0.267 OA
HETATM   30  N6  UNL     1       5.014  32.780  -1.518  1.00  0.00    -0.333 N 
HETATM   31  C17 UNL     1       4.214  31.854  -2.055  1.00  0.00     0.092 A 
ATOM     32  H6  UNL     1       5.329  32.647  -0.556  1.00  0.00     0.168 HD
HETATM   33  C18 UNL     1       3.792  32.044  -3.363  1.00  0.00     0.029 A 
HETATM   34  C20 UNL     1       3.759  33.343  -5.401  1.00  0.00     0.042 A 
ENDBRANCH  21  23
ENDBRANCH  17  21
ENDBRANCH  10  12
ENDBRANCH   9  10
TORSDOF 4
ENDMDL
MODEL 5
REMARK VINA RESULT: -8.159732563      1.508      2.170
REMARK  4 active torsions:
REMARK  status: ('A' for Active; 'I' for Inactive)
REMARK    1  A    between atoms: C8_9  and  N2_10 
REMARK    2  A    between atoms: N2_10  and  C9_12 
REMARK    3  A    between atoms: C11_18  and  N5_19 
REMARK    4  A    between atoms: N5_19  and  C12_21 
ROOT
HETATM    1  C1  UNL     1       6.666  30.875  -8.638  1.00  0.00     0.050 C 
HETATM    2  C2  UNL     1       6.127  31.537  -9.857  1.00  0.00    -0.033 A 
HETATM    3  C3  UNL     1       6.973  32.380 -10.578  1.00  0.00     0.031 A 
HETATM    4  C4  UNL     1       6.499  33.009 -11.714  1.00  0.00     0.045 A 
HETATM    5  C5  UNL     1       7.339  33.889 -12.490  1.00  0.00     0.099 C 
HETATM    6  N1  UNL     1       8.004  34.599 -13.120  1.00  0.00    -0.191 NA
HETATM    7  C6  UNL     1       5.186  32.796 -12.128  1.00  0.00     0.025 A 
HETATM    8  C7  UNL     1       4.333  31.967 -11.430  1.00  0.00     0.032 A 
HETATM    9  C8  UNL     1       4.837  31.345 -10.287  1.00  0.00     0.055 A 
ENDROOT
BRANCH   9  10
HETATM   10  N2  UNL     1       3.968  30.489  -9.561  1.00  0.00    -0.191 N 
ATOM     11  H2  UNL     1       4.078  29.475  -9.572  1.00  0.00     0.184 HD
BRANCH  10  12
HETATM   12  C9  UNL     1       3.015  31.074  -8.873  1.00  0.00     0.698 A 
HETATM   13  N3  UNL     1       2.003  31.722  -9.474  1.00  0.00    -0.187 N 
HETATM   14  C10 UNL     1       1.011  32.334  -8.838  1.00  0.00     0.215 A 
ATOM     15  H3  UNL     1       1.996  31.745 -10.494  1.00  0.00     0.185 HD
HETATM   16  N4  UNL     1       1.049  32.284  -7.483  1.00  0.00    -0.187 N 
HETATM   17  C11 UNL     1       2.044  31.644  -6.840  1.00  0.00     0.698 A 
ATOM     18  H4  UNL     1       0.312  32.737  -6.942  1.00  0.00     0.185 HD
HETATM   19  N7  UNL     1       3.025  31.042  -7.529  1.00  0.00    -0.022 N 
ATOM     20  H7  UNL     1       3.777  30.560  -7.034  1.00  0.00     0.203 HD
BRANCH  17  21
HETATM   21  N5  UNL     1       2.030  31.628  -5.531  1.00  0.00    -0.191 N 
ATOM     22  H5  UNL     1       1.352  31.048  -5.037  1.00  0.00     0.184 HD
BRANCH  21  23
HETATM   23  C12 UNL     1       2.955  32.414  -4.793  1.00  0.00     0.050 A 
HETATM   24  C13 UNL     1       3.083  32.248  -3.421  1.00  0.00     0.031 A 
HETATM   25  C14 UNL     1       3.991  33.028  -2.736  1.00  0.00     0.020 A 
HETATM   26  C15 UNL     1       4.791  33.973  -3.328  1.00  0.00     0.042 A 
HETATM   27  C16 UNL     1       5.690  34.737  -2.616  1.00  0.00     0.256 A 
HETATM   28  C19 UNL     1       4.650  34.127  -4.704  1.00  0.00    -0.017 A 
HETATM   29  O1  UNL     1       5.808  34.588  -1.372  1.00  0.00    -0.267 OA
HETATM   30  N6  UNL     1       6.437  35.642  -3.270  1.00  0.00    -0.333 N 
HETATM   31  C17 UNL     1       6.358  35.847  -4.588  1.00  0.00     0.092 A 
ATOM     32  H6  UNL     1       7.099  36.202  -2.733  1.00  0.00     0.168 HD
HETATM   33  C18 UNL     1       5.454  35.080  -5.309  1.00  0.00     0.029 A 
HETATM   34  C20 UNL     1       3.754  33.364  -5.412  1.00  0.00     0.042 A 
ENDBRANCH  21  23
ENDBRANCH  17  21
ENDBRANCH  10  12
ENDBRANCH   9  10
TORSDOF 4
ENDMDL
