MODEL 1
REMARK VINA RESULT: -9.030088561      0.000      0.000
REMARK  4 active torsions:
REMARK  status: ('A' for Active; 'I' for Inactive)
REMARK    1  A    between atoms: C4_7  and  N3_8 
REMARK    2  A    between atoms: N3_8  and  C5_10 
REMARK    3  A    between atoms: C13_25  and  N7_26 
REMARK    4  A    between atoms: N7_26  and  C14_28 
ROOT
HETATM    1  N1  UNL     1       3.056  28.640 -11.221  1.00  0.00    -0.191 NA
HETATM    2  C1  UNL     1       3.440  29.668 -10.828  1.00  0.00     0.104 C 
HETATM    3  C2  UNL     1       3.927  30.932 -10.353  1.00  0.00     0.105 A 
HETATM    4  C3  UNL     1       3.047  32.017 -10.285  1.00  0.00     0.132 A 
HETATM    5  N2  UNL     1       3.443  33.227  -9.848  1.00  0.00    -0.200 N 
ATOM      6  H2  UNL     1       2.784  34.004  -9.808  1.00  0.00     0.183 HD
HETATM    7  C4  UNL     1       4.722  33.399  -9.465  1.00  0.00     0.684 A 
HETATM    8  N6  UNL     1       5.572  32.362  -9.528  1.00  0.00    -0.175 N 
ATOM      9  H6  UNL     1       6.536  32.512  -9.235  1.00  0.00     0.186 HD
HETATM   10  C13 UNL     1       5.227  31.143  -9.954  1.00  0.00     0.143 A 
ENDROOT
BRANCH  10  11
HETATM   11  N7  UNL     1       6.051  30.173 -10.004  1.00  0.00    -0.341 N 
ATOM     12  H7  UNL     1       5.829  29.408 -10.642  1.00  0.00     0.167 HD
BRANCH  11  13
HETATM   13  C14 UNL     1       7.238  30.061  -9.260  1.00  0.00     0.033 A 
HETATM   14  C15 UNL     1       8.423  29.593  -9.783  1.00  0.00     0.029 A 
HETATM   15  C16 UNL     1       9.576  29.499  -9.009  1.00  0.00     0.002 A 
HETATM   16  C17 UNL     1       9.554  29.879  -7.683  1.00  0.00     0.000 A 
HETATM   17  C18 UNL     1       8.378  30.347  -7.149  1.00  0.00     0.002 A 
HETATM   18  C19 UNL     1       7.233  30.436  -7.936  1.00  0.00     0.029 A 
ENDBRANCH  11  13
ENDBRANCH  10  11
BRANCH   7  19
HETATM   19  N3  UNL     1       5.119  34.574  -9.038  1.00  0.00    -0.192 N 
ATOM     20  H3  UNL     1       5.247  35.341  -9.697  1.00  0.00     0.184 HD
BRANCH  19  21
HETATM   21  C5  UNL     1       5.369  34.774  -7.653  1.00  0.00     0.051 A 
HETATM   22  C6  UNL     1       6.282  35.681  -7.166  1.00  0.00     0.032 A 
HETATM   23  C7  UNL     1       6.485  35.835  -5.809  1.00  0.00     0.034 A 
HETATM   24  C8  UNL     1       5.780  35.083  -4.897  1.00  0.00     0.062 A 
HETATM   25  N4  UNL     1       5.972  35.226  -3.557  1.00  0.00    -0.320 N 
HETATM   26  C11 UNL     1       4.861  34.170  -5.368  1.00  0.00     0.061 A 
HETATM   27  C9  UNL     1       5.289  34.499  -2.654  1.00  0.00     0.261 A 
ATOM     28  H4  UNL     1       6.656  35.907  -3.227  1.00  0.00     0.169 HD
HETATM   29  O1  UNL     1       5.489  34.653  -1.413  1.00  0.00    -0.267 OA
HETATM   30  C10 UNL     1       4.373  33.589  -3.139  1.00  0.00     0.163 A 
HETATM   31  N5  UNL     1       4.177  33.442  -4.463  1.00  0.00    -0.359 N 
ATOM     32  H5  UNL     1       3.493  32.761  -4.790  1.00  0.00     0.165 HD
HETATM   33  C12 UNL     1       4.663  34.023  -6.731  1.00  0.00     0.061 A 
ENDBRANCH  19  21
ENDBRANCH   7  19
TORSDOF 4
ENDMDL
MODEL 2
REMARK VINA RESULT: -8.835383322      1.581      2.329
REMARK  4 active torsions:
REMARK  status: ('A' for Active; 'I' for Inactive)
REMARK    1  A    between atoms: C4_7  and  N3_8 
REMARK    2  A    between atoms: N3_8  and  C5_10 
REMARK    3  A    between atoms: C13_25  and  N7_26 
REMARK    4  A    between atoms: N7_26  and  C14_28 
ROOT
HETATM    1  N1  UNL     1       3.948  27.930 -11.692  1.00  0.00    -0.191 NA
HETATM    2  C1  UNL     1       3.692  28.869 -11.050  1.00  0.00     0.104 C 
HETATM    3  C2  UNL     1       3.394  30.027 -10.256  1.00  0.00     0.105 A 
HETATM    4  C3  UNL     1       2.474  30.964 -10.740  1.00  0.00     0.132 A 
HETATM    5  N2  UNL     1       2.153  32.070 -10.043  1.00  0.00    -0.200 N 
ATOM      6  H2  UNL     1       1.480  32.739 -10.417  1.00  0.00     0.183 HD
HETATM    7  C4  UNL     1       2.732  32.281  -8.847  1.00  0.00     0.684 A 
HETATM    8  N6  UNL     1       3.616  31.387  -8.377  1.00  0.00    -0.175 N 
ATOM      9  H6  UNL     1       4.044  31.566  -7.469  1.00  0.00     0.186 HD
HETATM   10  C13 UNL     1       3.967  30.275  -9.030  1.00  0.00     0.143 A 
ENDROOT
BRANCH  10  11
HETATM   11  N7  UNL     1       4.808  29.439  -8.564  1.00  0.00    -0.341 N 
ATOM     12  H7  UNL     1       4.460  28.508  -8.337  1.00  0.00     0.167 HD
BRANCH  11  13
HETATM   13  C14 UNL     1       6.172  29.686  -8.334  1.00  0.00     0.033 A 
HETATM   14  C15 UNL     1       6.637  30.684  -7.506  1.00  0.00     0.029 A 
HETATM   15  C16 UNL     1       7.997  30.893  -7.307  1.00  0.00     0.002 A 
HETATM   16  C17 UNL     1       8.923  30.092  -7.943  1.00  0.00     0.000 A 
HETATM   17  C18 UNL     1       8.474  29.092  -8.772  1.00  0.00     0.002 A 
HETATM   18  C19 UNL     1       7.108  28.896  -8.961  1.00  0.00     0.029 A 
ENDBRANCH  11  13
ENDBRANCH  10  11
BRANCH   7  19
HETATM   19  N3  UNL     1       2.426  33.355  -8.159  1.00  0.00    -0.192 N 
ATOM     20  H3  UNL     1       1.893  34.107  -8.596  1.00  0.00     0.184 HD
BRANCH  19  21
HETATM   21  C5  UNL     1       2.839  33.469  -6.804  1.00  0.00     0.051 A 
HETATM   22  C6  UNL     1       2.140  32.936  -5.746  1.00  0.00     0.032 A 
HETATM   23  C7  UNL     1       2.588  33.076  -4.447  1.00  0.00     0.034 A 
HETATM   24  C8  UNL     1       3.752  33.755  -4.169  1.00  0.00     0.062 A 
HETATM   25  N4  UNL     1       4.204  33.899  -2.893  1.00  0.00    -0.320 N 
HETATM   26  C11 UNL     1       4.465  34.295  -5.218  1.00  0.00     0.061 A 
HETATM   27  C9  UNL     1       5.340  34.561  -2.606  1.00  0.00     0.261 A 
ATOM     28  H4  UNL     1       3.663  33.493  -2.130  1.00  0.00     0.169 HD
HETATM   29  O1  UNL     1       5.736  34.680  -1.409  1.00  0.00    -0.267 OA
HETATM   30  C10 UNL     1       6.044  35.096  -3.665  1.00  0.00     0.163 A 
HETATM   31  N5  UNL     1       5.604  34.957  -4.929  1.00  0.00    -0.359 N 
ATOM     32  H5  UNL     1       6.147  35.364  -5.690  1.00  0.00     0.165 HD
HETATM   33  C12 UNL     1       4.008  34.150  -6.517  1.00  0.00     0.061 A 
ENDBRANCH  19  21
ENDBRANCH   7  19
TORSDOF 4
ENDMDL
MODEL 3
REMARK VINA RESULT: -8.658837331      1.427      2.157
REMARK  4 active torsions:
REMARK  status: ('A' for Active; 'I' for Inactive)
REMARK    1  A    between atoms: C4_7  and  N3_8 
REMARK    2  A    between atoms: N3_8  and  C5_10 
REMARK    3  A    between atoms: C13_25  and  N7_26 
REMARK    4  A    between atoms: N7_26  and  C14_28 
ROOT
HETATM    1  N1  UNL     1       4.712  29.148 -12.452  1.00  0.00    -0.191 NA
HETATM    2  C1  UNL     1       4.296  29.916 -11.680  1.00  0.00     0.104 C 
HETATM    3  C2  UNL     1       3.796  30.873 -10.735  1.00  0.00     0.105 A 
HETATM    4  C3  UNL     1       2.417  30.948 -10.510  1.00  0.00     0.132 A 
HETATM    5  N2  UNL     1       1.887  31.825  -9.636  1.00  0.00    -0.200 N 
ATOM      6  H2  UNL     1       0.878  31.862  -9.489  1.00  0.00     0.183 HD
HETATM    7  C4  UNL     1       2.705  32.652  -8.960  1.00  0.00     0.684 A 
HETATM    8  N6  UNL     1       4.028  32.585  -9.172  1.00  0.00    -0.175 N 
ATOM      9  H6  UNL     1       4.631  33.222  -8.651  1.00  0.00     0.186 HD
HETATM   10  C13 UNL     1       4.603  31.734 -10.027  1.00  0.00     0.143 A 
ENDROOT
BRANCH  10  11
HETATM   11  N7  UNL     1       5.863  31.689 -10.211  1.00  0.00    -0.341 N 
ATOM     12  H7  UNL     1       6.225  32.143 -11.049  1.00  0.00     0.167 HD
BRANCH  11  13
HETATM   13  C14 UNL     1       6.797  31.068  -9.365  1.00  0.00     0.033 A 
HETATM   14  C15 UNL     1       7.807  30.249  -9.816  1.00  0.00     0.029 A 
HETATM   15  C16 UNL     1       8.711  29.654  -8.942  1.00  0.00     0.002 A 
HETATM   16  C17 UNL     1       8.614  29.879  -7.584  1.00  0.00     0.000 A 
HETATM   17  C18 UNL     1       7.610  30.695  -7.120  1.00  0.00     0.002 A 
HETATM   18  C19 UNL     1       6.713  31.283  -8.008  1.00  0.00     0.029 A 
ENDBRANCH  11  13
ENDBRANCH  10  11
BRANCH   7  19
HETATM   19  N3  UNL     1       2.198  33.510  -8.106  1.00  0.00    -0.192 N 
ATOM     20  H3  UNL     1       1.472  34.160  -8.405  1.00  0.00     0.184 HD
BRANCH  19  21
HETATM   21  C5  UNL     1       2.666  33.530  -6.764  1.00  0.00     0.051 A 
HETATM   22  C6  UNL     1       2.059  32.849  -5.734  1.00  0.00     0.032 A 
HETATM   23  C7  UNL     1       2.556  32.904  -4.447  1.00  0.00     0.034 A 
HETATM   24  C8  UNL     1       3.678  33.645  -4.152  1.00  0.00     0.062 A 
HETATM   25  N4  UNL     1       4.177  33.707  -2.887  1.00  0.00    -0.320 N 
HETATM   26  C11 UNL     1       4.298  34.334  -5.172  1.00  0.00     0.061 A 
HETATM   27  C9  UNL     1       5.272  34.427  -2.584  1.00  0.00     0.261 A 
ATOM     28  H4  UNL     1       3.705  33.191  -2.145  1.00  0.00     0.169 HD
HETATM   29  O1  UNL     1       5.714  34.467  -1.398  1.00  0.00    -0.267 OA
HETATM   30  C10 UNL     1       5.883  35.112  -3.615  1.00  0.00     0.163 A 
HETATM   31  N5  UNL     1       5.396  35.055  -4.868  1.00  0.00    -0.359 N 
ATOM     32  H5  UNL     1       5.870  35.572  -5.608  1.00  0.00     0.165 HD
HETATM   33  C12 UNL     1       3.792  34.273  -6.461  1.00  0.00     0.061 A 
ENDBRANCH  19  21
ENDBRANCH   7  19
TORSDOF 4
ENDMDL
MODEL 4
REMARK VINA RESULT: -8.649716384      3.193      7.165
REMARK  4 active torsions:
REMARK  status: ('A' for Active; 'I' for Inactive)
REMARK    1  A    between atoms: C4_7  and  N3_8 
REMARK    2  A    between atoms: N3_8  and  C5_10 
REMARK    3  A    between atoms: C13_25  and  N7_26 
REMARK    4  A    between atoms: N7_26  and  C14_28 
ROOT
HETATM    1  N1  UNL     1       5.554  35.009  -1.657  1.00  0.00    -0.191 NA
HETATM    2  C1  UNL     1       5.660  34.985  -2.818  1.00  0.00     0.104 C 
HETATM    3  C2  UNL     1       5.774  34.955  -4.248  1.00  0.00     0.105 A 
HETATM    4  C3  UNL     1       6.681  35.816  -4.875  1.00  0.00     0.132 A 
HETATM    5  N2  UNL     1       6.833  35.835  -6.213  1.00  0.00    -0.200 N 
ATOM      6  H2  UNL     1       7.500  36.473  -6.648  1.00  0.00     0.183 HD
HETATM    7  C4  UNL     1       6.094  35.002  -6.969  1.00  0.00     0.684 A 
HETATM    8  N6  UNL     1       5.223  34.174  -6.373  1.00  0.00    -0.175 N 
ATOM      9  H6  UNL     1       4.671  33.551  -6.963  1.00  0.00     0.186 HD
HETATM   10  C13 UNL     1       5.035  34.117  -5.051  1.00  0.00     0.143 A 
ENDROOT
BRANCH  10  11
HETATM   11  N7  UNL     1       4.201  33.321  -4.507  1.00  0.00    -0.341 N 
ATOM     12  H7  UNL     1       4.438  32.963  -3.582  1.00  0.00     0.167 HD
BRANCH  11  13
HETATM   13  C14 UNL     1       2.986  32.893  -5.068  1.00  0.00     0.033 A 
HETATM   14  C15 UNL     1       2.847  31.720  -5.776  1.00  0.00     0.029 A 
HETATM   15  C16 UNL     1       1.624  31.333  -6.315  1.00  0.00     0.002 A 
HETATM   16  C17 UNL     1       0.509  32.129  -6.148  1.00  0.00     0.000 A 
HETATM   17  C18 UNL     1       0.634  33.303  -5.443  1.00  0.00     0.002 A 
HETATM   18  C19 UNL     1       1.865  33.676  -4.910  1.00  0.00     0.029 A 
ENDBRANCH  11  13
ENDBRANCH  10  11
BRANCH   7  19
HETATM   19  N3  UNL     1       6.236  35.012  -8.273  1.00  0.00    -0.192 N 
ATOM     20  H3  UNL     1       6.743  35.772  -8.726  1.00  0.00     0.184 HD
BRANCH  19  21
HETATM   21  C5  UNL     1       5.679  33.962  -9.052  1.00  0.00     0.051 A 
HETATM   22  C6  UNL     1       5.152  34.142 -10.310  1.00  0.00     0.032 A 
HETATM   23  C7  UNL     1       4.624  33.084 -11.023  1.00  0.00     0.034 A 
HETATM   24  C8  UNL     1       4.607  31.812 -10.497  1.00  0.00     0.062 A 
HETATM   25  N4  UNL     1       4.089  30.762 -11.191  1.00  0.00    -0.320 N 
HETATM   26  C11 UNL     1       5.131  31.615  -9.237  1.00  0.00     0.061 A 
HETATM   27  C9  UNL     1       4.066  29.514 -10.689  1.00  0.00     0.261 A 
ATOM     28  H4  UNL     1       3.706  30.927 -12.121  1.00  0.00     0.169 HD
HETATM   29  O1  UNL     1       3.577  28.556 -11.357  1.00  0.00    -0.267 OA
HETATM   30  C10 UNL     1       4.594  29.330  -9.428  1.00  0.00     0.163 A 
HETATM   31  N5  UNL     1       5.108  30.364  -8.736  1.00  0.00    -0.359 N 
ATOM     32  H5  UNL     1       5.491  30.195  -7.806  1.00  0.00     0.165 HD
HETATM   33  C12 UNL     1       5.659  32.682  -8.529  1.00  0.00     0.061 A 
ENDBRANCH  19  21
ENDBRANCH   7  19
TORSDOF 4
ENDMDL
MODEL 5
REMARK VINA RESULT: -8.318962658      1.607      2.086
REMARK  4 active torsions:
REMARK  status: ('A' for Active; 'I' for Inactive)
REMARK    1  A    between atoms: C4_7  and  N3_8 
REMARK    2  A    between atoms: N3_8  and  C5_10 
REMARK    3  A    between atoms: C13_25  and  N7_26 
REMARK    4  A    between atoms: N7_26  and  C14_28 
ROOT
HETATM    1  N1  UNL     1       4.769  29.478 -12.741  1.00  0.00    -0.191 NA
HETATM    2  C1  UNL     1       4.302  30.111 -11.881  1.00  0.00     0.104 C 
HETATM    3  C2  UNL     1       3.738  30.903 -10.825  1.00  0.00     0.105 A 
HETATM    4  C3  UNL     1       2.346  30.974 -10.699  1.00  0.00     0.132 A 
HETATM    5  N2  UNL     1       1.757  31.700  -9.729  1.00  0.00    -0.200 N 
ATOM      6  H2  UNL     1       0.740  31.738  -9.658  1.00  0.00     0.183 HD
HETATM    7  C4  UNL     1       2.528  32.375  -8.857  1.00  0.00     0.684 A 
HETATM    8  N6  UNL     1       3.863  32.311  -8.973  1.00  0.00    -0.175 N 
ATOM      9  H6  UNL     1       4.429  32.830  -8.302  1.00  0.00     0.186 HD
HETATM   10  C13 UNL     1       4.495  31.605  -9.916  1.00  0.00     0.143 A 
ENDROOT
BRANCH  10  11
HETATM   11  N7  UNL     1       5.765  31.559 -10.006  1.00  0.00    -0.341 N 
ATOM     12  H7  UNL     1       6.220  32.303 -10.535  1.00  0.00     0.167 HD
BRANCH  11  13
HETATM   13  C14 UNL     1       6.595  30.575  -9.443  1.00  0.00     0.033 A 
HETATM   14  C15 UNL     1       6.129  29.545  -8.657  1.00  0.00     0.029 A 
HETATM   15  C16 UNL     1       6.987  28.591  -8.119  1.00  0.00     0.002 A 
HETATM   16  C17 UNL     1       8.342  28.658  -8.368  1.00  0.00     0.000 A 
HETATM   17  C18 UNL     1       8.821  29.680  -9.151  1.00  0.00     0.002 A 
HETATM   18  C19 UNL     1       7.949  30.628  -9.682  1.00  0.00     0.029 A 
ENDBRANCH  11  13
ENDBRANCH  10  11
BRANCH   7  19
HETATM   19  N3  UNL     1       1.964  33.085  -7.908  1.00  0.00    -0.192 N 
ATOM     20  H3  UNL     1       0.987  33.366  -7.993  1.00  0.00     0.184 HD
BRANCH  19  21
HETATM   21  C5  UNL     1       2.718  33.459  -6.764  1.00  0.00     0.051 A 
HETATM   22  C6  UNL     1       3.406  34.646  -6.658  1.00  0.00     0.032 A 
HETATM   23  C7  UNL     1       4.123  34.960  -5.520  1.00  0.00     0.034 A 
HETATM   24  C8  UNL     1       4.174  34.093  -4.453  1.00  0.00     0.062 A 
HETATM   25  N4  UNL     1       4.878  34.391  -3.327  1.00  0.00    -0.320 N 
HETATM   26  C11 UNL     1       3.490  32.899  -4.542  1.00  0.00     0.061 A 
HETATM   27  C9  UNL     1       4.936  33.554  -2.275  1.00  0.00     0.261 A 
ATOM     28  H4  UNL     1       5.377  35.279  -3.279  1.00  0.00     0.169 HD
HETATM   29  O1  UNL     1       5.599  33.857  -1.241  1.00  0.00    -0.267 OA
HETATM   30  C10 UNL     1       4.247  32.363  -2.378  1.00  0.00     0.163 A 
HETATM   31  N5  UNL     1       3.549  32.061  -3.488  1.00  0.00    -0.359 N 
ATOM     32  H5  UNL     1       3.050  31.173  -3.533  1.00  0.00     0.165 HD
HETATM   33  C12 UNL     1       2.772  32.593  -5.687  1.00  0.00     0.061 A 
ENDBRANCH  19  21
ENDBRANCH   7  19
TORSDOF 4
ENDMDL
