MODEL 1
REMARK VINA RESULT: -8.480447142      0.000      0.000
REMARK  5 active torsions:
REMARK  status: ('A' for Active; 'I' for Inactive)
REMARK    1  A    between atoms: C6_7  and  N2_8 
REMARK    2  A    between atoms: N2_8  and  C7_10 
REMARK    3  A    between atoms: C10_19  and  N6_20 
REMARK    4  A    between atoms: N6_20  and  C11_21 
REMARK    5  A    between atoms: C11_21  and  O1_22 
ROOT
HETATM    1  N1  UNL     1       6.984  36.498  -5.502  1.00  0.00    -0.191 NA
HETATM    2  C1  UNL     1       6.423  35.726  -4.858  1.00  0.00     0.099 C 
HETATM    3  C2  UNL     1       5.740  34.737  -4.079  1.00  0.00     0.046 A 
HETATM    4  C3  UNL     1       5.931  34.757  -2.716  1.00  0.00     0.023 A 
HETATM    5  C4  UNL     1       5.278  33.825  -1.949  1.00  0.00     0.004 A 
HETATM    6  C5  UNL     1       4.440  32.876  -2.517  1.00  0.00     0.030 A 
HETATM    7  C6  UNL     1       4.238  32.837  -3.867  1.00  0.00     0.050 A 
HETATM    8  C18 UNL     1       4.905  33.785  -4.623  1.00  0.00     0.052 A 
ENDROOT
BRANCH   7   9
HETATM    9  N2  UNL     1       3.386  31.880  -4.459  1.00  0.00    -0.192 N 
ATOM     10  H2  UNL     1       3.071  31.110  -3.869  1.00  0.00     0.184 HD
BRANCH   9  11
HETATM   11  C7  UNL     1       2.979  31.894  -5.652  1.00  0.00     0.685 A 
HETATM   12  N3  UNL     1       1.774  32.215  -6.131  1.00  0.00    -0.174 N 
HETATM   13  C8  UNL     1       1.775  32.073  -7.461  1.00  0.00     0.154 A 
ATOM     14  H3  UNL     1       0.978  32.520  -5.571  1.00  0.00     0.186 HD
HETATM   15  N4  UNL     1       0.819  32.268  -8.409  1.00  0.00    -0.336 N 
HETATM   16  C17 UNL     1       3.051  31.632  -7.849  1.00  0.00     0.152 A 
HETATM   17  C9  UNL     1       1.106  32.041  -9.690  1.00  0.00     0.184 A 
ATOM     18  H4  UNL     1      -0.112  32.587  -8.140  1.00  0.00     0.168 HD
HETATM   19  N5  UNL     1       2.321  31.620 -10.066  1.00  0.00    -0.325 N 
HETATM   20  C10 UNL     1       3.353  31.390  -9.198  1.00  0.00     0.214 A 
ATOM     21  H5  UNL     1       2.487  31.461 -11.060  1.00  0.00     0.169 HD
HETATM   22  N8  UNL     1       3.762  31.530  -6.722  1.00  0.00    -0.183 N 
ATOM     23  H8  UNL     1       4.734  31.229  -6.664  1.00  0.00     0.184 HD
BRANCH  20  24
HETATM   24  N6  UNL     1       4.443  31.003  -9.525  1.00  0.00    -0.357 NA
BRANCH  24  25
HETATM   25  C11 UNL     1       5.530  30.555 -10.069  1.00  0.00     0.258 C 
HETATM   26  C12 UNL     1       6.891  30.187  -9.814  1.00  0.00     0.171 A 
HETATM   27  C13 UNL     1       6.738  30.705  -8.173  1.00  0.00     0.050 A 
HETATM   28  N7  UNL     1       8.031  29.877  -9.600  1.00  0.00    -0.413 NA
HETATM   29  C14 UNL     1       7.766  30.592  -7.410  1.00  0.00     0.006 A 
HETATM   30  C15 UNL     1       9.045  30.111  -7.630  1.00  0.00     0.032 A 
HETATM   31  C16 UNL     1       9.132  29.693  -8.999  1.00  0.00     0.183 A 
BRANCH  25  32
HETATM   32  O1  UNL     1       5.366  30.325 -11.415  1.00  0.00    -0.333 OA
ATOM     33  H1  UNL     1       5.763  29.505 -11.682  1.00  0.00     0.220 HD
ENDBRANCH  25  32
ENDBRANCH  24  25
ENDBRANCH  20  24
ENDBRANCH   9  11
ENDBRANCH   7   9
TORSDOF 5
ENDMDL
MODEL 2
REMARK VINA RESULT: -7.869205263      1.812      2.354
REMARK  5 active torsions:
REMARK  status: ('A' for Active; 'I' for Inactive)
REMARK    1  A    between atoms: C6_7  and  N2_8 
REMARK    2  A    between atoms: N2_8  and  C7_10 
REMARK    3  A    between atoms: C10_19  and  N6_20 
REMARK    4  A    between atoms: N6_20  and  C11_21 
REMARK    5  A    between atoms: C11_21  and  O1_22 
ROOT
HETATM    1  N1  UNL     1       5.684  33.982  -1.185  1.00  0.00    -0.191 NA
HETATM    2  C1  UNL     1       5.528  34.267  -2.289  1.00  0.00     0.099 C 
HETATM    3  C2  UNL     1       5.300  34.639  -3.654  1.00  0.00     0.046 A 
HETATM    4  C3  UNL     1       6.282  35.365  -4.289  1.00  0.00     0.023 A 
HETATM    5  C4  UNL     1       6.089  35.722  -5.600  1.00  0.00     0.004 A 
HETATM    6  C5  UNL     1       4.936  35.367  -6.286  1.00  0.00     0.030 A 
HETATM    7  C6  UNL     1       3.949  34.649  -5.674  1.00  0.00     0.050 A 
HETATM    8  C18 UNL     1       4.162  34.299  -4.354  1.00  0.00     0.052 A 
ENDROOT
BRANCH   7   9
HETATM    9  N2  UNL     1       2.772  34.278  -6.361  1.00  0.00    -0.192 N 
ATOM     10  H2  UNL     1       1.889  34.636  -5.998  1.00  0.00     0.184 HD
BRANCH   9  11
HETATM   11  C7  UNL     1       2.719  33.544  -7.385  1.00  0.00     0.685 A 
HETATM   12  N3  UNL     1       1.652  33.015  -7.991  1.00  0.00    -0.174 N 
HETATM   13  C8  UNL     1       2.055  32.284  -9.036  1.00  0.00     0.154 A 
ATOM     14  H3  UNL     1       0.683  33.147  -7.702  1.00  0.00     0.186 HD
HETATM   15  N4  UNL     1       1.380  31.553  -9.963  1.00  0.00    -0.336 N 
HETATM   16  C17 UNL     1       3.457  32.348  -9.095  1.00  0.00     0.152 A 
HETATM   17  C9  UNL     1       2.056  30.911 -10.915  1.00  0.00     0.184 A 
ATOM     18  H4  UNL     1       0.362  31.497  -9.931  1.00  0.00     0.168 HD
HETATM   19  N5  UNL     1       3.393  30.968 -10.976  1.00  0.00    -0.325 N 
HETATM   20  C10 UNL     1       4.170  31.670 -10.096  1.00  0.00     0.214 A 
ATOM     21  H5  UNL     1       3.861  30.456 -11.725  1.00  0.00     0.169 HD
HETATM   22  N8  UNL     1       3.832  33.123  -8.073  1.00  0.00    -0.183 N 
ATOM     23  H8  UNL     1       4.795  33.363  -7.839  1.00  0.00     0.184 HD
BRANCH  20  24
HETATM   24  N6  UNL     1       5.370  31.718 -10.137  1.00  0.00    -0.357 NA
BRANCH  24  25
HETATM   25  C11 UNL     1       6.650  31.582 -10.280  1.00  0.00     0.258 C 
HETATM   26  C12 UNL     1       7.777  30.761  -9.945  1.00  0.00     0.171 A 
HETATM   27  C13 UNL     1       6.772  29.763  -8.956  1.00  0.00     0.050 A 
HETATM   28  N7  UNL     1       8.719  30.072  -9.666  1.00  0.00    -0.413 NA
HETATM   29  C14 UNL     1       7.322  28.771  -8.351  1.00  0.00     0.006 A 
HETATM   30  C15 UNL     1       8.622  28.298  -8.322  1.00  0.00     0.032 A 
HETATM   31  C16 UNL     1       9.422  29.151  -9.152  1.00  0.00     0.183 A 
BRANCH  25  32
HETATM   32  O1  UNL     1       7.186  32.592 -11.044  1.00  0.00    -0.333 OA
ATOM     33  H1  UNL     1       6.601  33.337 -11.101  1.00  0.00     0.220 HD
ENDBRANCH  25  32
ENDBRANCH  24  25
ENDBRANCH  20  24
ENDBRANCH   9  11
ENDBRANCH   7   9
TORSDOF 5
ENDMDL
MODEL 3
REMARK VINA RESULT: -7.510966190      1.770      2.114
REMARK  5 active torsions:
REMARK  status: ('A' for Active; 'I' for Inactive)
REMARK    1  A    between atoms: C6_7  and  N2_8 
REMARK    2  A    between atoms: N2_8  and  C7_10 
REMARK    3  A    between atoms: C10_19  and  N6_20 
REMARK    4  A    between atoms: N6_20  and  C11_21 
REMARK    5  A    between atoms: C11_21  and  O1_22 
ROOT
HETATM    1  N1  UNL     1       5.907  35.400  -1.123  1.00  0.00    -0.191 NA
HETATM    2  C1  UNL     1       5.352  34.740  -1.886  1.00  0.00     0.099 C 
HETATM    3  C2  UNL     1       4.689  33.928  -2.863  1.00  0.00     0.046 A 
HETATM    4  C3  UNL     1       4.434  32.617  -2.533  1.00  0.00     0.023 A 
HETATM    5  C4  UNL     1       3.789  31.824  -3.449  1.00  0.00     0.004 A 
HETATM    6  C5  UNL     1       3.396  32.316  -4.686  1.00  0.00     0.030 A 
HETATM    7  C6  UNL     1       3.642  33.614  -5.034  1.00  0.00     0.050 A 
HETATM    8  C18 UNL     1       4.291  34.396  -4.097  1.00  0.00     0.052 A 
ENDROOT
BRANCH   7   9
HETATM    9  N2  UNL     1       3.244  34.129  -6.287  1.00  0.00    -0.192 N 
ATOM     10  H2  UNL     1       3.110  35.138  -6.354  1.00  0.00     0.184 HD
BRANCH   9  11
HETATM   11  C7  UNL     1       3.040  33.451  -7.330  1.00  0.00     0.685 A 
HETATM   12  N3  UNL     1       1.888  33.001  -7.834  1.00  0.00    -0.174 N 
HETATM   13  C8  UNL     1       2.136  32.307  -8.950  1.00  0.00     0.154 A 
ATOM     14  H3  UNL     1       0.965  33.160  -7.431  1.00  0.00     0.186 HD
HETATM   15  N4  UNL     1       1.327  31.654  -9.827  1.00  0.00    -0.336 N 
HETATM   16  C17 UNL     1       3.524  32.312  -9.165  1.00  0.00     0.152 A 
HETATM   17  C9  UNL     1       1.860  31.032 -10.877  1.00  0.00     0.184 A 
ATOM     18  H4  UNL     1       0.317  31.641  -9.682  1.00  0.00     0.168 HD
HETATM   19  N5  UNL     1       3.183  31.033 -11.088  1.00  0.00    -0.325 N 
HETATM   20  C10 UNL     1       4.087  31.654 -10.270  1.00  0.00     0.214 A 
ATOM     21  H5  UNL     1       3.538  30.540 -11.907  1.00  0.00     0.169 HD
HETATM   22  N8  UNL     1       4.048  33.017  -8.158  1.00  0.00    -0.183 N 
ATOM     23  H8  UNL     1       5.041  33.202  -8.024  1.00  0.00     0.184 HD
BRANCH  20  24
HETATM   24  N6  UNL     1       5.275  31.652 -10.445  1.00  0.00    -0.357 NA
BRANCH  24  25
HETATM   25  C11 UNL     1       6.568  31.561 -10.438  1.00  0.00     0.258 C 
HETATM   26  C12 UNL     1       7.676  30.786  -9.964  1.00  0.00     0.171 A 
HETATM   27  C13 UNL     1       6.600  29.763  -9.081  1.00  0.00     0.050 A 
HETATM   28  N7  UNL     1       8.604  30.136  -9.569  1.00  0.00    -0.413 NA
HETATM   29  C14 UNL     1       7.112  28.799  -8.402  1.00  0.00     0.006 A 
HETATM   30  C15 UNL     1       8.416  28.375  -8.217  1.00  0.00     0.032 A 
HETATM   31  C16 UNL     1       9.275  29.247  -8.964  1.00  0.00     0.183 A 
BRANCH  25  32
HETATM   32  O1  UNL     1       7.152  32.581 -11.152  1.00  0.00    -0.333 OA
ATOM     33  H1  UNL     1       6.723  32.714 -11.989  1.00  0.00     0.220 HD
ENDBRANCH  25  32
ENDBRANCH  24  25
ENDBRANCH  20  24
ENDBRANCH   9  11
ENDBRANCH   7   9
TORSDOF 5
ENDMDL
MODEL 4
REMARK VINA RESULT: -7.447370995      1.059      1.059
REMARK  5 active torsions:
REMARK  status: ('A' for Active; 'I' for Inactive)
REMARK    1  A    between atoms: C6_7  and  N2_8 
REMARK    2  A    between atoms: N2_8  and  C7_10 
REMARK    3  A    between atoms: C10_19  and  N6_20 
REMARK    4  A    between atoms: N6_20  and  C11_21 
REMARK    5  A    between atoms: C11_21  and  O1_22 
ROOT
HETATM    1  N1  UNL     1       7.173  36.482  -6.253  1.00  0.00    -0.191 NA
HETATM    2  C1  UNL     1       6.551  35.885  -5.491  1.00  0.00     0.099 C 
HETATM    3  C2  UNL     1       5.779  35.111  -4.564  1.00  0.00     0.046 A 
HETATM    4  C3  UNL     1       6.194  35.091  -3.252  1.00  0.00     0.023 A 
HETATM    5  C4  UNL     1       5.463  34.365  -2.345  1.00  0.00     0.004 A 
HETATM    6  C5  UNL     1       4.329  33.660  -2.724  1.00  0.00     0.030 A 
HETATM    7  C6  UNL     1       3.902  33.665  -4.022  1.00  0.00     0.050 A 
HETATM    8  C18 UNL     1       4.651  34.403  -4.920  1.00  0.00     0.052 A 
ENDROOT
BRANCH   7   9
HETATM    9  N2  UNL     1       2.749  32.956  -4.421  1.00  0.00    -0.192 N 
ATOM     10  H2  UNL     1       2.129  32.622  -3.683  1.00  0.00     0.184 HD
BRANCH   9  11
HETATM   11  C7  UNL     1       2.417  32.700  -5.611  1.00  0.00     0.685 A 
HETATM   12  N3  UNL     1       1.197  32.571  -6.139  1.00  0.00    -0.174 N 
HETATM   13  C8  UNL     1       1.309  32.277  -7.439  1.00  0.00     0.154 A 
ATOM     14  H3  UNL     1       0.320  32.679  -5.632  1.00  0.00     0.186 HD
HETATM   15  N4  UNL     1       0.387  32.051  -8.414  1.00  0.00    -0.336 N 
HETATM   16  C17 UNL     1       2.676  32.210  -7.754  1.00  0.00     0.152 A 
HETATM   17  C9  UNL     1       0.794  31.772  -9.652  1.00  0.00     0.184 A 
ATOM     18  H4  UNL     1      -0.609  32.096  -8.199  1.00  0.00     0.168 HD
HETATM   19  N5  UNL     1       2.096  31.706  -9.958  1.00  0.00    -0.325 N 
HETATM   20  C10 UNL     1       3.104  31.913  -9.057  1.00  0.00     0.214 A 
ATOM     21  H5  UNL     1       2.352  31.487 -10.921  1.00  0.00     0.169 HD
HETATM   22  N8  UNL     1       3.326  32.470  -6.616  1.00  0.00    -0.183 N 
ATOM     23  H8  UNL     1       4.340  32.494  -6.510  1.00  0.00     0.184 HD
BRANCH  20  24
HETATM   24  N6  UNL     1       4.275  31.846  -9.319  1.00  0.00    -0.357 NA
BRANCH  24  25
HETATM   25  C11 UNL     1       5.480  31.846  -9.794  1.00  0.00     0.258 C 
HETATM   26  C12 UNL     1       6.728  31.140  -9.800  1.00  0.00     0.171 A 
HETATM   27  C13 UNL     1       6.116  30.023  -8.632  1.00  0.00     0.050 A 
HETATM   28  N7  UNL     1       7.772  30.548  -9.806  1.00  0.00    -0.413 NA
HETATM   29  C14 UNL     1       6.897  29.082  -8.237  1.00  0.00     0.006 A 
HETATM   30  C15 UNL     1       8.199  28.747  -8.566  1.00  0.00     0.032 A 
HETATM   31  C16 UNL     1       8.669  29.694  -9.534  1.00  0.00     0.183 A 
BRANCH  25  32
HETATM   32  O1  UNL     1       5.699  32.922 -10.623  1.00  0.00    -0.333 OA
ATOM     33  H1  UNL     1       6.473  32.799 -11.159  1.00  0.00     0.220 HD
ENDBRANCH  25  32
ENDBRANCH  24  25
ENDBRANCH  20  24
ENDBRANCH   9  11
ENDBRANCH   7   9
TORSDOF 5
ENDMDL
MODEL 5
REMARK VINA RESULT: -7.109896471      1.223      1.628
REMARK  5 active torsions:
REMARK  status: ('A' for Active; 'I' for Inactive)
REMARK    1  A    between atoms: C6_7  and  N2_8 
REMARK    2  A    between atoms: N2_8  and  C7_10 
REMARK    3  A    between atoms: C10_19  and  N6_20 
REMARK    4  A    between atoms: N6_20  and  C11_21 
REMARK    5  A    between atoms: C11_21  and  O1_22 
ROOT
HETATM    1  N1  UNL     1       5.166  36.074  -0.290  1.00  0.00    -0.191 NA
HETATM    2  C1  UNL     1       5.246  35.579  -1.326  1.00  0.00     0.099 C 
HETATM    3  C2  UNL     1       5.308  34.974  -2.624  1.00  0.00     0.046 A 
HETATM    4  C3  UNL     1       6.338  35.352  -3.454  1.00  0.00     0.023 A 
HETATM    5  C4  UNL     1       6.423  34.776  -4.696  1.00  0.00     0.004 A 
HETATM    6  C5  UNL     1       5.500  33.832  -5.124  1.00  0.00     0.030 A 
HETATM    7  C6  UNL     1       4.469  33.445  -4.317  1.00  0.00     0.050 A 
HETATM    8  C18 UNL     1       4.400  34.036  -3.069  1.00  0.00     0.052 A 
ENDROOT
BRANCH   7   9
HETATM    9  N2  UNL     1       3.524  32.484  -4.737  1.00  0.00    -0.192 N 
ATOM     10  H2  UNL     1       3.154  31.852  -4.026  1.00  0.00     0.184 HD
BRANCH   9  11
HETATM   11  C7  UNL     1       3.097  32.337  -5.914  1.00  0.00     0.685 A 
HETATM   12  N3  UNL     1       1.875  32.564  -6.405  1.00  0.00    -0.174 N 
HETATM   13  C8  UNL     1       1.858  32.257  -7.706  1.00  0.00     0.154 A 
ATOM     14  H3  UNL     1       1.081  32.917  -5.871  1.00  0.00     0.186 HD
HETATM   15  N4  UNL     1       0.881  32.307  -8.651  1.00  0.00    -0.336 N 
HETATM   16  C17 UNL     1       3.139  31.803  -8.062  1.00  0.00     0.152 A 
HETATM   17  C9  UNL     1       1.152  31.928  -9.900  1.00  0.00     0.184 A 
ATOM     18  H4  UNL     1      -0.054  32.633  -8.406  1.00  0.00     0.168 HD
HETATM   19  N5  UNL     1       2.371  31.495 -10.245  1.00  0.00    -0.325 N 
HETATM   20  C10 UNL     1       3.424  31.402  -9.377  1.00  0.00     0.214 A 
ATOM     21  H5  UNL     1       2.524  31.216 -11.214  1.00  0.00     0.169 HD
HETATM   22  N8  UNL     1       3.871  31.862  -6.946  1.00  0.00    -0.183 N 
ATOM     23  H8  UNL     1       4.852  31.595  -6.871  1.00  0.00     0.184 HD
BRANCH  20  24
HETATM   24  N6  UNL     1       4.518  31.004  -9.674  1.00  0.00    -0.357 NA
BRANCH  24  25
HETATM   25  C11 UNL     1       5.616  30.548 -10.190  1.00  0.00     0.258 C 
HETATM   26  C12 UNL     1       6.966  30.164  -9.899  1.00  0.00     0.171 A 
HETATM   27  C13 UNL     1       6.771  30.675  -8.260  1.00  0.00     0.050 A 
HETATM   28  N7  UNL     1       8.095  29.842  -9.654  1.00  0.00    -0.413 NA
HETATM   29  C14 UNL     1       7.776  30.547  -7.468  1.00  0.00     0.006 A 
HETATM   30  C15 UNL     1       9.056  30.055  -7.655  1.00  0.00     0.032 A 
HETATM   31  C16 UNL     1       9.177  29.643  -9.023  1.00  0.00     0.183 A 
BRANCH  25  32
HETATM   32  O1  UNL     1       5.488  30.327 -11.542  1.00  0.00    -0.333 OA
ATOM     33  H1  UNL     1       5.874  31.030 -12.050  1.00  0.00     0.220 HD
ENDBRANCH  25  32
ENDBRANCH  24  25
ENDBRANCH  20  24
ENDBRANCH   9  11
ENDBRANCH   7   9
TORSDOF 5
ENDMDL
