MODEL 1
REMARK VINA RESULT: -6.951753941      0.000      0.000
REMARK  4 active torsions:
REMARK  status: ('A' for Active; 'I' for Inactive)
REMARK    1  A    between atoms: N1_2  and  C2_4 
REMARK    2  A    between atoms: C5_7  and  O1_8 
REMARK    3  A    between atoms: C7_10  and  C8_11 
REMARK    4  A    between atoms: C12_18  and  N4_19 
ROOT
HETATM    1  C8  UNL     1       4.163  32.970  -8.011  1.00  0.00     0.046 A 
HETATM    2  C9  UNL     1       4.723  33.426  -6.839  1.00  0.00     0.037 A 
HETATM    3  N2  UNL     1       3.773  33.429  -5.876  1.00  0.00    -0.310 N 
HETATM    4  C10 UNL     1       2.620  32.988  -6.422  1.00  0.00     0.084 A 
HETATM    5  C11 UNL     1       1.358  32.832  -5.837  1.00  0.00     0.138 A 
HETATM    6  N3  UNL     1       0.353  32.394  -6.578  1.00  0.00    -0.200 N 
ATOM      7  H3  UNL     1      -0.574  32.273  -6.169  1.00  0.00     0.183 HD
HETATM    8  C12 UNL     1       0.565  32.106  -7.889  1.00  0.00     0.676 A 
HETATM    9  N5  UNL     1       1.774  32.256  -8.445  1.00  0.00    -0.189 N 
ATOM     10  H5  UNL     1       1.900  32.030  -9.432  1.00  0.00     0.184 HD
HETATM   11  C13 UNL     1       2.824  32.696  -7.736  1.00  0.00     0.092 A 
HETATM   12  C14 UNL     1       4.299  33.831  -4.613  1.00  0.00     0.046 A 
HETATM   13  C15 UNL     1       3.760  33.966  -3.338  1.00  0.00     0.030 A 
HETATM   14  C16 UNL     1       4.549  34.348  -2.277  1.00  0.00     0.002 A 
HETATM   15  C17 UNL     1       5.886  34.605  -2.457  1.00  0.00     0.001 A 
HETATM   16  C18 UNL     1       6.421  34.469  -3.738  1.00  0.00     0.010 A 
HETATM   17  C19 UNL     1       5.628  34.090  -4.778  1.00  0.00    -0.025 A 
HETATM   18  C20 UNL     1       5.959  33.922  -6.217  1.00  0.00     0.099 A 
ENDROOT
BRANCH   1  19
HETATM   19  C7  UNL     1       4.742  32.808  -9.351  1.00  0.00     0.082 A 
HETATM   20  C5  UNL     1       5.347  33.800 -10.078  1.00  0.00     0.096 A 
HETATM   21  C4  UNL     1       5.789  33.497 -11.377  1.00  0.00     0.043 A 
HETATM   22  C3  UNL     1       5.611  32.238 -11.889  1.00  0.00     0.051 A 
HETATM   23  C2  UNL     1       5.003  31.243 -11.159  1.00  0.00     0.101 A 
HETATM   24  N6  UNL     1       4.593  31.562  -9.922  1.00  0.00    -0.340 N 
ATOM     25  H6  UNL     1       4.141  30.834  -9.368  1.00  0.00     0.167 HD
BRANCH  20  26
HETATM   26  O1  UNL     1       5.524  35.050  -9.578  1.00  0.00    -0.354 OA
HETATM   27  C6  UNL     1       6.476  35.419  -8.622  1.00  0.00     0.210 C 
ENDBRANCH  20  26
BRANCH  23  28
HETATM   28  N1  UNL     1       4.830  30.056 -11.634  1.00  0.00    -0.381 N 
HETATM   29  C1  UNL     1       4.104  29.013 -11.000  1.00  0.00     0.147 C 
ATOM     30  H1  UNL     1       5.250  29.851 -12.541  1.00  0.00     0.160 HD
ENDBRANCH  23  28
ENDBRANCH   1  19
BRANCH   8  31
HETATM   31  N4  UNL     1      -0.448  31.683  -8.562  1.00  0.00    -0.234 N 
ATOM     32  H42 UNL     1      -1.402  31.960  -8.333  1.00  0.00     0.174 HD
ATOM     33  H41 UNL     1      -0.252  31.055  -9.341  1.00  0.00     0.174 HD
ENDBRANCH   8  31
TORSDOF 4
ENDMDL
MODEL 2
REMARK VINA RESULT: -6.806102475      1.731      5.887
REMARK  4 active torsions:
REMARK  status: ('A' for Active; 'I' for Inactive)
REMARK    1  A    between atoms: N1_2  and  C2_4 
REMARK    2  A    between atoms: C5_7  and  O1_8 
REMARK    3  A    between atoms: C7_10  and  C8_11 
REMARK    4  A    between atoms: C12_18  and  N4_19 
ROOT
HETATM    1  C8  UNL     1       4.351  33.748  -6.598  1.00  0.00     0.046 A 
HETATM    2  C9  UNL     1       5.020  33.709  -7.800  1.00  0.00     0.037 A 
HETATM    3  N2  UNL     1       4.199  33.187  -8.738  1.00  0.00    -0.310 N 
HETATM    4  C10 UNL     1       3.023  32.889  -8.148  1.00  0.00     0.084 A 
HETATM    5  C11 UNL     1       1.869  32.314  -8.696  1.00  0.00     0.138 A 
HETATM    6  N3  UNL     1       0.825  32.094  -7.913  1.00  0.00    -0.200 N 
ATOM      7  H3  UNL     1      -0.025  31.677  -8.295  1.00  0.00     0.183 HD
HETATM    8  C12 UNL     1       0.892  32.429  -6.598  1.00  0.00     0.676 A 
HETATM    9  N5  UNL     1       1.997  32.979  -6.078  1.00  0.00    -0.189 N 
ATOM     10  H5  UNL     1       2.014  33.218  -5.087  1.00  0.00     0.184 HD
HETATM   11  C13 UNL     1       3.081  33.222  -6.830  1.00  0.00     0.092 A 
HETATM   12  C14 UNL     1       4.806  33.175 -10.028  1.00  0.00     0.046 A 
HETATM   13  C15 UNL     1       4.385  32.782 -11.295  1.00  0.00     0.030 A 
HETATM   14  C16 UNL     1       5.207  32.932 -12.388  1.00  0.00     0.002 A 
HETATM   15  C17 UNL     1       6.462  33.473 -12.251  1.00  0.00     0.001 A 
HETATM   16  C18 UNL     1       6.880  33.865 -10.979  1.00  0.00     0.010 A 
HETATM   17  C19 UNL     1       6.056  33.710  -9.907  1.00  0.00    -0.025 A 
HETATM   18  C20 UNL     1       6.294  34.010  -8.471  1.00  0.00     0.099 A 
ENDROOT
BRANCH   1  19
HETATM   19  C7  UNL     1       4.793  34.185  -5.267  1.00  0.00     0.082 A 
HETATM   20  C5  UNL     1       5.496  35.331  -5.002  1.00  0.00     0.096 A 
HETATM   21  C4  UNL     1       5.905  35.569  -3.679  1.00  0.00     0.043 A 
HETATM   22  C3  UNL     1       5.602  34.668  -2.691  1.00  0.00     0.051 A 
HETATM   23  C2  UNL     1       4.896  33.517  -2.958  1.00  0.00     0.101 A 
HETATM   24  N6  UNL     1       4.519  33.318  -4.229  1.00  0.00    -0.340 N 
ATOM     25  H6  UNL     1       3.994  32.470  -4.443  1.00  0.00     0.167 HD
BRANCH  20  26
HETATM   26  O1  UNL     1       5.803  36.225  -5.976  1.00  0.00    -0.354 OA
HETATM   27  C6  UNL     1       7.093  36.553  -6.405  1.00  0.00     0.210 C 
ENDBRANCH  20  26
BRANCH  23  28
HETATM   28  N1  UNL     1       4.608  32.665  -2.035  1.00  0.00    -0.381 N 
HETATM   29  C1  UNL     1       4.130  31.345  -2.253  1.00  0.00     0.147 C 
ATOM     30  H1  UNL     1       4.734  32.963  -1.067  1.00  0.00     0.160 HD
ENDBRANCH  23  28
ENDBRANCH   1  19
BRANCH   8  31
HETATM   31  N4  UNL     1      -0.153  32.192  -5.885  1.00  0.00    -0.234 N 
ATOM     32  H42 UNL     1      -0.989  31.759  -6.278  1.00  0.00     0.174 HD
ATOM     33  H41 UNL     1      -0.109  32.458  -4.901  1.00  0.00     0.174 HD
ENDBRANCH   8  31
TORSDOF 4
ENDMDL
MODEL 3
REMARK VINA RESULT: -6.716076189      1.507      2.420
REMARK  4 active torsions:
REMARK  status: ('A' for Active; 'I' for Inactive)
REMARK    1  A    between atoms: N1_2  and  C2_4 
REMARK    2  A    between atoms: C5_7  and  O1_8 
REMARK    3  A    between atoms: C7_10  and  C8_11 
REMARK    4  A    between atoms: C12_18  and  N4_19 
ROOT
HETATM    1  C8  UNL     1       4.119  32.680  -8.096  1.00  0.00     0.046 A 
HETATM    2  C9  UNL     1       4.756  33.236  -7.010  1.00  0.00     0.037 A 
HETATM    3  N2  UNL     1       3.851  33.416  -6.021  1.00  0.00    -0.310 N 
HETATM    4  C10 UNL     1       2.651  32.988  -6.467  1.00  0.00     0.084 A 
HETATM    5  C11 UNL     1       1.409  32.985  -5.821  1.00  0.00     0.138 A 
HETATM    6  N3  UNL     1       0.348  32.527  -6.466  1.00  0.00    -0.200 N 
ATOM      7  H3  UNL     1      -0.566  32.516  -6.012  1.00  0.00     0.183 HD
HETATM    8  C12 UNL     1       0.485  32.070  -7.739  1.00  0.00     0.676 A 
HETATM    9  N5  UNL     1       1.675  32.074  -8.353  1.00  0.00    -0.189 N 
ATOM     10  H5  UNL     1       1.744  31.724  -9.308  1.00  0.00     0.184 HD
HETATM   11  C13 UNL     1       2.780  32.528  -7.741  1.00  0.00     0.092 A 
HETATM   12  C14 UNL     1       4.455  33.931  -4.837  1.00  0.00     0.046 A 
HETATM   13  C15 UNL     1       3.981  34.253  -3.568  1.00  0.00     0.030 A 
HETATM   14  C16 UNL     1       4.838  34.708  -2.592  1.00  0.00     0.002 A 
HETATM   15  C17 UNL     1       6.179  34.854  -2.851  1.00  0.00     0.001 A 
HETATM   16  C18 UNL     1       6.648  34.531  -4.124  1.00  0.00     0.010 A 
HETATM   17  C19 UNL     1       5.789  34.083  -5.080  1.00  0.00    -0.025 A 
HETATM   18  C20 UNL     1       6.046  33.722  -6.498  1.00  0.00     0.099 A 
ENDROOT
BRANCH   1  19
HETATM   19  C7  UNL     1       4.628  32.322  -9.426  1.00  0.00     0.082 A 
HETATM   20  C5  UNL     1       4.585  31.069  -9.981  1.00  0.00     0.096 A 
HETATM   21  C4  UNL     1       5.181  30.879 -11.239  1.00  0.00     0.043 A 
HETATM   22  C3  UNL     1       5.786  31.928 -11.882  1.00  0.00     0.051 A 
HETATM   23  C2  UNL     1       5.829  33.185 -11.324  1.00  0.00     0.101 A 
HETATM   24  N6  UNL     1       5.251  33.336 -10.123  1.00  0.00    -0.340 N 
ATOM     25  H6  UNL     1       5.273  34.263  -9.697  1.00  0.00     0.167 HD
BRANCH  20  26
HETATM   26  O1  UNL     1       3.991  30.025  -9.349  1.00  0.00    -0.354 OA
HETATM   27  C6  UNL     1       4.656  28.977  -8.705  1.00  0.00     0.210 C 
ENDBRANCH  20  26
BRANCH  23  28
HETATM   28  N1  UNL     1       6.397  34.177 -11.921  1.00  0.00    -0.381 N 
HETATM   29  C1  UNL     1       7.521  34.084 -12.785  1.00  0.00     0.147 C 
ATOM     30  H1  UNL     1       6.007  35.106 -11.759  1.00  0.00     0.160 HD
ENDBRANCH  23  28
ENDBRANCH   1  19
BRANCH   8  31
HETATM   31  N4  UNL     1      -0.580  31.637  -8.317  1.00  0.00    -0.234 N 
ATOM     32  H42 UNL     1      -0.548  30.922  -9.043  1.00  0.00     0.174 HD
ATOM     33  H41 UNL     1      -1.465  32.043  -8.015  1.00  0.00     0.174 HD
ENDBRANCH   8  31
TORSDOF 4
ENDMDL
MODEL 4
REMARK VINA RESULT: -5.866118122      2.681      6.952
REMARK  4 active torsions:
REMARK  status: ('A' for Active; 'I' for Inactive)
REMARK    1  A    between atoms: N1_2  and  C2_4 
REMARK    2  A    between atoms: C5_7  and  O1_8 
REMARK    3  A    between atoms: C7_10  and  C8_11 
REMARK    4  A    between atoms: C12_18  and  N4_19 
ROOT
HETATM    1  C8  UNL     1       5.615  32.296  -7.173  1.00  0.00     0.046 A 
HETATM    2  C9  UNL     1       4.678  32.023  -8.145  1.00  0.00     0.037 A 
HETATM    3  N2  UNL     1       5.159  31.051  -8.952  1.00  0.00    -0.310 N 
HETATM    4  C10 UNL     1       6.388  30.709  -8.511  1.00  0.00     0.084 A 
HETATM    5  C11 UNL     1       7.290  29.769  -9.024  1.00  0.00     0.138 A 
HETATM    6  N3  UNL     1       8.463  29.610  -8.430  1.00  0.00    -0.200 N 
ATOM      7  H3  UNL     1       9.133  28.930  -8.789  1.00  0.00     0.183 HD
HETATM    8  C12 UNL     1       8.767  30.361  -7.339  1.00  0.00     0.676 A 
HETATM    9  N5  UNL     1       7.900  31.258  -6.851  1.00  0.00    -0.189 N 
ATOM     10  H5  UNL     1       8.160  31.804  -6.030  1.00  0.00     0.184 HD
HETATM   11  C13 UNL     1       6.700  31.455  -7.417  1.00  0.00     0.092 A 
HETATM   12  C14 UNL     1       4.212  30.671  -9.948  1.00  0.00     0.046 A 
HETATM   13  C15 UNL     1       4.206  29.726 -10.969  1.00  0.00     0.030 A 
HETATM   14  C16 UNL     1       3.097  29.561 -11.768  1.00  0.00     0.002 A 
HETATM   15  C17 UNL     1       1.974  30.326 -11.572  1.00  0.00     0.001 A 
HETATM   16  C18 UNL     1       1.985  31.272 -10.548  1.00  0.00     0.010 A 
HETATM   17  C19 UNL     1       3.090  31.425  -9.766  1.00  0.00    -0.025 A 
HETATM   18  C20 UNL     1       3.347  32.382  -8.658  1.00  0.00     0.099 A 
ENDROOT
BRANCH   1  19
HETATM   19  C7  UNL     1       5.608  33.280  -6.083  1.00  0.00     0.082 A 
HETATM   20  C5  UNL     1       6.127  34.546  -6.154  1.00  0.00     0.096 A 
HETATM   21  C4  UNL     1       6.102  35.341  -4.996  1.00  0.00     0.043 A 
HETATM   22  C3  UNL     1       5.569  34.848  -3.833  1.00  0.00     0.051 A 
HETATM   23  C2  UNL     1       5.048  33.576  -3.762  1.00  0.00     0.101 A 
HETATM   24  N6  UNL     1       5.085  32.842  -4.884  1.00  0.00    -0.340 N 
ATOM     25  H6  UNL     1       4.702  31.897  -4.847  1.00  0.00     0.167 HD
BRANCH  20  26
HETATM   26  O1  UNL     1       6.659  35.040  -7.302  1.00  0.00    -0.354 OA
HETATM   27  C6  UNL     1       5.980  35.194  -8.515  1.00  0.00     0.210 C 
ENDBRANCH  20  26
BRANCH  23  28
HETATM   28  N1  UNL     1       4.547  33.104  -2.672  1.00  0.00    -0.381 N 
HETATM   29  C1  UNL     1       3.880  31.856  -2.544  1.00  0.00     0.147 C 
ATOM     30  H1  UNL     1       4.637  33.675  -1.831  1.00  0.00     0.160 HD
ENDBRANCH  23  28
ENDBRANCH   1  19
BRANCH   8  31
HETATM   31  N4  UNL     1       9.920  30.164  -6.803  1.00  0.00    -0.234 N 
ATOM     32  H42 UNL     1      10.639  29.603  -7.258  1.00  0.00     0.174 HD
ATOM     33  H41 UNL     1      10.085  30.599  -5.895  1.00  0.00     0.174 HD
ENDBRANCH   8  31
TORSDOF 4
ENDMDL
MODEL 5
REMARK VINA RESULT: -5.705305780      3.001      6.109
REMARK  4 active torsions:
REMARK  status: ('A' for Active; 'I' for Inactive)
REMARK    1  A    between atoms: N1_2  and  C2_4 
REMARK    2  A    between atoms: C5_7  and  O1_8 
REMARK    3  A    between atoms: C7_10  and  C8_11 
REMARK    4  A    between atoms: C12_18  and  N4_19 
ROOT
HETATM    1  C8  UNL     1       4.621  31.279  -7.880  1.00  0.00     0.046 A 
HETATM    2  C9  UNL     1       5.949  30.925  -7.800  1.00  0.00     0.037 A 
HETATM    3  N2  UNL     1       6.308  30.321  -8.955  1.00  0.00    -0.310 N 
HETATM    4  C10 UNL     1       5.227  30.281  -9.762  1.00  0.00     0.084 A 
HETATM    5  C11 UNL     1       5.092  29.741 -11.047  1.00  0.00     0.138 A 
HETATM    6  N3  UNL     1       3.916  29.801 -11.651  1.00  0.00    -0.200 N 
ATOM      7  H3  UNL     1       3.798  29.413 -12.587  1.00  0.00     0.183 HD
HETATM    8  C12 UNL     1       2.865  30.382 -11.014  1.00  0.00     0.676 A 
HETATM    9  N5  UNL     1       2.999  30.898  -9.785  1.00  0.00    -0.189 N 
ATOM     10  H5  UNL     1       2.191  31.328  -9.336  1.00  0.00     0.184 HD
HETATM   11  C13 UNL     1       4.170  30.862  -9.132  1.00  0.00     0.092 A 
HETATM   12  C14 UNL     1       7.693  29.983  -8.969  1.00  0.00     0.046 A 
HETATM   13  C15 UNL     1       8.538  29.394  -9.905  1.00  0.00     0.030 A 
HETATM   14  C16 UNL     1       9.878  29.229  -9.638  1.00  0.00     0.002 A 
HETATM   15  C17 UNL     1      10.409  29.642  -8.440  1.00  0.00     0.001 A 
HETATM   16  C18 UNL     1       9.558  30.232  -7.506  1.00  0.00     0.010 A 
HETATM   17  C19 UNL     1       8.234  30.388  -7.784  1.00  0.00    -0.025 A 
HETATM   18  C20 UNL     1       7.142  30.942  -6.941  1.00  0.00     0.099 A 
ENDROOT
BRANCH   1  19
HETATM   19  C7  UNL     1       3.738  31.921  -6.897  1.00  0.00     0.082 A 
HETATM   20  C5  UNL     1       2.787  32.865  -7.183  1.00  0.00     0.096 A 
HETATM   21  C4  UNL     1       2.072  33.433  -6.115  1.00  0.00     0.043 A 
HETATM   22  C3  UNL     1       2.332  33.043  -4.827  1.00  0.00     0.051 A 
HETATM   23  C2  UNL     1       3.288  32.095  -4.541  1.00  0.00     0.101 A 
HETATM   24  N6  UNL     1       3.953  31.570  -5.580  1.00  0.00    -0.340 N 
ATOM     25  H6  UNL     1       4.664  30.866  -5.384  1.00  0.00     0.167 HD
BRANCH  20  26
HETATM   26  O1  UNL     1       2.526  33.258  -8.456  1.00  0.00    -0.354 OA
HETATM   27  C6  UNL     1       1.297  33.135  -9.112  1.00  0.00     0.210 C 
ENDBRANCH  20  26
BRANCH  23  28
HETATM   28  N1  UNL     1       3.540  31.724  -3.331  1.00  0.00    -0.381 N 
HETATM   29  C1  UNL     1       4.266  32.480  -2.372  1.00  0.00     0.147 C 
ATOM     30  H1  UNL     1       3.188  30.812  -3.040  1.00  0.00     0.160 HD
ENDBRANCH  23  28
ENDBRANCH   1  19
BRANCH   8  31
HETATM   31  N4  UNL     1       1.746  30.411 -11.648  1.00  0.00    -0.234 N 
ATOM     32  H42 UNL     1       1.415  29.619 -12.198  1.00  0.00     0.174 HD
ATOM     33  H41 UNL     1       1.199  31.269 -11.576  1.00  0.00     0.174 HD
ENDBRANCH   8  31
TORSDOF 4
ENDMDL
