MODEL 1
REMARK VINA RESULT: -8.379675229      0.000      0.000
REMARK  5 active torsions:
REMARK  status: ('A' for Active; 'I' for Inactive)
REMARK    1  A    between atoms: N1_2  and  C2_4 
REMARK    2  A    between atoms: C7_13  and  C8_14 
REMARK    3  A    between atoms: C9_15  and  C10_16 
REMARK    4  A    between atoms: C12_18  and  C13_19 
REMARK    5  A    between atoms: C13_19  and  N4_20 
ROOT
HETATM    1  C2  UNL     1      23.467 -23.547 131.281  1.00  0.00     0.130 A 
HETATM    2  N2  UNL     1      24.202 -22.494 130.818  1.00  0.00    -0.345 N 
ATOM      3  H2  UNL     1      23.969 -22.068 129.922  1.00  0.00     0.167 HD
HETATM    4  C3  UNL     1      25.227 -22.017 131.534  1.00  0.00     0.009 A 
HETATM    5  C4  UNL     1      25.993 -20.860 130.972  1.00  0.00     0.068 C 
HETATM    6  C5  UNL     1      25.600 -22.542 132.751  1.00  0.00     0.056 A 
HETATM    7  C6  UNL     1      24.891 -23.604 133.259  1.00  0.00     0.065 A 
HETATM    8  N3  UNL     1      25.211 -24.158 134.443  1.00  0.00    -0.352 N 
ATOM      9  H3  UNL     1      25.993 -23.793 134.987  1.00  0.00     0.166 HD
HETATM   10  C7  UNL     1      24.501 -25.178 134.896  1.00  0.00     0.071 A 
HETATM   11  C20 UNL     1      23.452 -25.659 134.153  1.00  0.00     0.131 A 
HETATM   12 CL1  UNL     1      22.536 -27.015 134.790  1.00  0.00    -0.062 Cl
HETATM   13  N7  UNL     1      23.116 -25.124 132.971  1.00  0.00    -0.340 N 
ATOM     14  H7  UNL     1      22.331 -25.502 132.441  1.00  0.00     0.167 HD
HETATM   15  C21 UNL     1      23.827 -24.079 132.489  1.00  0.00     0.104 A 
ENDROOT
BRANCH  10  16
HETATM   16  C8  UNL     1      24.876 -25.772 136.208  1.00  0.00     0.035 C 
HETATM   17  C9  UNL     1      25.080 -24.999 137.249  1.00  0.00     0.032 C 
BRANCH  17  18
HETATM   18  C10 UNL     1      25.443 -25.546 138.528  1.00  0.00     0.034 C 
HETATM   19  C11 UNL     1      26.170 -24.736 139.383  1.00  0.00     0.038 C 
HETATM   20  C12 UNL     1      26.207 -24.493 140.754  1.00  0.00    -0.038 C 
HETATM   21  C16 UNL     1      25.706 -25.139 141.862  1.00  0.00     0.011 C 
HETATM   22  C17 UNL     1      25.058 -26.341 142.055  1.00  0.00     0.034 C 
HETATM   23  C18 UNL     1      24.787 -27.451 141.257  1.00  0.00     0.078 A 
HETATM   24  N5  UNL     1      24.493 -28.634 140.656  1.00  0.00    -0.338 N 
HETATM   25  C19 UNL     1      24.772 -27.604 139.803  1.00  0.00     0.133 A 
ATOM     26  H5  UNL     1      24.238 -29.616 140.767  1.00  0.00     0.167 HD
HETATM   27  N6  UNL     1      24.991 -26.824 138.721  1.00  0.00    -0.341 N 
ATOM     28  H6  UNL     1      24.767 -27.297 137.846  1.00  0.00     0.167 HD
BRANCH  20  29
HETATM   29  C13 UNL     1      26.955 -23.265 141.092  1.00  0.00     0.154 C 
BRANCH  29  30
HETATM   30  N4  UNL     1      26.368 -22.462 142.106  1.00  0.00    -0.417 N 
HETATM   31  C14 UNL     1      25.869 -21.193 141.686  1.00  0.00     0.142 C 
HETATM   32  C15 UNL     1      27.034 -22.471 143.365  1.00  0.00     0.142 C 
ENDBRANCH  29  30
ENDBRANCH  20  29
ENDBRANCH  17  18
ENDBRANCH  10  16
BRANCH   1  33
HETATM   33  N1  UNL     1      22.513 -23.960 130.575  1.00  0.00    -0.379 N 
HETATM   34  C1  UNL     1      22.410 -24.105 129.164  1.00  0.00     0.147 C 
ATOM     35  H1  UNL     1      21.680 -24.235 131.097  1.00  0.00     0.160 HD
ENDBRANCH   1  33
TORSDOF 5
ENDMDL
MODEL 2
REMARK VINA RESULT: -8.322400026      3.271      5.051
REMARK  5 active torsions:
REMARK  status: ('A' for Active; 'I' for Inactive)
REMARK    1  A    between atoms: N1_2  and  C2_4 
REMARK    2  A    between atoms: C7_13  and  C8_14 
REMARK    3  A    between atoms: C9_15  and  C10_16 
REMARK    4  A    between atoms: C12_18  and  C13_19 
REMARK    5  A    between atoms: C13_19  and  N4_20 
ROOT
HETATM    1  C2  UNL     1      23.915 -23.196 129.683  1.00  0.00     0.130 A 
HETATM    2  N2  UNL     1      24.016 -22.328 128.635  1.00  0.00    -0.345 N 
ATOM      3  H2  UNL     1      23.561 -22.548 127.749  1.00  0.00     0.167 HD
HETATM    4  C3  UNL     1      24.710 -21.192 128.761  1.00  0.00     0.009 A 
HETATM    5  C4  UNL     1      24.782 -20.282 127.575  1.00  0.00     0.068 C 
HETATM    6  C5  UNL     1      25.352 -20.830 129.925  1.00  0.00     0.056 A 
HETATM    7  C6  UNL     1      25.280 -21.672 131.009  1.00  0.00     0.065 A 
HETATM    8  N3  UNL     1      25.888 -21.370 132.171  1.00  0.00    -0.352 N 
ATOM      9  H3  UNL     1      26.417 -20.503 132.265  1.00  0.00     0.166 HD
HETATM   10  C7  UNL     1      25.793 -22.208 133.190  1.00  0.00     0.071 A 
HETATM   11  C20 UNL     1      25.078 -23.371 133.049  1.00  0.00     0.131 A 
HETATM   12 CL1  UNL     1      24.977 -24.456 134.426  1.00  0.00    -0.062 Cl
HETATM   13  N7  UNL     1      24.465 -23.692 131.902  1.00  0.00    -0.340 N 
ATOM     14  H7  UNL     1      23.941 -24.564 131.825  1.00  0.00     0.167 HD
HETATM   15  C21 UNL     1      24.549 -22.850 130.846  1.00  0.00     0.104 A 
ENDROOT
BRANCH  10  16
HETATM   16  C8  UNL     1      26.474 -21.850 134.464  1.00  0.00     0.035 C 
HETATM   17  C9  UNL     1      27.649 -22.358 134.750  1.00  0.00     0.032 C 
BRANCH  17  18
HETATM   18  C10 UNL     1      28.330 -22.028 135.974  1.00  0.00     0.034 C 
HETATM   19  C11 UNL     1      27.798 -22.525 137.151  1.00  0.00     0.038 C 
HETATM   20  C12 UNL     1      28.297 -23.035 138.346  1.00  0.00    -0.038 C 
HETATM   21  C16 UNL     1      29.532 -23.028 138.958  1.00  0.00     0.011 C 
HETATM   22  C17 UNL     1      30.735 -22.420 138.672  1.00  0.00     0.034 C 
HETATM   23  C18 UNL     1      31.157 -21.454 137.759  1.00  0.00     0.078 A 
HETATM   24  N5  UNL     1      31.729 -20.489 136.993  1.00  0.00    -0.338 N 
HETATM   25  C19 UNL     1      30.551 -20.987 136.512  1.00  0.00     0.133 A 
ATOM     26  H5  UNL     1      32.506 -19.839 136.865  1.00  0.00     0.167 HD
HETATM   27  N6  UNL     1      29.445 -21.256 135.785  1.00  0.00    -0.341 N 
ATOM     28  H6  UNL     1      29.439 -20.772 134.887  1.00  0.00     0.167 HD
BRANCH  20  29
HETATM   29  C13 UNL     1      27.267 -23.741 139.136  1.00  0.00     0.154 C 
BRANCH  29  30
HETATM   30  N4  UNL     1      26.833 -24.979 138.589  1.00  0.00    -0.417 N 
HETATM   31  C14 UNL     1      25.421 -25.143 138.463  1.00  0.00     0.142 C 
HETATM   32  C15 UNL     1      27.547 -26.132 139.026  1.00  0.00     0.142 C 
ENDBRANCH  29  30
ENDBRANCH  20  29
ENDBRANCH  17  18
ENDBRANCH  10  16
BRANCH   1  33
HETATM   33  N1  UNL     1      23.253 -24.251 129.519  1.00  0.00    -0.379 N 
HETATM   34  C1  UNL     1      22.326 -24.604 128.499  1.00  0.00     0.147 C 
ATOM     35  H1  UNL     1      23.403 -24.968 130.229  1.00  0.00     0.160 HD
ENDBRANCH   1  33
TORSDOF 5
ENDMDL
MODEL 3
REMARK VINA RESULT: -8.149985841      3.158     10.485
REMARK  5 active torsions:
REMARK  status: ('A' for Active; 'I' for Inactive)
REMARK    1  A    between atoms: N1_2  and  C2_4 
REMARK    2  A    between atoms: C7_13  and  C8_14 
REMARK    3  A    between atoms: C9_15  and  C10_16 
REMARK    4  A    between atoms: C12_18  and  C13_19 
REMARK    5  A    between atoms: C13_19  and  N4_20 
ROOT
HETATM    1  C2  UNL     1      25.070 -25.830 136.223  1.00  0.00     0.130 A 
HETATM    2  N2  UNL     1      24.328 -26.932 136.538  1.00  0.00    -0.345 N 
ATOM      3  H2  UNL     1      24.515 -27.439 137.403  1.00  0.00     0.167 HD
HETATM    4  C3  UNL     1      23.358 -27.352 135.718  1.00  0.00     0.009 A 
HETATM    5  C4  UNL     1      22.581 -28.566 136.121  1.00  0.00     0.068 C 
HETATM    6  C5  UNL     1      23.051 -26.720 134.534  1.00  0.00     0.056 A 
HETATM    7  C6  UNL     1      23.770 -25.606 134.172  1.00  0.00     0.065 A 
HETATM    8  N3  UNL     1      23.514 -24.948 133.027  1.00  0.00    -0.352 N 
ATOM      9  H3  UNL     1      22.775 -25.270 132.403  1.00  0.00     0.166 HD
HETATM   10  C7  UNL     1      24.230 -23.880 132.718  1.00  0.00     0.071 A 
HETATM   11  C20 UNL     1      25.223 -23.458 133.566  1.00  0.00     0.131 A 
HETATM   12 CL1  UNL     1      26.150 -22.036 133.118  1.00  0.00    -0.062 Cl
HETATM   13  N7  UNL     1      25.496 -24.097 134.712  1.00  0.00    -0.340 N 
ATOM     14  H7  UNL     1      26.239 -23.761 135.323  1.00  0.00     0.167 HD
HETATM   15  C21 UNL     1      24.776 -25.192 135.049  1.00  0.00     0.104 A 
ENDROOT
BRANCH  10  16
HETATM   16  C8  UNL     1      23.926 -23.171 131.445  1.00  0.00     0.035 C 
HETATM   17  C9  UNL     1      24.801 -23.163 130.467  1.00  0.00     0.032 C 
BRANCH  17  18
HETATM   18  C10 UNL     1      24.532 -22.486 129.227  1.00  0.00     0.034 C 
HETATM   19  C11 UNL     1      23.269 -22.634 128.683  1.00  0.00     0.038 C 
HETATM   20  C12 UNL     1      22.362 -21.824 128.004  1.00  0.00    -0.038 C 
HETATM   21  C16 UNL     1      22.446 -20.604 127.369  1.00  0.00     0.011 C 
HETATM   22  C17 UNL     1      23.489 -19.754 127.067  1.00  0.00     0.034 C 
HETATM   23  C18 UNL     1      24.879 -19.841 127.131  1.00  0.00     0.078 A 
HETATM   24  N5  UNL     1      26.234 -19.769 127.062  1.00  0.00    -0.338 N 
HETATM   25  C19 UNL     1      25.747 -20.741 127.889  1.00  0.00     0.133 A 
ATOM     26  H5  UNL     1      27.052 -19.307 126.664  1.00  0.00     0.167 HD
HETATM   27  N6  UNL     1      25.598 -21.764 128.760  1.00  0.00    -0.341 N 
ATOM     28  H6  UNL     1      26.484 -22.068 129.162  1.00  0.00     0.167 HD
BRANCH  20  29
HETATM   29  C13 UNL     1      21.007 -22.408 127.952  1.00  0.00     0.154 C 
BRANCH  29  30
HETATM   30  N4  UNL     1      20.391 -22.614 129.216  1.00  0.00    -0.417 N 
HETATM   31  C14 UNL     1      19.857 -23.918 129.444  1.00  0.00     0.142 C 
HETATM   32  C15 UNL     1      19.598 -21.534 129.702  1.00  0.00     0.142 C 
ENDBRANCH  29  30
ENDBRANCH  20  29
ENDBRANCH  17  18
ENDBRANCH  10  16
BRANCH   1  33
HETATM   33  N1  UNL     1      25.970 -25.472 137.024  1.00  0.00    -0.379 N 
HETATM   34  C1  UNL     1      26.393 -26.055 138.250  1.00  0.00     0.147 C 
ATOM     35  H1  UNL     1      26.478 -24.631 136.751  1.00  0.00     0.160 HD
ENDBRANCH   1  33
TORSDOF 5
ENDMDL
MODEL 4
REMARK VINA RESULT: -8.064471196      2.436      3.994
REMARK  5 active torsions:
REMARK  status: ('A' for Active; 'I' for Inactive)
REMARK    1  A    between atoms: N1_2  and  C2_4 
REMARK    2  A    between atoms: C7_13  and  C8_14 
REMARK    3  A    between atoms: C9_15  and  C10_16 
REMARK    4  A    between atoms: C12_18  and  C13_19 
REMARK    5  A    between atoms: C13_19  and  N4_20 
ROOT
HETATM    1  C2  UNL     1      24.932 -21.787 129.036  1.00  0.00     0.130 A 
HETATM    2  N2  UNL     1      24.055 -22.020 128.016  1.00  0.00    -0.345 N 
ATOM      3  H2  UNL     1      24.202 -21.576 127.109  1.00  0.00     0.167 HD
HETATM    4  C3  UNL     1      23.003 -22.826 128.198  1.00  0.00     0.009 A 
HETATM    5  C4  UNL     1      22.079 -23.041 127.040  1.00  0.00     0.068 C 
HETATM    6  C5  UNL     1      22.741 -23.458 129.393  1.00  0.00     0.056 A 
HETATM    7  C6  UNL     1      23.594 -23.254 130.451  1.00  0.00     0.065 A 
HETATM    8  N3  UNL     1      23.387 -23.846 131.642  1.00  0.00    -0.352 N 
ATOM      9  H3  UNL     1      22.584 -24.459 131.779  1.00  0.00     0.166 HD
HETATM   10  C7  UNL     1      24.234 -23.623 132.633  1.00  0.00     0.071 A 
HETATM   11  C20 UNL     1      25.309 -22.794 132.434  1.00  0.00     0.131 A 
HETATM   12 CL1  UNL     1      26.410 -22.526 133.777  1.00  0.00    -0.062 Cl
HETATM   13  N7  UNL     1      25.536 -22.195 131.258  1.00  0.00    -0.340 N 
ATOM     14  H7  UNL     1      26.343 -21.584 131.139  1.00  0.00     0.167 HD
HETATM   15  C21 UNL     1      24.683 -22.408 130.229  1.00  0.00     0.104 A 
ENDROOT
BRANCH  10  16
HETATM   16  C8  UNL     1      23.981 -24.289 133.940  1.00  0.00     0.035 C 
HETATM   17  C9  UNL     1      24.487 -25.475 134.186  1.00  0.00     0.032 C 
BRANCH  17  18
HETATM   18  C10 UNL     1      24.259 -26.140 135.440  1.00  0.00     0.034 C 
HETATM   19  C11 UNL     1      25.228 -26.004 136.418  1.00  0.00     0.038 C 
HETATM   20  C12 UNL     1      25.250 -25.858 137.803  1.00  0.00    -0.038 C 
HETATM   21  C16 UNL     1      24.323 -26.038 138.806  1.00  0.00     0.011 C 
HETATM   22  C17 UNL     1      23.039 -26.536 138.842  1.00  0.00     0.034 C 
HETATM   23  C18 UNL     1      22.215 -27.198 137.932  1.00  0.00     0.078 A 
HETATM   24  N5  UNL     1      21.304 -27.902 137.211  1.00  0.00    -0.338 N 
HETATM   25  C19 UNL     1      22.278 -27.289 136.474  1.00  0.00     0.133 A 
ATOM     26  H5  UNL     1      20.467 -28.486 137.215  1.00  0.00     0.167 HD
HETATM   27  N6  UNL     1      23.073 -26.824 135.485  1.00  0.00    -0.341 N 
ATOM     28  H6  UNL     1      22.703 -27.029 134.557  1.00  0.00     0.167 HD
BRANCH  20  29
HETATM   29  C13 UNL     1      26.565 -25.410 138.305  1.00  0.00     0.154 C 
BRANCH  29  30
HETATM   30  N4  UNL     1      26.634 -24.039 138.672  1.00  0.00    -0.417 N 
HETATM   31  C14 UNL     1      27.323 -23.185 137.759  1.00  0.00     0.142 C 
HETATM   32  C15 UNL     1      26.873 -23.779 140.052  1.00  0.00     0.142 C 
ENDBRANCH  29  30
ENDBRANCH  20  29
ENDBRANCH  17  18
ENDBRANCH  10  16
BRANCH   1  33
HETATM   33  N1  UNL     1      25.906 -21.023 128.818  1.00  0.00    -0.379 N 
HETATM   34  C1  UNL     1      26.417 -20.514 127.593  1.00  0.00     0.147 C 
ATOM     35  H1  UNL     1      26.410 -20.721 129.652  1.00  0.00     0.160 HD
ENDBRANCH   1  33
TORSDOF 5
ENDMDL
MODEL 5
REMARK VINA RESULT: -7.840214801      3.975      6.502
REMARK  5 active torsions:
REMARK  status: ('A' for Active; 'I' for Inactive)
REMARK    1  A    between atoms: N1_2  and  C2_4 
REMARK    2  A    between atoms: C7_13  and  C8_14 
REMARK    3  A    between atoms: C9_15  and  C10_16 
REMARK    4  A    between atoms: C12_18  and  C13_19 
REMARK    5  A    between atoms: C13_19  and  N4_20 
ROOT
HETATM    1  C2  UNL     1      27.473 -23.189 137.324  1.00  0.00     0.130 A 
HETATM    2  N2  UNL     1      28.527 -22.721 138.054  1.00  0.00    -0.345 N 
ATOM      3  H2  UNL     1      29.182 -22.061 137.633  1.00  0.00     0.167 HD
HETATM    4  C3  UNL     1      28.707 -23.120 139.317  1.00  0.00     0.009 A 
HETATM    5  C4  UNL     1      29.881 -22.569 140.064  1.00  0.00     0.068 C 
HETATM    6  C5  UNL     1      27.865 -24.008 139.950  1.00  0.00     0.056 A 
HETATM    7  C6  UNL     1      26.789 -24.509 139.257  1.00  0.00     0.065 A 
HETATM    8  N3  UNL     1      25.934 -25.379 139.825  1.00  0.00    -0.352 N 
ATOM      9  H3  UNL     1      26.073 -25.683 140.788  1.00  0.00     0.166 HD
HETATM   10  C7  UNL     1      24.911 -25.836 139.121  1.00  0.00     0.071 A 
HETATM   11  C20 UNL     1      24.736 -25.418 137.826  1.00  0.00     0.131 A 
HETATM   12 CL1  UNL     1      23.366 -26.050 136.927  1.00  0.00    -0.062 Cl
HETATM   13  N7  UNL     1      25.575 -24.553 137.240  1.00  0.00    -0.340 N 
ATOM     14  H7  UNL     1      25.421 -24.261 136.275  1.00  0.00     0.167 HD
HETATM   15  C21 UNL     1      26.628 -24.072 137.940  1.00  0.00     0.104 A 
ENDROOT
BRANCH  10  16
HETATM   16  C8  UNL     1      23.980 -26.797 139.773  1.00  0.00     0.035 C 
HETATM   17  C9  UNL     1      24.429 -27.658 140.656  1.00  0.00     0.032 C 
BRANCH  17  18
HETATM   18  C10 UNL     1      23.552 -28.597 141.301  1.00  0.00     0.034 C 
HETATM   19  C11 UNL     1      22.499 -28.081 142.037  1.00  0.00     0.038 C 
HETATM   20  C12 UNL     1      21.168 -28.420 142.266  1.00  0.00    -0.038 C 
HETATM   21  C16 UNL     1      20.410 -29.550 142.054  1.00  0.00     0.011 C 
HETATM   22  C17 UNL     1      20.700 -30.828 141.626  1.00  0.00     0.034 C 
HETATM   23  C18 UNL     1      21.873 -31.543 141.387  1.00  0.00     0.078 A 
HETATM   24  N5  UNL     1      22.898 -32.407 141.168  1.00  0.00    -0.338 N 
HETATM   25  C19 UNL     1      23.242 -31.085 141.152  1.00  0.00     0.133 A 
ATOM     26  H5  UNL     1      23.202 -33.377 141.078  1.00  0.00     0.167 HD
HETATM   27  N6  UNL     1      23.893 -29.904 141.074  1.00  0.00    -0.341 N 
ATOM     28  H6  UNL     1      24.862 -30.010 140.777  1.00  0.00     0.167 HD
BRANCH  20  29
HETATM   29  C13 UNL     1      20.400 -27.316 142.877  1.00  0.00     0.154 C 
BRANCH  29  30
HETATM   30  N4  UNL     1      19.566 -26.595 141.981  1.00  0.00    -0.417 N 
HETATM   31  C14 UNL     1      20.130 -25.407 141.425  1.00  0.00     0.142 C 
HETATM   32  C15 UNL     1      18.193 -26.505 142.349  1.00  0.00     0.142 C 
ENDBRANCH  29  30
ENDBRANCH  20  29
ENDBRANCH  17  18
ENDBRANCH  10  16
BRANCH   1  33
HETATM   33  N1  UNL     1      27.343 -22.785 136.141  1.00  0.00    -0.379 N 
HETATM   34  C1  UNL     1      28.115 -21.846 135.402  1.00  0.00     0.147 C 
ATOM     35  H1  UNL     1      26.561 -23.195 135.630  1.00  0.00     0.160 HD
ENDBRANCH   1  33
TORSDOF 5
ENDMDL
