MODEL 1
REMARK VINA RESULT: -7.338289404      0.000      0.000
REMARK  4 active torsions:
REMARK  status: ('A' for Active; 'I' for Inactive)
REMARK    1  A    between atoms: C6_10  and  N2_11 
REMARK    2  A    between atoms: N2_11  and  S2_13 
REMARK    3  A    between atoms: S2_13  and  C7_16 
REMARK    4  A    between atoms: C9_18  and  C10_19 
ROOT
HETATM    1  C1  UNL     1      22.021 -27.153 134.313  1.00  0.00     0.057 C 
HETATM    2  C2  UNL     1      22.993 -26.043 134.044  1.00  0.00    -0.012 A 
HETATM    3  S1  UNL     1      24.360 -25.634 134.960  1.00  0.00    -0.076 SA
HETATM    4  C3  UNL     1      24.920 -24.300 134.027  1.00  0.00     0.087 A 
HETATM    5  N1  UNL     1      25.993 -23.451 134.151  1.00  0.00    -0.358 N 
ATOM      6  H1  UNL     1      26.640 -23.569 134.931  1.00  0.00     0.166 HD
HETATM    7  C4  UNL     1      26.199 -22.478 133.269  1.00  0.00     0.115 A 
HETATM    8  C5  UNL     1      25.310 -22.351 132.231  1.00  0.00     0.077 A 
HETATM    9 CL1  UNL     1      25.624 -21.036 131.068  1.00  0.00    -0.080 Cl
HETATM   10  C6  UNL     1      24.220 -23.179 132.064  1.00  0.00     0.079 A 
HETATM   11  C12 UNL     1      24.006 -24.228 133.027  1.00  0.00     0.034 A 
HETATM   12  C13 UNL     1      23.006 -25.124 133.027  1.00  0.00    -0.034 A 
HETATM   13  C14 UNL     1      21.896 -25.190 131.985  1.00  0.00     0.050 C 
ENDROOT
BRANCH  10  14
HETATM   14  N2  UNL     1      23.454 -23.029 131.130  1.00  0.00    -0.277 N 
ATOM     15  H2  UNL     1      23.408 -23.962 130.720  1.00  0.00     0.179 HD
BRANCH  14  16
HETATM   16  S2  UNL     1      22.466 -22.167 130.178  1.00  0.00     0.269 S 
HETATM   17  O1  UNL     1      21.181 -22.923 129.766  1.00  0.00    -0.200 OA
HETATM   18  O2  UNL     1      21.936 -20.873 130.792  1.00  0.00    -0.200 OA
BRANCH  16  19
HETATM   19  C7  UNL     1      23.163 -21.731 128.607  1.00  0.00     0.121 A 
HETATM   20  C8  UNL     1      23.696 -20.529 128.269  1.00  0.00     0.050 A 
HETATM   21  C9  UNL     1      24.169 -20.391 127.005  1.00  0.00     0.037 A 
HETATM   22  C11 UNL     1      24.059 -21.495 126.190  1.00  0.00     0.067 A 
HETATM   23  S3  UNL     1      23.319 -22.654 127.190  1.00  0.00    -0.087 SA
BRANCH  21  24
HETATM   24  C10 UNL     1      24.779 -19.148 126.473  1.00  0.00     0.265 C 
HETATM   25  N3  UNL     1      26.164 -18.945 126.610  1.00  0.00    -0.057 NA
HETATM   26  O3  UNL     1      24.108 -18.265 125.902  1.00  0.00    -0.271 OA
ENDBRANCH  21  24
ENDBRANCH  16  19
ENDBRANCH  14  16
ENDBRANCH  10  14
TORSDOF 4
ENDMDL
MODEL 2
REMARK VINA RESULT: -7.197948739      9.704     11.554
REMARK  4 active torsions:
REMARK  status: ('A' for Active; 'I' for Inactive)
REMARK    1  A    between atoms: C6_10  and  N2_11 
REMARK    2  A    between atoms: N2_11  and  S2_13 
REMARK    3  A    between atoms: S2_13  and  C7_16 
REMARK    4  A    between atoms: C9_18  and  C10_19 
ROOT
HETATM    1  C1  UNL     1      19.474 -26.552 143.715  1.00  0.00     0.057 C 
HETATM    2  C2  UNL     1      19.975 -26.189 142.350  1.00  0.00    -0.012 A 
HETATM    3  S1  UNL     1      19.093 -25.472 141.091  1.00  0.00    -0.076 SA
HETATM    4  C3  UNL     1      20.336 -25.387 139.904  1.00  0.00     0.087 A 
HETATM    5  N1  UNL     1      20.372 -24.919 138.613  1.00  0.00    -0.358 N 
ATOM      6  H1  UNL     1      19.529 -24.523 138.198  1.00  0.00     0.166 HD
HETATM    7  C4  UNL     1      21.492 -24.973 137.898  1.00  0.00     0.115 A 
HETATM    8  C5  UNL     1      22.609 -25.510 138.491  1.00  0.00     0.077 A 
HETATM    9 CL1  UNL     1      24.090 -25.563 137.499  1.00  0.00    -0.080 Cl
HETATM   10  C6  UNL     1      22.621 -25.992 139.782  1.00  0.00     0.079 A 
HETATM   11  C12 UNL     1      21.402 -25.928 140.546  1.00  0.00     0.034 A 
HETATM   12  C13 UNL     1      21.226 -26.345 141.810  1.00  0.00    -0.034 A 
HETATM   13  C14 UNL     1      22.308 -26.975 142.679  1.00  0.00     0.050 C 
ENDROOT
BRANCH  10  14
HETATM   14  N2  UNL     1      23.633 -26.462 140.269  1.00  0.00    -0.277 N 
ATOM     15  H2  UNL     1      23.276 -27.215 140.857  1.00  0.00     0.179 HD
BRANCH  14  16
HETATM   16  S2  UNL     1      25.235 -26.552 140.498  1.00  0.00     0.269 S 
HETATM   17  O1  UNL     1      25.637 -27.245 141.822  1.00  0.00    -0.200 OA
HETATM   18  O2  UNL     1      26.000 -27.341 139.437  1.00  0.00    -0.200 OA
BRANCH  16  19
HETATM   19  C7  UNL     1      26.042 -24.979 140.639  1.00  0.00     0.121 A 
HETATM   20  C8  UNL     1      25.768 -24.014 141.553  1.00  0.00     0.050 A 
HETATM   21  C9  UNL     1      26.493 -22.870 141.486  1.00  0.00     0.037 A 
HETATM   22  C11 UNL     1      27.441 -22.807 140.488  1.00  0.00     0.067 A 
HETATM   23  S3  UNL     1      27.288 -24.307 139.702  1.00  0.00    -0.087 SA
BRANCH  21  24
HETATM   24  C10 UNL     1      26.322 -21.718 142.404  1.00  0.00     0.265 C 
HETATM   25  N3  UNL     1      27.028 -21.693 143.620  1.00  0.00    -0.057 NA
HETATM   26  O3  UNL     1      25.571 -20.757 142.140  1.00  0.00    -0.271 OA
ENDBRANCH  21  24
ENDBRANCH  16  19
ENDBRANCH  14  16
ENDBRANCH  10  14
TORSDOF 4
ENDMDL
MODEL 3
REMARK VINA RESULT: -7.147945091      7.890     10.822
REMARK  4 active torsions:
REMARK  status: ('A' for Active; 'I' for Inactive)
REMARK    1  A    between atoms: C6_10  and  N2_11 
REMARK    2  A    between atoms: N2_11  and  S2_13 
REMARK    3  A    between atoms: S2_13  and  C7_16 
REMARK    4  A    between atoms: C9_18  and  C10_19 
ROOT
HETATM    1  C1  UNL     1      24.751 -24.680 133.943  1.00  0.00     0.057 C 
HETATM    2  C2  UNL     1      24.253 -25.698 134.923  1.00  0.00    -0.012 A 
HETATM    3  S1  UNL     1      23.131 -26.937 134.635  1.00  0.00    -0.076 SA
HETATM    4  C3  UNL     1      23.096 -27.641 136.204  1.00  0.00     0.087 A 
HETATM    5  N1  UNL     1      22.410 -28.702 136.743  1.00  0.00    -0.358 N 
ATOM      6  H1  UNL     1      21.768 -29.236 136.158  1.00  0.00     0.166 HD
HETATM    7  C4  UNL     1      22.572 -29.043 138.018  1.00  0.00     0.115 A 
HETATM    8  C5  UNL     1      23.446 -28.304 138.777  1.00  0.00     0.077 A 
HETATM    9 CL1  UNL     1      23.635 -28.795 140.480  1.00  0.00    -0.080 Cl
HETATM   10  C6  UNL     1      24.156 -27.232 138.281  1.00  0.00     0.079 A 
HETATM   11  C12 UNL     1      23.972 -26.872 136.898  1.00  0.00     0.034 A 
HETATM   12  C13 UNL     1      24.575 -25.865 136.246  1.00  0.00    -0.034 A 
HETATM   13  C14 UNL     1      25.583 -24.904 136.865  1.00  0.00     0.050 C 
ENDROOT
BRANCH  10  14
HETATM   14  N2  UNL     1      24.920 -26.602 138.989  1.00  0.00    -0.277 N 
ATOM     15  H2  UNL     1      24.485 -25.680 139.032  1.00  0.00     0.179 HD
BRANCH  14  16
HETATM   16  S2  UNL     1      26.247 -26.418 139.900  1.00  0.00     0.269 S 
HETATM   17  O1  UNL     1      26.115 -27.018 141.320  1.00  0.00    -0.200 OA
HETATM   18  O2  UNL     1      27.510 -27.079 139.351  1.00  0.00    -0.200 OA
BRANCH  16  19
HETATM   19  C7  UNL     1      26.669 -24.731 140.245  1.00  0.00     0.121 A 
HETATM   20  C8  UNL     1      26.097 -23.934 141.184  1.00  0.00     0.050 A 
HETATM   21  C9  UNL     1      26.556 -22.661 141.283  1.00  0.00     0.037 A 
HETATM   22  C11 UNL     1      27.563 -22.307 140.414  1.00  0.00     0.067 A 
HETATM   23  S3  UNL     1      27.825 -23.726 139.513  1.00  0.00    -0.087 SA
BRANCH  21  24
HETATM   24  C10 UNL     1      26.042 -21.663 142.252  1.00  0.00     0.265 C 
HETATM   25  N3  UNL     1      26.213 -21.884 143.630  1.00  0.00    -0.057 NA
HETATM   26  O3  UNL     1      25.458 -20.620 141.892  1.00  0.00    -0.271 OA
ENDBRANCH  21  24
ENDBRANCH  16  19
ENDBRANCH  14  16
ENDBRANCH  10  14
TORSDOF 4
ENDMDL
MODEL 4
REMARK VINA RESULT: -7.144143034      9.394     11.291
REMARK  4 active torsions:
REMARK  status: ('A' for Active; 'I' for Inactive)
REMARK    1  A    between atoms: C6_10  and  N2_11 
REMARK    2  A    between atoms: N2_11  and  S2_13 
REMARK    3  A    between atoms: S2_13  and  C7_16 
REMARK    4  A    between atoms: C9_18  and  C10_19 
ROOT
HETATM    1  C1  UNL     1      19.544 -25.050 137.895  1.00  0.00     0.057 C 
HETATM    2  C2  UNL     1      20.407 -25.468 139.047  1.00  0.00    -0.012 A 
HETATM    3  S1  UNL     1      19.921 -25.732 140.650  1.00  0.00    -0.076 SA
HETATM    4  C3  UNL     1      21.442 -26.167 141.326  1.00  0.00     0.087 A 
HETATM    5  N1  UNL     1      21.841 -26.523 142.592  1.00  0.00    -0.358 N 
ATOM      6  H1  UNL     1      21.153 -26.562 143.344  1.00  0.00     0.166 HD
HETATM    7  C4  UNL     1      23.111 -26.818 142.850  1.00  0.00     0.115 A 
HETATM    8  C5  UNL     1      24.010 -26.758 141.813  1.00  0.00     0.077 A 
HETATM    9 CL1  UNL     1      25.702 -27.164 142.201  1.00  0.00    -0.080 Cl
HETATM   10  C6  UNL     1      23.657 -26.406 140.527  1.00  0.00     0.079 A 
HETATM   11  C12 UNL     1      22.278 -26.088 140.261  1.00  0.00     0.034 A 
HETATM   12  C13 UNL     1      21.754 -25.728 139.079  1.00  0.00    -0.034 A 
HETATM   13  C14 UNL     1      22.542 -25.588 137.781  1.00  0.00     0.050 C 
ENDROOT
BRANCH  10  14
HETATM   14  N2  UNL     1      24.487 -26.363 139.637  1.00  0.00    -0.277 N 
ATOM     15  H2  UNL     1      24.030 -26.864 138.875  1.00  0.00     0.179 HD
BRANCH  14  16
HETATM   16  S2  UNL     1      25.915 -25.950 138.995  1.00  0.00     0.269 S 
HETATM   17  O1  UNL     1      27.004 -27.038 139.144  1.00  0.00    -0.200 OA
HETATM   18  O2  UNL     1      25.896 -25.670 137.493  1.00  0.00    -0.200 OA
BRANCH  16  19
HETATM   19  C7  UNL     1      26.682 -24.546 139.761  1.00  0.00     0.121 A 
HETATM   20  C8  UNL     1      26.171 -23.807 140.779  1.00  0.00     0.050 A 
HETATM   21  C9  UNL     1      26.912 -22.759 141.218  1.00  0.00     0.037 A 
HETATM   22  C11 UNL     1      28.115 -22.553 140.581  1.00  0.00     0.067 A 
HETATM   23  S3  UNL     1      28.167 -23.797 139.422  1.00  0.00    -0.087 SA
BRANCH  21  24
HETATM   24  C10 UNL     1      26.503 -21.851 142.318  1.00  0.00     0.265 C 
HETATM   25  N3  UNL     1      27.148 -21.941 143.564  1.00  0.00    -0.057 NA
HETATM   26  O3  UNL     1      25.601 -21.000 142.182  1.00  0.00    -0.271 OA
ENDBRANCH  21  24
ENDBRANCH  16  19
ENDBRANCH  14  16
ENDBRANCH  10  14
TORSDOF 4
ENDMDL
MODEL 5
REMARK VINA RESULT: -6.937743104      9.001     11.247
REMARK  4 active torsions:
REMARK  status: ('A' for Active; 'I' for Inactive)
REMARK    1  A    between atoms: C6_10  and  N2_11 
REMARK    2  A    between atoms: N2_11  and  S2_13 
REMARK    3  A    between atoms: S2_13  and  C7_16 
REMARK    4  A    between atoms: C9_18  and  C10_19 
ROOT
HETATM    1  C1  UNL     1      22.019 -26.276 135.077  1.00  0.00     0.057 C 
HETATM    2  C2  UNL     1      21.818 -26.185 136.559  1.00  0.00    -0.012 A 
HETATM    3  S1  UNL     1      20.394 -25.766 137.378  1.00  0.00    -0.076 SA
HETATM    4  C3  UNL     1      20.965 -25.887 138.996  1.00  0.00     0.087 A 
HETATM    5  N1  UNL     1      20.372 -25.692 140.219  1.00  0.00    -0.358 N 
ATOM      6  H1  UNL     1      19.391 -25.417 140.265  1.00  0.00     0.166 HD
HETATM    7  C4  UNL     1      21.059 -25.858 141.346  1.00  0.00     0.115 A 
HETATM    8  C5  UNL     1      22.377 -26.230 141.247  1.00  0.00     0.077 A 
HETATM    9 CL1  UNL     1      23.262 -26.443 142.781  1.00  0.00    -0.080 Cl
HETATM   10  C6  UNL     1      23.016 -26.438 140.043  1.00  0.00     0.079 A 
HETATM   11  C12 UNL     1      22.261 -26.254 138.830  1.00  0.00     0.034 A 
HETATM   12  C13 UNL     1      22.712 -26.411 137.575  1.00  0.00    -0.034 A 
HETATM   13  C14 UNL     1      24.133 -26.819 137.204  1.00  0.00     0.050 C 
ENDROOT
BRANCH  10  14
HETATM   14  N2  UNL     1      24.187 -26.765 140.001  1.00  0.00    -0.277 N 
ATOM     15  H2  UNL     1      24.167 -27.613 139.434  1.00  0.00     0.179 HD
BRANCH  14  16
HETATM   16  S2  UNL     1      25.761 -26.599 140.348  1.00  0.00     0.269 S 
HETATM   17  O1  UNL     1      26.167 -27.209 141.711  1.00  0.00    -0.200 OA
HETATM   18  O2  UNL     1      26.718 -27.266 139.362  1.00  0.00    -0.200 OA
BRANCH  16  19
HETATM   19  C7  UNL     1      26.298 -24.918 140.516  1.00  0.00     0.121 A 
HETATM   20  C8  UNL     1      25.885 -24.032 141.458  1.00  0.00     0.050 A 
HETATM   21  C9  UNL     1      26.409 -22.781 141.408  1.00  0.00     0.037 A 
HETATM   22  C11 UNL     1      27.314 -22.540 140.399  1.00  0.00     0.067 A 
HETATM   23  S3  UNL     1      27.398 -24.027 139.578  1.00  0.00    -0.087 SA
BRANCH  21  24
HETATM   24  C10 UNL     1      26.066 -21.695 142.357  1.00  0.00     0.265 C 
HETATM   25  N3  UNL     1      26.354 -21.855 143.725  1.00  0.00    -0.057 NA
HETATM   26  O3  UNL     1      25.528 -20.631 141.990  1.00  0.00    -0.271 OA
ENDBRANCH  21  24
ENDBRANCH  16  19
ENDBRANCH  14  16
ENDBRANCH  10  14
TORSDOF 4
ENDMDL
