MODEL 1
REMARK VINA RESULT: -6.779621974      0.000      0.000
REMARK  7 active torsions:
REMARK  status: ('A' for Active; 'I' for Inactive)
REMARK    1  A    between atoms: C2_3  and  C3_4 
REMARK    2  A    between atoms: C2_3  and  N2_13 
REMARK    3  A    between atoms: C3_4  and  C4_5 
REMARK    4  A    between atoms: C7_8  and  O1_9 
REMARK    5  A    between atoms: N2_13  and  C10_15 
REMARK    6  A    between atoms: C10_15  and  O2_16 
REMARK    7  A    between atoms: C10_15  and  C11_18 
ROOT
HETATM    1  N1  UNL     1      24.090 -18.767 125.880  1.00  0.00    -0.195 NA
HETATM    2  C1  UNL     1      24.397 -19.624 126.619  1.00  0.00     0.084 C 
HETATM    3  C2  UNL     1      24.760 -20.727 127.500  1.00  0.00     0.191 C 
ENDROOT
BRANCH   3   4
HETATM    4  C3  UNL     1      24.214 -20.660 128.865  1.00  0.00     0.044 C 
BRANCH   4   5
HETATM    5  C4  UNL     1      24.548 -21.776 129.783  1.00  0.00    -0.012 C 
HETATM    6  C5  UNL     1      25.854 -21.769 130.475  1.00  0.00     0.007 C 
HETATM    7  C6  UNL     1      26.018 -22.900 131.431  1.00  0.00     0.032 C 
HETATM    8  C7  UNL     1      24.878 -23.241 132.312  1.00  0.00     0.118 C 
HETATM    9  C8  UNL     1      23.552 -23.148 131.558  1.00  0.00     0.032 C 
HETATM   10  C9  UNL     1      23.445 -21.835 130.868  1.00  0.00     0.007 C 
BRANCH   8  11
HETATM   11  O1  UNL     1      25.004 -24.564 132.726  1.00  0.00    -0.396 OA
ATOM     12  H1  UNL     1      24.833 -24.615 133.659  1.00  0.00     0.210 HD
ENDBRANCH   8  11
ENDBRANCH   4   5
ENDBRANCH   3   4
BRANCH   3  13
HETATM   13  N2  UNL     1      24.414 -22.005 126.844  1.00  0.00    -0.353 N 
ATOM     14  H2  UNL     1      25.100 -22.759 126.829  1.00  0.00     0.163 HD
BRANCH  13  15
HETATM   15  C10 UNL     1      23.187 -22.200 126.255  1.00  0.00     0.148 C 
BRANCH  15  16
HETATM   16  O2  UNL     1      23.246 -22.488 124.971  1.00  0.00    -0.346 OA
ATOM     17  H2  UNL     1      22.414 -22.750 124.594  1.00  0.00     0.219 HD
ENDBRANCH  15  16
BRANCH  15  18
HETATM   18  C11 UNL     1      21.862 -22.132 126.823  1.00  0.00     0.035 A 
HETATM   19  C12 UNL     1      21.077 -21.032 126.466  1.00  0.00     0.057 A 
HETATM   20  C13 UNL     1      19.826 -20.824 126.985  1.00  0.00     0.103 A 
HETATM   21  C14 UNL     1      19.292 -21.722 127.902  1.00  0.00     0.103 A 
HETATM   22  O4  UNL     1      19.032 -19.719 126.631  1.00  0.00    -0.346 OA
HETATM   23  C15 UNL     1      20.036 -22.820 128.277  1.00  0.00     0.059 A 
HETATM   24  O3  UNL     1      18.020 -21.522 128.441  1.00  0.00    -0.346 OA
HETATM   25  C16 UNL     1      21.304 -22.986 127.718  1.00  0.00     0.028 A 
HETATM   26 BR1  UNL     1      22.253 -24.556 128.236  1.00  0.00    -0.050 Br
HETATM   27  C17 UNL     1      17.205 -20.456 128.032  1.00  0.00     0.202 C 
HETATM   28  C18 UNL     1      18.079 -19.310 127.606  1.00  0.00     0.202 C 
ENDBRANCH  15  18
ENDBRANCH  13  15
ENDBRANCH   3  13
TORSDOF 7
ENDMDL
MODEL 2
REMARK VINA RESULT: -6.713248808      3.203      6.960
REMARK  7 active torsions:
REMARK  status: ('A' for Active; 'I' for Inactive)
REMARK    1  A    between atoms: C2_3  and  C3_4 
REMARK    2  A    between atoms: C2_3  and  N2_13 
REMARK    3  A    between atoms: C3_4  and  C4_5 
REMARK    4  A    between atoms: C7_8  and  O1_9 
REMARK    5  A    between atoms: N2_13  and  C10_15 
REMARK    6  A    between atoms: C10_15  and  O2_16 
REMARK    7  A    between atoms: C10_15  and  C11_18 
ROOT
HETATM    1  N1  UNL     1      21.755 -25.771 128.564  1.00  0.00    -0.195 NA
HETATM    2  C1  UNL     1      22.110 -24.666 128.394  1.00  0.00     0.084 C 
HETATM    3  C2  UNL     1      22.522 -23.278 128.228  1.00  0.00     0.191 C 
ENDROOT
BRANCH   3   4
HETATM    4  C3  UNL     1      22.264 -22.688 126.905  1.00  0.00     0.044 C 
BRANCH   4   5
HETATM    5  C4  UNL     1      23.136 -21.565 126.482  1.00  0.00    -0.012 C 
HETATM    6  C5  UNL     1      22.812 -20.197 126.937  1.00  0.00     0.007 C 
HETATM    7  C6  UNL     1      23.819 -19.184 126.512  1.00  0.00     0.032 C 
HETATM    8  C7  UNL     1      25.253 -19.529 126.636  1.00  0.00     0.118 C 
HETATM    9  C8  UNL     1      25.506 -20.982 126.231  1.00  0.00     0.032 C 
HETATM   10  C9  UNL     1      24.575 -21.886 126.956  1.00  0.00     0.007 C 
BRANCH   8  11
HETATM   11  O1  UNL     1      25.988 -18.741 125.755  1.00  0.00    -0.396 OA
ATOM     12  H1  UNL     1      26.833 -19.149 125.604  1.00  0.00     0.210 HD
ENDBRANCH   8  11
ENDBRANCH   4   5
ENDBRANCH   3   4
BRANCH   3  13
HETATM   13  N2  UNL     1      21.923 -22.463 129.306  1.00  0.00    -0.353 N 
ATOM     14  H2  UNL     1      20.924 -22.265 129.284  1.00  0.00     0.163 HD
BRANCH  13  15
HETATM   15  C10 UNL     1      22.685 -21.967 130.338  1.00  0.00     0.148 C 
BRANCH  15  16
HETATM   16  O2  UNL     1      22.628 -20.658 130.468  1.00  0.00    -0.346 OA
ATOM     17  H2  UNL     1      23.355 -20.196 130.068  1.00  0.00     0.219 HD
ENDBRANCH  15  16
BRANCH  15  18
HETATM   18  C11 UNL     1      23.529 -22.656 131.284  1.00  0.00     0.035 A 
HETATM   19  C12 UNL     1      22.920 -23.624 132.087  1.00  0.00     0.057 A 
HETATM   20  C13 UNL     1      23.601 -24.303 133.063  1.00  0.00     0.103 A 
HETATM   21  C14 UNL     1      24.948 -24.040 133.286  1.00  0.00     0.103 A 
HETATM   22  O4  UNL     1      22.993 -25.277 133.874  1.00  0.00    -0.346 OA
HETATM   23  C15 UNL     1      25.583 -23.092 132.513  1.00  0.00     0.059 A 
HETATM   24  O3  UNL     1      25.654 -24.722 134.278  1.00  0.00    -0.346 OA
HETATM   25  C16 UNL     1      24.845 -22.430 131.532  1.00  0.00     0.028 A 
HETATM   26 BR1  UNL     1      25.801 -21.176 130.461  1.00  0.00    -0.050 Br
HETATM   27  C17 UNL     1      25.061 -25.741 135.037  1.00  0.00     0.202 C 
HETATM   28  C18 UNL     1      23.588 -25.469 135.153  1.00  0.00     0.202 C 
ENDBRANCH  15  18
ENDBRANCH  13  15
ENDBRANCH   3  13
TORSDOF 7
ENDMDL
MODEL 3
REMARK VINA RESULT: -6.657798794      2.172      3.311
REMARK  7 active torsions:
REMARK  status: ('A' for Active; 'I' for Inactive)
REMARK    1  A    between atoms: C2_3  and  C3_4 
REMARK    2  A    between atoms: C2_3  and  N2_13 
REMARK    3  A    between atoms: C3_4  and  C4_5 
REMARK    4  A    between atoms: C7_8  and  O1_9 
REMARK    5  A    between atoms: N2_13  and  C10_15 
REMARK    6  A    between atoms: C10_15  and  O2_16 
REMARK    7  A    between atoms: C10_15  and  C11_18 
ROOT
HETATM    1  N1  UNL     1      25.829 -18.514 126.115  1.00  0.00    -0.195 NA
HETATM    2  C1  UNL     1      25.169 -19.376 126.556  1.00  0.00     0.084 C 
HETATM    3  C2  UNL     1      24.318 -20.449 127.057  1.00  0.00     0.191 C 
ENDROOT
BRANCH   3   4
HETATM    4  C3  UNL     1      23.654 -20.191 128.344  1.00  0.00     0.044 C 
BRANCH   4   5
HETATM    5  C4  UNL     1      24.166 -20.922 129.529  1.00  0.00    -0.012 C 
HETATM    6  C5  UNL     1      23.210 -21.642 130.395  1.00  0.00     0.007 C 
HETATM    7  C6  UNL     1      23.870 -22.403 131.493  1.00  0.00     0.032 C 
HETATM    8  C7  UNL     1      25.086 -23.183 131.169  1.00  0.00     0.118 C 
HETATM    9  C8  UNL     1      25.991 -22.417 130.205  1.00  0.00     0.032 C 
HETATM   10  C9  UNL     1      25.210 -21.951 129.029  1.00  0.00     0.007 C 
BRANCH   8  11
HETATM   11  O1  UNL     1      25.825 -23.377 132.333  1.00  0.00    -0.396 OA
ATOM     12  H1  UNL     1      25.929 -24.309 132.483  1.00  0.00     0.210 HD
ENDBRANCH   8  11
ENDBRANCH   4   5
ENDBRANCH   3   4
BRANCH   3  13
HETATM   13  N2  UNL     1      23.341 -20.820 126.013  1.00  0.00    -0.353 N 
ATOM     14  H2  UNL     1      23.118 -20.149 125.278  1.00  0.00     0.163 HD
BRANCH  13  15
HETATM   15  C10 UNL     1      22.726 -22.049 126.010  1.00  0.00     0.148 C 
BRANCH  15  16
HETATM   16  O2  UNL     1      22.989 -22.781 124.947  1.00  0.00    -0.346 OA
ATOM     17  H2  UNL     1      23.466 -23.581 125.134  1.00  0.00     0.219 HD
ENDBRANCH  15  16
BRANCH  15  18
HETATM   18  C11 UNL     1      21.843 -22.649 126.981  1.00  0.00     0.035 A 
HETATM   19  C12 UNL     1      22.338 -23.746 127.691  1.00  0.00     0.057 A 
HETATM   20  C13 UNL     1      21.576 -24.439 128.596  1.00  0.00     0.103 A 
HETATM   21  C14 UNL     1      20.261 -24.059 128.837  1.00  0.00     0.103 A 
HETATM   22  O4  UNL     1      22.068 -25.543 129.314  1.00  0.00    -0.346 OA
HETATM   23  C15 UNL     1      19.738 -22.981 128.156  1.00  0.00     0.059 A 
HETATM   24  O3  UNL     1      19.473 -24.756 129.754  1.00  0.00    -0.346 OA
HETATM   25  C16 UNL     1      20.555 -22.310 127.246  1.00  0.00     0.028 A 
HETATM   26 BR1  UNL     1      19.788 -20.793 126.384  1.00  0.00    -0.050 Br
HETATM   27  C17 UNL     1      19.989 -25.814 130.517  1.00  0.00     0.202 C 
HETATM   28  C18 UNL     1      21.088 -26.483 129.741  1.00  0.00     0.202 C 
ENDBRANCH  15  18
ENDBRANCH  13  15
ENDBRANCH   3  13
TORSDOF 7
ENDMDL
MODEL 4
REMARK VINA RESULT: -6.650989498     11.913     13.759
REMARK  7 active torsions:
REMARK  status: ('A' for Active; 'I' for Inactive)
REMARK    1  A    between atoms: C2_3  and  C3_4 
REMARK    2  A    between atoms: C2_3  and  N2_13 
REMARK    3  A    between atoms: C3_4  and  C4_5 
REMARK    4  A    between atoms: C7_8  and  O1_9 
REMARK    5  A    between atoms: N2_13  and  C10_15 
REMARK    6  A    between atoms: C10_15  and  O2_16 
REMARK    7  A    between atoms: C10_15  and  C11_18 
ROOT
HETATM    1  N1  UNL     1      30.540 -22.346 139.103  1.00  0.00    -0.195 NA
HETATM    2  C1  UNL     1      29.523 -22.870 139.357  1.00  0.00     0.084 C 
HETATM    3  C2  UNL     1      28.258 -23.546 139.622  1.00  0.00     0.191 C 
ENDROOT
BRANCH   3   4
HETATM    4  C3  UNL     1      27.154 -22.682 140.066  1.00  0.00     0.044 C 
BRANCH   4   5
HETATM    5  C4  UNL     1      27.095 -22.345 141.510  1.00  0.00    -0.012 C 
HETATM    6  C5  UNL     1      26.167 -21.288 141.962  1.00  0.00     0.007 C 
HETATM    7  C6  UNL     1      26.148 -21.117 143.442  1.00  0.00     0.032 C 
HETATM    8  C7  UNL     1      26.123 -22.334 144.286  1.00  0.00     0.118 C 
HETATM    9  C8  UNL     1      27.039 -23.417 143.717  1.00  0.00     0.032 C 
HETATM   10  C9  UNL     1      26.737 -23.641 142.278  1.00  0.00     0.007 C 
BRANCH   8  11
HETATM   11  O1  UNL     1      26.619 -22.022 145.548  1.00  0.00    -0.396 OA
ATOM     12  H1  UNL     1      27.336 -21.406 145.456  1.00  0.00     0.210 HD
ENDBRANCH   8  11
ENDBRANCH   4   5
ENDBRANCH   3   4
BRANCH   3  13
HETATM   13  N2  UNL     1      27.876 -24.341 138.437  1.00  0.00    -0.353 N 
ATOM     14  H2  UNL     1      27.948 -23.921 137.511  1.00  0.00     0.163 HD
BRANCH  13  15
HETATM   15  C10 UNL     1      27.428 -25.635 138.556  1.00  0.00     0.148 C 
BRANCH  15  16
HETATM   16  O2  UNL     1      28.314 -26.547 138.212  1.00  0.00    -0.346 OA
ATOM     17  H2  UNL     1      28.222 -26.862 137.321  1.00  0.00     0.219 HD
ENDBRANCH  15  16
BRANCH  15  18
HETATM   18  C11 UNL     1      26.147 -26.138 138.990  1.00  0.00     0.035 A 
HETATM   19  C12 UNL     1      26.077 -26.652 140.288  1.00  0.00     0.057 A 
HETATM   20  C13 UNL     1      24.934 -27.213 140.795  1.00  0.00     0.103 A 
HETATM   21  C14 UNL     1      23.787 -27.288 140.013  1.00  0.00     0.103 A 
HETATM   22  O4  UNL     1      24.858 -27.731 142.100  1.00  0.00    -0.346 OA
HETATM   23  C15 UNL     1      23.817 -26.792 138.728  1.00  0.00     0.059 A 
HETATM   24  O3  UNL     1      22.616 -27.859 140.516  1.00  0.00    -0.346 OA
HETATM   25  C16 UNL     1      25.006 -26.230 138.261  1.00  0.00     0.028 A 
HETATM   26 BR1  UNL     1      24.959 -25.509 136.496  1.00  0.00    -0.050 Br
HETATM   27  C17 UNL     1      22.525 -28.312 141.840  1.00  0.00     0.202 C 
HETATM   28  C18 UNL     1      23.887 -28.753 142.298  1.00  0.00     0.202 C 
ENDBRANCH  15  18
ENDBRANCH  13  15
ENDBRANCH   3  13
TORSDOF 7
ENDMDL
MODEL 5
REMARK VINA RESULT: -6.647268017      8.433     11.920
REMARK  7 active torsions:
REMARK  status: ('A' for Active; 'I' for Inactive)
REMARK    1  A    between atoms: C2_3  and  C3_4 
REMARK    2  A    between atoms: C2_3  and  N2_13 
REMARK    3  A    between atoms: C3_4  and  C4_5 
REMARK    4  A    between atoms: C7_8  and  O1_9 
REMARK    5  A    between atoms: N2_13  and  C10_15 
REMARK    6  A    between atoms: C10_15  and  O2_16 
REMARK    7  A    between atoms: C10_15  and  C11_18 
ROOT
HETATM    1  N1  UNL     1      27.849 -22.537 136.900  1.00  0.00    -0.195 NA
HETATM    2  C1  UNL     1      27.834 -23.165 137.890  1.00  0.00     0.084 C 
HETATM    3  C2  UNL     1      27.819 -23.993 139.090  1.00  0.00     0.191 C 
ENDROOT
BRANCH   3   4
HETATM    4  C3  UNL     1      26.672 -23.796 139.989  1.00  0.00     0.044 C 
BRANCH   4   5
HETATM    5  C4  UNL     1      26.875 -22.913 141.164  1.00  0.00    -0.012 C 
HETATM    6  C5  UNL     1      26.112 -21.652 141.253  1.00  0.00     0.007 C 
HETATM    7  C6  UNL     1      26.349 -20.911 142.525  1.00  0.00     0.032 C 
HETATM    8  C7  UNL     1      26.376 -21.683 143.789  1.00  0.00     0.118 C 
HETATM    9  C8  UNL     1      27.106 -23.013 143.605  1.00  0.00     0.032 C 
HETATM   10  C9  UNL     1      26.557 -23.743 142.433  1.00  0.00     0.007 C 
BRANCH   8  11
HETATM   11  O1  UNL     1      27.094 -20.967 144.743  1.00  0.00    -0.396 OA
ATOM     12  H1  UNL     1      27.703 -21.553 145.176  1.00  0.00     0.210 HD
ENDBRANCH   8  11
ENDBRANCH   4   5
ENDBRANCH   3   4
BRANCH   3  13
HETATM   13  N2  UNL     1      27.961 -25.412 138.702  1.00  0.00    -0.353 N 
ATOM     14  H2  UNL     1      28.870 -25.756 138.394  1.00  0.00     0.163 HD
BRANCH  13  15
HETATM   15  C10 UNL     1      26.894 -26.278 138.746  1.00  0.00     0.148 C 
BRANCH  15  16
HETATM   16  O2  UNL     1      27.065 -27.302 139.556  1.00  0.00    -0.346 OA
ATOM     17  H2  UNL     1      26.890 -28.146 139.157  1.00  0.00     0.219 HD
ENDBRANCH  15  16
BRANCH  15  18
HETATM   18  C11 UNL     1      25.633 -26.236 138.045  1.00  0.00     0.035 A 
HETATM   19  C12 UNL     1      25.688 -26.177 136.650  1.00  0.00     0.057 A 
HETATM   20  C13 UNL     1      24.563 -26.073 135.875  1.00  0.00     0.103 A 
HETATM   21  C14 UNL     1      23.307 -26.021 136.470  1.00  0.00     0.103 A 
HETATM   22  O4  UNL     1      24.611 -26.013 134.471  1.00  0.00    -0.346 OA
HETATM   23  C15 UNL     1      23.213 -26.077 137.844  1.00  0.00     0.059 A 
HETATM   24  O3  UNL     1      22.153 -25.913 135.693  1.00  0.00    -0.346 OA
HETATM   25  C16 UNL     1      24.389 -26.184 138.587  1.00  0.00     0.028 A 
HETATM   26 BR1  UNL     1      24.182 -26.316 140.477  1.00  0.00    -0.050 Br
HETATM   27  C17 UNL     1      22.202 -25.923 134.292  1.00  0.00     0.202 C 
HETATM   28  C18 UNL     1      23.518 -25.349 133.847  1.00  0.00     0.202 C 
ENDBRANCH  15  18
ENDBRANCH  13  15
ENDBRANCH   3  13
TORSDOF 7
ENDMDL
