MODEL 1
REMARK VINA RESULT: -8.122528860      0.000      0.000
REMARK  4 active torsions:
REMARK  status: ('A' for Active; 'I' for Inactive)
REMARK    1  A    between atoms: N1_4  and  C4_5 
REMARK    2  A    between atoms: C4_5  and  C5_6 
REMARK    3  A    between atoms: C8_9  and  N2_10 
REMARK    4  A    between atoms: N5_23  and  C15_24 
ROOT
HETATM    1  N2  UNL     1      25.172 -23.754 133.109  1.00  0.00    -0.370 N 
ATOM      2  H2  UNL     1      25.883 -23.273 133.660  1.00  0.00     0.161 HD
HETATM    3  C9  UNL     1      24.439 -24.642 133.681  1.00  0.00     0.132 A 
HETATM    4  N3  UNL     1      23.488 -25.319 133.036  1.00  0.00    -0.331 N 
ATOM      5  H3  UNL     1      23.314 -25.143 132.046  1.00  0.00     0.168 HD
HETATM    6  C10 UNL     1      22.751 -26.243 133.706  1.00  0.00     0.107 A 
HETATM    7 CL1  UNL     1      21.514 -27.092 132.780  1.00  0.00    -0.064 Cl
HETATM    8  C11 UNL     1      22.977 -26.485 135.028  1.00  0.00     0.074 A 
HETATM    9  C12 UNL     1      23.955 -25.804 135.726  1.00  0.00     0.069 A 
HETATM   10  C13 UNL     1      24.692 -24.871 135.039  1.00  0.00     0.104 A 
HETATM   11  N4  UNL     1      25.556 -24.360 135.921  1.00  0.00    -0.347 N 
ATOM     12  H4  UNL     1      26.249 -23.639 135.723  1.00  0.00     0.167 HD
HETATM   13  C14 UNL     1      25.361 -24.951 137.106  1.00  0.00     0.184 A 
HETATM   14  N5  UNL     1      24.361 -25.865 137.021  1.00  0.00    -0.335 N 
ENDROOT
BRANCH   1  15
HETATM   15  C8  UNL     1      25.023 -23.419 131.731  1.00  0.00     0.083 C 
HETATM   16  C7  UNL     1      26.281 -22.790 131.134  1.00  0.00     0.025 C 
HETATM   17  C6  UNL     1      25.732 -22.226 129.840  1.00  0.00     0.008 C 
HETATM   18  C5  UNL     1      24.365 -21.741 130.188  1.00  0.00     0.016 C 
HETATM   19  C20 UNL     1      24.048 -22.266 131.588  1.00  0.00     0.031 C 
BRANCH  18  20
HETATM   20  C4  UNL     1      23.286 -22.223 129.282  1.00  0.00     0.277 C 
BRANCH  20  21
HETATM   21  N1  UNL     1      23.040 -21.341 128.161  1.00  0.00     0.089 N 
HETATM   22  C3  UNL     1      24.142 -21.255 127.221  1.00  0.00     0.278 C 
HETATM   23  C2  UNL     1      23.623 -22.470 126.510  1.00  0.00     0.038 C 
HETATM   24  C1  UNL     1      23.673 -22.414 125.005  1.00  0.00     0.013 C 
HETATM   25  C21 UNL     1      22.302 -22.077 127.128  1.00  0.00     0.278 C 
ENDBRANCH  20  21
ENDBRANCH  18  20
ENDBRANCH   1  15
BRANCH  14  26
HETATM   26  C15 UNL     1      23.849 -26.707 138.066  1.00  0.00     0.116 C 
HETATM   27  C16 UNL     1      24.861 -27.048 139.121  1.00  0.00     0.029 C 
HETATM   28  C17 UNL     1      24.137 -27.704 140.275  1.00  0.00     0.029 C 
HETATM   29  C18 UNL     1      22.706 -28.052 139.920  1.00  0.00     0.232 C 
HETATM   30  N6  UNL     1      21.963 -26.856 139.604  1.00  0.00    -0.073 N 
HETATM   31  C19 UNL     1      22.710 -25.975 138.745  1.00  0.00     0.257 C 
ATOM     32  H62 UNL     1      21.051 -27.080 139.205  1.00  0.00     0.277 HD
ATOM     33  H61 UNL     1      21.653 -26.376 140.450  1.00  0.00     0.277 HD
ENDBRANCH  14  26
TORSDOF 4
ENDMDL
MODEL 2
REMARK VINA RESULT: -7.976954620      3.985      9.402
REMARK  4 active torsions:
REMARK  status: ('A' for Active; 'I' for Inactive)
REMARK    1  A    between atoms: N1_4  and  C4_5 
REMARK    2  A    between atoms: C4_5  and  C5_6 
REMARK    3  A    between atoms: C8_9  and  N2_10 
REMARK    4  A    between atoms: N5_23  and  C15_24 
ROOT
HETATM    1  N2  UNL     1      24.608 -25.512 137.404  1.00  0.00    -0.370 N 
ATOM      2  H2  UNL     1      23.931 -26.106 137.883  1.00  0.00     0.161 HD
HETATM    3  C9  UNL     1      24.416 -25.222 136.167  1.00  0.00     0.132 A 
HETATM    4  N3  UNL     1      25.251 -24.454 135.466  1.00  0.00    -0.331 N 
ATOM      5  H3  UNL     1      26.086 -24.068 135.907  1.00  0.00     0.168 HD
HETATM    6  C10 UNL     1      24.982 -24.190 134.161  1.00  0.00     0.107 A 
HETATM    7 CL1  UNL     1      26.136 -23.166 133.307  1.00  0.00    -0.064 Cl
HETATM    8  C11 UNL     1      23.869 -24.703 133.563  1.00  0.00     0.074 A 
HETATM    9  C12 UNL     1      22.984 -25.502 134.260  1.00  0.00     0.069 A 
HETATM   10  C13 UNL     1      23.266 -25.762 135.579  1.00  0.00     0.104 A 
HETATM   11  N4  UNL     1      22.276 -26.543 136.020  1.00  0.00    -0.347 N 
ATOM     12  H4  UNL     1      22.191 -26.914 136.967  1.00  0.00     0.167 HD
HETATM   13  C14 UNL     1      21.416 -26.757 135.018  1.00  0.00     0.184 A 
HETATM   14  N5  UNL     1      21.830 -26.117 133.893  1.00  0.00    -0.335 N 
ENDROOT
BRANCH   1  15
HETATM   15  C8  UNL     1      25.738 -25.031 138.130  1.00  0.00     0.083 C 
HETATM   16  C7  UNL     1      26.935 -25.978 138.062  1.00  0.00     0.025 C 
HETATM   17  C6  UNL     1      27.804 -25.420 139.170  1.00  0.00     0.008 C 
HETATM   18  C5  UNL     1      26.843 -25.000 140.230  1.00  0.00     0.016 C 
HETATM   19  C20 UNL     1      25.445 -25.071 139.618  1.00  0.00     0.031 C 
BRANCH  18  20
HETATM   20  C4  UNL     1      27.035 -23.610 140.727  1.00  0.00     0.277 C 
BRANCH  20  21
HETATM   21  N1  UNL     1      25.969 -23.156 141.595  1.00  0.00     0.089 N 
HETATM   22  C3  UNL     1      26.225 -23.366 143.008  1.00  0.00     0.278 C 
HETATM   23  C2  UNL     1      26.963 -22.060 143.063  1.00  0.00     0.038 C 
HETATM   24  C1  UNL     1      26.696 -21.213 144.280  1.00  0.00     0.013 C 
HETATM   25  C21 UNL     1      26.136 -21.720 141.845  1.00  0.00     0.278 C 
ENDBRANCH  20  21
ENDBRANCH  18  20
ENDBRANCH   1  15
BRANCH  14  26
HETATM   26  C15 UNL     1      21.189 -26.098 132.608  1.00  0.00     0.116 C 
HETATM   27  C16 UNL     1      21.699 -27.144 131.660  1.00  0.00     0.029 C 
HETATM   28  C17 UNL     1      20.775 -27.186 130.463  1.00  0.00     0.029 C 
HETATM   29  C18 UNL     1      19.809 -26.020 130.454  1.00  0.00     0.232 C 
HETATM   30  N6  UNL     1      18.960 -26.062 131.620  1.00  0.00    -0.073 N 
HETATM   31  C19 UNL     1      19.710 -26.349 132.815  1.00  0.00     0.257 C 
ATOM     32  H62 UNL     1      18.419 -25.203 131.718  1.00  0.00     0.277 HD
ATOM     33  H61 UNL     1      18.191 -26.721 131.497  1.00  0.00     0.277 HD
ENDBRANCH  14  26
TORSDOF 4
ENDMDL
MODEL 3
REMARK VINA RESULT: -7.832611346      2.296      9.399
REMARK  4 active torsions:
REMARK  status: ('A' for Active; 'I' for Inactive)
REMARK    1  A    between atoms: N1_4  and  C4_5 
REMARK    2  A    between atoms: C4_5  and  C5_6 
REMARK    3  A    between atoms: C8_9  and  N2_10 
REMARK    4  A    between atoms: N5_23  and  C15_24 
ROOT
HETATM    1  N2  UNL     1      23.686 -25.375 134.391  1.00  0.00    -0.370 N 
ATOM      2  H2  UNL     1      22.881 -25.764 133.900  1.00  0.00     0.161 HD
HETATM    3  C9  UNL     1      24.352 -24.425 133.836  1.00  0.00     0.132 A 
HETATM    4  N3  UNL     1      25.417 -23.860 134.407  1.00  0.00    -0.331 N 
ATOM      5  H3  UNL     1      25.738 -24.177 135.322  1.00  0.00     0.168 HD
HETATM    6  C10 UNL     1      26.071 -22.860 133.762  1.00  0.00     0.107 A 
HETATM    7 CL1  UNL     1      27.468 -22.168 134.585  1.00  0.00    -0.064 Cl
HETATM    8  C11 UNL     1      25.650 -22.431 132.538  1.00  0.00     0.074 A 
HETATM    9  C12 UNL     1      24.552 -22.994 131.918  1.00  0.00     0.069 A 
HETATM   10  C13 UNL     1      23.898 -24.004 132.581  1.00  0.00     0.104 A 
HETATM   11  N4  UNL     1      22.890 -24.374 131.786  1.00  0.00    -0.347 N 
ATOM     12  H4  UNL     1      22.211 -25.107 131.991  1.00  0.00     0.167 HD
HETATM   13  C14 UNL     1      22.917 -23.624 130.678  1.00  0.00     0.184 A 
HETATM   14  N5  UNL     1      23.950 -22.744 130.726  1.00  0.00    -0.335 N 
ENDROOT
BRANCH   1  15
HETATM   15  C8  UNL     1      24.036 -25.902 135.669  1.00  0.00     0.083 C 
HETATM   16  C7  UNL     1      23.617 -27.361 135.844  1.00  0.00     0.025 C 
HETATM   17  C6  UNL     1      23.769 -27.524 137.343  1.00  0.00     0.008 C 
HETATM   18  C5  UNL     1      23.329 -26.217 137.912  1.00  0.00     0.016 C 
HETATM   19  C20 UNL     1      23.188 -25.245 136.742  1.00  0.00     0.031 C 
BRANCH  18  20
HETATM   20  C4  UNL     1      24.284 -25.607 138.878  1.00  0.00     0.277 C 
BRANCH  20  21
HETATM   21  N1  UNL     1      25.669 -25.732 138.474  1.00  0.00     0.089 N 
HETATM   22  C3  UNL     1      26.297 -24.475 138.111  1.00  0.00     0.278 C 
HETATM   23  C2  UNL     1      26.634 -24.233 139.554  1.00  0.00     0.038 C 
HETATM   24  C1  UNL     1      28.006 -23.671 139.815  1.00  0.00     0.013 C 
HETATM   25  C21 UNL     1      26.517 -25.735 139.672  1.00  0.00     0.278 C 
ENDBRANCH  20  21
ENDBRANCH  18  20
ENDBRANCH   1  15
BRANCH  14  26
HETATM   26  C15 UNL     1      24.322 -21.771 129.738  1.00  0.00     0.116 C 
HETATM   27  C16 UNL     1      25.732 -21.913 129.246  1.00  0.00     0.029 C 
HETATM   28  C17 UNL     1      25.905 -21.014 128.042  1.00  0.00     0.029 C 
HETATM   29  C18 UNL     1      24.730 -20.074 127.865  1.00  0.00     0.232 C 
HETATM   30  N6  UNL     1      23.517 -20.823 127.640  1.00  0.00    -0.073 N 
HETATM   31  C19 UNL     1      23.402 -21.936 128.545  1.00  0.00     0.257 C 
ATOM     32  H62 UNL     1      22.695 -20.221 127.684  1.00  0.00     0.277 HD
ATOM     33  H61 UNL     1      23.442 -21.125 126.668  1.00  0.00     0.277 HD
ENDBRANCH  14  26
TORSDOF 4
ENDMDL
MODEL 4
REMARK VINA RESULT: -7.784071063      0.919      1.211
REMARK  4 active torsions:
REMARK  status: ('A' for Active; 'I' for Inactive)
REMARK    1  A    between atoms: N1_4  and  C4_5 
REMARK    2  A    between atoms: C4_5  and  C5_6 
REMARK    3  A    between atoms: C8_9  and  N2_10 
REMARK    4  A    between atoms: N5_23  and  C15_24 
ROOT
HETATM    1  N2  UNL     1      24.911 -23.816 132.787  1.00  0.00    -0.370 N 
ATOM      2  H2  UNL     1      25.669 -23.474 133.378  1.00  0.00     0.161 HD
HETATM    3  C9  UNL     1      24.058 -24.639 133.285  1.00  0.00     0.132 A 
HETATM    4  N3  UNL     1      23.038 -25.135 132.583  1.00  0.00    -0.331 N 
ATOM      5  H3  UNL     1      22.907 -24.867 131.608  1.00  0.00     0.168 HD
HETATM    6  C10 UNL     1      22.175 -26.001 133.176  1.00  0.00     0.107 A 
HETATM    7 CL1  UNL     1      20.854 -26.609 132.179  1.00  0.00    -0.064 Cl
HETATM    8  C11 UNL     1      22.344 -26.367 134.478  1.00  0.00     0.074 A 
HETATM    9  C12 UNL     1      23.389 -25.873 135.233  1.00  0.00     0.069 A 
HETATM   10  C13 UNL     1      24.255 -24.998 134.624  1.00  0.00     0.104 A 
HETATM   11  N4  UNL     1      25.162 -24.671 135.548  1.00  0.00    -0.347 N 
ATOM     12  H4  UNL     1      25.947 -24.035 135.411  1.00  0.00     0.167 HD
HETATM   13  C14 UNL     1      24.871 -25.316 136.684  1.00  0.00     0.184 A 
HETATM   14  N5  UNL     1      23.761 -26.082 136.523  1.00  0.00    -0.335 N 
ENDROOT
BRANCH   1  15
HETATM   15  C8  UNL     1      24.832 -23.364 131.436  1.00  0.00     0.083 C 
HETATM   16  C7  UNL     1      26.176 -22.883 130.892  1.00  0.00     0.025 C 
HETATM   17  C6  UNL     1      25.733 -22.153 129.641  1.00  0.00     0.008 C 
HETATM   18  C5  UNL     1      24.445 -21.501 130.019  1.00  0.00     0.016 C 
HETATM   19  C20 UNL     1      24.036 -22.074 131.375  1.00  0.00     0.031 C 
BRANCH  18  20
HETATM   20  C4  UNL     1      23.321 -21.754 129.076  1.00  0.00     0.277 C 
BRANCH  20  21
HETATM   21  N1  UNL     1      23.727 -22.439 127.867  1.00  0.00     0.089 N 
HETATM   22  C3  UNL     1      22.623 -22.954 127.078  1.00  0.00     0.278 C 
HETATM   23  C2  UNL     1      22.492 -21.621 126.400  1.00  0.00     0.038 C 
HETATM   24  C1  UNL     1      22.240 -21.668 124.916  1.00  0.00     0.013 C 
HETATM   25  C21 UNL     1      23.938 -21.448 126.805  1.00  0.00     0.278 C 
ENDBRANCH  20  21
ENDBRANCH  18  20
ENDBRANCH   1  15
BRANCH  14  26
HETATM   26  C15 UNL     1      23.125 -26.924 137.498  1.00  0.00     0.116 C 
HETATM   27  C16 UNL     1      23.264 -28.392 137.217  1.00  0.00     0.029 C 
HETATM   28  C17 UNL     1      22.791 -29.152 138.434  1.00  0.00     0.029 C 
HETATM   29  C18 UNL     1      22.092 -28.249 139.430  1.00  0.00     0.232 C 
HETATM   30  N6  UNL     1      23.002 -27.238 139.913  1.00  0.00    -0.073 N 
HETATM   31  C19 UNL     1      23.767 -26.653 138.843  1.00  0.00     0.257 C 
ATOM     32  H62 UNL     1      22.512 -26.524 140.453  1.00  0.00     0.277 HD
ATOM     33  H61 UNL     1      23.609 -27.604 140.647  1.00  0.00     0.277 HD
ENDBRANCH  14  26
TORSDOF 4
ENDMDL
MODEL 5
REMARK VINA RESULT: -7.733494518      1.267      1.370
REMARK  4 active torsions:
REMARK  status: ('A' for Active; 'I' for Inactive)
REMARK    1  A    between atoms: N1_4  and  C4_5 
REMARK    2  A    between atoms: C4_5  and  C5_6 
REMARK    3  A    between atoms: C8_9  and  N2_10 
REMARK    4  A    between atoms: N5_23  and  C15_24 
ROOT
HETATM    1  N2  UNL     1      24.445 -23.839 133.325  1.00  0.00    -0.370 N 
ATOM      2  H2  UNL     1      24.968 -23.373 134.067  1.00  0.00     0.161 HD
HETATM    3  C9  UNL     1      23.594 -24.749 133.641  1.00  0.00     0.132 A 
HETATM    4  N3  UNL     1      22.871 -25.408 132.735  1.00  0.00    -0.331 N 
ATOM      5  H3  UNL     1      22.979 -25.201 131.742  1.00  0.00     0.168 HD
HETATM    6  C10 UNL     1      21.989 -26.357 133.143  1.00  0.00     0.107 A 
HETATM    7 CL1  UNL     1      21.072 -27.181 131.883  1.00  0.00    -0.064 Cl
HETATM    8  C11 UNL     1      21.839 -26.641 134.469  1.00  0.00     0.074 A 
HETATM    9  C12 UNL     1      22.572 -25.978 135.433  1.00  0.00     0.069 A 
HETATM   10  C13 UNL     1      23.460 -25.020 135.008  1.00  0.00     0.104 A 
HETATM   11  N4  UNL     1      24.035 -24.534 136.111  1.00  0.00    -0.347 N 
ATOM     12  H4  UNL     1      24.746 -23.804 136.138  1.00  0.00     0.167 HD
HETATM   13  C14 UNL     1      23.525 -25.164 137.176  1.00  0.00     0.184 A 
HETATM   14  N5  UNL     1      22.600 -26.080 136.787  1.00  0.00    -0.335 N 
ENDROOT
BRANCH   1  15
HETATM   15  C8  UNL     1      24.684 -23.460 131.970  1.00  0.00     0.083 C 
HETATM   16  C7  UNL     1      26.031 -22.766 131.777  1.00  0.00     0.025 C 
HETATM   17  C6  UNL     1      25.853 -22.175 130.394  1.00  0.00     0.008 C 
HETATM   18  C5  UNL     1      24.424 -21.751 130.345  1.00  0.00     0.016 C 
HETATM   19  C20 UNL     1      23.742 -22.337 131.581  1.00  0.00     0.031 C 
BRANCH  18  20
HETATM   20  C4  UNL     1      23.672 -22.237 129.155  1.00  0.00     0.277 C 
BRANCH  20  21
HETATM   21  N1  UNL     1      23.606 -21.268 128.081  1.00  0.00     0.089 N 
HETATM   22  C3  UNL     1      24.593 -21.471 127.038  1.00  0.00     0.278 C 
HETATM   23  C2  UNL     1      23.669 -22.438 126.358  1.00  0.00     0.038 C 
HETATM   24  C1  UNL     1      23.599 -22.326 124.858  1.00  0.00     0.013 C 
HETATM   25  C21 UNL     1      22.590 -21.698 127.113  1.00  0.00     0.278 C 
ENDBRANCH  20  21
ENDBRANCH  18  20
ENDBRANCH   1  15
BRANCH  14  26
HETATM   26  C15 UNL     1      21.828 -26.958 137.621  1.00  0.00     0.116 C 
HETATM   27  C16 UNL     1      22.385 -28.349 137.718  1.00  0.00     0.029 C 
HETATM   28  C17 UNL     1      21.643 -29.078 138.815  1.00  0.00     0.029 C 
HETATM   29  C18 UNL     1      20.426 -28.308 139.284  1.00  0.00     0.232 C 
HETATM   30  N6  UNL     1      20.822 -27.036 139.841  1.00  0.00    -0.073 N 
HETATM   31  C19 UNL     1      21.803 -26.377 139.020  1.00  0.00     0.257 C 
ATOM     32  H62 UNL     1      20.014 -26.437 140.009  1.00  0.00     0.277 HD
ATOM     33  H61 UNL     1      21.148 -27.137 140.802  1.00  0.00     0.277 HD
ENDBRANCH  14  26
TORSDOF 4
ENDMDL
