MODEL 1
REMARK VINA RESULT: -8.369115383      0.000      0.000
REMARK  5 active torsions:
REMARK  status: ('A' for Active; 'I' for Inactive)
REMARK    1  A    between atoms: C5_7  and  N3_8 
REMARK    2  A    between atoms: N3_8  and  C6_10 
REMARK    3  A    between atoms: C12_20  and  N6_21 
REMARK    4  A    between atoms: N6_21  and  C13_23 
REMARK    5  A    between atoms: C13_23  and  C14_24 
ROOT
HETATM    1  N1  UNL     1      22.474 -27.452 133.494  1.00  0.00    -0.191 NA
HETATM    2  C1  UNL     1      23.217 -26.756 134.035  1.00  0.00     0.105 C 
HETATM    3  C2  UNL     1      24.134 -25.911 134.734  1.00  0.00     0.114 A 
HETATM    4  C3  UNL     1      24.445 -26.312 136.045  1.00  0.00     0.114 A 
HETATM    5  C4  UNL     1      23.877 -27.489 136.633  1.00  0.00     0.105 C 
HETATM    6  N2  UNL     1      23.426 -28.454 137.105  1.00  0.00    -0.191 NA
HETATM    7  C5  UNL     1      25.328 -25.502 136.726  1.00  0.00     0.143 A 
HETATM    8  N4  UNL     1      25.854 -24.397 136.157  1.00  0.00    -0.283 N 
ATOM      9  H4  UNL     1      26.505 -23.820 136.689  1.00  0.00     0.188 HD
HETATM   10  N5  UNL     1      25.540 -24.054 134.931  1.00  0.00    -0.283 N 
ATOM     11  H5  UNL     1      25.958 -23.211 134.536  1.00  0.00     0.188 HD
HETATM   12  C12 UNL     1      24.667 -24.788 134.153  1.00  0.00     0.142 A 
ENDROOT
BRANCH  12  13
HETATM   13  N6  UNL     1      24.454 -24.361 133.015  1.00  0.00    -0.349 N 
ATOM     14  H6  UNL     1      24.999 -24.902 132.343  1.00  0.00     0.167 HD
BRANCH  13  15
HETATM   15  C13 UNL     1      23.728 -23.397 132.346  1.00  0.00     0.103 C 
BRANCH  15  16
HETATM   16  C14 UNL     1      24.635 -22.558 131.469  1.00  0.00     0.005 A 
HETATM   17  C15 UNL     1      25.717 -21.799 131.863  1.00  0.00     0.156 A 
HETATM   18  O1  UNL     1      26.252 -21.213 130.805  1.00  0.00    -0.314 OA
HETATM   19  C16 UNL     1      25.574 -21.546 129.720  1.00  0.00     0.122 A 
HETATM   20 BR1  UNL     1      25.961 -20.949 127.930  1.00  0.00    -0.023 Br
HETATM   21  C17 UNL     1      24.550 -22.392 130.103  1.00  0.00     0.059 A 
ENDBRANCH  15  16
ENDBRANCH  13  15
ENDBRANCH  12  13
BRANCH   7  22
HETATM   22  N3  UNL     1      25.637 -25.832 137.921  1.00  0.00    -0.340 N 
ATOM     23  H3  UNL     1      25.373 -26.764 138.241  1.00  0.00     0.167 HD
BRANCH  22  24
HETATM   24  C6  UNL     1      26.324 -24.987 138.833  1.00  0.00     0.033 A 
HETATM   25  C7  UNL     1      25.742 -24.718 140.052  1.00  0.00     0.029 A 
HETATM   26  C8  UNL     1      26.389 -23.900 140.955  1.00  0.00     0.002 A 
HETATM   27  C9  UNL     1      27.604 -23.358 140.641  1.00  0.00     0.000 A 
HETATM   28  C10 UNL     1      28.192 -23.625 139.417  1.00  0.00     0.002 A 
HETATM   29  C11 UNL     1      27.548 -24.440 138.517  1.00  0.00     0.029 A 
ENDBRANCH  22  24
ENDBRANCH   7  22
TORSDOF 5
ENDMDL
MODEL 2
REMARK VINA RESULT: -8.327895522      0.513      1.078
REMARK  5 active torsions:
REMARK  status: ('A' for Active; 'I' for Inactive)
REMARK    1  A    between atoms: C5_7  and  N3_8 
REMARK    2  A    between atoms: N3_8  and  C6_10 
REMARK    3  A    between atoms: C12_20  and  N6_21 
REMARK    4  A    between atoms: N6_21  and  C13_23 
REMARK    5  A    between atoms: C13_23  and  C14_24 
ROOT
HETATM    1  N1  UNL     1      22.625 -27.667 134.150  1.00  0.00    -0.191 NA
HETATM    2  C1  UNL     1      23.366 -26.906 134.598  1.00  0.00     0.105 C 
HETATM    3  C2  UNL     1      24.283 -25.979 135.183  1.00  0.00     0.114 A 
HETATM    4  C3  UNL     1      24.646 -26.246 136.514  1.00  0.00     0.114 A 
HETATM    5  C4  UNL     1      24.127 -27.374 137.229  1.00  0.00     0.105 C 
HETATM    6  N2  UNL     1      23.715 -28.300 137.806  1.00  0.00    -0.191 NA
HETATM    7  C5  UNL     1      25.529 -25.356 137.086  1.00  0.00     0.143 A 
HETATM    8  N4  UNL     1      26.008 -24.298 136.398  1.00  0.00    -0.283 N 
ATOM      9  H4  UNL     1      26.661 -23.659 136.851  1.00  0.00     0.188 HD
HETATM   10  N5  UNL     1      25.647 -24.080 135.156  1.00  0.00    -0.283 N 
ATOM     11  H5  UNL     1      26.030 -23.269 134.670  1.00  0.00     0.188 HD
HETATM   12  C12 UNL     1      24.769 -24.904 134.481  1.00  0.00     0.142 A 
ENDROOT
BRANCH  12  13
HETATM   13  N6  UNL     1      24.510 -24.592 133.316  1.00  0.00    -0.349 N 
ATOM     14  H6  UNL     1      25.048 -25.180 132.679  1.00  0.00     0.167 HD
BRANCH  13  15
HETATM   15  C13 UNL     1      23.736 -23.714 132.584  1.00  0.00     0.103 C 
BRANCH  15  16
HETATM   16  C14 UNL     1      24.611 -22.807 131.742  1.00  0.00     0.005 A 
HETATM   17  C15 UNL     1      25.654 -22.013 132.169  1.00  0.00     0.156 A 
HETATM   18  O1  UNL     1      26.169 -21.369 131.134  1.00  0.00    -0.314 OA
HETATM   19  C16 UNL     1      25.515 -21.698 130.033  1.00  0.00     0.122 A 
HETATM   20 BR1  UNL     1      25.887 -21.027 128.267  1.00  0.00    -0.023 Br
HETATM   21  C17 UNL     1      24.528 -22.601 130.381  1.00  0.00     0.059 A 
ENDBRANCH  15  16
ENDBRANCH  13  15
ENDBRANCH  12  13
BRANCH   7  22
HETATM   22  N3  UNL     1      25.884 -25.564 138.295  1.00  0.00    -0.340 N 
ATOM     23  H3  UNL     1      25.613 -26.448 138.726  1.00  0.00     0.167 HD
BRANCH  22  24
HETATM   24  C6  UNL     1      26.631 -24.645 139.080  1.00  0.00     0.033 A 
HETATM   25  C7  UNL     1      27.867 -24.239 138.626  1.00  0.00     0.029 A 
HETATM   26  C8  UNL     1      28.612 -23.347 139.369  1.00  0.00     0.002 A 
HETATM   27  C9  UNL     1      28.125 -22.868 140.552  1.00  0.00     0.000 A 
HETATM   28  C10 UNL     1      26.885 -23.272 141.013  1.00  0.00     0.002 A 
HETATM   29  C11 UNL     1      26.142 -24.160 140.273  1.00  0.00     0.029 A 
ENDBRANCH  22  24
ENDBRANCH   7  22
TORSDOF 5
ENDMDL
MODEL 3
REMARK VINA RESULT: -8.325443821      1.247      1.540
REMARK  5 active torsions:
REMARK  status: ('A' for Active; 'I' for Inactive)
REMARK    1  A    between atoms: C5_7  and  N3_8 
REMARK    2  A    between atoms: N3_8  and  C6_10 
REMARK    3  A    between atoms: C12_20  and  N6_21 
REMARK    4  A    between atoms: N6_21  and  C13_23 
REMARK    5  A    between atoms: C13_23  and  C14_24 
ROOT
HETATM    1  N1  UNL     1      22.810 -28.036 135.511  1.00  0.00    -0.191 NA
HETATM    2  C1  UNL     1      23.543 -27.219 135.863  1.00  0.00     0.105 C 
HETATM    3  C2  UNL     1      24.453 -26.221 136.331  1.00  0.00     0.114 A 
HETATM    4  C3  UNL     1      24.884 -26.373 137.660  1.00  0.00     0.114 A 
HETATM    5  C4  UNL     1      24.438 -27.458 138.483  1.00  0.00     0.105 C 
HETATM    6  N2  UNL     1      24.086 -28.349 139.147  1.00  0.00    -0.191 NA
HETATM    7  C5  UNL     1      25.761 -25.414 138.120  1.00  0.00     0.143 A 
HETATM    8  N4  UNL     1      26.171 -24.398 137.331  1.00  0.00    -0.283 N 
ATOM      9  H4  UNL     1      26.821 -23.706 137.703  1.00  0.00     0.188 HD
HETATM   10  N5  UNL     1      25.747 -24.289 136.095  1.00  0.00    -0.283 N 
ATOM     11  H5  UNL     1      26.079 -23.506 135.531  1.00  0.00     0.188 HD
HETATM   12  C12 UNL     1      24.868 -25.190 135.527  1.00  0.00     0.142 A 
ENDROOT
BRANCH  12  13
HETATM   13  N6  UNL     1      24.546 -24.977 134.355  1.00  0.00    -0.349 N 
ATOM     14  H6  UNL     1      25.004 -25.658 133.749  1.00  0.00     0.167 HD
BRANCH  13  15
HETATM   15  C13 UNL     1      23.774 -24.128 133.589  1.00  0.00     0.103 C 
BRANCH  15  16
HETATM   16  C14 UNL     1      24.646 -23.309 132.659  1.00  0.00     0.005 A 
HETATM   17  C15 UNL     1      25.895 -22.787 132.920  1.00  0.00     0.156 A 
HETATM   18  O1  UNL     1      26.329 -22.132 131.856  1.00  0.00    -0.314 OA
HETATM   19  C16 UNL     1      25.424 -22.192 130.894  1.00  0.00     0.122 A 
HETATM   20 BR1  UNL     1      25.589 -21.393 129.150  1.00  0.00    -0.023 Br
HETATM   21  C17 UNL     1      24.352 -22.926 131.367  1.00  0.00     0.059 A 
ENDBRANCH  15  16
ENDBRANCH  13  15
ENDBRANCH  12  13
BRANCH   7  22
HETATM   22  N3  UNL     1      26.177 -25.516 139.323  1.00  0.00    -0.340 N 
ATOM     23  H3  UNL     1      26.147 -26.437 139.761  1.00  0.00     0.167 HD
BRANCH  22  24
HETATM   24  C6  UNL     1      26.679 -24.432 140.092  1.00  0.00     0.033 A 
HETATM   25  C7  UNL     1      25.926 -23.964 141.146  1.00  0.00     0.029 A 
HETATM   26  C8  UNL     1      26.391 -22.913 141.908  1.00  0.00     0.002 A 
HETATM   27  C9  UNL     1      27.596 -22.336 141.617  1.00  0.00     0.000 A 
HETATM   28  C10 UNL     1      28.356 -22.802 140.559  1.00  0.00     0.002 A 
HETATM   29  C11 UNL     1      27.893 -23.850 139.800  1.00  0.00     0.029 A 
ENDBRANCH  22  24
ENDBRANCH   7  22
TORSDOF 5
ENDMDL
MODEL 4
REMARK VINA RESULT: -8.303053730      2.130      3.352
REMARK  5 active torsions:
REMARK  status: ('A' for Active; 'I' for Inactive)
REMARK    1  A    between atoms: C5_7  and  N3_8 
REMARK    2  A    between atoms: N3_8  and  C6_10 
REMARK    3  A    between atoms: C12_20  and  N6_21 
REMARK    4  A    between atoms: N6_21  and  C13_23 
REMARK    5  A    between atoms: C13_23  and  C14_24 
ROOT
HETATM    1  N1  UNL     1      22.492 -23.571 130.773  1.00  0.00    -0.191 NA
HETATM    2  C1  UNL     1      23.290 -23.570 131.605  1.00  0.00     0.105 C 
HETATM    3  C2  UNL     1      24.266 -23.598 132.649  1.00  0.00     0.114 A 
HETATM    4  C3  UNL     1      24.215 -24.720 133.493  1.00  0.00     0.114 A 
HETATM    5  C4  UNL     1      23.247 -25.761 133.313  1.00  0.00     0.105 C 
HETATM    6  N2  UNL     1      22.469 -26.614 133.158  1.00  0.00    -0.191 NA
HETATM    7  C5  UNL     1      25.152 -24.753 134.504  1.00  0.00     0.143 A 
HETATM    8  N4  UNL     1      26.057 -23.764 134.659  1.00  0.00    -0.283 N 
ATOM      9  H4  UNL     1      26.738 -23.821 135.417  1.00  0.00     0.188 HD
HETATM   10  N5  UNL     1      26.075 -22.732 133.851  1.00  0.00    -0.283 N 
ATOM     11  H5  UNL     1      26.773 -22.004 134.002  1.00  0.00     0.188 HD
HETATM   12  C12 UNL     1      25.185 -22.591 132.805  1.00  0.00     0.142 A 
ENDROOT
BRANCH  12  13
HETATM   13  N6  UNL     1      25.306 -21.574 132.116  1.00  0.00    -0.349 N 
ATOM     14  H6  UNL     1      24.617 -20.881 132.410  1.00  0.00     0.167 HD
BRANCH  13  15
HETATM   15  C13 UNL     1      26.060 -21.058 131.082  1.00  0.00     0.103 C 
BRANCH  15  16
HETATM   16  C14 UNL     1      25.251 -21.015 129.802  1.00  0.00     0.005 A 
HETATM   17  C15 UNL     1      23.947 -20.594 129.645  1.00  0.00     0.156 A 
HETATM   18  O1  UNL     1      23.597 -20.708 128.375  1.00  0.00    -0.314 OA
HETATM   19  C16 UNL     1      24.610 -21.189 127.674  1.00  0.00     0.122 A 
HETATM   20 BR1  UNL     1      24.596 -21.536 125.780  1.00  0.00    -0.023 Br
HETATM   21  C17 UNL     1      25.666 -21.393 128.542  1.00  0.00     0.059 A 
ENDBRANCH  15  16
ENDBRANCH  13  15
ENDBRANCH  12  13
BRANCH   7  22
HETATM   22  N3  UNL     1      25.140 -25.758 135.294  1.00  0.00    -0.340 N 
ATOM     23  H3  UNL     1      25.460 -26.655 134.929  1.00  0.00     0.167 HD
BRANCH  22  24
HETATM   24  C6  UNL     1      24.708 -25.707 136.646  1.00  0.00     0.033 A 
HETATM   25  C7  UNL     1      25.648 -25.828 137.646  1.00  0.00     0.029 A 
HETATM   26  C8  UNL     1      25.254 -25.781 138.967  1.00  0.00     0.002 A 
HETATM   27  C9  UNL     1      23.935 -25.616 139.283  1.00  0.00     0.000 A 
HETATM   28  C10 UNL     1      22.986 -25.495 138.283  1.00  0.00     0.002 A 
HETATM   29  C11 UNL     1      23.378 -25.541 136.966  1.00  0.00     0.029 A 
ENDBRANCH  22  24
ENDBRANCH   7  22
TORSDOF 5
ENDMDL
MODEL 5
REMARK VINA RESULT: -8.233633817      3.481      7.361
REMARK  5 active torsions:
REMARK  status: ('A' for Active; 'I' for Inactive)
REMARK    1  A    between atoms: C5_7  and  N3_8 
REMARK    2  A    between atoms: N3_8  and  C6_10 
REMARK    3  A    between atoms: C12_20  and  N6_21 
REMARK    4  A    between atoms: N6_21  and  C13_23 
REMARK    5  A    between atoms: C13_23  and  C14_24 
ROOT
HETATM    1  N1  UNL     1      23.118 -28.538 135.809  1.00  0.00    -0.191 NA
HETATM    2  C1  UNL     1      23.537 -27.517 135.475  1.00  0.00     0.105 C 
HETATM    3  C2  UNL     1      24.035 -26.253 135.032  1.00  0.00     0.114 A 
HETATM    4  C3  UNL     1      23.470 -25.764 133.841  1.00  0.00     0.114 A 
HETATM    5  C4  UNL     1      22.462 -26.490 133.126  1.00  0.00     0.105 C 
HETATM    6  N2  UNL     1      21.633 -27.075 132.553  1.00  0.00    -0.191 NA
HETATM    7  C5  UNL     1      23.947 -24.546 133.407  1.00  0.00     0.143 A 
HETATM    8  N4  UNL     1      24.896 -23.875 134.093  1.00  0.00    -0.283 N 
ATOM      9  H4  UNL     1      25.226 -22.975 133.743  1.00  0.00     0.188 HD
HETATM   10  N5  UNL     1      25.400 -24.362 135.200  1.00  0.00    -0.283 N 
ATOM     11  H5  UNL     1      26.117 -23.826 135.690  1.00  0.00     0.188 HD
HETATM   12  C12 UNL     1      25.000 -25.573 135.731  1.00  0.00     0.142 A 
ENDROOT
BRANCH  12  13
HETATM   13  N6  UNL     1      25.550 -25.920 136.780  1.00  0.00    -0.349 N 
ATOM     14  H6  UNL     1      26.454 -26.343 136.564  1.00  0.00     0.167 HD
BRANCH  13  15
HETATM   15  C13 UNL     1      25.355 -25.929 138.145  1.00  0.00     0.103 C 
BRANCH  15  16
HETATM   16  C14 UNL     1      26.210 -24.871 138.813  1.00  0.00     0.005 A 
HETATM   17  C15 UNL     1      27.129 -24.034 138.217  1.00  0.00     0.156 A 
HETATM   18  O1  UNL     1      27.672 -23.251 139.134  1.00  0.00    -0.314 OA
HETATM   19  C16 UNL     1      27.156 -23.529 140.320  1.00  0.00     0.122 A 
HETATM   20 BR1  UNL     1      27.622 -22.662 141.975  1.00  0.00    -0.023 Br
HETATM   21  C17 UNL     1      26.233 -24.544 140.153  1.00  0.00     0.059 A 
ENDBRANCH  15  16
ENDBRANCH  13  15
ENDBRANCH  12  13
BRANCH   7  22
HETATM   22  N3  UNL     1      23.458 -24.067 132.328  1.00  0.00    -0.340 N 
ATOM     23  H3  UNL     1      22.519 -24.361 132.058  1.00  0.00     0.167 HD
BRANCH  22  24
HETATM   24  C6  UNL     1      24.136 -23.152 131.479  1.00  0.00     0.033 A 
HETATM   25  C7  UNL     1      23.439 -22.076 130.975  1.00  0.00     0.029 A 
HETATM   26  C8  UNL     1      24.075 -21.173 130.149  1.00  0.00     0.002 A 
HETATM   27  C9  UNL     1      25.393 -21.345 129.832  1.00  0.00     0.000 A 
HETATM   28  C10 UNL     1      26.098 -22.424 130.335  1.00  0.00     0.002 A 
HETATM   29  C11 UNL     1      25.465 -23.324 131.159  1.00  0.00     0.029 A 
ENDBRANCH  22  24
ENDBRANCH   7  22
TORSDOF 5
ENDMDL
