MODEL 1
REMARK VINA RESULT: -7.029628530      0.000      0.000
REMARK  5 active torsions:
REMARK  status: ('A' for Active; 'I' for Inactive)
REMARK       I    between atoms: N2_3  and  C2_5 
REMARK    1  A    between atoms: C2_5  and  C3_7 
REMARK    2  A    between atoms: C3_7  and  N3_8 
REMARK    3  A    between atoms: C3_7  and  C4_12 
REMARK       I    between atoms: C4_12  and  N4_14 
REMARK    4  A    between atoms: N4_14  and  C5_16 
REMARK    5  A    between atoms: C6_19  and  N6_20 
ROOT
HETATM    1  N1  UNL     1      56.770 -20.933  -5.495  1.00  0.00    -0.172 NA
HETATM    2  C1  UNL     1      56.029 -20.324  -6.167  1.00  0.00     0.184 C 
HETATM    3  N2  UNL     1      55.129 -19.598  -6.952  1.00  0.00    -0.262 N 
ATOM      4  H2  UNL     1      54.596 -20.081  -7.675  1.00  0.00     0.181 HD
HETATM    5  C2  UNL     1      54.942 -18.218  -6.767  1.00  0.00     0.270 C 
HETATM    6  O1  UNL     1      55.611 -17.631  -5.865  1.00  0.00    -0.270 OA
ENDROOT
BRANCH   5   7
HETATM    7  C3  UNL     1      53.994 -17.427  -7.585  1.00  0.00     0.367 C 
BRANCH   7   8
HETATM    8  N3  UNL     1      54.694 -16.350  -8.223  1.00  0.00    -0.058 N 
ATOM      9  H33 UNL     1      55.038 -15.664  -7.553  1.00  0.00     0.275 HD
ATOM     10  H32 UNL     1      55.592 -16.646  -8.603  1.00  0.00     0.275 HD
ATOM     11  H31 UNL     1      54.096 -15.928  -8.934  1.00  0.00     0.275 HD
ENDBRANCH   7   8
BRANCH   7  12
HETATM   12  C4  UNL     1      52.857 -16.922  -6.777  1.00  0.00     0.276 C 
HETATM   13  O2  UNL     1      52.274 -15.883  -7.205  1.00  0.00    -0.270 OA
HETATM   14  N4  UNL     1      52.454 -17.571  -5.598  1.00  0.00    -0.156 N 
ATOM     15  H4  UNL     1      52.608 -17.078  -4.718  1.00  0.00     0.187 HD
BRANCH  14  16
HETATM   16  C5  UNL     1      51.910 -18.725  -5.531  1.00  0.00     0.702 A 
HETATM   17  N5  UNL     1      51.363 -19.502  -6.481  1.00  0.00    -0.153 N 
HETATM   18  C6  UNL     1      50.908 -20.645  -5.952  1.00  0.00     0.279 A 
ATOM     19  H5  UNL     1      51.302 -19.256  -7.469  1.00  0.00     0.187 HD
HETATM   20  N7  UNL     1      51.182 -20.572  -4.639  1.00  0.00    -0.251 N 
HETATM   21  N8  UNL     1      51.783 -19.419  -4.385  1.00  0.00    -0.129 N 
ATOM     22  H7  UNL     1      50.963 -21.290  -3.948  1.00  0.00     0.191 HD
ATOM     23  H8  UNL     1      52.099 -19.106  -3.468  1.00  0.00     0.205 HD
BRANCH  18  24
HETATM   24  N6  UNL     1      50.259 -21.729  -6.647  1.00  0.00    -0.077 N 
HETATM   25  O3  UNL     1      50.675 -22.076  -7.751  1.00  0.00    -0.529 OA
HETATM   26  O4  UNL     1      49.193 -22.366  -6.086  1.00  0.00    -0.529 OA
ENDBRANCH  18  24
ENDBRANCH  14  16
ENDBRANCH   7  12
ENDBRANCH   5   7
TORSDOF 5
ENDMDL
MODEL 2
REMARK VINA RESULT: -6.902222953      1.697      1.963
REMARK  5 active torsions:
REMARK  status: ('A' for Active; 'I' for Inactive)
REMARK       I    between atoms: N2_3  and  C2_5 
REMARK    1  A    between atoms: C2_5  and  C3_7 
REMARK    2  A    between atoms: C3_7  and  N3_8 
REMARK    3  A    between atoms: C3_7  and  C4_12 
REMARK       I    between atoms: C4_12  and  N4_14 
REMARK    4  A    between atoms: N4_14  and  C5_16 
REMARK    5  A    between atoms: C6_19  and  N6_20 
ROOT
HETATM    1  N1  UNL     1      58.300 -15.594  -6.194  1.00  0.00    -0.172 NA
HETATM    2  C1  UNL     1      57.288 -15.865  -6.717  1.00  0.00     0.184 C 
HETATM    3  N2  UNL     1      56.091 -16.206  -7.352  1.00  0.00    -0.262 N 
ATOM      4  H2  UNL     1      55.824 -15.721  -8.208  1.00  0.00     0.181 HD
HETATM    5  C2  UNL     1      55.246 -17.203  -6.835  1.00  0.00     0.270 C 
HETATM    6  O1  UNL     1      55.590 -17.798  -5.771  1.00  0.00    -0.270 OA
ENDROOT
BRANCH   5   7
HETATM    7  C3  UNL     1      53.972 -17.583  -7.489  1.00  0.00     0.367 C 
BRANCH   7   8
HETATM    8  N3  UNL     1      53.965 -17.103  -8.840  1.00  0.00    -0.058 N 
ATOM      9  H33 UNL     1      54.512 -16.250  -8.949  1.00  0.00     0.275 HD
ATOM     10  H32 UNL     1      54.504 -17.702  -9.464  1.00  0.00     0.275 HD
ATOM     11  H31 UNL     1      53.002 -16.986  -9.156  1.00  0.00     0.275 HD
ENDBRANCH   7   8
BRANCH   7  12
HETATM   12  C4  UNL     1      52.796 -17.080  -6.737  1.00  0.00     0.276 C 
HETATM   13  O2  UNL     1      52.255 -16.020  -7.171  1.00  0.00    -0.270 OA
HETATM   14  N4  UNL     1      52.313 -17.753  -5.601  1.00  0.00    -0.156 N 
ATOM     15  H4  UNL     1      52.423 -17.285  -4.701  1.00  0.00     0.187 HD
BRANCH  14  16
HETATM   16  C5  UNL     1      51.750 -18.899  -5.598  1.00  0.00     0.702 A 
HETATM   17  N5  UNL     1      51.280 -19.657  -6.602  1.00  0.00    -0.153 N 
HETATM   18  C6  UNL     1      50.763 -20.799  -6.130  1.00  0.00     0.279 A 
ATOM     19  H5  UNL     1      51.313 -19.400  -7.589  1.00  0.00     0.187 HD
HETATM   20  N7  UNL     1      50.918 -20.744  -4.797  1.00  0.00    -0.251 N 
HETATM   21  N8  UNL     1      51.509 -19.602  -4.476  1.00  0.00    -0.129 N 
ATOM     22  H7  UNL     1      50.627 -21.466  -4.137  1.00  0.00     0.191 HD
ATOM     23  H8  UNL     1      51.745 -19.304  -3.531  1.00  0.00     0.205 HD
BRANCH  18  24
HETATM   24  N6  UNL     1      50.165 -21.866  -6.894  1.00  0.00    -0.077 N 
HETATM   25  O3  UNL     1      50.757 -22.316  -7.874  1.00  0.00    -0.529 OA
HETATM   26  O4  UNL     1      48.952 -22.373  -6.535  1.00  0.00    -0.529 OA
ENDBRANCH  18  24
ENDBRANCH  14  16
ENDBRANCH   7  12
ENDBRANCH   5   7
TORSDOF 5
ENDMDL
MODEL 3
REMARK VINA RESULT: -6.777439590      2.450      6.148
REMARK  5 active torsions:
REMARK  status: ('A' for Active; 'I' for Inactive)
REMARK       I    between atoms: N2_3  and  C2_5 
REMARK    1  A    between atoms: C2_5  and  C3_7 
REMARK    2  A    between atoms: C3_7  and  N3_8 
REMARK    3  A    between atoms: C3_7  and  C4_12 
REMARK       I    between atoms: C4_12  and  N4_14 
REMARK    4  A    between atoms: N4_14  and  C5_16 
REMARK    5  A    between atoms: C6_19  and  N6_20 
ROOT
HETATM    1  N1  UNL     1      48.830 -21.269 -10.786  1.00  0.00    -0.172 NA
HETATM    2  C1  UNL     1      49.463 -21.280  -9.801  1.00  0.00     0.184 C 
HETATM    3  N2  UNL     1      50.237 -21.303  -8.637  1.00  0.00    -0.262 N 
ATOM      4  H2  UNL     1      50.100 -22.055  -7.962  1.00  0.00     0.181 HD
HETATM    5  C2  UNL     1      51.200 -20.313  -8.377  1.00  0.00     0.270 C 
HETATM    6  O1  UNL     1      51.360 -19.386  -9.225  1.00  0.00    -0.270 OA
ENDROOT
BRANCH   5   7
HETATM    7  C3  UNL     1      52.031 -20.316  -7.152  1.00  0.00     0.367 C 
BRANCH   7   8
HETATM    8  N3  UNL     1      51.722 -21.474  -6.365  1.00  0.00    -0.058 N 
ATOM      9  H33 UNL     1      51.039 -21.272  -5.635  1.00  0.00     0.275 HD
ATOM     10  H32 UNL     1      51.180 -22.161  -6.887  1.00  0.00     0.275 HD
ATOM     11  H31 UNL     1      52.583 -21.870  -5.987  1.00  0.00     0.275 HD
ENDBRANCH   7   8
BRANCH   7  12
HETATM   12  C4  UNL     1      51.856 -19.071  -6.364  1.00  0.00     0.276 C 
HETATM   13  O2  UNL     1      51.373 -19.199  -5.200  1.00  0.00    -0.270 OA
HETATM   14  N4  UNL     1      52.209 -17.817  -6.890  1.00  0.00    -0.156 N 
ATOM     15  H4  UNL     1      51.450 -17.166  -7.094  1.00  0.00     0.187 HD
BRANCH  14  16
HETATM   16  C5  UNL     1      53.398 -17.421  -7.137  1.00  0.00     0.702 A 
HETATM   17  N5  UNL     1      54.538 -17.555  -6.439  1.00  0.00    -0.153 N 
HETATM   18  C6  UNL     1      55.558 -16.975  -7.085  1.00  0.00     0.279 A 
ATOM     19  H5  UNL     1      54.617 -18.032  -5.541  1.00  0.00     0.187 HD
HETATM   20  N7  UNL     1      55.034 -16.470  -8.214  1.00  0.00    -0.251 N 
HETATM   21  N8  UNL     1      53.736 -16.736  -8.245  1.00  0.00    -0.129 N 
ATOM     22  H7  UNL     1      55.551 -15.963  -8.932  1.00  0.00     0.191 HD
ATOM     23  H8  UNL     1      53.095 -16.465  -8.990  1.00  0.00     0.205 HD
BRANCH  18  24
HETATM   24  N6  UNL     1      56.934 -16.909  -6.658  1.00  0.00    -0.077 N 
HETATM   25  O3  UNL     1      57.597 -17.942  -6.585  1.00  0.00    -0.529 OA
HETATM   26  O4  UNL     1      57.497 -15.710  -6.338  1.00  0.00    -0.529 OA
ENDBRANCH  18  24
ENDBRANCH  14  16
ENDBRANCH   7  12
ENDBRANCH   5   7
TORSDOF 5
ENDMDL
MODEL 4
REMARK VINA RESULT: -6.704269140      2.430      6.178
REMARK  5 active torsions:
REMARK  status: ('A' for Active; 'I' for Inactive)
REMARK       I    between atoms: N2_3  and  C2_5 
REMARK    1  A    between atoms: C2_5  and  C3_7 
REMARK    2  A    between atoms: C3_7  and  N3_8 
REMARK    3  A    between atoms: C3_7  and  C4_12 
REMARK       I    between atoms: C4_12  and  N4_14 
REMARK    4  A    between atoms: N4_14  and  C5_16 
REMARK    5  A    between atoms: C6_19  and  N6_20 
ROOT
HETATM    1  N1  UNL     1      49.724 -22.143  -8.199  1.00  0.00    -0.172 NA
HETATM    2  C1  UNL     1      50.358 -21.395  -7.559  1.00  0.00     0.184 C 
HETATM    3  N2  UNL     1      51.134 -20.512  -6.804  1.00  0.00    -0.262 N 
ATOM      4  H2  UNL     1      51.339 -20.735  -5.830  1.00  0.00     0.181 HD
HETATM    5  C2  UNL     1      51.637 -19.322  -7.357  1.00  0.00     0.270 C 
HETATM    6  O1  UNL     1      51.375 -19.057  -8.567  1.00  0.00    -0.270 OA
ENDROOT
BRANCH   5   7
HETATM    7  C3  UNL     1      52.461 -18.370  -6.577  1.00  0.00     0.367 C 
BRANCH   7   8
HETATM    8  N3  UNL     1      51.801 -18.064  -5.341  1.00  0.00    -0.058 N 
ATOM      9  H33 UNL     1      52.074 -18.699  -4.591  1.00  0.00     0.275 HD
ATOM     10  H32 UNL     1      52.141 -17.196  -4.928  1.00  0.00     0.275 HD
ATOM     11  H31 UNL     1      50.791 -18.051  -5.487  1.00  0.00     0.275 HD
ENDBRANCH   7   8
BRANCH   7  12
HETATM   12  C4  UNL     1      52.754 -17.136  -7.347  1.00  0.00     0.276 C 
HETATM   13  O2  UNL     1      52.091 -16.102  -7.037  1.00  0.00    -0.270 OA
HETATM   14  N4  UNL     1      53.721 -17.124  -8.367  1.00  0.00    -0.156 N 
ATOM     15  H4  UNL     1      53.387 -17.007  -9.324  1.00  0.00     0.187 HD
BRANCH  14  16
HETATM   16  C5  UNL     1      54.981 -17.247  -8.201  1.00  0.00     0.702 A 
HETATM   17  N5  UNL     1      55.790 -16.821  -7.216  1.00  0.00    -0.153 N 
HETATM   18  C6  UNL     1      57.057 -17.179  -7.459  1.00  0.00     0.279 A 
ATOM     19  H5  UNL     1      55.481 -16.296  -6.397  1.00  0.00     0.187 HD
HETATM   20  N7  UNL     1      57.031 -17.845  -8.624  1.00  0.00    -0.251 N 
HETATM   21  N8  UNL     1      55.784 -17.885  -9.071  1.00  0.00    -0.129 N 
ATOM     22  H7  UNL     1      57.841 -18.255  -9.090  1.00  0.00     0.191 HD
ATOM     23  H8  UNL     1      55.481 -18.329  -9.938  1.00  0.00     0.205 HD
BRANCH  18  24
HETATM   24  N6  UNL     1      58.211 -16.907  -6.637  1.00  0.00    -0.077 N 
HETATM   25  O3  UNL     1      58.931 -17.835  -6.276  1.00  0.00    -0.529 OA
HETATM   26  O4  UNL     1      58.502 -15.629  -6.261  1.00  0.00    -0.529 OA
ENDBRANCH  18  24
ENDBRANCH  14  16
ENDBRANCH   7  12
ENDBRANCH   5   7
TORSDOF 5
ENDMDL
MODEL 5
REMARK VINA RESULT: -6.692516984      2.687      4.373
REMARK  5 active torsions:
REMARK  status: ('A' for Active; 'I' for Inactive)
REMARK       I    between atoms: N2_3  and  C2_5 
REMARK    1  A    between atoms: C2_5  and  C3_7 
REMARK    2  A    between atoms: C3_7  and  N3_8 
REMARK    3  A    between atoms: C3_7  and  C4_12 
REMARK       I    between atoms: C4_12  and  N4_14 
REMARK    4  A    between atoms: N4_14  and  C5_16 
REMARK    5  A    between atoms: C6_19  and  N6_20 
ROOT
HETATM    1  N1  UNL     1      58.243 -15.621  -6.314  1.00  0.00    -0.172 NA
HETATM    2  C1  UNL     1      58.163 -16.769  -6.527  1.00  0.00     0.184 C 
HETATM    3  N2  UNL     1      58.081 -18.144  -6.762  1.00  0.00    -0.262 N 
ATOM      4  H2  UNL     1      58.730 -18.578  -7.420  1.00  0.00     0.181 HD
HETATM    5  C2  UNL     1      57.125 -18.943  -6.114  1.00  0.00     0.270 C 
HETATM    6  O1  UNL     1      56.326 -18.392  -5.300  1.00  0.00    -0.270 OA
ENDROOT
BRANCH   5   7
HETATM    7  C3  UNL     1      57.018 -20.402  -6.346  1.00  0.00     0.367 C 
BRANCH   7   8
HETATM    8  N3  UNL     1      56.767 -20.650  -7.736  1.00  0.00    -0.058 N 
ATOM      9  H33 UNL     1      57.017 -21.600  -8.009  1.00  0.00     0.275 HD
ATOM     10  H32 UNL     1      55.771 -20.695  -7.945  1.00  0.00     0.275 HD
ATOM     11  H31 UNL     1      57.248 -19.948  -8.300  1.00  0.00     0.275 HD
ENDBRANCH   7   8
BRANCH   7  12
HETATM   12  C4  UNL     1      55.972 -21.021  -5.495  1.00  0.00     0.276 C 
HETATM   13  O2  UNL     1      56.363 -21.569  -4.423  1.00  0.00    -0.270 OA
HETATM   14  N4  UNL     1      54.617 -20.994  -5.868  1.00  0.00    -0.156 N 
ATOM     15  H4  UNL     1      54.186 -21.883  -6.123  1.00  0.00     0.187 HD
BRANCH  14  16
HETATM   16  C5  UNL     1      53.878 -19.954  -5.916  1.00  0.00     0.702 A 
HETATM   17  N5  UNL     1      53.571 -19.132  -6.934  1.00  0.00    -0.153 N 
HETATM   18  C6  UNL     1      52.750 -18.157  -6.522  1.00  0.00     0.279 A 
ATOM     19  H5  UNL     1      53.916 -19.236  -7.888  1.00  0.00     0.187 HD
HETATM   20  N7  UNL     1      52.543 -18.384  -5.215  1.00  0.00    -0.251 N 
HETATM   21  N8  UNL     1      53.221 -19.462  -4.850  1.00  0.00    -0.129 N 
ATOM     22  H7  UNL     1      51.957 -17.817  -4.601  1.00  0.00     0.191 HD
ATOM     23  H8  UNL     1      53.242 -19.857  -3.910  1.00  0.00     0.205 HD
BRANCH  18  24
HETATM   24  N6  UNL     1      52.201 -17.087  -7.319  1.00  0.00    -0.077 N 
HETATM   25  O3  UNL     1      52.196 -15.941  -6.874  1.00  0.00    -0.529 OA
HETATM   26  O4  UNL     1      51.689 -17.344  -8.556  1.00  0.00    -0.529 OA
ENDBRANCH  18  24
ENDBRANCH  14  16
ENDBRANCH   7  12
ENDBRANCH   5   7
TORSDOF 5
ENDMDL
