MODEL 1
REMARK VINA RESULT: -6.057784782      0.000      0.000
REMARK  6 active torsions:
REMARK  status: ('A' for Active; 'I' for Inactive)
REMARK    1  A    between atoms: O1_2  and  N1_3 
REMARK    2  A    between atoms: N1_3  and  C2_5 
REMARK    3  A    between atoms: C3_8  and  N3_9 
REMARK    4  A    between atoms: N3_9  and  N4_11 
REMARK    5  A    between atoms: C4_16  and  N6_17 
REMARK    6  A    between atoms: N6_17  and  C5_19 
ROOT
HETATM    1  C2  UNL     1      51.893 -19.697  -8.517  1.00  0.00     0.731 A 
HETATM    2  N2  UNL     1      51.489 -19.577  -7.239  1.00  0.00    -0.018 N 
ATOM      3  H2  UNL     1      50.753 -20.189  -6.887  1.00  0.00     0.203 HD
HETATM    4  C3  UNL     1      52.045 -18.653  -6.410  1.00  0.00     0.725 A 
HETATM    5  N5  UNL     1      53.014 -17.842  -6.857  1.00  0.00    -0.020 N 
ATOM      6  H5  UNL     1      53.434 -17.147  -6.239  1.00  0.00     0.203 HD
HETATM    7  C4  UNL     1      53.419 -17.956  -8.123  1.00  0.00     0.712 A 
HETATM    8  N9  UNL     1      52.864 -18.868  -8.931  1.00  0.00    -0.019 N 
ATOM      9  H9  UNL     1      53.191 -18.935  -9.895  1.00  0.00     0.203 HD
ENDROOT
BRANCH   7  10
HETATM   10  N6  UNL     1      54.368 -17.174  -8.591  1.00  0.00    -0.178 N 
ATOM     11  H6  UNL     1      54.140 -16.457  -9.279  1.00  0.00     0.185 HD
BRANCH  10  12
HETATM   12  C5  UNL     1      55.690 -17.323  -8.147  1.00  0.00     0.123 C 
HETATM   13  N7  UNL     1      56.552 -18.128  -8.668  1.00  0.00    -0.353 N 
HETATM   14  C6  UNL     1      57.803 -18.005  -7.946  1.00  0.00     0.396 C 
ATOM     15  H7  UNL     1      56.382 -18.751  -9.459  1.00  0.00     0.162 HD
HETATM   16  N8  UNL     1      57.362 -17.579  -6.638  1.00  0.00     0.108 N 
HETATM   17  C7  UNL     1      56.618 -18.712  -6.068  1.00  0.00     0.312 C 
HETATM   18  C8  UNL     1      56.337 -16.589  -7.007  1.00  0.00     0.350 C 
ENDBRANCH  10  12
ENDBRANCH   7  10
BRANCH   4  19
HETATM   19  N3  UNL     1      51.654 -18.549  -5.203  1.00  0.00    -0.138 N 
ATOM     20  H3  UNL     1      51.609 -17.613  -4.801  1.00  0.00     0.205 HD
BRANCH  19  21
HETATM   21  N4  UNL     1      51.287 -19.613  -4.394  1.00  0.00    -0.331 N 
ATOM     22  H42 UNL     1      51.198 -20.520  -4.850  1.00  0.00     0.177 HD
ATOM     23  H41 UNL     1      51.104 -19.547  -3.393  1.00  0.00     0.177 HD
ENDBRANCH  19  21
ENDBRANCH   4  19
BRANCH   1  24
HETATM   24  N1  UNL     1      51.356 -20.585  -9.312  1.00  0.00    -0.096 N 
ATOM     25  H1  UNL     1      51.841 -21.464  -9.494  1.00  0.00     0.213 HD
BRANCH  24  26
HETATM   26  O1  UNL     1      50.162 -20.341  -9.893  1.00  0.00    -0.271 OA
HETATM   27  C1  UNL     1      49.080 -21.215  -9.964  1.00  0.00     0.238 C 
ENDBRANCH  24  26
ENDBRANCH   1  24
TORSDOF 6
ENDMDL
MODEL 2
REMARK VINA RESULT: -6.015018445      2.360      3.341
REMARK  6 active torsions:
REMARK  status: ('A' for Active; 'I' for Inactive)
REMARK    1  A    between atoms: O1_2  and  N1_3 
REMARK    2  A    between atoms: N1_3  and  C2_5 
REMARK    3  A    between atoms: C3_8  and  N3_9 
REMARK    4  A    between atoms: N3_9  and  N4_11 
REMARK    5  A    between atoms: C4_16  and  N6_17 
REMARK    6  A    between atoms: N6_17  and  C5_19 
ROOT
HETATM    1  C2  UNL     1      53.555 -17.661  -6.914  1.00  0.00     0.731 A 
HETATM    2  N2  UNL     1      52.723 -17.984  -5.906  1.00  0.00    -0.018 N 
ATOM      3  H2  UNL     1      51.722 -17.817  -6.010  1.00  0.00     0.203 HD
HETATM    4  C3  UNL     1      53.194 -18.528  -4.752  1.00  0.00     0.725 A 
HETATM    5  N5  UNL     1      54.507 -18.754  -4.599  1.00  0.00    -0.020 N 
ATOM      6  H5  UNL     1      54.865 -19.162  -3.735  1.00  0.00     0.203 HD
HETATM    7  C4  UNL     1      55.337 -18.436  -5.595  1.00  0.00     0.712 A 
HETATM    8  N9  UNL     1      54.862 -17.901  -6.726  1.00  0.00    -0.019 N 
ATOM      9  H9  UNL     1      55.517 -17.666  -7.472  1.00  0.00     0.203 HD
ENDROOT
BRANCH   7  10
HETATM   10  N6  UNL     1      56.630 -18.646  -5.475  1.00  0.00    -0.178 N 
ATOM     11  H6  UNL     1      57.211 -17.965  -4.987  1.00  0.00     0.185 HD
BRANCH  10  12
HETATM   12  C5  UNL     1      57.212 -19.802  -6.015  1.00  0.00     0.123 C 
HETATM   13  N7  UNL     1      58.172 -19.806  -6.877  1.00  0.00    -0.353 N 
HETATM   14  C6  UNL     1      58.505 -21.180  -7.198  1.00  0.00     0.396 C 
ATOM     15  H7  UNL     1      58.622 -18.978  -7.268  1.00  0.00     0.162 HD
HETATM   16  N8  UNL     1      57.257 -21.864  -6.956  1.00  0.00     0.108 N 
HETATM   17  C7  UNL     1      56.318 -21.373  -7.976  1.00  0.00     0.312 C 
HETATM   18  C8  UNL     1      56.835 -21.222  -5.700  1.00  0.00     0.350 C 
ENDBRANCH  10  12
ENDBRANCH   7  10
BRANCH   4  19
HETATM   19  N3  UNL     1      52.397 -18.829  -3.806  1.00  0.00    -0.138 N 
ATOM     20  H3  UNL     1      52.655 -18.540  -2.862  1.00  0.00     0.205 HD
BRANCH  19  21
HETATM   21  N4  UNL     1      51.206 -19.521  -3.962  1.00  0.00    -0.331 N 
ATOM     22  H42 UNL     1      51.230 -20.333  -4.578  1.00  0.00     0.177 HD
ATOM     23  H41 UNL     1      50.326 -19.275  -3.510  1.00  0.00     0.177 HD
ENDBRANCH  19  21
ENDBRANCH   4  19
BRANCH   1  24
HETATM   24  N1  UNL     1      53.099 -17.138  -8.021  1.00  0.00    -0.096 N 
ATOM     25  H1  UNL     1      52.937 -16.133  -8.080  1.00  0.00     0.213 HD
BRANCH  24  26
HETATM   26  O1  UNL     1      52.842 -17.925  -9.088  1.00  0.00    -0.271 OA
HETATM   27  C1  UNL     1      52.735 -19.313  -9.089  1.00  0.00     0.238 C 
ENDBRANCH  24  26
ENDBRANCH   1  24
TORSDOF 6
ENDMDL
MODEL 3
REMARK VINA RESULT: -5.964302542      5.298      9.831
REMARK  6 active torsions:
REMARK  status: ('A' for Active; 'I' for Inactive)
REMARK    1  A    between atoms: O1_2  and  N1_3 
REMARK    2  A    between atoms: N1_3  and  C2_5 
REMARK    3  A    between atoms: C3_8  and  N3_9 
REMARK    4  A    between atoms: N3_9  and  N4_11 
REMARK    5  A    between atoms: C4_16  and  N6_17 
REMARK    6  A    between atoms: N6_17  and  C5_19 
ROOT
HETATM    1  C2  UNL     1      49.164 -22.086  -9.736  1.00  0.00     0.731 A 
HETATM    2  N2  UNL     1      49.848 -22.990 -10.462  1.00  0.00    -0.018 N 
ATOM      3  H2  UNL     1      50.465 -22.669 -11.209  1.00  0.00     0.203 HD
HETATM    4  C3  UNL     1      49.730 -24.323 -10.218  1.00  0.00     0.725 A 
HETATM    5  N5  UNL     1      48.924 -24.761  -9.241  1.00  0.00    -0.020 N 
ATOM      6  H5  UNL     1      48.832 -25.760  -9.053  1.00  0.00     0.203 HD
HETATM    7  C4  UNL     1      48.243 -23.870  -8.517  1.00  0.00     0.712 A 
HETATM    8  N9  UNL     1      48.366 -22.560  -8.767  1.00  0.00    -0.019 N 
ATOM      9  H9  UNL     1      47.834 -21.900  -8.200  1.00  0.00     0.203 HD
ENDROOT
BRANCH   7  10
HETATM   10  N6  UNL     1      47.444 -24.269  -7.551  1.00  0.00    -0.178 N 
ATOM     11  H6  UNL     1      47.652 -24.018  -6.585  1.00  0.00     0.185 HD
BRANCH  10  12
HETATM   12  C5  UNL     1      46.308 -25.037  -7.845  1.00  0.00     0.123 C 
HETATM   13  N7  UNL     1      45.561 -24.874  -8.884  1.00  0.00    -0.353 N 
HETATM   14  C6  UNL     1      44.488 -25.849  -8.846  1.00  0.00     0.396 C 
ATOM     15  H7  UNL     1      45.702 -24.175  -9.614  1.00  0.00     0.162 HD
HETATM   16  N8  UNL     1      44.345 -26.092  -7.429  1.00  0.00     0.108 N 
HETATM   17  C7  UNL     1      43.842 -24.838  -6.848  1.00  0.00     0.312 C 
HETATM   18  C8  UNL     1      45.758 -26.168  -7.023  1.00  0.00     0.350 C 
ENDBRANCH  10  12
ENDBRANCH   7  10
BRANCH   4  19
HETATM   19  N3  UNL     1      50.382 -25.168 -10.911  1.00  0.00    -0.138 N 
ATOM     20  H3  UNL     1      50.683 -26.026 -10.449  1.00  0.00     0.205 HD
BRANCH  19  21
HETATM   21  N4  UNL     1      50.714 -25.010 -12.248  1.00  0.00    -0.331 N 
ATOM     22  H42 UNL     1      49.937 -24.957 -12.905  1.00  0.00     0.177 HD
ATOM     23  H41 UNL     1      51.666 -24.944 -12.608  1.00  0.00     0.177 HD
ENDBRANCH  19  21
ENDBRANCH   4  19
BRANCH   1  24
HETATM   24  N1  UNL     1      49.279 -20.806  -9.974  1.00  0.00    -0.096 N 
ATOM     25  H1  UNL     1      48.480 -20.282 -10.331  1.00  0.00     0.213 HD
BRANCH  24  26
HETATM   26  O1  UNL     1      50.451 -20.177  -9.749  1.00  0.00    -0.271 OA
HETATM   27  C1  UNL     1      51.154 -20.136  -8.547  1.00  0.00     0.238 C 
ENDBRANCH  24  26
ENDBRANCH   1  24
TORSDOF 6
ENDMDL
MODEL 4
REMARK VINA RESULT: -5.934416121      8.271     11.539
REMARK  6 active torsions:
REMARK  status: ('A' for Active; 'I' for Inactive)
REMARK    1  A    between atoms: O1_2  and  N1_3 
REMARK    2  A    between atoms: N1_3  and  C2_5 
REMARK    3  A    between atoms: C3_8  and  N3_9 
REMARK    4  A    between atoms: N3_9  and  N4_11 
REMARK    5  A    between atoms: C4_16  and  N6_17 
REMARK    6  A    between atoms: N6_17  and  C5_19 
ROOT
HETATM    1  C2  UNL     1      50.048 -27.502  -9.059  1.00  0.00     0.731 A 
HETATM    2  N2  UNL     1      50.031 -26.194  -9.378  1.00  0.00    -0.018 N 
ATOM      3  H2  UNL     1      50.817 -25.793  -9.890  1.00  0.00     0.203 HD
HETATM    4  C3  UNL     1      48.984 -25.399  -9.030  1.00  0.00     0.725 A 
HETATM    5  N5  UNL     1      47.944 -25.910  -8.357  1.00  0.00    -0.020 N 
ATOM      6  H5  UNL     1      47.156 -25.317  -8.093  1.00  0.00     0.203 HD
HETATM    7  C4  UNL     1      47.954 -27.205  -8.038  1.00  0.00     0.712 A 
HETATM    8  N9  UNL     1      48.990 -27.979  -8.385  1.00  0.00    -0.019 N 
ATOM      9  H9  UNL     1      48.974 -28.966  -8.129  1.00  0.00     0.203 HD
ENDROOT
BRANCH   7  10
HETATM   10  N6  UNL     1      46.948 -27.736  -7.378  1.00  0.00    -0.178 N 
ATOM     11  H6  UNL     1      47.117 -28.221  -6.498  1.00  0.00     0.185 HD
BRANCH  10  12
HETATM   12  C5  UNL     1      45.642 -27.638  -7.881  1.00  0.00     0.123 C 
HETATM   13  N7  UNL     1      45.279 -28.016  -9.060  1.00  0.00    -0.353 N 
HETATM   14  C6  UNL     1      43.862 -27.758  -9.218  1.00  0.00     0.396 C 
ATOM     15  H7  UNL     1      45.890 -28.431  -9.765  1.00  0.00     0.162 HD
HETATM   16  N8  UNL     1      43.649 -26.649  -8.317  1.00  0.00     0.108 N 
HETATM   17  C7  UNL     1      44.386 -25.511  -8.889  1.00  0.00     0.312 C 
HETATM   18  C8  UNL     1      44.446 -27.084  -7.159  1.00  0.00     0.350 C 
ENDBRANCH  10  12
ENDBRANCH   7  10
BRANCH   4  19
HETATM   19  N3  UNL     1      48.980 -24.163  -9.337  1.00  0.00    -0.138 N 
ATOM     20  H3  UNL     1      48.505 -23.521  -8.703  1.00  0.00     0.205 HD
BRANCH  19  21
HETATM   21  N4  UNL     1      49.572 -23.626 -10.469  1.00  0.00    -0.331 N 
ATOM     22  H42 UNL     1      48.940 -23.277 -11.190  1.00  0.00     0.177 HD
ATOM     23  H41 UNL     1      50.577 -23.558 -10.624  1.00  0.00     0.177 HD
ENDBRANCH  19  21
ENDBRANCH   4  19
BRANCH   1  24
HETATM   24  N1  UNL     1      51.056 -28.263  -9.395  1.00  0.00    -0.096 N 
ATOM     25  H1  UNL     1      50.899 -29.087  -9.976  1.00  0.00     0.213 HD
BRANCH  24  26
HETATM   26  O1  UNL     1      52.303 -27.962  -8.975  1.00  0.00    -0.271 OA
HETATM   27  C1  UNL     1      53.373 -27.563  -9.773  1.00  0.00     0.238 C 
ENDBRANCH  24  26
ENDBRANCH   1  24
TORSDOF 6
ENDMDL
MODEL 5
REMARK VINA RESULT: -5.901134828      2.249      5.408
REMARK  6 active torsions:
REMARK  status: ('A' for Active; 'I' for Inactive)
REMARK    1  A    between atoms: O1_2  and  N1_3 
REMARK    2  A    between atoms: N1_3  and  C2_5 
REMARK    3  A    between atoms: C3_8  and  N3_9 
REMARK    4  A    between atoms: N3_9  and  N4_11 
REMARK    5  A    between atoms: C4_16  and  N6_17 
REMARK    6  A    between atoms: N6_17  and  C5_19 
ROOT
HETATM    1  C2  UNL     1      54.004 -17.129  -7.788  1.00  0.00     0.731 A 
HETATM    2  N2  UNL     1      53.988 -17.093  -6.443  1.00  0.00    -0.018 N 
ATOM      3  H2  UNL     1      54.704 -16.561  -5.948  1.00  0.00     0.203 HD
HETATM    4  C3  UNL     1      53.035 -17.754  -5.733  1.00  0.00     0.725 A 
HETATM    5  N5  UNL     1      52.087 -18.457  -6.368  1.00  0.00    -0.020 N 
ATOM      6  H5  UNL     1      51.369 -18.955  -5.840  1.00  0.00     0.203 HD
HETATM    7  C4  UNL     1      52.097 -18.497  -7.702  1.00  0.00     0.712 A 
HETATM    8  N9  UNL     1      53.040 -17.843  -8.391  1.00  0.00    -0.019 N 
ATOM      9  H9  UNL     1      53.026 -17.890  -9.410  1.00  0.00     0.203 HD
ENDROOT
BRANCH   7  10
HETATM   10  N6  UNL     1      51.180 -19.178  -8.354  1.00  0.00    -0.178 N 
ATOM     11  H6  UNL     1      50.422 -18.686  -8.826  1.00  0.00     0.185 HD
BRANCH  10  12
HETATM   12  C5  UNL     1      51.240 -20.578  -8.402  1.00  0.00     0.123 C 
HETATM   13  N7  UNL     1      51.988 -21.254  -9.206  1.00  0.00    -0.353 N 
HETATM   14  C6  UNL     1      51.780 -22.668  -8.963  1.00  0.00     0.396 C 
ATOM     15  H7  UNL     1      52.623 -20.858  -9.900  1.00  0.00     0.162 HD
HETATM   16  N8  UNL     1      50.430 -22.696  -8.450  1.00  0.00     0.108 N 
HETATM   17  C7  UNL     1      49.561 -22.294  -9.566  1.00  0.00     0.312 C 
HETATM   18  C8  UNL     1      50.460 -21.536  -7.544  1.00  0.00     0.350 C 
ENDBRANCH  10  12
ENDBRANCH   7  10
BRANCH   4  19
HETATM   19  N3  UNL     1      53.031 -17.713  -4.460  1.00  0.00    -0.138 N 
ATOM     20  H3  UNL     1      53.324 -16.843  -4.015  1.00  0.00     0.205 HD
BRANCH  19  21
HETATM   21  N4  UNL     1      52.657 -18.761  -3.635  1.00  0.00    -0.331 N 
ATOM     22  H42 UNL     1      53.385 -19.147  -3.033  1.00  0.00     0.177 HD
ATOM     23  H41 UNL     1      51.721 -19.163  -3.590  1.00  0.00     0.177 HD
ENDBRANCH  19  21
ENDBRANCH   4  19
BRANCH   1  24
HETATM   24  N1  UNL     1      54.922 -16.494  -8.468  1.00  0.00    -0.096 N 
ATOM     25  H1  UNL     1      54.909 -15.474  -8.510  1.00  0.00     0.213 HD
BRANCH  24  26
HETATM   26  O1  UNL     1      55.887 -17.183  -9.114  1.00  0.00    -0.271 OA
HETATM   27  C1  UNL     1      56.663 -18.213  -8.589  1.00  0.00     0.238 C 
ENDBRANCH  24  26
ENDBRANCH   1  24
TORSDOF 6
ENDMDL
