MODEL 1
REMARK VINA RESULT: -6.563483938      0.000      0.000
REMARK  3 active torsions:
REMARK  status: ('A' for Active; 'I' for Inactive)
REMARK       I    between atoms: N2_3  and  C2_5 
REMARK    1  A    between atoms: C2_5  and  C3_7 
REMARK    2  A    between atoms: C4_8  and  C5_9 
REMARK       I    between atoms: C5_9  and  N3_11 
REMARK    3  A    between atoms: N3_11  and  N4_13 
ROOT
HETATM    1  N1  UNL     1      44.090 -24.947  -6.028  1.00  0.00    -0.172 NA
HETATM    2  C1  UNL     1      45.179 -25.302  -6.268  1.00  0.00     0.184 C 
HETATM    3  N2  UNL     1      46.471 -25.725  -6.577  1.00  0.00    -0.259 N 
ATOM      4  H2  UNL     1      47.103 -26.003  -5.826  1.00  0.00     0.181 HD
HETATM    5  C2  UNL     1      46.920 -25.775  -7.919  1.00  0.00     0.272 C 
HETATM    6  O1  UNL     1      46.070 -25.402  -8.777  1.00  0.00    -0.266 OA
ENDROOT
BRANCH   5   7
HETATM    7  C3  UNL     1      48.257 -26.221  -8.237  1.00  0.00     0.133 A 
HETATM    8  C4  UNL     1      49.197 -25.389  -8.762  1.00  0.00     0.126 A 
HETATM    9  N5  UNL     1      50.405 -25.952  -9.146  1.00  0.00    -0.327 N 
HETATM   10  C6  UNL     1      50.653 -27.247  -9.013  1.00  0.00     0.182 A 
ATOM     11  H5  UNL     1      51.125 -25.350  -9.545  1.00  0.00     0.168 HD
HETATM   12 CL1  UNL     1      52.204 -27.946  -9.510  1.00  0.00    -0.045 Cl
HETATM   13  N6  UNL     1      49.713 -28.038  -8.493  1.00  0.00    -0.299 N 
HETATM   14  C7  UNL     1      48.515 -27.594  -8.092  1.00  0.00     0.265 A 
ATOM     15  H6  UNL     1      49.919 -29.032  -8.394  1.00  0.00     0.171 HD
HETATM   16  O3  UNL     1      47.641 -28.340  -7.610  1.00  0.00    -0.267 OA
BRANCH   8  17
HETATM   17  C5  UNL     1      49.065 -23.952  -8.866  1.00  0.00     0.287 C 
HETATM   18  O2  UNL     1      48.921 -23.216  -7.887  1.00  0.00    -0.264 OA
HETATM   19  N3  UNL     1      49.095 -23.328 -10.133  1.00  0.00    -0.271 N 
ATOM     20  H3  UNL     1      49.212 -23.903 -10.967  1.00  0.00     0.189 HD
BRANCH  19  21
HETATM   21  N4  UNL     1      48.971 -21.957 -10.273  1.00  0.00    -0.342 N 
ATOM     22  H42 UNL     1      48.649 -21.419  -9.469  1.00  0.00     0.176 HD
ATOM     23  H41 UNL     1      49.194 -21.485 -11.149  1.00  0.00     0.176 HD
ENDBRANCH  19  21
ENDBRANCH   8  17
ENDBRANCH   5   7
TORSDOF 3
ENDMDL
MODEL 2
REMARK VINA RESULT: -6.524261804      6.198      8.610
REMARK  3 active torsions:
REMARK  status: ('A' for Active; 'I' for Inactive)
REMARK       I    between atoms: N2_3  and  C2_5 
REMARK    1  A    between atoms: C2_5  and  C3_7 
REMARK    2  A    between atoms: C4_8  and  C5_9 
REMARK       I    between atoms: C5_9  and  N3_11 
REMARK    3  A    between atoms: N3_11  and  N4_13 
ROOT
HETATM    1  N1  UNL     1      55.146 -16.689  -8.973  1.00  0.00    -0.172 NA
HETATM    2  C1  UNL     1      54.201 -17.260  -8.584  1.00  0.00     0.184 C 
HETATM    3  N2  UNL     1      53.087 -17.962  -8.125  1.00  0.00    -0.259 N 
ATOM      4  H2  UNL     1      52.211 -17.465  -7.963  1.00  0.00     0.181 HD
HETATM    5  C2  UNL     1      53.154 -19.355  -7.879  1.00  0.00     0.272 C 
HETATM    6  O1  UNL     1      54.284 -19.878  -8.099  1.00  0.00    -0.266 OA
ENDROOT
BRANCH   5   7
HETATM    7  C3  UNL     1      51.996 -20.081  -7.410  1.00  0.00     0.133 A 
HETATM    8  C4  UNL     1      51.799 -20.366  -6.094  1.00  0.00     0.126 A 
HETATM    9  N5  UNL     1      50.721 -21.177  -5.772  1.00  0.00    -0.327 N 
HETATM   10  C6  UNL     1      49.902 -21.662  -6.695  1.00  0.00     0.182 A 
ATOM     11  H5  UNL     1      50.553 -21.408  -4.793  1.00  0.00     0.168 HD
HETATM   12 CL1  UNL     1      48.530 -22.695  -6.260  1.00  0.00    -0.045 Cl
HETATM   13  N6  UNL     1      50.119 -21.363  -7.976  1.00  0.00    -0.299 N 
HETATM   14  C7  UNL     1      51.131 -20.591  -8.393  1.00  0.00     0.265 A 
ATOM     15  H6  UNL     1      49.480 -21.741  -8.676  1.00  0.00     0.171 HD
HETATM   16  O3  UNL     1      51.329 -20.319  -9.592  1.00  0.00    -0.267 OA
BRANCH   8  17
HETATM   17  C5  UNL     1      52.574 -19.817  -5.003  1.00  0.00     0.287 C 
HETATM   18  O2  UNL     1      53.347 -20.491  -4.321  1.00  0.00    -0.264 OA
HETATM   19  N3  UNL     1      52.463 -18.447  -4.676  1.00  0.00    -0.271 N 
ATOM     20  H3  UNL     1      51.832 -17.856  -5.218  1.00  0.00     0.189 HD
BRANCH  19  21
HETATM   21  N4  UNL     1      53.188 -17.885  -3.640  1.00  0.00    -0.342 N 
ATOM     22  H42 UNL     1      54.176 -18.122  -3.560  1.00  0.00     0.176 HD
ATOM     23  H41 UNL     1      52.758 -17.249  -2.968  1.00  0.00     0.176 HD
ENDBRANCH  19  21
ENDBRANCH   8  17
ENDBRANCH   5   7
TORSDOF 3
ENDMDL
MODEL 3
REMARK VINA RESULT: -6.321750312      8.182     10.739
REMARK  3 active torsions:
REMARK  status: ('A' for Active; 'I' for Inactive)
REMARK       I    between atoms: N2_3  and  C2_5 
REMARK    1  A    between atoms: C2_5  and  C3_7 
REMARK    2  A    between atoms: C4_8  and  C5_9 
REMARK       I    between atoms: C5_9  and  N3_11 
REMARK    3  A    between atoms: N3_11  and  N4_13 
ROOT
HETATM    1  N1  UNL     1      58.174 -15.628  -6.301  1.00  0.00    -0.172 NA
HETATM    2  C1  UNL     1      57.232 -16.158  -6.750  1.00  0.00     0.184 C 
HETATM    3  N2  UNL     1      56.110 -16.805  -7.267  1.00  0.00    -0.259 N 
ATOM      4  H2  UNL     1      55.775 -16.563  -8.200  1.00  0.00     0.181 HD
HETATM    5  C2  UNL     1      55.427 -17.792  -6.516  1.00  0.00     0.272 C 
HETATM    6  O1  UNL     1      55.911 -18.013  -5.369  1.00  0.00    -0.266 OA
ENDROOT
BRANCH   5   7
HETATM    7  C3  UNL     1      54.269 -18.466  -7.057  1.00  0.00     0.133 A 
HETATM    8  C4  UNL     1      54.270 -19.795  -7.350  1.00  0.00     0.126 A 
HETATM    9  N5  UNL     1      53.147 -20.309  -7.982  1.00  0.00    -0.327 N 
HETATM   10  C6  UNL     1      52.104 -19.552  -8.292  1.00  0.00     0.182 A 
ATOM     11  H5  UNL     1      53.124 -21.301  -8.215  1.00  0.00     0.168 HD
HETATM   12 CL1  UNL     1      50.679 -20.231  -9.099  1.00  0.00    -0.045 Cl
HETATM   13  N6  UNL     1      52.131 -18.254  -7.989  1.00  0.00    -0.299 N 
HETATM   14  C7  UNL     1      53.166 -17.659  -7.382  1.00  0.00     0.265 A 
ATOM     15  H6  UNL     1      51.321 -17.684  -8.233  1.00  0.00     0.171 HD
HETATM   16  O3  UNL     1      53.185 -16.445  -7.105  1.00  0.00    -0.267 OA
BRANCH   8  17
HETATM   17  C5  UNL     1      55.312 -20.724  -6.974  1.00  0.00     0.287 C 
HETATM   18  O2  UNL     1      56.107 -21.207  -7.783  1.00  0.00    -0.264 OA
HETATM   19  N3  UNL     1      55.455 -21.120  -5.626  1.00  0.00    -0.271 N 
ATOM     20  H3  UNL     1      54.815 -20.743  -4.927  1.00  0.00     0.189 HD
BRANCH  19  21
HETATM   21  N4  UNL     1      56.439 -22.008  -5.227  1.00  0.00    -0.342 N 
ATOM     22  H42 UNL     1      56.323 -22.487  -4.335  1.00  0.00     0.176 HD
ATOM     23  H41 UNL     1      57.263 -22.188  -5.801  1.00  0.00     0.176 HD
ENDBRANCH  19  21
ENDBRANCH   8  17
ENDBRANCH   5   7
TORSDOF 3
ENDMDL
MODEL 4
REMARK VINA RESULT: -6.298674149      3.183      4.969
REMARK  3 active torsions:
REMARK  status: ('A' for Active; 'I' for Inactive)
REMARK       I    between atoms: N2_3  and  C2_5 
REMARK    1  A    between atoms: C2_5  and  C3_7 
REMARK    2  A    between atoms: C4_8  and  C5_9 
REMARK       I    between atoms: C5_9  and  N3_11 
REMARK    3  A    between atoms: N3_11  and  N4_13 
ROOT
HETATM    1  N1  UNL     1      48.798 -22.419  -6.868  1.00  0.00    -0.172 NA
HETATM    2  C1  UNL     1      48.134 -23.188  -7.450  1.00  0.00     0.184 C 
HETATM    3  N2  UNL     1      47.340 -24.116  -8.122  1.00  0.00    -0.259 N 
ATOM      4  H2  UNL     1      47.293 -24.093  -9.141  1.00  0.00     0.181 HD
HETATM    5  C2  UNL     1      46.598 -25.090  -7.412  1.00  0.00     0.272 C 
HETATM    6  O1  UNL     1      46.713 -25.031  -6.154  1.00  0.00    -0.266 OA
ENDROOT
BRANCH   5   7
HETATM    7  C3  UNL     1      45.781 -26.056  -8.111  1.00  0.00     0.133 A 
HETATM    8  C4  UNL     1      46.287 -27.221  -8.600  1.00  0.00     0.126 A 
HETATM    9  N5  UNL     1      45.442 -28.012  -9.363  1.00  0.00    -0.327 N 
HETATM   10  C6  UNL     1      44.188 -27.666  -9.615  1.00  0.00     0.182 A 
ATOM     11  H5  UNL     1      45.798 -28.889  -9.743  1.00  0.00     0.168 HD
HETATM   12 CL1  UNL     1      43.125 -28.693 -10.592  1.00  0.00    -0.045 Cl
HETATM   13  N6  UNL     1      43.719 -26.519  -9.120  1.00  0.00    -0.299 N 
HETATM   14  C7  UNL     1      44.452 -25.684  -8.374  1.00  0.00     0.265 A 
ATOM     15  H6  UNL     1      42.751 -26.266  -9.321  1.00  0.00     0.171 HD
HETATM   16  O3  UNL     1      44.008 -24.613  -7.918  1.00  0.00    -0.267 OA
BRANCH   8  17
HETATM   17  C5  UNL     1      47.607 -27.736  -8.309  1.00  0.00     0.287 C 
HETATM   18  O2  UNL     1      47.871 -28.374  -7.289  1.00  0.00    -0.264 OA
HETATM   19  N3  UNL     1      48.668 -27.514  -9.215  1.00  0.00    -0.271 N 
ATOM     20  H3  UNL     1      48.489 -26.989 -10.071  1.00  0.00     0.189 HD
BRANCH  19  21
HETATM   21  N4  UNL     1      49.945 -27.990  -8.972  1.00  0.00    -0.342 N 
ATOM     22  H42 UNL     1      50.137 -28.408  -8.062  1.00  0.00     0.176 HD
ATOM     23  H41 UNL     1      50.682 -27.932  -9.675  1.00  0.00     0.176 HD
ENDBRANCH  19  21
ENDBRANCH   8  17
ENDBRANCH   5   7
TORSDOF 3
ENDMDL
MODEL 5
REMARK VINA RESULT: -6.221203121      6.497      8.919
REMARK  3 active torsions:
REMARK  status: ('A' for Active; 'I' for Inactive)
REMARK       I    between atoms: N2_3  and  C2_5 
REMARK    1  A    between atoms: C2_5  and  C3_7 
REMARK    2  A    between atoms: C4_8  and  C5_9 
REMARK       I    between atoms: C5_9  and  N3_11 
REMARK    3  A    between atoms: N3_11  and  N4_13 
ROOT
HETATM    1  N1  UNL     1      56.762 -17.952  -9.045  1.00  0.00    -0.172 NA
HETATM    2  C1  UNL     1      55.871 -18.595  -8.640  1.00  0.00     0.184 C 
HETATM    3  N2  UNL     1      54.795 -19.343  -8.164  1.00  0.00    -0.259 N 
ATOM      4  H2  UNL     1      54.971 -20.188  -7.620  1.00  0.00     0.181 HD
HETATM    5  C2  UNL     1      53.461 -18.947  -8.424  1.00  0.00     0.272 C 
HETATM    6  O1  UNL     1      53.345 -17.894  -9.114  1.00  0.00    -0.266 OA
ENDROOT
BRANCH   5   7
HETATM    7  C3  UNL     1      52.347 -19.720  -7.924  1.00  0.00     0.133 A 
HETATM    8  C4  UNL     1      51.839 -19.542  -6.674  1.00  0.00     0.126 A 
HETATM    9  N5  UNL     1      50.855 -20.424  -6.254  1.00  0.00    -0.327 N 
HETATM   10  C6  UNL     1      50.412 -21.406  -7.026  1.00  0.00     0.182 A 
ATOM     11  H5  UNL     1      50.459 -20.313  -5.321  1.00  0.00     0.168 HD
HETATM   12 CL1  UNL     1      49.152 -22.522  -6.469  1.00  0.00    -0.045 Cl
HETATM   13  N6  UNL     1      50.927 -21.555  -8.247  1.00  0.00    -0.299 N 
HETATM   14  C7  UNL     1      51.881 -20.759  -8.747  1.00  0.00     0.265 A 
ATOM     15  H6  UNL     1      50.576 -22.314  -8.831  1.00  0.00     0.171 HD
HETATM   16  O3  UNL     1      52.359 -20.906  -9.887  1.00  0.00    -0.267 OA
BRANCH   8  17
HETATM   17  C5  UNL     1      52.183 -18.451  -5.789  1.00  0.00     0.287 C 
HETATM   18  O2  UNL     1      51.968 -17.269  -6.062  1.00  0.00    -0.264 OA
HETATM   19  N3  UNL     1      52.799 -18.716  -4.545  1.00  0.00    -0.271 N 
ATOM     20  H3  UNL     1      52.994 -19.682  -4.284  1.00  0.00     0.189 HD
BRANCH  19  21
HETATM   21  N4  UNL     1      53.144 -17.700  -3.672  1.00  0.00    -0.342 N 
ATOM     22  H42 UNL     1      52.591 -16.843  -3.689  1.00  0.00     0.176 HD
ATOM     23  H41 UNL     1      53.925 -17.792  -3.023  1.00  0.00     0.176 HD
ENDBRANCH  19  21
ENDBRANCH   8  17
ENDBRANCH   5   7
TORSDOF 3
ENDMDL
