MODEL 1
REMARK VINA RESULT: -7.206212107      0.000      0.000
REMARK  5 active torsions:
REMARK  status: ('A' for Active; 'I' for Inactive)
REMARK    1  A    between atoms: N1_1  and  N2_4 
REMARK    2  A    between atoms: N2_4  and  C1_6 
REMARK    3  A    between atoms: C2_9  and  N4_10 
REMARK    4  A    between atoms: C7_21  and  N7_22 
REMARK    5  A    between atoms: N7_22  and  C8_24 
ROOT
HETATM    1  C1  UNL     1      48.615 -22.422  -9.157  1.00  0.00     0.725 A 
HETATM    2  N3  UNL     1      47.746 -23.408  -8.886  1.00  0.00    -0.020 N 
ATOM      3  H3  UNL     1      47.213 -23.817  -9.653  1.00  0.00     0.203 HD
HETATM    4  C2  UNL     1      47.552 -23.875  -7.642  1.00  0.00     0.711 A 
HETATM    5  N6  UNL     1      48.277 -23.307  -6.662  1.00  0.00    -0.021 N 
ATOM      6  H6  UNL     1      48.147 -23.647  -5.709  1.00  0.00     0.203 HD
HETATM    7  C7  UNL     1      49.160 -22.321  -6.864  1.00  0.00     0.707 A 
HETATM    8  N8  UNL     1      49.326 -21.879  -8.124  1.00  0.00    -0.020 N 
ATOM      9  H8  UNL     1      49.991 -21.129  -8.310  1.00  0.00     0.203 HD
ENDROOT
BRANCH   4  10
HETATM   10  N4  UNL     1      46.617 -24.934  -7.360  1.00  0.00    -0.182 N 
HETATM   11  C3  UNL     1      46.164 -25.236  -6.043  1.00  0.00     0.172 C 
HETATM   12  C4  UNL     1      44.857 -26.007  -6.170  1.00  0.00     0.253 C 
HETATM   13  N5  UNL     1      44.985 -27.202  -6.945  1.00  0.00    -0.069 N 
HETATM   14  C5  UNL     1      45.976 -27.142  -7.978  1.00  0.00     0.291 C 
ATOM     15  H52 UNL     1      45.155 -28.002  -6.336  1.00  0.00     0.277 HD
ATOM     16  H51 UNL     1      44.082 -27.467  -7.337  1.00  0.00     0.277 HD
HETATM   17  C6  UNL     1      46.121 -25.719  -8.472  1.00  0.00     0.314 C 
HETATM   18  F1  UNL     1      44.919 -25.224  -8.949  1.00  0.00    -0.224 F 
ENDBRANCH   4  10
BRANCH   1  19
HETATM   19  N2  UNL     1      48.801 -21.974 -10.353  1.00  0.00    -0.138 N 
ATOM     20  H2  UNL     1      48.006 -21.881 -10.986  1.00  0.00     0.205 HD
BRANCH  19  21
HETATM   21  N1  UNL     1      50.073 -21.615 -10.789  1.00  0.00    -0.331 N 
ATOM     22  H12 UNL     1      50.827 -21.562 -10.104  1.00  0.00     0.177 HD
ATOM     23  H11 UNL     1      50.248 -21.410 -11.772  1.00  0.00     0.177 HD
ENDBRANCH  19  21
ENDBRANCH   1  19
BRANCH   7  24
HETATM   24  N7  UNL     1      49.846 -21.788  -5.902  1.00  0.00    -0.220 N 
ATOM     25  H7  UNL     1      49.596 -22.029  -4.943  1.00  0.00     0.178 HD
BRANCH  24  26
HETATM   26  C8  UNL     1      50.932 -20.883  -6.106  1.00  0.00     0.099 A 
HETATM   27  C9  UNL     1      51.302 -19.982  -4.936  1.00  0.00     0.028 A 
HETATM   28  C10 UNL     1      52.179 -21.117  -5.340  1.00  0.00     0.028 A 
ENDBRANCH  24  26
ENDBRANCH   7  24
TORSDOF 5
ENDMDL
MODEL 2
REMARK VINA RESULT: -6.944012130      0.959      1.439
REMARK  5 active torsions:
REMARK  status: ('A' for Active; 'I' for Inactive)
REMARK    1  A    between atoms: N1_1  and  N2_4 
REMARK    2  A    between atoms: N2_4  and  C1_6 
REMARK    3  A    between atoms: C2_9  and  N4_10 
REMARK    4  A    between atoms: C7_21  and  N7_22 
REMARK    5  A    between atoms: N7_22  and  C8_24 
ROOT
HETATM    1  C1  UNL     1      48.569 -22.376  -9.183  1.00  0.00     0.725 A 
HETATM    2  N3  UNL     1      47.746 -23.419  -8.989  1.00  0.00    -0.020 N 
ATOM      3  H3  UNL     1      47.245 -23.804  -9.789  1.00  0.00     0.203 HD
HETATM    4  C2  UNL     1      47.559 -23.974  -7.780  1.00  0.00     0.711 A 
HETATM    5  N6  UNL     1      48.242 -23.434  -6.755  1.00  0.00    -0.021 N 
ATOM      6  H6  UNL     1      48.116 -23.840  -5.828  1.00  0.00     0.203 HD
HETATM    7  C7  UNL     1      49.077 -22.395  -6.880  1.00  0.00     0.707 A 
HETATM    8  N8  UNL     1      49.238 -21.866  -8.107  1.00  0.00    -0.020 N 
ATOM      9  H8  UNL     1      49.868 -21.075  -8.235  1.00  0.00     0.203 HD
ENDROOT
BRANCH   4  10
HETATM   10  N4  UNL     1      46.674 -25.092  -7.581  1.00  0.00    -0.182 N 
HETATM   11  C3  UNL     1      46.573 -26.173  -8.506  1.00  0.00     0.172 C 
HETATM   12  C4  UNL     1      45.981 -27.362  -7.762  1.00  0.00     0.253 C 
HETATM   13  N5  UNL     1      44.708 -27.079  -7.177  1.00  0.00    -0.069 N 
HETATM   14  C5  UNL     1      44.524 -25.717  -6.772  1.00  0.00     0.291 C 
ATOM     15  H52 UNL     1      43.957 -27.365  -7.806  1.00  0.00     0.277 HD
ATOM     16  H51 UNL     1      44.530 -27.707  -6.393  1.00  0.00     0.277 HD
HETATM   17  C6  UNL     1      45.856 -25.110  -6.386  1.00  0.00     0.314 C 
HETATM   18  F1  UNL     1      46.461 -25.824  -5.365  1.00  0.00    -0.224 F 
ENDBRANCH   4  10
BRANCH   1  19
HETATM   19  N2  UNL     1      48.747 -21.845 -10.346  1.00  0.00    -0.138 N 
ATOM     20  H2  UNL     1      47.947 -21.481 -10.863  1.00  0.00     0.205 HD
BRANCH  19  21
HETATM   21  N1  UNL     1      50.021 -21.762 -10.902  1.00  0.00    -0.331 N 
ATOM     22  H12 UNL     1      50.316 -22.485 -11.558  1.00  0.00     0.177 HD
ATOM     23  H11 UNL     1      50.646 -20.994 -10.659  1.00  0.00     0.177 HD
ENDBRANCH  19  21
ENDBRANCH   1  19
BRANCH   7  24
HETATM   24  N7  UNL     1      49.724 -21.892  -5.876  1.00  0.00    -0.220 N 
ATOM     25  H7  UNL     1      49.394 -22.109  -4.935  1.00  0.00     0.178 HD
BRANCH  24  26
HETATM   26  C8  UNL     1      50.870 -21.052  -6.008  1.00  0.00     0.099 A 
HETATM   27  C9  UNL     1      51.130 -20.064  -4.880  1.00  0.00     0.028 A 
HETATM   28  C10 UNL     1      51.994 -21.263  -5.065  1.00  0.00     0.028 A 
ENDBRANCH  24  26
ENDBRANCH   7  24
TORSDOF 5
ENDMDL
MODEL 3
REMARK VINA RESULT: -6.669070565      2.579      6.405
REMARK  5 active torsions:
REMARK  status: ('A' for Active; 'I' for Inactive)
REMARK    1  A    between atoms: N1_1  and  N2_4 
REMARK    2  A    between atoms: N2_4  and  C1_6 
REMARK    3  A    between atoms: C2_9  and  N4_10 
REMARK    4  A    between atoms: C7_21  and  N7_22 
REMARK    5  A    between atoms: N7_22  and  C8_24 
ROOT
HETATM    1  C1  UNL     1      49.682 -23.059  -9.560  1.00  0.00     0.725 A 
HETATM    2  N3  UNL     1      50.417 -22.143  -8.910  1.00  0.00    -0.020 N 
ATOM      3  H3  UNL     1      51.193 -21.698  -9.400  1.00  0.00     0.203 HD
HETATM    4  C2  UNL     1      50.169 -21.791  -7.638  1.00  0.00     0.711 A 
HETATM    5  N6  UNL     1      49.136 -22.403  -7.032  1.00  0.00    -0.021 N 
ATOM      6  H6  UNL     1      48.928 -22.151  -6.066  1.00  0.00     0.203 HD
HETATM    7  C7  UNL     1      48.363 -23.324  -7.622  1.00  0.00     0.707 A 
HETATM    8  N8  UNL     1      48.644 -23.651  -8.898  1.00  0.00    -0.020 N 
ATOM      9  H8  UNL     1      48.075 -24.348  -9.375  1.00  0.00     0.203 HD
ENDROOT
BRANCH   4  10
HETATM   10  N4  UNL     1      50.963 -20.808  -6.948  1.00  0.00    -0.182 N 
HETATM   11  C3  UNL     1      51.431 -19.614  -7.573  1.00  0.00     0.172 C 
HETATM   12  C4  UNL     1      51.757 -18.615  -6.472  1.00  0.00     0.253 C 
HETATM   13  N5  UNL     1      52.722 -19.107  -5.538  1.00  0.00    -0.069 N 
HETATM   14  C5  UNL     1      52.696 -20.526  -5.341  1.00  0.00     0.291 C 
ATOM     15  H52 UNL     1      53.659 -18.803  -5.804  1.00  0.00     0.277 HD
ATOM     16  H51 UNL     1      52.627 -18.624  -4.645  1.00  0.00     0.277 HD
HETATM   17  C6  UNL     1      51.294 -21.051  -5.559  1.00  0.00     0.314 C 
HETATM   18  F1  UNL     1      50.388 -20.444  -4.706  1.00  0.00    -0.224 F 
ENDBRANCH   4  10
BRANCH   1  19
HETATM   19  N2  UNL     1      49.923 -23.396 -10.783  1.00  0.00    -0.138 N 
ATOM     20  H2  UNL     1      50.026 -22.673 -11.495  1.00  0.00     0.205 HD
BRANCH  19  21
HETATM   21  N1  UNL     1      50.042 -24.736 -11.140  1.00  0.00    -0.331 N 
ATOM     22  H12 UNL     1      49.386 -25.409 -10.744  1.00  0.00     0.177 HD
ATOM     23  H11 UNL     1      50.771 -25.040 -11.786  1.00  0.00     0.177 HD
ENDBRANCH  19  21
ENDBRANCH   1  19
BRANCH   7  24
HETATM   24  N7  UNL     1      47.374 -23.900  -7.017  1.00  0.00    -0.220 N 
ATOM     25  H7  UNL     1      47.040 -23.490  -6.145  1.00  0.00     0.178 HD
BRANCH  24  26
HETATM   26  C8  UNL     1      46.722 -25.076  -7.498  1.00  0.00     0.099 A 
HETATM   27  C9  UNL     1      45.572 -25.615  -6.659  1.00  0.00     0.028 A 
HETATM   28  C10 UNL     1      45.322 -24.947  -7.967  1.00  0.00     0.028 A 
ENDBRANCH  24  26
ENDBRANCH   7  24
TORSDOF 5
ENDMDL
MODEL 4
REMARK VINA RESULT: -6.549509602      3.578      5.627
REMARK  5 active torsions:
REMARK  status: ('A' for Active; 'I' for Inactive)
REMARK    1  A    between atoms: N1_1  and  N2_4 
REMARK    2  A    between atoms: N2_4  and  C1_6 
REMARK    3  A    between atoms: C2_9  and  N4_10 
REMARK    4  A    between atoms: C7_21  and  N7_22 
REMARK    5  A    between atoms: N7_22  and  C8_24 
ROOT
HETATM    1  C1  UNL     1      52.300 -18.781  -6.301  1.00  0.00     0.725 A 
HETATM    2  N3  UNL     1      51.287 -19.499  -6.813  1.00  0.00    -0.020 N 
ATOM      3  H3  UNL     1      50.339 -19.131  -6.738  1.00  0.00     0.203 HD
HETATM    4  C2  UNL     1      51.477 -20.682  -7.418  1.00  0.00     0.711 A 
HETATM    5  N6  UNL     1      52.744 -21.126  -7.494  1.00  0.00    -0.021 N 
ATOM      6  H6  UNL     1      52.912 -22.023  -7.951  1.00  0.00     0.203 HD
HETATM    7  C7  UNL     1      53.798 -20.461  -7.006  1.00  0.00     0.707 A 
HETATM    8  N8  UNL     1      53.568 -19.279  -6.406  1.00  0.00    -0.020 N 
ATOM      9  H8  UNL     1      54.350 -18.748  -6.024  1.00  0.00     0.203 HD
ENDROOT
BRANCH   4  10
HETATM   10  N4  UNL     1      50.384 -21.445  -7.963  1.00  0.00    -0.182 N 
HETATM   11  C3  UNL     1      49.476 -22.186  -7.151  1.00  0.00     0.172 C 
HETATM   12  C4  UNL     1      48.210 -22.414  -7.965  1.00  0.00     0.253 C 
HETATM   13  N5  UNL     1      48.453 -23.096  -9.199  1.00  0.00    -0.069 N 
HETATM   14  C5  UNL     1      49.737 -22.840  -9.781  1.00  0.00     0.291 C 
ATOM     15  H52 UNL     1      48.310 -24.099  -9.083  1.00  0.00     0.277 HD
ATOM     16  H51 UNL     1      47.713 -22.888  -9.869  1.00  0.00     0.277 HD
HETATM   17  C6  UNL     1      50.208 -21.453  -9.402  1.00  0.00     0.314 C 
HETATM   18  F1  UNL     1      49.309 -20.483  -9.811  1.00  0.00    -0.224 F 
ENDBRANCH   4  10
BRANCH   1  19
HETATM   19  N2  UNL     1      52.116 -17.643  -5.720  1.00  0.00    -0.138 N 
ATOM     20  H2  UNL     1      51.942 -17.612  -4.715  1.00  0.00     0.205 HD
BRANCH  19  21
HETATM   21  N1  UNL     1      52.152 -16.458  -6.448  1.00  0.00    -0.331 N 
ATOM     22  H12 UNL     1      51.754 -16.449  -7.388  1.00  0.00     0.177 HD
ATOM     23  H11 UNL     1      52.568 -15.615  -6.052  1.00  0.00     0.177 HD
ENDBRANCH  19  21
ENDBRANCH   1  19
BRANCH   7  24
HETATM   24  N7  UNL     1      55.010 -20.911  -7.091  1.00  0.00    -0.220 N 
ATOM     25  H7  UNL     1      55.625 -20.504  -7.796  1.00  0.00     0.178 HD
BRANCH  24  26
HETATM   26  C8  UNL     1      55.537 -21.942  -6.255  1.00  0.00     0.099 A 
HETATM   27  C9  UNL     1      57.051 -21.999  -6.109  1.00  0.00     0.028 A 
HETATM   28  C10 UNL     1      56.187 -21.537  -4.986  1.00  0.00     0.028 A 
ENDBRANCH  24  26
ENDBRANCH   7  24
TORSDOF 5
ENDMDL
MODEL 5
REMARK VINA RESULT: -6.537832993      2.666      6.386
REMARK  5 active torsions:
REMARK  status: ('A' for Active; 'I' for Inactive)
REMARK    1  A    between atoms: N1_1  and  N2_4 
REMARK    2  A    between atoms: N2_4  and  C1_6 
REMARK    3  A    between atoms: C2_9  and  N4_10 
REMARK    4  A    between atoms: C7_21  and  N7_22 
REMARK    5  A    between atoms: N7_22  and  C8_24 
ROOT
HETATM    1  C1  UNL     1      49.665 -23.054  -9.516  1.00  0.00     0.725 A 
HETATM    2  N3  UNL     1      50.352 -22.194  -8.747  1.00  0.00    -0.020 N 
ATOM      3  H3  UNL     1      51.153 -21.708  -9.149  1.00  0.00     0.203 HD
HETATM    4  C2  UNL     1      50.022 -21.950  -7.469  1.00  0.00     0.711 A 
HETATM    5  N6  UNL     1      48.958 -22.613  -6.981  1.00  0.00    -0.021 N 
ATOM      6  H6  UNL     1      48.689 -22.443  -6.012  1.00  0.00     0.203 HD
HETATM    7  C7  UNL     1      48.231 -23.484  -7.693  1.00  0.00     0.707 A 
HETATM    8  N8  UNL     1      48.593 -23.701  -8.971  1.00  0.00    -0.020 N 
ATOM      9  H8  UNL     1      48.059 -24.358  -9.540  1.00  0.00     0.203 HD
ENDROOT
BRANCH   4  10
HETATM   10  N4  UNL     1      50.764 -21.026  -6.651  1.00  0.00    -0.182 N 
HETATM   11  C3  UNL     1      50.674 -21.006  -5.228  1.00  0.00     0.172 C 
HETATM   12  C4  UNL     1      51.920 -20.311  -4.697  1.00  0.00     0.253 C 
HETATM   13  N5  UNL     1      52.083 -18.986  -5.209  1.00  0.00    -0.069 N 
HETATM   14  C5  UNL     1      51.564 -18.787  -6.529  1.00  0.00     0.291 C 
ATOM     15  H52 UNL     1      51.682 -18.305  -4.564  1.00  0.00     0.277 HD
ATOM     16  H51 UNL     1      53.064 -18.710  -5.170  1.00  0.00     0.277 HD
HETATM   17  C6  UNL     1      51.638 -20.079  -7.313  1.00  0.00     0.314 C 
HETATM   18  F1  UNL     1      52.937 -20.552  -7.389  1.00  0.00    -0.224 F 
ENDBRANCH   4  10
BRANCH   1  19
HETATM   19  N2  UNL     1      49.984 -23.287 -10.745  1.00  0.00    -0.138 N 
ATOM     20  H2  UNL     1      50.165 -22.506 -11.376  1.00  0.00     0.205 HD
BRANCH  19  21
HETATM   21  N1  UNL     1      50.082 -24.592 -11.219  1.00  0.00    -0.331 N 
ATOM     22  H12 UNL     1      49.318 -24.968 -11.781  1.00  0.00     0.177 HD
ATOM     23  H11 UNL     1      50.902 -25.162 -11.010  1.00  0.00     0.177 HD
ENDBRANCH  19  21
ENDBRANCH   1  19
BRANCH   7  24
HETATM   24  N7  UNL     1      47.210 -24.111  -7.201  1.00  0.00    -0.220 N 
ATOM     25  H7  UNL     1      46.824 -23.780  -6.317  1.00  0.00     0.178 HD
BRANCH  24  26
HETATM   26  C8  UNL     1      46.594 -25.239  -7.822  1.00  0.00     0.099 A 
HETATM   27  C9  UNL     1      45.427 -25.877  -7.081  1.00  0.00     0.028 A 
HETATM   28  C10 UNL     1      45.208 -25.081  -8.321  1.00  0.00     0.028 A 
ENDBRANCH  24  26
ENDBRANCH   7  24
TORSDOF 5
ENDMDL
