MODEL 1
REMARK VINA RESULT: -6.999798756      0.000      0.000
REMARK  6 active torsions:
REMARK  status: ('A' for Active; 'I' for Inactive)
REMARK    1  A    between atoms: C3_3  and  N1_4 
REMARK    2  A    between atoms: C6_12  and  C7_14 
REMARK    3  A    between atoms: C7_14  and  O2_15 
REMARK    4  A    between atoms: C7_14  and  C8_17 
REMARK    5  A    between atoms: C8_17  and  O3_18 
REMARK    6  A    between atoms: C9_20  and  N3_21 
ROOT
HETATM    1  C1  UNL     1      50.525 -21.551  -6.859  1.00  0.00     0.015 C 
HETATM    2  C2  UNL     1      51.655 -21.142  -6.775  1.00  0.00    -0.073 C 
HETATM    3  C3  UNL     1      53.037 -20.616  -6.660  1.00  0.00     0.241 C 
HETATM    4  C4  UNL     1      53.481 -20.178  -8.006  1.00  0.00     0.281 C 
HETATM    5  C5  UNL     1      52.348 -20.174  -8.966  1.00  0.00     0.095 C 
HETATM    6  N2  UNL     1      51.463 -20.153  -9.706  1.00  0.00    -0.194 NA
HETATM    7  O1  UNL     1      54.174 -18.995  -8.049  1.00  0.00    -0.324 OA
HETATM    8  C6  UNL     1      53.546 -17.925  -7.458  1.00  0.00     0.264 C 
HETATM    9  F1  UNL     1      52.665 -17.386  -8.404  1.00  0.00    -0.206 F 
HETATM   10  C9  UNL     1      52.809 -18.207  -6.206  1.00  0.00     0.274 C 
HETATM   11  C10 UNL     1      53.107 -19.555  -5.596  1.00  0.00     0.181 C 
HETATM   12  C11 UNL     1      52.022 -19.825  -4.631  1.00  0.00     0.070 C 
HETATM   13  N4  UNL     1      51.183 -20.019  -3.868  1.00  0.00    -0.197 NA
ENDROOT
BRANCH   3  14
HETATM   14  N1  UNL     1      53.829 -21.752  -6.160  1.00  0.00    -0.054 N 
ATOM     15  H13 UNL     1      53.528 -22.098  -5.249  1.00  0.00     0.276 HD
ATOM     16  H12 UNL     1      53.674 -22.622  -6.670  1.00  0.00     0.276 HD
ATOM     17  H11 UNL     1      54.794 -21.424  -6.181  1.00  0.00     0.276 HD
ENDBRANCH   3  14
BRANCH  10  18
HETATM   18  N3  UNL     1      52.963 -17.195  -5.181  1.00  0.00    -0.068 N 
ATOM     19  H33 UNL     1      53.618 -16.475  -5.487  1.00  0.00     0.275 HD
ATOM     20  H32 UNL     1      52.114 -16.636  -5.102  1.00  0.00     0.275 HD
ATOM     21  H31 UNL     1      53.236 -17.559  -4.268  1.00  0.00     0.275 HD
ENDBRANCH  10  18
BRANCH   8  22
HETATM   22  C7  UNL     1      54.584 -16.854  -7.216  1.00  0.00     0.211 C 
BRANCH  22  23
HETATM   23  O2  UNL     1      54.596 -16.083  -8.397  1.00  0.00    -0.388 OA
ATOM     24  H2  UNL     1      53.687 -16.031  -8.667  1.00  0.00     0.210 HD
ENDBRANCH  22  23
BRANCH  22  25
HETATM   25  C8  UNL     1      55.978 -17.411  -7.045  1.00  0.00     0.201 C 
BRANCH  25  26
HETATM   26  O3  UNL     1      56.098 -17.848  -5.727  1.00  0.00    -0.398 OA
ATOM     27  H3  UNL     1      57.024 -17.961  -5.545  1.00  0.00     0.209 HD
ENDBRANCH  25  26
ENDBRANCH  22  25
ENDBRANCH   8  22
TORSDOF 6
ENDMDL
MODEL 2
REMARK VINA RESULT: -6.872079915      2.345      3.349
REMARK  6 active torsions:
REMARK  status: ('A' for Active; 'I' for Inactive)
REMARK    1  A    between atoms: C3_3  and  N1_4 
REMARK    2  A    between atoms: C6_12  and  C7_14 
REMARK    3  A    between atoms: C7_14  and  O2_15 
REMARK    4  A    between atoms: C7_14  and  C8_17 
REMARK    5  A    between atoms: C8_17  and  O3_18 
REMARK    6  A    between atoms: C9_20  and  N3_21 
ROOT
HETATM    1  C1  UNL     1      51.568 -19.453  -6.204  1.00  0.00     0.015 C 
HETATM    2  C2  UNL     1      52.677 -19.080  -5.920  1.00  0.00    -0.073 C 
HETATM    3  C3  UNL     1      54.045 -18.607  -5.592  1.00  0.00     0.241 C 
HETATM    4  C4  UNL     1      54.983 -19.744  -5.766  1.00  0.00     0.281 C 
HETATM    5  C5  UNL     1      54.314 -20.890  -6.431  1.00  0.00     0.095 C 
HETATM    6  N2  UNL     1      53.798 -21.774  -6.965  1.00  0.00    -0.194 NA
HETATM    7  O1  UNL     1      56.177 -19.443  -6.372  1.00  0.00    -0.324 OA
HETATM    8  C6  UNL     1      56.075 -18.809  -7.587  1.00  0.00     0.264 C 
HETATM    9  F1  UNL     1      55.886 -19.800  -8.559  1.00  0.00    -0.206 F 
HETATM   10  C9  UNL     1      55.004 -17.794  -7.709  1.00  0.00     0.274 C 
HETATM   11  C10 UNL     1      54.382 -17.382  -6.396  1.00  0.00     0.181 C 
HETATM   12  C11 UNL     1      53.111 -16.709  -6.731  1.00  0.00     0.070 C 
HETATM   13  N4  UNL     1      52.131 -16.171  -7.001  1.00  0.00    -0.197 NA
ENDROOT
BRANCH   3  14
HETATM   14  N1  UNL     1      53.963 -18.168  -4.190  1.00  0.00    -0.054 N 
ATOM     15  H13 UNL     1      53.140 -17.604  -3.979  1.00  0.00     0.276 HD
ATOM     16  H12 UNL     1      53.758 -18.920  -3.531  1.00  0.00     0.276 HD
ATOM     17  H11 UNL     1      54.848 -17.692  -4.015  1.00  0.00     0.276 HD
ENDBRANCH   3  14
BRANCH  10  18
HETATM   18  N3  UNL     1      55.394 -16.598  -8.428  1.00  0.00    -0.068 N 
ATOM     19  H33 UNL     1      56.008 -16.021  -7.852  1.00  0.00     0.275 HD
ATOM     20  H32 UNL     1      56.034 -16.831  -9.186  1.00  0.00     0.275 HD
ATOM     21  H31 UNL     1      54.613 -16.045  -8.780  1.00  0.00     0.275 HD
ENDBRANCH  10  18
BRANCH   8  22
HETATM   22  C7  UNL     1      57.415 -18.186  -7.899  1.00  0.00     0.211 C 
BRANCH  22  23
HETATM   23  O2  UNL     1      58.107 -19.162  -8.646  1.00  0.00    -0.388 OA
ATOM     24  H2  UNL     1      58.856 -18.707  -9.012  1.00  0.00     0.210 HD
ENDBRANCH  22  23
BRANCH  22  25
HETATM   25  C8  UNL     1      58.242 -17.915  -6.664  1.00  0.00     0.201 C 
BRANCH  25  26
HETATM   26  O3  UNL     1      57.797 -16.714  -6.114  1.00  0.00    -0.398 OA
ATOM     27  H3  UNL     1      57.864 -16.047  -6.787  1.00  0.00     0.209 HD
ENDBRANCH  25  26
ENDBRANCH  22  25
ENDBRANCH   8  22
TORSDOF 6
ENDMDL
MODEL 3
REMARK VINA RESULT: -6.713667405      2.267      3.697
REMARK  6 active torsions:
REMARK  status: ('A' for Active; 'I' for Inactive)
REMARK    1  A    between atoms: C3_3  and  N1_4 
REMARK    2  A    between atoms: C6_12  and  C7_14 
REMARK    3  A    between atoms: C7_14  and  O2_15 
REMARK    4  A    between atoms: C7_14  and  C8_17 
REMARK    5  A    between atoms: C8_17  and  O3_18 
REMARK    6  A    between atoms: C9_20  and  N3_21 
ROOT
HETATM    1  C1  UNL     1      52.160 -20.325  -6.060  1.00  0.00     0.015 C 
HETATM    2  C2  UNL     1      52.895 -19.395  -5.853  1.00  0.00    -0.073 C 
HETATM    3  C3  UNL     1      53.805 -18.245  -5.623  1.00  0.00     0.241 C 
HETATM    4  C4  UNL     1      55.103 -18.771  -5.134  1.00  0.00     0.281 C 
HETATM    5  C5  UNL     1      55.162 -20.249  -5.262  1.00  0.00     0.095 C 
HETATM    6  N2  UNL     1      55.214 -21.396  -5.380  1.00  0.00    -0.194 NA
HETATM    7  O1  UNL     1      56.222 -18.179  -5.663  1.00  0.00    -0.324 OA
HETATM    8  C6  UNL     1      56.282 -18.159  -7.036  1.00  0.00     0.264 C 
HETATM    9  F1  UNL     1      56.798 -19.394  -7.448  1.00  0.00    -0.206 F 
HETATM   10  C9  UNL     1      55.008 -17.900  -7.743  1.00  0.00     0.274 C 
HETATM   11  C10 UNL     1      53.894 -17.393  -6.859  1.00  0.00     0.181 C 
HETATM   12  C11 UNL     1      52.641 -17.581  -7.618  1.00  0.00     0.070 C 
HETATM   13  N4  UNL     1      51.672 -17.715  -8.222  1.00  0.00    -0.197 NA
ENDROOT
BRANCH   3  14
HETATM   14  N1  UNL     1      53.123 -17.427  -4.607  1.00  0.00    -0.054 N 
ATOM     15  H13 UNL     1      53.283 -16.424  -4.706  1.00  0.00     0.276 HD
ATOM     16  H12 UNL     1      52.109 -17.391  -4.715  1.00  0.00     0.276 HD
ATOM     17  H11 UNL     1      53.433 -17.811  -3.714  1.00  0.00     0.276 HD
ENDBRANCH   3  14
BRANCH  10  18
HETATM   18  N3  UNL     1      55.127 -17.015  -8.884  1.00  0.00    -0.068 N 
ATOM     19  H33 UNL     1      54.292 -17.073  -9.467  1.00  0.00     0.275 HD
ATOM     20  H32 UNL     1      55.067 -16.042  -8.588  1.00  0.00     0.275 HD
ATOM     21  H31 UNL     1      55.965 -17.164  -9.447  1.00  0.00     0.275 HD
ENDBRANCH  10  18
BRANCH   8  22
HETATM   22  C7  UNL     1      57.314 -17.133  -7.439  1.00  0.00     0.211 C 
BRANCH  22  23
HETATM   23  O2  UNL     1      58.181 -17.812  -8.320  1.00  0.00    -0.388 OA
ATOM     24  H2  UNL     1      58.772 -17.145  -8.649  1.00  0.00     0.210 HD
ENDBRANCH  22  23
BRANCH  22  25
HETATM   25  C8  UNL     1      58.157 -16.654  -6.280  1.00  0.00     0.201 C 
BRANCH  25  26
HETATM   26  O3  UNL     1      58.016 -15.271  -6.199  1.00  0.00    -0.398 OA
ATOM     27  H3  UNL     1      58.625 -14.883  -6.816  1.00  0.00     0.209 HD
ENDBRANCH  25  26
ENDBRANCH  22  25
ENDBRANCH   8  22
TORSDOF 6
ENDMDL
MODEL 4
REMARK VINA RESULT: -6.592593518      3.040      5.181
REMARK  6 active torsions:
REMARK  status: ('A' for Active; 'I' for Inactive)
REMARK    1  A    between atoms: C3_3  and  N1_4 
REMARK    2  A    between atoms: C6_12  and  C7_14 
REMARK    3  A    between atoms: C7_14  and  O2_15 
REMARK    4  A    between atoms: C7_14  and  C8_17 
REMARK    5  A    between atoms: C8_17  and  O3_18 
REMARK    6  A    between atoms: C9_20  and  N3_21 
ROOT
HETATM    1  C1  UNL     1      57.847 -18.259  -9.570  1.00  0.00     0.015 C 
HETATM    2  C2  UNL     1      57.616 -18.239  -8.389  1.00  0.00    -0.073 C 
HETATM    3  C3  UNL     1      57.322 -18.240  -6.934  1.00  0.00     0.241 C 
HETATM    4  C4  UNL     1      56.115 -17.409  -6.705  1.00  0.00     0.281 C 
HETATM    5  C5  UNL     1      55.459 -17.055  -7.989  1.00  0.00     0.095 C 
HETATM    6  N2  UNL     1      54.939 -16.796  -8.986  1.00  0.00    -0.194 NA
HETATM    7  O1  UNL     1      55.209 -17.911  -5.804  1.00  0.00    -0.324 OA
HETATM    8  C6  UNL     1      54.781 -19.192  -6.054  1.00  0.00     0.264 C 
HETATM    9  F1  UNL     1      53.737 -19.107  -6.983  1.00  0.00    -0.206 F 
HETATM   10  C9  UNL     1      55.803 -20.139  -6.552  1.00  0.00     0.274 C 
HETATM   11  C10 UNL     1      57.225 -19.650  -6.420  1.00  0.00     0.181 C 
HETATM   12  C11 UNL     1      58.043 -20.501  -7.307  1.00  0.00     0.070 C 
HETATM   13  N4  UNL     1      58.675 -21.180  -7.988  1.00  0.00    -0.197 NA
ENDROOT
BRANCH   3  14
HETATM   14  N1  UNL     1      58.521 -17.656  -6.311  1.00  0.00    -0.054 N 
ATOM     15  H13 UNL     1      59.394 -18.102  -6.593  1.00  0.00     0.276 HD
ATOM     16  H12 UNL     1      58.754 -16.723  -6.652  1.00  0.00     0.276 HD
ATOM     17  H11 UNL     1      58.338 -17.699  -5.308  1.00  0.00     0.276 HD
ENDBRANCH   3  14
BRANCH  10  18
HETATM   18  N3  UNL     1      55.719 -21.466  -5.976  1.00  0.00    -0.068 N 
ATOM     19  H33 UNL     1      56.071 -21.461  -5.018  1.00  0.00     0.275 HD
ATOM     20  H32 UNL     1      54.747 -21.719  -5.804  1.00  0.00     0.275 HD
ATOM     21  H31 UNL     1      56.184 -22.192  -6.521  1.00  0.00     0.275 HD
ENDBRANCH  10  18
BRANCH   8  22
HETATM   22  C7  UNL     1      54.154 -19.726  -4.788  1.00  0.00     0.211 C 
BRANCH  22  23
HETATM   23  O2  UNL     1      52.958 -20.346  -5.205  1.00  0.00    -0.388 OA
ATOM     24  H2  UNL     1      52.955 -21.192  -4.774  1.00  0.00     0.210 HD
ENDBRANCH  22  23
BRANCH  22  25
HETATM   25  C8  UNL     1      53.766 -18.638  -3.815  1.00  0.00     0.201 C 
BRANCH  25  26
HETATM   26  O3  UNL     1      52.831 -17.821  -4.448  1.00  0.00    -0.398 OA
ATOM     27  H3  UNL     1      52.585 -17.137  -3.836  1.00  0.00     0.209 HD
ENDBRANCH  25  26
ENDBRANCH  22  25
ENDBRANCH   8  22
TORSDOF 6
ENDMDL
MODEL 5
REMARK VINA RESULT: -6.535244702      2.660      4.521
REMARK  6 active torsions:
REMARK  status: ('A' for Active; 'I' for Inactive)
REMARK    1  A    between atoms: C3_3  and  N1_4 
REMARK    2  A    between atoms: C6_12  and  C7_14 
REMARK    3  A    between atoms: C7_14  and  O2_15 
REMARK    4  A    between atoms: C7_14  and  C8_17 
REMARK    5  A    between atoms: C8_17  and  O3_18 
REMARK    6  A    between atoms: C9_20  and  N3_21 
ROOT
HETATM    1  C1  UNL     1      58.409 -20.598  -6.742  1.00  0.00     0.015 C 
HETATM    2  C2  UNL     1      57.268 -20.474  -6.377  1.00  0.00    -0.073 C 
HETATM    3  C3  UNL     1      55.854 -20.324  -5.953  1.00  0.00     0.241 C 
HETATM    4  C4  UNL     1      55.623 -18.900  -5.608  1.00  0.00     0.281 C 
HETATM    5  C5  UNL     1      56.773 -18.057  -6.022  1.00  0.00     0.095 C 
HETATM    6  N2  UNL     1      57.659 -17.400  -6.361  1.00  0.00    -0.194 NA
HETATM    7  O1  UNL     1      54.434 -18.368  -6.041  1.00  0.00    -0.324 OA
HETATM    8  C6  UNL     1      54.183 -18.508  -7.385  1.00  0.00     0.264 C 
HETATM    9  F1  UNL     1      54.836 -17.458  -8.042  1.00  0.00    -0.206 F 
HETATM   10  C9  UNL     1      54.587 -19.795  -7.996  1.00  0.00     0.274 C 
HETATM   11  C10 UNL     1      54.930 -20.878  -7.002  1.00  0.00     0.181 C 
HETATM   12  C11 UNL     1      55.678 -21.908  -7.751  1.00  0.00     0.070 C 
HETATM   13  N4  UNL     1      56.245 -22.714  -8.344  1.00  0.00    -0.197 NA
ENDROOT
BRANCH   3  14
HETATM   14  N1  UNL     1      55.721 -21.205  -4.781  1.00  0.00    -0.054 N 
ATOM     15  H13 UNL     1      54.940 -20.966  -4.170  1.00  0.00     0.276 HD
ATOM     16  H12 UNL     1      55.407 -22.149  -5.005  1.00  0.00     0.276 HD
ATOM     17  H11 UNL     1      56.632 -21.166  -4.323  1.00  0.00     0.276 HD
ENDBRANCH   3  14
BRANCH  10  18
HETATM   18  N3  UNL     1      53.633 -20.330  -8.947  1.00  0.00    -0.068 N 
ATOM     19  H33 UNL     1      54.066 -21.063  -9.510  1.00  0.00     0.275 HD
ATOM     20  H32 UNL     1      52.920 -20.877  -8.466  1.00  0.00     0.275 HD
ATOM     21  H31 UNL     1      53.199 -19.629  -9.548  1.00  0.00     0.275 HD
ENDBRANCH  10  18
BRANCH   8  22
HETATM   22  C7  UNL     1      52.708 -18.271  -7.608  1.00  0.00     0.211 C 
BRANCH  22  23
HETATM   23  O2  UNL     1      52.635 -17.506  -8.790  1.00  0.00    -0.388 OA
ATOM     24  H2  UNL     1      51.759 -17.140  -8.794  1.00  0.00     0.210 HD
ENDBRANCH  22  23
BRANCH  22  25
HETATM   25  C8  UNL     1      52.070 -17.447  -6.515  1.00  0.00     0.201 C 
BRANCH  25  26
HETATM   26  O3  UNL     1      52.280 -16.104  -6.822  1.00  0.00    -0.398 OA
ATOM     27  H3  UNL     1      51.475 -15.764  -7.194  1.00  0.00     0.209 HD
ENDBRANCH  25  26
ENDBRANCH  22  25
ENDBRANCH   8  22
TORSDOF 6
ENDMDL
