MODEL 1
REMARK VINA RESULT: -6.859591651      0.000      0.000
REMARK  0 active torsions:
REMARK  status: ('A' for Active; 'I' for Inactive)
ROOT
HETATM    1  O1  UNL     1      28.221   4.615  56.117  1.00  0.00    -0.247 OA
HETATM    2  C1  UNL     1      29.364   5.126  55.981  1.00  0.00     0.323 C 
HETATM    3  N1  UNL     1      30.443   4.486  55.309  1.00  0.00    -0.277 N 
ATOM      4  H1  UNL     1      30.432   3.567  54.867  1.00  0.00     0.173 HD
HETATM    5  C2  UNL     1      31.546   5.392  55.378  1.00  0.00     0.255 C 
HETATM    6  O2  UNL     1      32.517   5.478  54.590  1.00  0.00    -0.270 OA
HETATM    7  C3  UNL     1      31.272   6.213  56.611  1.00  0.00     0.140 C 
HETATM    8  C4  UNL     1      32.031   7.470  56.468  1.00  0.00     0.044 C 
HETATM    9  C5  UNL     1      32.481   8.119  57.723  1.00  0.00     0.031 C 
HETATM   10  C6  UNL     1      32.008   7.428  58.973  1.00  0.00     0.239 C 
HETATM   11  N2  UNL     1      32.157   5.997  58.912  1.00  0.00    -0.039 N 
HETATM   12  C7  UNL     1      31.559   5.465  60.144  1.00  0.00     0.267 C 
HETATM   13  C8  UNL     1      32.629   4.636  60.784  1.00  0.00     0.262 C 
HETATM   14  N3  UNL     1      33.839   5.319  60.367  1.00  0.00    -0.049 N 
ATOM     15  H31 UNL     1      34.695   4.781  60.501  1.00  0.00     0.279 HD
ATOM     16  H32 UNL     1      34.109   6.101  60.965  1.00  0.00     0.279 HD
HETATM   17  C9  UNL     1      33.573   5.676  59.012  1.00  0.00     0.467 C 
HETATM   18  C10 UNL     1      31.583   5.367  57.787  1.00  0.00     0.280 C 
HETATM   19  N4  UNL     1      29.832   6.390  56.439  1.00  0.00    -0.323 N 
ATOM     20  H4  UNL     1      29.284   7.232  56.608  1.00  0.00     0.165 HD
ENDROOT
TORSDOF 0
ENDMDL
MODEL 2
REMARK VINA RESULT: -6.131898087      2.267      4.804
REMARK  0 active torsions:
REMARK  status: ('A' for Active; 'I' for Inactive)
ROOT
HETATM    1  O1  UNL     1      35.714   4.397  58.718  1.00  0.00    -0.247 OA
HETATM    2  C1  UNL     1      34.605   4.899  59.039  1.00  0.00     0.323 C 
HETATM    3  N1  UNL     1      33.646   4.244  59.862  1.00  0.00    -0.277 N 
ATOM      4  H1  UNL     1      33.729   3.318  60.282  1.00  0.00     0.173 HD
HETATM    5  C2  UNL     1      32.543   5.143  59.981  1.00  0.00     0.255 C 
HETATM    6  O2  UNL     1      31.707   5.212  60.912  1.00  0.00    -0.270 OA
HETATM    7  C3  UNL     1      32.618   5.985  58.733  1.00  0.00     0.140 C 
HETATM    8  C4  UNL     1      31.887   7.235  59.013  1.00  0.00     0.044 C 
HETATM    9  C5  UNL     1      31.243   7.901  57.855  1.00  0.00     0.031 C 
HETATM   10  C6  UNL     1      31.517   7.231  56.536  1.00  0.00     0.239 C 
HETATM   11  N2  UNL     1      31.384   5.799  56.596  1.00  0.00    -0.039 N 
HETATM   12  C7  UNL     1      31.783   5.290  55.278  1.00  0.00     0.267 C 
HETATM   13  C8  UNL     1      30.629   4.465  54.800  1.00  0.00     0.262 C 
HETATM   14  N3  UNL     1      29.497   5.134  55.412  1.00  0.00    -0.049 N 
ATOM     15  H31 UNL     1      28.633   4.594  55.405  1.00  0.00     0.279 HD
ATOM     16  H32 UNL     1      29.134   5.924  54.877  1.00  0.00     0.279 HD
HETATM   17  C9  UNL     1      29.971   5.472  56.714  1.00  0.00     0.467 C 
HETATM   18  C10 UNL     1      32.129   5.156  57.607  1.00  0.00     0.280 C 
HETATM   19  N4  UNL     1      34.066   6.167  58.681  1.00  0.00    -0.323 N 
ATOM     20  H4  UNL     1      34.578   7.016  58.441  1.00  0.00     0.165 HD
ENDROOT
TORSDOF 0
ENDMDL
MODEL 3
REMARK VINA RESULT: -5.776586155      1.444      1.773
REMARK  0 active torsions:
REMARK  status: ('A' for Active; 'I' for Inactive)
ROOT
HETATM    1  O1  UNL     1      29.879   4.084  55.284  1.00  0.00    -0.247 OA
HETATM    2  C1  UNL     1      30.406   5.133  55.740  1.00  0.00     0.323 C 
HETATM    3  N1  UNL     1      31.325   5.940  55.011  1.00  0.00    -0.277 N 
ATOM      4  H1  UNL     1      31.662   5.780  54.061  1.00  0.00     0.173 HD
HETATM    5  C2  UNL     1      31.680   7.019  55.877  1.00  0.00     0.255 C 
HETATM    6  O2  UNL     1      32.074   8.163  55.553  1.00  0.00    -0.270 OA
HETATM    7  C3  UNL     1      31.470   6.464  57.262  1.00  0.00     0.140 C 
HETATM    8  C4  UNL     1      31.295   7.617  58.165  1.00  0.00     0.044 C 
HETATM    9  C5  UNL     1      31.732   7.431  59.570  1.00  0.00     0.031 C 
HETATM   10  C6  UNL     1      32.213   6.040  59.882  1.00  0.00     0.239 C 
HETATM   11  N2  UNL     1      33.091   5.510  58.870  1.00  0.00    -0.039 N 
HETATM   12  C7  UNL     1      33.383   4.125  59.259  1.00  0.00     0.267 C 
HETATM   13  C8  UNL     1      34.876   4.030  59.313  1.00  0.00     0.262 C 
HETATM   14  N3  UNL     1      35.257   5.373  59.704  1.00  0.00    -0.049 N 
ATOM     15  H31 UNL     1      36.245   5.588  59.570  1.00  0.00     0.279 HD
ATOM     16  H32 UNL     1      35.246   5.539  60.711  1.00  0.00     0.279 HD
HETATM   17  C9  UNL     1      34.367   6.204  58.960  1.00  0.00     0.467 C 
HETATM   18  C10 UNL     1      32.597   5.547  57.549  1.00  0.00     0.280 C 
HETATM   19  N4  UNL     1      30.228   5.734  57.017  1.00  0.00    -0.323 N 
ATOM     20  H4  UNL     1      29.414   5.669  57.628  1.00  0.00     0.165 HD
ENDROOT
TORSDOF 0
ENDMDL
MODEL 4
REMARK VINA RESULT: -5.359870623      3.208      4.454
REMARK  0 active torsions:
REMARK  status: ('A' for Active; 'I' for Inactive)
ROOT
HETATM    1  O1  UNL     1      31.511   4.780  57.988  1.00  0.00    -0.247 OA
HETATM    2  C1  UNL     1      32.684   4.784  58.447  1.00  0.00     0.323 C 
HETATM    3  N1  UNL     1      33.156   3.862  59.423  1.00  0.00    -0.277 N 
ATOM      4  H1  UNL     1      32.626   3.108  59.861  1.00  0.00     0.173 HD
HETATM    5  C2  UNL     1      34.521   4.206  59.667  1.00  0.00     0.255 C 
HETATM    6  O2  UNL     1      35.438   3.456  60.075  1.00  0.00    -0.270 OA
HETATM    7  C3  UNL     1      34.599   5.670  59.322  1.00  0.00     0.140 C 
HETATM    8  C4  UNL     1      36.015   5.969  59.034  1.00  0.00     0.044 C 
HETATM    9  C5  UNL     1      36.473   7.349  59.325  1.00  0.00     0.031 C 
HETATM   10  C6  UNL     1      35.380   8.271  59.793  1.00  0.00     0.239 C 
HETATM   11  N2  UNL     1      34.523   7.668  60.781  1.00  0.00    -0.039 N 
HETATM   12  C7  UNL     1      33.457   8.640  61.053  1.00  0.00     0.267 C 
HETATM   13  C8  UNL     1      33.484   8.860  62.534  1.00  0.00     0.262 C 
HETATM   14  N3  UNL     1      34.886   8.666  62.849  1.00  0.00    -0.049 N 
ATOM     15  H31 UNL     1      35.082   8.540  63.842  1.00  0.00     0.279 HD
ATOM     16  H32 UNL     1      35.465   9.498  62.730  1.00  0.00     0.279 HD
HETATM   17  C9  UNL     1      35.264   7.561  62.029  1.00  0.00     0.467 C 
HETATM   18  C10 UNL     1      33.962   6.422  60.428  1.00  0.00     0.280 C 
HETATM   19  N4  UNL     1      33.762   5.656  58.126  1.00  0.00    -0.323 N 
ATOM     20  H4  UNL     1      33.915   6.161  57.253  1.00  0.00     0.165 HD
ENDROOT
TORSDOF 0
ENDMDL
MODEL 5
REMARK VINA RESULT: -5.355333232      2.915      3.944
REMARK  0 active torsions:
REMARK  status: ('A' for Active; 'I' for Inactive)
ROOT
HETATM    1  O1  UNL     1      31.224   4.596  61.485  1.00  0.00    -0.247 OA
HETATM    2  C1  UNL     1      31.730   5.107  60.451  1.00  0.00     0.323 C 
HETATM    3  N1  UNL     1      32.310   4.349  59.395  1.00  0.00    -0.277 N 
ATOM      4  H1  UNL     1      32.387   3.333  59.340  1.00  0.00     0.173 HD
HETATM    5  C2  UNL     1      32.761   5.297  58.427  1.00  0.00     0.255 C 
HETATM    6  O2  UNL     1      32.914   5.121  57.195  1.00  0.00    -0.270 OA
HETATM    7  C3  UNL     1      33.009   6.550  59.226  1.00  0.00     0.140 C 
HETATM    8  C4  UNL     1      32.957   7.681  58.281  1.00  0.00     0.044 C 
HETATM    9  C5  UNL     1      33.784   8.865  58.617  1.00  0.00     0.031 C 
HETATM   10  C6  UNL     1      34.492   8.761  59.941  1.00  0.00     0.239 C 
HETATM   11  N2  UNL     1      35.111   7.477  60.145  1.00  0.00    -0.039 N 
HETATM   12  C7  UNL     1      35.660   7.494  61.507  1.00  0.00     0.267 C 
HETATM   13  C8  UNL     1      37.110   7.153  61.360  1.00  0.00     0.262 C 
HETATM   14  N3  UNL     1      37.424   7.698  60.053  1.00  0.00    -0.049 N 
ATOM     15  H31 UNL     1      38.304   7.368  59.658  1.00  0.00     0.279 HD
ATOM     16  H32 UNL     1      37.673   8.688  60.057  1.00  0.00     0.279 HD
HETATM   17  C9  UNL     1      36.273   7.382  59.272  1.00  0.00     0.467 C 
HETATM   18  C10 UNL     1      34.271   6.356  59.977  1.00  0.00     0.280 C 
HETATM   19  N4  UNL     1      31.843   6.482  60.103  1.00  0.00    -0.323 N 
ATOM     20  H4  UNL     1      31.243   7.251  60.401  1.00  0.00     0.165 HD
ENDROOT
TORSDOF 0
ENDMDL
