MODEL 1
REMARK VINA RESULT: -6.610360521      0.000      0.000
REMARK  1 active torsions:
REMARK  status: ('A' for Active; 'I' for Inactive)
REMARK       I    between atoms: C1_2  and  N2_4 
REMARK    1  A    between atoms: N2_4  and  C2_6 
ROOT
HETATM    1  C2  UNL     1      31.052   7.050  56.673  1.00  0.00     0.132 A 
HETATM    2  N3  UNL     1      30.155   7.994  57.012  1.00  0.00    -0.285 N 
ATOM      3  H3  UNL     1      29.449   8.382  56.386  1.00  0.00     0.188 HD
HETATM    4  N4  UNL     1      30.321   8.346  58.276  1.00  0.00    -0.302 N 
ATOM      5  H4  UNL     1      29.761   9.046  58.762  1.00  0.00     0.186 HD
HETATM    6  C3  UNL     1      31.347   7.644  58.838  1.00  0.00     0.047 A 
HETATM    7  C4  UNL     1      31.789   6.839  57.814  1.00  0.00     0.013 A 
HETATM    8  C5  UNL     1      32.921   5.923  58.078  1.00  0.00     0.057 C 
HETATM    9  C6  UNL     1      32.492   4.991  59.189  1.00  0.00     0.114 C 
HETATM   10  S1  UNL     1      32.263   5.948  60.652  1.00  0.00     0.021 S 
HETATM   11  O2  UNL     1      30.930   5.340  61.476  1.00  0.00    -0.258 OA
HETATM   12  C7  UNL     1      31.953   7.639  60.196  1.00  0.00     0.168 C 
ENDROOT
BRANCH   1  13
HETATM   13  N2  UNL     1      31.205   6.453  55.516  1.00  0.00    -0.296 N 
HETATM   14  C1  UNL     1      30.535   5.260  55.209  1.00  0.00     0.334 C 
HETATM   15  N1  UNL     1      29.764   5.164  54.020  1.00  0.00    -0.040 NA
HETATM   16  O1  UNL     1      30.632   4.288  56.003  1.00  0.00    -0.251 OA
ATOM     17  H2  UNL     1      31.827   6.866  54.822  1.00  0.00     0.171 HD
ENDBRANCH   1  13
TORSDOF 1
ENDMDL
MODEL 2
REMARK VINA RESULT: -6.451967359      2.135      2.432
REMARK  1 active torsions:
REMARK  status: ('A' for Active; 'I' for Inactive)
REMARK       I    between atoms: C1_2  and  N2_4 
REMARK    1  A    between atoms: N2_4  and  C2_6 
ROOT
HETATM    1  C2  UNL     1      29.502   5.910  56.266  1.00  0.00     0.132 A 
HETATM    2  N3  UNL     1      29.011   7.135  56.531  1.00  0.00    -0.285 N 
ATOM      3  H3  UNL     1      28.043   7.420  56.386  1.00  0.00     0.188 HD
HETATM    4  N4  UNL     1      29.967   7.915  57.005  1.00  0.00    -0.302 N 
ATOM      5  H4  UNL     1      29.839   8.889  57.278  1.00  0.00     0.186 HD
HETATM    6  C3  UNL     1      31.148   7.236  57.078  1.00  0.00     0.047 A 
HETATM    7  C4  UNL     1      30.832   5.982  56.610  1.00  0.00     0.013 A 
HETATM    8  C5  UNL     1      31.902   4.962  56.549  1.00  0.00     0.057 C 
HETATM    9  C6  UNL     1      32.412   4.766  57.960  1.00  0.00     0.114 C 
HETATM   10  S1  UNL     1      33.172   6.269  58.482  1.00  0.00     0.021 S 
HETATM   11  O2  UNL     1      32.804   6.507  60.106  1.00  0.00    -0.258 OA
HETATM   12  C7  UNL     1      32.514   7.616  57.526  1.00  0.00     0.168 C 
ENDROOT
BRANCH   1  13
HETATM   13  N2  UNL     1      28.869   4.866  55.787  1.00  0.00    -0.296 N 
HETATM   14  C1  UNL     1      27.477   4.862  55.619  1.00  0.00     0.334 C 
HETATM   15  N1  UNL     1      26.914   4.522  54.361  1.00  0.00    -0.040 NA
HETATM   16  O1  UNL     1      26.747   5.164  56.599  1.00  0.00    -0.251 OA
ATOM     17  H2  UNL     1      29.403   4.037  55.530  1.00  0.00     0.171 HD
ENDBRANCH   1  13
TORSDOF 1
ENDMDL
MODEL 3
REMARK VINA RESULT: -6.304460228      1.126      1.156
REMARK  1 active torsions:
REMARK  status: ('A' for Active; 'I' for Inactive)
REMARK       I    between atoms: C1_2  and  N2_4 
REMARK    1  A    between atoms: N2_4  and  C2_6 
ROOT
HETATM    1  C2  UNL     1      31.365   5.936  56.941  1.00  0.00     0.132 A 
HETATM    2  N3  UNL     1      30.689   7.070  57.199  1.00  0.00    -0.285 N 
ATOM      3  H3  UNL     1      29.917   7.431  56.639  1.00  0.00     0.188 HD
HETATM    4  N4  UNL     1      31.172   7.650  58.284  1.00  0.00    -0.302 N 
ATOM      5  H4  UNL     1      30.823   8.524  58.680  1.00  0.00     0.186 HD
HETATM    6  C3  UNL     1      32.202   6.920  58.802  1.00  0.00     0.047 A 
HETATM    7  C4  UNL     1      32.304   5.850  57.942  1.00  0.00     0.013 A 
HETATM    8  C5  UNL     1      33.344   4.831  58.207  1.00  0.00     0.057 C 
HETATM    9  C6  UNL     1      33.058   4.246  59.572  1.00  0.00     0.114 C 
HETATM   10  S1  UNL     1      33.278   5.519  60.773  1.00  0.00     0.021 S 
HETATM   11  O2  UNL     1      32.093   5.339  61.953  1.00  0.00    -0.258 OA
HETATM   12  C7  UNL     1      33.086   7.101  59.983  1.00  0.00     0.168 C 
ENDROOT
BRANCH   1  13
HETATM   13  N2  UNL     1      31.185   5.088  55.958  1.00  0.00    -0.296 N 
HETATM   14  C1  UNL     1      29.918   4.866  55.400  1.00  0.00     0.334 C 
HETATM   15  N1  UNL     1      29.729   4.983  53.997  1.00  0.00    -0.040 NA
HETATM   16  O1  UNL     1      28.963   4.565  56.163  1.00  0.00    -0.251 OA
ATOM     17  H2  UNL     1      31.987   4.576  55.590  1.00  0.00     0.171 HD
ENDBRANCH   1  13
TORSDOF 1
ENDMDL
MODEL 4
REMARK VINA RESULT: -6.296953834      2.834      3.352
REMARK  1 active torsions:
REMARK  status: ('A' for Active; 'I' for Inactive)
REMARK       I    between atoms: C1_2  and  N2_4 
REMARK    1  A    between atoms: N2_4  and  C2_6 
ROOT
HETATM    1  C2  UNL     1      32.229   5.055  57.652  1.00  0.00     0.132 A 
HETATM    2  N3  UNL     1      33.097   4.033  57.765  1.00  0.00    -0.285 N 
ATOM      3  H3  UNL     1      33.086   3.190  57.190  1.00  0.00     0.188 HD
HETATM    4  N4  UNL     1      33.967   4.279  58.729  1.00  0.00    -0.302 N 
ATOM      5  H4  UNL     1      34.723   3.652  59.004  1.00  0.00     0.186 HD
HETATM    6  C3  UNL     1      33.714   5.489  59.307  1.00  0.00     0.047 A 
HETATM    7  C4  UNL     1      32.620   5.956  58.615  1.00  0.00     0.013 A 
HETATM    8  C5  UNL     1      32.062   7.276  58.987  1.00  0.00     0.057 C 
HETATM    9  C6  UNL     1      33.158   8.298  58.779  1.00  0.00     0.114 C 
HETATM   10  S1  UNL     1      34.454   7.954  59.923  1.00  0.00     0.021 S 
HETATM   11  O2  UNL     1      35.923   8.234  59.154  1.00  0.00    -0.258 OA
HETATM   12  C7  UNL     1      34.362   6.246  60.410  1.00  0.00     0.168 C 
ENDROOT
BRANCH   1  13
HETATM   13  N2  UNL     1      31.227   5.182  56.817  1.00  0.00    -0.296 N 
HETATM   14  C1  UNL     1      31.418   5.157  55.428  1.00  0.00     0.334 C 
HETATM   15  N1  UNL     1      30.663   4.262  54.623  1.00  0.00    -0.040 NA
HETATM   16  O1  UNL     1      32.264   5.937  54.918  1.00  0.00    -0.251 OA
ATOM     17  H2  UNL     1      30.284   5.303  57.187  1.00  0.00     0.171 HD
ENDBRANCH   1  13
TORSDOF 1
ENDMDL
MODEL 5
REMARK VINA RESULT: -6.136012599      1.470      1.519
REMARK  1 active torsions:
REMARK  status: ('A' for Active; 'I' for Inactive)
REMARK       I    between atoms: C1_2  and  N2_4 
REMARK    1  A    between atoms: N2_4  and  C2_6 
ROOT
HETATM    1  C2  UNL     1      30.921   6.314  57.031  1.00  0.00     0.132 A 
HETATM    2  N3  UNL     1      29.953   7.215  56.777  1.00  0.00    -0.285 N 
ATOM      3  H3  UNL     1      29.165   7.064  56.147  1.00  0.00     0.188 HD
HETATM    4  N4  UNL     1      30.173   8.323  57.463  1.00  0.00    -0.302 N 
ATOM      5  H4  UNL     1      29.576   9.150  57.437  1.00  0.00     0.186 HD
HETATM    6  C3  UNL     1      31.308   8.208  58.211  1.00  0.00     0.047 A 
HETATM    7  C4  UNL     1      31.759   6.941  57.923  1.00  0.00     0.013 A 
HETATM    8  C5  UNL     1      33.001   6.470  58.575  1.00  0.00     0.057 C 
HETATM    9  C6  UNL     1      32.760   6.499  60.068  1.00  0.00     0.114 C 
HETATM   10  S1  UNL     1      32.536   8.180  60.555  1.00  0.00     0.021 S 
HETATM   11  O2  UNL     1      31.342   8.230  61.738  1.00  0.00    -0.258 OA
HETATM   12  C7  UNL     1      32.009   9.128  59.146  1.00  0.00     0.168 C 
ENDROOT
BRANCH   1  13
HETATM   13  N2  UNL     1      31.053   5.104  56.544  1.00  0.00    -0.296 N 
HETATM   14  C1  UNL     1      30.141   4.580  55.616  1.00  0.00     0.334 C 
HETATM   15  N1  UNL     1      30.608   4.038  54.389  1.00  0.00    -0.040 NA
HETATM   16  O1  UNL     1      28.914   4.602  55.894  1.00  0.00    -0.251 OA
ATOM     17  H2  UNL     1      31.839   4.530  56.848  1.00  0.00     0.171 HD
ENDBRANCH   1  13
TORSDOF 1
ENDMDL
