MODEL 1
REMARK VINA RESULT: -6.366831843      0.000      0.000
REMARK  2 active torsions:
REMARK  status: ('A' for Active; 'I' for Inactive)
REMARK    1  A    between atoms: C7_7  and  N1_8 
REMARK    2  A    between atoms: N1_8  and  N2_9 
ROOT
HETATM    1  C1  UNL     1      32.172   8.924  58.860  1.00  0.00     0.022 C 
HETATM    2  C2  UNL     1      32.320   7.693  58.404  1.00  0.00    -0.025 C 
HETATM    3  C3  UNL     1      32.301   7.334  56.962  1.00  0.00     0.095 C 
HETATM    4  C4  UNL     1      31.348   6.168  56.780  1.00  0.00     0.112 C 
HETATM    5  C5  UNL     1      31.474   5.103  57.814  1.00  0.00     0.061 C 
HETATM    6  C6  UNL     1      32.682   5.269  58.715  1.00  0.00     0.079 C 
HETATM    7  C7  UNL     1      32.516   6.603  59.351  1.00  0.00     0.114 C 
HETATM    8  N3  UNL     1      31.556   5.551  55.479  1.00  0.00    -0.334 N 
ATOM      9  H3  UNL     1      32.337   5.811  54.878  1.00  0.00     0.165 HD
HETATM   10  C8  UNL     1      30.607   4.564  55.094  1.00  0.00     0.228 C 
HETATM   11  O1  UNL     1      30.915   3.698  54.250  1.00  0.00    -0.273 OA
HETATM   12  C9  UNL     1      29.254   4.581  55.705  1.00  0.00     0.205 C 
HETATM   13  C10 UNL     1      28.920   5.966  56.152  1.00  0.00     0.228 C 
HETATM   14  O2  UNL     1      27.762   6.391  55.991  1.00  0.00    -0.273 OA
HETATM   15  N4  UNL     1      29.980   6.711  56.740  1.00  0.00    -0.334 N 
ATOM     16  H4  UNL     1      29.791   7.631  57.138  1.00  0.00     0.165 HD
ENDROOT
BRANCH   7  17
HETATM   17  N1  UNL     1      32.550   6.729  60.590  1.00  0.00    -0.337 NA
BRANCH  17  18
HETATM   18  N2  UNL     1      32.528   6.652  61.840  1.00  0.00    -0.280 N 
ATOM     19  H22 UNL     1      31.548   6.378  61.772  1.00  0.00     0.191 HD
ATOM     20  H21 UNL     1      32.675   6.637  62.849  1.00  0.00     0.191 HD
ENDBRANCH  17  18
ENDBRANCH   7  17
TORSDOF 2
ENDMDL
MODEL 2
REMARK VINA RESULT: -5.686030234      3.209      5.279
REMARK  2 active torsions:
REMARK  status: ('A' for Active; 'I' for Inactive)
REMARK    1  A    between atoms: C7_7  and  N1_8 
REMARK    2  A    between atoms: N1_8  and  N2_9 
ROOT
HETATM    1  C1  UNL     1      32.941   4.251  58.325  1.00  0.00     0.022 C 
HETATM    2  C2  UNL     1      32.780   5.513  57.971  1.00  0.00    -0.025 C 
HETATM    3  C3  UNL     1      33.377   6.663  58.700  1.00  0.00     0.095 C 
HETATM    4  C4  UNL     1      32.282   7.684  58.946  1.00  0.00     0.112 C 
HETATM    5  C5  UNL     1      31.389   7.922  57.777  1.00  0.00     0.061 C 
HETATM    6  C6  UNL     1      31.879   7.277  56.495  1.00  0.00     0.079 C 
HETATM    7  C7  UNL     1      31.974   5.825  56.797  1.00  0.00     0.114 C 
HETATM    8  N3  UNL     1      32.865   8.960  59.326  1.00  0.00    -0.334 N 
ATOM      9  H3  UNL     1      33.870   9.129  59.277  1.00  0.00     0.165 HD
HETATM   10  C8  UNL     1      31.955   9.959  59.769  1.00  0.00     0.228 C 
HETATM   11  O1  UNL     1      32.269  11.165  59.698  1.00  0.00    -0.273 OA
HETATM   12  C9  UNL     1      30.636   9.549  60.313  1.00  0.00     0.205 C 
HETATM   13  C10 UNL     1      30.728   8.164  60.865  1.00  0.00     0.228 C 
HETATM   14  O2  UNL     1      30.130   7.892  61.921  1.00  0.00    -0.273 OA
HETATM   15  N4  UNL     1      31.513   7.241  60.121  1.00  0.00    -0.334 N 
ATOM     16  H4  UNL     1      31.545   6.261  60.404  1.00  0.00     0.165 HD
ENDROOT
BRANCH   7  17
HETATM   17  N1  UNL     1      31.399   4.984  56.081  1.00  0.00    -0.337 NA
BRANCH  17  18
HETATM   18  N2  UNL     1      30.924   4.229  55.201  1.00  0.00    -0.280 N 
ATOM     19  H22 UNL     1      31.417   4.787  54.504  1.00  0.00     0.191 HD
ATOM     20  H21 UNL     1      30.463   3.532  54.616  1.00  0.00     0.191 HD
ENDBRANCH  17  18
ENDBRANCH   7  17
TORSDOF 2
ENDMDL
MODEL 3
REMARK VINA RESULT: -5.582824145      2.684      3.737
REMARK  2 active torsions:
REMARK  status: ('A' for Active; 'I' for Inactive)
REMARK    1  A    between atoms: C7_7  and  N1_8 
REMARK    2  A    between atoms: N1_8  and  N2_9 
ROOT
HETATM    1  C1  UNL     1      29.787   9.634  59.359  1.00  0.00     0.022 C 
HETATM    2  C2  UNL     1      30.750   8.875  59.849  1.00  0.00    -0.025 C 
HETATM    3  C3  UNL     1      32.032   8.604  59.146  1.00  0.00     0.095 C 
HETATM    4  C4  UNL     1      32.272   7.106  59.166  1.00  0.00     0.112 C 
HETATM    5  C5  UNL     1      31.984   6.454  60.474  1.00  0.00     0.061 C 
HETATM    6  C6  UNL     1      31.730   7.435  61.600  1.00  0.00     0.079 C 
HETATM    7  C7  UNL     1      30.572   8.254  61.155  1.00  0.00     0.114 C 
HETATM    8  N3  UNL     1      33.654   6.817  58.820  1.00  0.00    -0.334 N 
ATOM      9  H3  UNL     1      34.353   7.554  58.730  1.00  0.00     0.165 HD
HETATM   10  C8  UNL     1      33.976   5.447  58.615  1.00  0.00     0.228 C 
HETATM   11  O1  UNL     1      35.155   5.056  58.748  1.00  0.00    -0.273 OA
HETATM   12  C9  UNL     1      32.899   4.496  58.243  1.00  0.00     0.205 C 
HETATM   13  C10 UNL     1      31.793   5.231  57.558  1.00  0.00     0.228 C 
HETATM   14  O2  UNL     1      31.227   4.702  56.585  1.00  0.00    -0.273 OA
HETATM   15  N4  UNL     1      31.467   6.511  58.085  1.00  0.00    -0.334 N 
ATOM     16  H4  UNL     1      30.668   7.023  57.712  1.00  0.00     0.165 HD
ENDROOT
BRANCH   7  17
HETATM   17  N1  UNL     1      29.559   8.371  61.870  1.00  0.00    -0.337 NA
BRANCH  17  18
HETATM   18  N2  UNL     1      28.485   8.301  62.511  1.00  0.00    -0.280 N 
ATOM     19  H22 UNL     1      28.600   9.286  62.747  1.00  0.00     0.191 HD
ATOM     20  H21 UNL     1      27.609   8.079  62.984  1.00  0.00     0.191 HD
ENDBRANCH  17  18
ENDBRANCH   7  17
TORSDOF 2
ENDMDL
MODEL 4
REMARK VINA RESULT: -5.555272244      3.907      6.055
REMARK  2 active torsions:
REMARK  status: ('A' for Active; 'I' for Inactive)
REMARK    1  A    between atoms: C7_7  and  N1_8 
REMARK    2  A    between atoms: N1_8  and  N2_9 
ROOT
HETATM    1  C1  UNL     1      31.783   7.636  57.318  1.00  0.00     0.022 C 
HETATM    2  C2  UNL     1      32.201   6.627  58.059  1.00  0.00    -0.025 C 
HETATM    3  C3  UNL     1      32.627   6.759  59.478  1.00  0.00     0.095 C 
HETATM    4  C4  UNL     1      33.967   6.063  59.633  1.00  0.00     0.112 C 
HETATM    5  C5  UNL     1      34.059   4.746  58.944  1.00  0.00     0.061 C 
HETATM    6  C6  UNL     1      32.732   4.241  58.415  1.00  0.00     0.079 C 
HETATM    7  C7  UNL     1      32.257   5.292  57.478  1.00  0.00     0.114 C 
HETATM    8  N3  UNL     1      34.258   5.850  61.042  1.00  0.00    -0.334 N 
ATOM      9  H3  UNL     1      33.565   6.028  61.768  1.00  0.00     0.165 HD
HETATM   10  C8  UNL     1      35.564   5.378  61.348  1.00  0.00     0.228 C 
HETATM   11  O1  UNL     1      35.772   4.766  62.416  1.00  0.00    -0.273 OA
HETATM   12  C9  UNL     1      36.668   5.622  60.386  1.00  0.00     0.205 C 
HETATM   13  C10 UNL     1      36.361   6.831  59.564  1.00  0.00     0.228 C 
HETATM   14  O2  UNL     1      37.280   7.622  59.286  1.00  0.00    -0.273 OA
HETATM   15  N4  UNL     1      35.008   6.988  59.156  1.00  0.00    -0.334 N 
ATOM     16  H4  UNL     1      34.756   7.749  58.525  1.00  0.00     0.165 HD
ENDROOT
BRANCH   7  17
HETATM   17  N1  UNL     1      31.945   5.009  56.305  1.00  0.00    -0.337 NA
BRANCH  17  18
HETATM   18  N2  UNL     1      31.484   4.602  55.214  1.00  0.00    -0.280 N 
ATOM     19  H22 UNL     1      32.021   5.334  54.752  1.00  0.00     0.191 HD
ATOM     20  H21 UNL     1      31.025   4.154  54.421  1.00  0.00     0.191 HD
ENDBRANCH  17  18
ENDBRANCH   7  17
TORSDOF 2
ENDMDL
MODEL 5
REMARK VINA RESULT: -5.429109567      2.615      3.970
REMARK  2 active torsions:
REMARK  status: ('A' for Active; 'I' for Inactive)
REMARK    1  A    between atoms: C7_7  and  N1_8 
REMARK    2  A    between atoms: N1_8  and  N2_9 
ROOT
HETATM    1  C1  UNL     1      35.327   4.716  59.302  1.00  0.00     0.022 C 
HETATM    2  C2  UNL     1      34.614   5.826  59.329  1.00  0.00    -0.025 C 
HETATM    3  C3  UNL     1      33.128   5.858  59.358  1.00  0.00     0.095 C 
HETATM    4  C4  UNL     1      32.657   6.821  58.284  1.00  0.00     0.112 C 
HETATM    5  C5  UNL     1      33.430   8.093  58.217  1.00  0.00     0.061 C 
HETATM    6  C6  UNL     1      34.387   8.286  59.377  1.00  0.00     0.079 C 
HETATM    7  C7  UNL     1      35.299   7.113  59.333  1.00  0.00     0.114 C 
HETATM    8  N3  UNL     1      31.259   7.163  58.498  1.00  0.00    -0.334 N 
ATOM      9  H3  UNL     1      30.759   6.882  59.341  1.00  0.00     0.165 HD
HETATM   10  C8  UNL     1      30.631   7.909  57.463  1.00  0.00     0.228 C 
HETATM   11  O1  UNL     1      29.626   8.604  57.717  1.00  0.00    -0.273 OA
HETATM   12  C9  UNL     1      31.183   7.849  56.086  1.00  0.00     0.205 C 
HETATM   13  C10 UNL     1      31.917   6.561  55.894  1.00  0.00     0.228 C 
HETATM   14  O2  UNL     1      31.816   5.964  54.808  1.00  0.00    -0.273 OA
HETATM   15  N4  UNL     1      32.692   6.108  56.997  1.00  0.00    -0.334 N 
ATOM     16  H4  UNL     1      33.279   5.280  56.895  1.00  0.00     0.165 HD
ENDROOT
BRANCH   7  17
HETATM   17  N1  UNL     1      36.535   7.264  59.304  1.00  0.00    -0.337 NA
BRANCH  17  18
HETATM   18  N2  UNL     1      37.736   7.621  59.309  1.00  0.00    -0.280 N 
ATOM     19  H22 UNL     1      37.755   7.421  60.309  1.00  0.00     0.191 HD
ATOM     20  H21 UNL     1      38.691   7.939  59.145  1.00  0.00     0.191 HD
ENDBRANCH  17  18
ENDBRANCH   7  17
TORSDOF 2
ENDMDL
