MODEL 1
REMARK VINA RESULT: -6.495509714      0.000      0.000
REMARK  3 active torsions:
REMARK  status: ('A' for Active; 'I' for Inactive)
REMARK    1  A    between atoms: C2_2  and  S1_5 
REMARK    2  A    between atoms: S1_5  and  N1_8 
REMARK    3  A    between atoms: N1_8  and  N2_10 
ROOT
HETATM    1  N2  UNL     1      31.617   4.950  56.360  1.00  0.00    -0.288 N 
ATOM      2  H2  UNL     1      32.092   4.107  56.038  1.00  0.00     0.187 HD
HETATM    3  C5  UNL     1      30.471   5.166  55.866  1.00  0.00     0.112 C 
HETATM    4  C6  UNL     1      29.807   4.289  54.879  1.00  0.00     0.189 C 
HETATM    5  N3  UNL     1      28.452   4.065  55.346  1.00  0.00    -0.337 N 
ATOM      6  H3  UNL     1      28.058   3.125  55.386  1.00  0.00     0.164 HD
HETATM    7  C7  UNL     1      27.691   5.197  55.746  1.00  0.00     0.323 C 
HETATM    8  O3  UNL     1      26.432   5.217  55.694  1.00  0.00    -0.247 OA
HETATM    9  N4  UNL     1      28.325   6.376  56.230  1.00  0.00    -0.274 N 
ATOM     10  H4  UNL     1      27.787   7.192  56.520  1.00  0.00     0.173 HD
HETATM   11  C8  UNL     1      29.747   6.358  56.290  1.00  0.00     0.275 C 
HETATM   12  O4  UNL     1      30.307   7.397  56.717  1.00  0.00    -0.266 OA
ENDROOT
BRANCH   1  13
HETATM   13  N1  UNL     1      32.301   5.719  57.285  1.00  0.00    -0.226 N 
ATOM     14  H1  UNL     1      32.594   6.672  57.068  1.00  0.00     0.200 HD
BRANCH  13  15
HETATM   15  S1  UNL     1      32.644   5.007  58.821  1.00  0.00     0.251 S 
HETATM   16  O1  UNL     1      31.616   5.398  59.846  1.00  0.00    -0.204 OA
HETATM   17  O2  UNL     1      32.545   3.518  58.658  1.00  0.00    -0.204 OA
BRANCH  15  18
HETATM   18  C2  UNL     1      34.283   5.392  59.379  1.00  0.00     0.073 C 
HETATM   19  C1  UNL     1      34.712   6.782  59.037  1.00  0.00     0.033 C 
HETATM   20  C3  UNL     1      34.289   5.243  60.885  1.00  0.00     0.033 C 
HETATM   21  C4  UNL     1      35.256   4.414  58.795  1.00  0.00     0.033 C 
ENDBRANCH  15  18
ENDBRANCH  13  15
ENDBRANCH   1  13
TORSDOF 3
ENDMDL
MODEL 2
REMARK VINA RESULT: -6.494392415      0.052      1.025
REMARK  3 active torsions:
REMARK  status: ('A' for Active; 'I' for Inactive)
REMARK    1  A    between atoms: C2_2  and  S1_5 
REMARK    2  A    between atoms: S1_5  and  N1_8 
REMARK    3  A    between atoms: N1_8  and  N2_10 
ROOT
HETATM    1  N2  UNL     1      31.616   4.949  56.375  1.00  0.00    -0.288 N 
ATOM      2  H2  UNL     1      32.088   4.103  56.058  1.00  0.00     0.187 HD
HETATM    3  C5  UNL     1      30.471   5.166  55.879  1.00  0.00     0.112 C 
HETATM    4  C6  UNL     1      29.804   4.284  54.899  1.00  0.00     0.189 C 
HETATM    5  N3  UNL     1      28.448   4.068  55.368  1.00  0.00    -0.337 N 
ATOM      6  H3  UNL     1      28.051   3.129  55.415  1.00  0.00     0.164 HD
HETATM    7  C7  UNL     1      27.691   5.205  55.760  1.00  0.00     0.323 C 
HETATM    8  O3  UNL     1      26.432   5.229  55.708  1.00  0.00    -0.247 OA
HETATM    9  N4  UNL     1      28.328   6.385  56.236  1.00  0.00    -0.274 N 
ATOM     10  H4  UNL     1      27.793   7.205  56.520  1.00  0.00     0.173 HD
HETATM   11  C8  UNL     1      29.750   6.363  56.295  1.00  0.00     0.275 C 
HETATM   12  O4  UNL     1      30.314   7.403  56.715  1.00  0.00    -0.266 OA
ENDROOT
BRANCH   1  13
HETATM   13  N1  UNL     1      32.303   5.722  57.293  1.00  0.00    -0.226 N 
ATOM     14  H1  UNL     1      32.613   6.667  57.064  1.00  0.00     0.200 HD
BRANCH  13  15
HETATM   15  S1  UNL     1      32.619   5.031  58.844  1.00  0.00     0.251 S 
HETATM   16  O1  UNL     1      31.598   5.469  59.857  1.00  0.00    -0.204 OA
HETATM   17  O2  UNL     1      32.481   3.542  58.709  1.00  0.00    -0.204 OA
BRANCH  15  18
HETATM   18  C2  UNL     1      34.266   5.382  59.403  1.00  0.00     0.073 C 
HETATM   19  C1  UNL     1      35.297   4.480  58.807  1.00  0.00     0.033 C 
HETATM   20  C3  UNL     1      34.581   6.807  58.999  1.00  0.00     0.033 C 
HETATM   21  C4  UNL     1      34.322   5.282  60.897  1.00  0.00     0.033 C 
ENDBRANCH  15  18
ENDBRANCH  13  15
ENDBRANCH   1  13
TORSDOF 3
ENDMDL
MODEL 3
REMARK VINA RESULT: -6.493881328      0.053      1.025
REMARK  3 active torsions:
REMARK  status: ('A' for Active; 'I' for Inactive)
REMARK    1  A    between atoms: C2_2  and  S1_5 
REMARK    2  A    between atoms: S1_5  and  N1_8 
REMARK    3  A    between atoms: N1_8  and  N2_10 
ROOT
HETATM    1  N2  UNL     1      31.643   4.954  56.381  1.00  0.00    -0.288 N 
ATOM      2  H2  UNL     1      32.123   4.118  56.050  1.00  0.00     0.187 HD
HETATM    3  C5  UNL     1      30.499   5.173  55.883  1.00  0.00     0.112 C 
HETATM    4  C6  UNL     1      29.845   4.307  54.879  1.00  0.00     0.189 C 
HETATM    5  N3  UNL     1      28.488   4.071  55.335  1.00  0.00    -0.337 N 
ATOM      6  H3  UNL     1      28.097   3.129  55.359  1.00  0.00     0.164 HD
HETATM    7  C7  UNL     1      27.720   5.195  55.746  1.00  0.00     0.323 C 
HETATM    8  O3  UNL     1      26.461   5.210  55.687  1.00  0.00    -0.247 OA
HETATM    9  N4  UNL     1      28.346   6.369  56.252  1.00  0.00    -0.274 N 
ATOM     10  H4  UNL     1      27.803   7.178  56.550  1.00  0.00     0.173 HD
HETATM   11  C8  UNL     1      29.767   6.355  56.320  1.00  0.00     0.275 C 
HETATM   12  O4  UNL     1      30.321   7.390  56.766  1.00  0.00    -0.266 OA
ENDROOT
BRANCH   1  13
HETATM   13  N1  UNL     1      32.319   5.712  57.321  1.00  0.00    -0.226 N 
ATOM     14  H1  UNL     1      32.610   6.668  57.119  1.00  0.00     0.200 HD
BRANCH  13  15
HETATM   15  S1  UNL     1      32.650   4.981  58.850  1.00  0.00     0.251 S 
HETATM   16  O1  UNL     1      31.607   5.347  59.869  1.00  0.00    -0.204 OA
HETATM   17  O2  UNL     1      32.569   3.494  58.665  1.00  0.00    -0.204 OA
BRANCH  15  18
HETATM   18  C2  UNL     1      34.279   5.374  59.433  1.00  0.00     0.073 C 
HETATM   19  C1  UNL     1      34.417   5.266  60.917  1.00  0.00     0.033 C 
HETATM   20  C3  UNL     1      35.234   4.392  58.789  1.00  0.00     0.033 C 
HETATM   21  C4  UNL     1      34.647   6.760  58.999  1.00  0.00     0.033 C 
ENDBRANCH  15  18
ENDBRANCH  13  15
ENDBRANCH   1  13
TORSDOF 3
ENDMDL
MODEL 4
REMARK VINA RESULT: -6.400229824      1.407      1.690
REMARK  3 active torsions:
REMARK  status: ('A' for Active; 'I' for Inactive)
REMARK    1  A    between atoms: C2_2  and  S1_5 
REMARK    2  A    between atoms: S1_5  and  N1_8 
REMARK    3  A    between atoms: N1_8  and  N2_10 
ROOT
HETATM    1  N2  UNL     1      31.867   4.715  56.790  1.00  0.00    -0.288 N 
ATOM      2  H2  UNL     1      32.280   3.829  56.499  1.00  0.00     0.187 HD
HETATM    3  C5  UNL     1      30.812   5.063  56.183  1.00  0.00     0.112 C 
HETATM    4  C6  UNL     1      30.167   4.278  55.109  1.00  0.00     0.189 C 
HETATM    5  N3  UNL     1      28.754   4.199  55.425  1.00  0.00    -0.337 N 
ATOM      6  H3  UNL     1      28.257   3.308  55.399  1.00  0.00     0.164 HD
HETATM    7  C7  UNL     1      28.081   5.404  55.770  1.00  0.00     0.323 C 
HETATM    8  O3  UNL     1      26.845   5.563  55.585  1.00  0.00    -0.247 OA
HETATM    9  N4  UNL     1      28.783   6.498  56.348  1.00  0.00    -0.274 N 
ATOM     10  H4  UNL     1      28.309   7.365  56.599  1.00  0.00     0.173 HD
HETATM   11  C8  UNL     1      30.180   6.322  56.557  1.00  0.00     0.275 C 
HETATM   12  O4  UNL     1      30.801   7.287  57.067  1.00  0.00    -0.266 OA
ENDROOT
BRANCH   1  13
HETATM   13  N1  UNL     1      32.528   5.391  57.801  1.00  0.00    -0.226 N 
ATOM     14  H1  UNL     1      33.126   6.192  57.598  1.00  0.00     0.200 HD
BRANCH  13  15
HETATM   15  S1  UNL     1      32.302   4.830  59.419  1.00  0.00     0.251 S 
HETATM   16  O1  UNL     1      31.027   4.046  59.553  1.00  0.00    -0.204 OA
HETATM   17  O2  UNL     1      33.425   3.882  59.726  1.00  0.00    -0.204 OA
BRANCH  15  18
HETATM   18  C2  UNL     1      32.365   6.157  60.595  1.00  0.00     0.073 C 
HETATM   19  C1  UNL     1      31.026   6.516  61.152  1.00  0.00     0.033 C 
HETATM   20  C3  UNL     1      33.254   5.703  61.733  1.00  0.00     0.033 C 
HETATM   21  C4  UNL     1      32.978   7.365  59.957  1.00  0.00     0.033 C 
ENDBRANCH  15  18
ENDBRANCH  13  15
ENDBRANCH   1  13
TORSDOF 3
ENDMDL
MODEL 5
REMARK VINA RESULT: -6.300218045      1.335      1.782
REMARK  3 active torsions:
REMARK  status: ('A' for Active; 'I' for Inactive)
REMARK    1  A    between atoms: C2_2  and  S1_5 
REMARK    2  A    between atoms: S1_5  and  N1_8 
REMARK    3  A    between atoms: N1_8  and  N2_10 
ROOT
HETATM    1  N2  UNL     1      31.603   4.984  56.392  1.00  0.00    -0.288 N 
ATOM      2  H2  UNL     1      32.082   4.136  56.088  1.00  0.00     0.187 HD
HETATM    3  C5  UNL     1      30.458   5.187  55.892  1.00  0.00     0.112 C 
HETATM    4  C6  UNL     1      29.797   4.287  54.923  1.00  0.00     0.189 C 
HETATM    5  N3  UNL     1      28.442   4.069  55.394  1.00  0.00    -0.337 N 
ATOM      6  H3  UNL     1      28.051   3.129  55.453  1.00  0.00     0.164 HD
HETATM    7  C7  UNL     1      27.678   5.207  55.769  1.00  0.00     0.323 C 
HETATM    8  O3  UNL     1      26.419   5.222  55.716  1.00  0.00    -0.247 OA
HETATM    9  N4  UNL     1      28.307   6.397  56.230  1.00  0.00    -0.274 N 
ATOM     10  H4  UNL     1      27.767   7.218  56.502  1.00  0.00     0.173 HD
HETATM   11  C8  UNL     1      29.729   6.385  56.291  1.00  0.00     0.275 C 
HETATM   12  O4  UNL     1      30.286   7.434  56.697  1.00  0.00    -0.266 OA
ENDROOT
BRANCH   1  13
HETATM   13  N1  UNL     1      32.285   5.774  57.301  1.00  0.00    -0.226 N 
ATOM     14  H1  UNL     1      32.313   6.789  57.204  1.00  0.00     0.200 HD
BRANCH  13  15
HETATM   15  S1  UNL     1      33.087   4.979  58.608  1.00  0.00     0.251 S 
HETATM   16  O1  UNL     1      32.985   3.485  58.485  1.00  0.00    -0.204 OA
HETATM   17  O2  UNL     1      34.546   5.320  58.514  1.00  0.00    -0.204 OA
BRANCH  15  18
HETATM   18  C2  UNL     1      32.493   5.534  60.186  1.00  0.00     0.073 C 
HETATM   19  C1  UNL     1      33.558   5.585  61.232  1.00  0.00     0.033 C 
HETATM   20  C3  UNL     1      31.943   6.930  59.990  1.00  0.00     0.033 C 
HETATM   21  C4  UNL     1      31.384   4.639  60.648  1.00  0.00     0.033 C 
ENDBRANCH  15  18
ENDBRANCH  13  15
ENDBRANCH   1  13
TORSDOF 3
ENDMDL
