MODEL 1
REMARK VINA RESULT: -6.260632248      0.000      0.000
REMARK  3 active torsions:
REMARK  status: ('A' for Active; 'I' for Inactive)
REMARK    1  A    between atoms: C2_2  and  N1_3 
REMARK    2  A    between atoms: C3_4  and  C5_6 
REMARK       I    between atoms: C5_6  and  N2_8 
REMARK    3  A    between atoms: N2_8  and  N3_10 
ROOT
HETATM    1  N1  UNL     1      31.961   6.581  59.943  1.00  0.00    -0.175 NA
HETATM    2  C3  UNL     1      32.680   7.101  58.827  1.00  0.00     0.110 C 
HETATM    3  C4  UNL     1      33.228   8.491  59.028  1.00  0.00     0.044 C 
HETATM    4  C6  UNL     1      33.779   6.230  58.320  1.00  0.00     0.066 C 
HETATM    5  C7  UNL     1      34.851   5.872  59.249  1.00  0.00     0.036 C 
HETATM    6  C8  UNL     1      35.425   4.515  58.813  1.00  0.00     0.039 C 
HETATM    7  C9  UNL     1      36.037   6.829  59.245  1.00  0.00     0.039 C 
HETATM    8  N4  UNL     1      34.462   5.714  60.629  1.00  0.00    -0.297 N 
ATOM      9  H4  UNL     1      35.045   5.864  61.453  1.00  0.00     0.174 HD
HETATM   10  S1  UNL     1      32.788   5.213  60.604  1.00  0.00     0.300 S 
HETATM   11  O2  UNL     1      32.631   3.988  59.798  1.00  0.00    -0.188 OA
HETATM   12  O3  UNL     1      32.330   4.926  62.007  1.00  0.00    -0.188 OA
ENDROOT
BRANCH   2  13
HETATM   13  C5  UNL     1      31.707   7.214  57.700  1.00  0.00     0.259 C 
HETATM   14  O1  UNL     1      32.075   6.935  56.530  1.00  0.00    -0.269 OA
HETATM   15  N2  UNL     1      30.361   7.630  57.884  1.00  0.00    -0.275 N 
ATOM     16  H2  UNL     1      30.039   7.862  58.824  1.00  0.00     0.189 HD
BRANCH  15  17
HETATM   17  N3  UNL     1      29.479   7.728  56.833  1.00  0.00    -0.343 N 
ATOM     18  H32 UNL     1      29.863   7.816  55.892  1.00  0.00     0.176 HD
ATOM     19  H31 UNL     1      28.469   7.716  56.973  1.00  0.00     0.176 HD
ENDBRANCH  15  17
ENDBRANCH   2  13
BRANCH   1  20
HETATM   20  C2  UNL     1      31.714   7.474  61.015  1.00  0.00     0.106 C 
HETATM   21  C1  UNL     1      30.255   7.618  61.388  1.00  0.00     0.022 C 
ENDBRANCH   1  20
TORSDOF 3
ENDMDL
MODEL 2
REMARK VINA RESULT: -6.041140324      1.230      1.288
REMARK  3 active torsions:
REMARK  status: ('A' for Active; 'I' for Inactive)
REMARK    1  A    between atoms: C2_2  and  N1_3 
REMARK    2  A    between atoms: C3_4  and  C5_6 
REMARK       I    between atoms: C5_6  and  N2_8 
REMARK    3  A    between atoms: N2_8  and  N3_10 
ROOT
HETATM    1  N1  UNL     1      31.640   6.625  59.895  1.00  0.00    -0.175 NA
HETATM    2  C3  UNL     1      32.287   6.373  58.649  1.00  0.00     0.110 C 
HETATM    3  C4  UNL     1      32.876   7.593  57.991  1.00  0.00     0.044 C 
HETATM    4  C6  UNL     1      33.327   5.305  58.680  1.00  0.00     0.066 C 
HETATM    5  C7  UNL     1      34.456   5.478  59.594  1.00  0.00     0.036 C 
HETATM    6  C8  UNL     1      34.968   4.084  59.988  1.00  0.00     0.039 C 
HETATM    7  C9  UNL     1      35.658   6.189  58.986  1.00  0.00     0.039 C 
HETATM    8  N4  UNL     1      34.166   6.159  60.833  1.00  0.00    -0.297 N 
ATOM      9  H4  UNL     1      34.811   6.717  61.393  1.00  0.00     0.174 HD
HETATM   10  S1  UNL     1      32.484   5.833  61.179  1.00  0.00     0.300 S 
HETATM   11  O2  UNL     1      32.243   4.379  61.229  1.00  0.00    -0.188 OA
HETATM   12  O3  UNL     1      32.124   6.425  62.514  1.00  0.00    -0.188 OA
ENDROOT
BRANCH   2  13
HETATM   13  C5  UNL     1      31.236   5.880  57.708  1.00  0.00     0.259 C 
HETATM   14  O1  UNL     1      31.162   4.652  57.447  1.00  0.00    -0.269 OA
HETATM   15  N2  UNL     1      30.299   6.744  57.081  1.00  0.00    -0.275 N 
ATOM     16  H2  UNL     1      30.340   7.744  57.277  1.00  0.00     0.189 HD
BRANCH  15  17
HETATM   17  N3  UNL     1      29.339   6.271  56.217  1.00  0.00    -0.343 N 
ATOM     18  H32 UNL     1      28.373   6.562  56.370  1.00  0.00     0.176 HD
ATOM     19  H31 UNL     1      29.568   5.648  55.443  1.00  0.00     0.176 HD
ENDBRANCH  15  17
ENDBRANCH   2  13
BRANCH   1  20
HETATM   20  C2  UNL     1      31.491   7.983  60.272  1.00  0.00     0.106 C 
HETATM   21  C1  UNL     1      30.057   8.435  60.435  1.00  0.00     0.022 C 
ENDBRANCH   1  20
TORSDOF 3
ENDMDL
MODEL 3
REMARK VINA RESULT: -5.612605360      2.530      4.116
REMARK  3 active torsions:
REMARK  status: ('A' for Active; 'I' for Inactive)
REMARK    1  A    between atoms: C2_2  and  N1_3 
REMARK    2  A    between atoms: C3_4  and  C5_6 
REMARK       I    between atoms: C5_6  and  N2_8 
REMARK    3  A    between atoms: N2_8  and  N3_10 
ROOT
HETATM    1  N1  UNL     1      33.542   6.578  58.474  1.00  0.00    -0.175 NA
HETATM    2  C3  UNL     1      32.130   6.466  58.313  1.00  0.00     0.110 C 
HETATM    3  C4  UNL     1      31.483   5.411  59.173  1.00  0.00     0.044 C 
HETATM    4  C6  UNL     1      31.371   7.739  58.477  1.00  0.00     0.066 C 
HETATM    5  C7  UNL     1      31.490   8.446  59.753  1.00  0.00     0.036 C 
HETATM    6  C8  UNL     1      31.264   9.942  59.491  1.00  0.00     0.039 C 
HETATM    7  C9  UNL     1      30.443   8.058  60.790  1.00  0.00     0.039 C 
HETATM    8  N4  UNL     1      32.769   8.346  60.412  1.00  0.00    -0.297 N 
ATOM      9  H4  UNL     1      32.949   8.396  61.415  1.00  0.00     0.174 HD
HETATM   10  S1  UNL     1      33.949   8.121  59.142  1.00  0.00     0.300 S 
HETATM   11  O2  UNL     1      33.867   9.222  58.165  1.00  0.00    -0.188 OA
HETATM   12  O3  UNL     1      35.330   8.109  59.738  1.00  0.00    -0.188 OA
ENDROOT
BRANCH   2  13
HETATM   13  C5  UNL     1      31.888   6.036  56.903  1.00  0.00     0.259 C 
HETATM   14  O1  UNL     1      32.132   6.830  55.960  1.00  0.00    -0.269 OA
HETATM   15  N2  UNL     1      31.385   4.750  56.567  1.00  0.00    -0.275 N 
ATOM     16  H2  UNL     1      31.179   4.088  57.316  1.00  0.00     0.189 HD
BRANCH  15  17
HETATM   17  N3  UNL     1      31.168   4.372  55.262  1.00  0.00    -0.343 N 
ATOM     18  H32 UNL     1      31.620   3.520  54.930  1.00  0.00     0.176 HD
ATOM     19  H31 UNL     1      30.577   4.915  54.633  1.00  0.00     0.176 HD
ENDBRANCH  15  17
ENDBRANCH   2  13
BRANCH   1  20
HETATM   20  C2  UNL     1      34.172   5.598  59.280  1.00  0.00     0.106 C 
HETATM   21  C1  UNL     1      35.268   4.822  58.584  1.00  0.00     0.022 C 
ENDBRANCH   1  20
TORSDOF 3
ENDMDL
MODEL 4
REMARK VINA RESULT: -5.518797890      1.640      1.985
REMARK  3 active torsions:
REMARK  status: ('A' for Active; 'I' for Inactive)
REMARK    1  A    between atoms: C2_2  and  N1_3 
REMARK    2  A    between atoms: C3_4  and  C5_6 
REMARK       I    between atoms: C5_6  and  N2_8 
REMARK    3  A    between atoms: N2_8  and  N3_10 
ROOT
HETATM    1  N1  UNL     1      32.593   5.587  59.425  1.00  0.00    -0.175 NA
HETATM    2  C3  UNL     1      32.506   6.968  59.080  1.00  0.00     0.110 C 
HETATM    3  C4  UNL     1      31.813   7.827  60.106  1.00  0.00     0.044 C 
HETATM    4  C6  UNL     1      33.801   7.614  58.720  1.00  0.00     0.066 C 
HETATM    5  C7  UNL     1      34.870   7.604  59.719  1.00  0.00     0.036 C 
HETATM    6  C8  UNL     1      36.214   7.644  58.977  1.00  0.00     0.039 C 
HETATM    7  C9  UNL     1      34.884   8.817  60.641  1.00  0.00     0.039 C 
HETATM    8  N4  UNL     1      34.922   6.443  60.575  1.00  0.00    -0.297 N 
ATOM      9  H4  UNL     1      35.280   6.399  61.529  1.00  0.00     0.174 HD
HETATM   10  S1  UNL     1      34.246   5.128  59.643  1.00  0.00     0.300 S 
HETATM   11  O2  UNL     1      34.982   4.966  58.375  1.00  0.00    -0.188 OA
HETATM   12  O3  UNL     1      34.357   3.850  60.428  1.00  0.00    -0.188 OA
ENDROOT
BRANCH   2  13
HETATM   13  C5  UNL     1      31.661   7.054  57.851  1.00  0.00     0.259 C 
HETATM   14  O1  UNL     1      32.137   6.699  56.743  1.00  0.00    -0.269 OA
HETATM   15  N2  UNL     1      30.322   7.527  57.870  1.00  0.00    -0.275 N 
ATOM     16  H2  UNL     1      29.913   7.822  58.758  1.00  0.00     0.189 HD
BRANCH  15  17
HETATM   17  N3  UNL     1      29.559   7.600  56.728  1.00  0.00    -0.343 N 
ATOM     18  H32 UNL     1      29.110   6.746  56.397  1.00  0.00     0.176 HD
ATOM     19  H31 UNL     1      29.437   8.473  56.215  1.00  0.00     0.176 HD
ENDBRANCH  15  17
ENDBRANCH   2  13
BRANCH   1  20
HETATM   20  C2  UNL     1      31.891   5.173  60.584  1.00  0.00     0.106 C 
HETATM   21  C1  UNL     1      30.741   4.228  60.317  1.00  0.00     0.022 C 
ENDBRANCH   1  20
TORSDOF 3
ENDMDL
MODEL 5
REMARK VINA RESULT: -5.414116808      2.394      3.043
REMARK  3 active torsions:
REMARK  status: ('A' for Active; 'I' for Inactive)
REMARK    1  A    between atoms: C2_2  and  N1_3 
REMARK    2  A    between atoms: C3_4  and  C5_6 
REMARK       I    between atoms: C5_6  and  N2_8 
REMARK    3  A    between atoms: N2_8  and  N3_10 
ROOT
HETATM    1  N1  UNL     1      32.488   6.579  59.358  1.00  0.00    -0.175 NA
HETATM    2  C3  UNL     1      31.946   7.488  58.403  1.00  0.00     0.110 C 
HETATM    3  C4  UNL     1      30.589   8.037  58.760  1.00  0.00     0.044 C 
HETATM    4  C6  UNL     1      32.835   8.629  58.038  1.00  0.00     0.066 C 
HETATM    5  C7  UNL     1      33.275   9.521  59.111  1.00  0.00     0.036 C 
HETATM    6  C8  UNL     1      34.632  10.118  58.706  1.00  0.00     0.039 C 
HETATM    7  C9  UNL     1      32.365  10.720  59.349  1.00  0.00     0.039 C 
HETATM    8  N4  UNL     1      33.480   8.905  60.399  1.00  0.00    -0.297 N 
ATOM      9  H4  UNL     1      33.389   9.349  61.313  1.00  0.00     0.174 HD
HETATM   10  S1  UNL     1      33.915   7.244  60.075  1.00  0.00     0.300 S 
HETATM   11  O2  UNL     1      35.095   7.185  59.194  1.00  0.00    -0.188 OA
HETATM   12  O3  UNL     1      34.246   6.552  61.368  1.00  0.00    -0.188 OA
ENDROOT
BRANCH   2  13
HETATM   13  C5  UNL     1      31.745   6.718  57.138  1.00  0.00     0.259 C 
HETATM   14  O1  UNL     1      32.380   5.649  56.954  1.00  0.00    -0.269 OA
HETATM   15  N2  UNL     1      30.857   7.140  56.113  1.00  0.00    -0.275 N 
ATOM     16  H2  UNL     1      30.331   8.006  56.240  1.00  0.00     0.189 HD
BRANCH  15  17
HETATM   17  N3  UNL     1      30.685   6.418  54.955  1.00  0.00    -0.343 N 
ATOM     18  H32 UNL     1      30.895   5.420  54.978  1.00  0.00     0.176 HD
ATOM     19  H31 UNL     1      30.361   6.852  54.091  1.00  0.00     0.176 HD
ENDBRANCH  15  17
ENDBRANCH   2  13
BRANCH   1  20
HETATM   20  C2  UNL     1      31.635   6.186  60.419  1.00  0.00     0.106 C 
HETATM   21  C1  UNL     1      31.284   4.715  60.430  1.00  0.00     0.022 C 
ENDBRANCH   1  20
TORSDOF 3
ENDMDL
