MODEL 1
REMARK VINA RESULT: -6.539586441      0.000      0.000
REMARK  2 active torsions:
REMARK  status: ('A' for Active; 'I' for Inactive)
REMARK    1  A    between atoms: C5_11  and  C6_12 
REMARK    2  A    between atoms: N3_13  and  N4_15 
ROOT
HETATM    1  C6  UNL     1      32.013   7.477  58.140  1.00  0.00     0.126 C 
HETATM    2  N3  UNL     1      31.421   8.595  58.367  1.00  0.00    -0.309 N 
ATOM      3  H3  UNL     1      30.588   8.807  57.818  1.00  0.00     0.186 HD
ENDROOT
BRANCH   1   4
HETATM    4  C5  UNL     1      31.557   6.516  57.152  1.00  0.00     0.071 A 
HETATM    5  C2  UNL     1      31.509   5.169  57.426  1.00  0.00     0.027 A 
HETATM    6  C1  UNL     1      31.927   4.665  58.751  1.00  0.00     0.069 C 
HETATM    7  N1  UNL     1      31.081   4.292  56.486  1.00  0.00    -0.312 N 
HETATM    8  C3  UNL     1      30.690   4.697  55.266  1.00  0.00     0.327 A 
ATOM      9  H1  UNL     1      31.054   3.298  56.710  1.00  0.00     0.170 HD
HETATM   10  O1  UNL     1      30.290   3.878  54.392  1.00  0.00    -0.247 OA
HETATM   11  N2  UNL     1      30.723   6.007  54.961  1.00  0.00    -0.275 N 
HETATM   12  C4  UNL     1      31.148   6.901  55.883  1.00  0.00     0.263 A 
ATOM     13  H2  UNL     1      30.427   6.324  54.038  1.00  0.00     0.173 HD
HETATM   14  O2  UNL     1      31.157   8.099  55.546  1.00  0.00    -0.267 OA
ENDBRANCH   1   4
BRANCH   2  15
HETATM   15  N4  UNL     1      31.826   9.525  59.294  1.00  0.00    -0.276 N 
HETATM   16  C7  UNL     1      31.092  10.455  59.780  1.00  0.00     0.227 C 
HETATM   17  O3  UNL     1      31.591  11.341  60.707  1.00  0.00    -0.329 OA
HETATM   18  C10 UNL     1      29.717  10.567  59.339  1.00  0.00     0.294 C 
HETATM   19  C8  UNL     1      30.890  12.472  61.176  1.00  0.00     0.197 C 
HETATM   20  C9  UNL     1      29.412  12.355  61.069  1.00  0.00     0.149 C 
HETATM   21  N5  UNL     1      28.945  11.633  59.923  1.00  0.00    -0.352 N 
ATOM     22  H5  UNL     1      28.045  11.881  59.511  1.00  0.00     0.162 HD
HETATM   23  O4  UNL     1      29.187   9.791  58.491  1.00  0.00    -0.264 OA
ATOM     24  H4  UNL     1      32.791   9.471  59.621  1.00  0.00     0.189 HD
ENDBRANCH   2  15
TORSDOF 2
ENDMDL
MODEL 2
REMARK VINA RESULT: -6.492583396      2.271      6.898
REMARK  2 active torsions:
REMARK  status: ('A' for Active; 'I' for Inactive)
REMARK    1  A    between atoms: C5_11  and  C6_12 
REMARK    2  A    between atoms: N3_13  and  N4_15 
ROOT
HETATM    1  C6  UNL     1      30.819   8.808  58.659  1.00  0.00     0.126 C 
HETATM    2  N3  UNL     1      30.594   8.405  57.459  1.00  0.00    -0.309 N 
ATOM      3  H3  UNL     1      31.174   8.792  56.715  1.00  0.00     0.186 HD
ENDROOT
BRANCH   1   4
HETATM    4  C5  UNL     1      31.849   9.774  58.998  1.00  0.00     0.071 A 
HETATM    5  C2  UNL     1      31.536  11.002  59.533  1.00  0.00     0.027 A 
HETATM    6  C1  UNL     1      30.125  11.369  59.775  1.00  0.00     0.069 C 
HETATM    7  N1  UNL     1      32.515  11.886  59.839  1.00  0.00    -0.312 N 
HETATM    8  C3  UNL     1      33.813  11.604  59.639  1.00  0.00     0.327 A 
ATOM      9  H1  UNL     1      32.260  12.792  60.234  1.00  0.00     0.170 HD
HETATM   10  O1  UNL     1      34.723  12.430  59.927  1.00  0.00    -0.247 OA
HETATM   11  N2  UNL     1      34.158  10.412  59.119  1.00  0.00    -0.275 N 
HETATM   12  C4  UNL     1      33.198   9.513  58.803  1.00  0.00     0.263 A 
ATOM     13  H2  UNL     1      35.141  10.187  58.964  1.00  0.00     0.173 HD
HETATM   14  O2  UNL     1      33.575   8.428  58.325  1.00  0.00    -0.267 OA
ENDBRANCH   1   4
BRANCH   2  15
HETATM   15  N4  UNL     1      29.628   7.493  57.105  1.00  0.00    -0.276 N 
HETATM   16  C7  UNL     1      29.819   6.459  56.374  1.00  0.00     0.227 C 
HETATM   17  O3  UNL     1      28.785   5.602  56.074  1.00  0.00    -0.329 OA
HETATM   18  C10 UNL     1      31.147   6.199  55.857  1.00  0.00     0.294 C 
HETATM   19  C8  UNL     1      28.886   4.531  55.162  1.00  0.00     0.197 C 
HETATM   20  C9  UNL     1      30.271   4.023  54.978  1.00  0.00     0.149 C 
HETATM   21  N5  UNL     1      31.294   5.022  55.041  1.00  0.00    -0.352 N 
ATOM     22  H5  UNL     1      32.147   4.897  54.496  1.00  0.00     0.162 HD
HETATM   23  O4  UNL     1      32.147   6.940  56.089  1.00  0.00    -0.264 OA
ATOM     24  H4  UNL     1      28.683   7.653  57.453  1.00  0.00     0.189 HD
ENDBRANCH   2  15
TORSDOF 2
ENDMDL
MODEL 3
REMARK VINA RESULT: -6.491838381      3.612      6.576
REMARK  2 active torsions:
REMARK  status: ('A' for Active; 'I' for Inactive)
REMARK    1  A    between atoms: C5_11  and  C6_12 
REMARK    2  A    between atoms: N3_13  and  N4_15 
ROOT
HETATM    1  C6  UNL     1      33.052   6.066  58.948  1.00  0.00     0.126 C 
HETATM    2  N3  UNL     1      32.312   6.082  57.898  1.00  0.00    -0.309 N 
ATOM      3  H3  UNL     1      32.630   6.638  57.104  1.00  0.00     0.186 HD
ENDROOT
BRANCH   1   4
HETATM    4  C5  UNL     1      34.304   6.794  59.056  1.00  0.00     0.071 A 
HETATM    5  C2  UNL     1      35.518   6.148  59.024  1.00  0.00     0.027 A 
HETATM    6  C1  UNL     1      35.573   4.678  58.879  1.00  0.00     0.069 C 
HETATM    7  N1  UNL     1      36.672   6.850  59.128  1.00  0.00    -0.312 N 
HETATM    8  C3  UNL     1      36.677   8.187  59.262  1.00  0.00     0.327 A 
ATOM      9  H1  UNL     1      37.560   6.351  59.103  1.00  0.00     0.170 HD
HETATM   10  O1  UNL     1      37.755   8.839  59.358  1.00  0.00    -0.247 OA
HETATM   11  N2  UNL     1      35.510   8.854  59.297  1.00  0.00    -0.275 N 
HETATM   12  C4  UNL     1      34.344   8.175  59.196  1.00  0.00     0.263 A 
ATOM     13  H2  UNL     1      35.504   9.869  59.397  1.00  0.00     0.173 HD
HETATM   14  O2  UNL     1      33.296   8.843  59.235  1.00  0.00    -0.267 OA
ENDBRANCH   1   4
BRANCH   2  15
HETATM   15  N4  UNL     1      31.123   5.405  57.764  1.00  0.00    -0.276 N 
HETATM   16  C7  UNL     1      30.450   5.297  56.680  1.00  0.00     0.227 C 
HETATM   17  O3  UNL     1      29.267   4.596  56.647  1.00  0.00    -0.329 OA
HETATM   18  C10 UNL     1      30.951   5.928  55.476  1.00  0.00     0.294 C 
HETATM   19  C8  UNL     1      28.403   4.556  55.532  1.00  0.00     0.197 C 
HETATM   20  C9  UNL     1      29.079   4.818  54.234  1.00  0.00     0.149 C 
HETATM   21  N5  UNL     1      30.148   5.769  54.292  1.00  0.00    -0.352 N 
ATOM     22  H5  UNL     1      30.345   6.347  53.475  1.00  0.00     0.162 HD
HETATM   23  O4  UNL     1      32.030   6.589  55.428  1.00  0.00    -0.264 OA
ATOM     24  H4  UNL     1      30.745   4.953  58.597  1.00  0.00     0.189 HD
ENDBRANCH   2  15
TORSDOF 2
ENDMDL
MODEL 4
REMARK VINA RESULT: -6.487091416      2.021      7.146
REMARK  2 active torsions:
REMARK  status: ('A' for Active; 'I' for Inactive)
REMARK    1  A    between atoms: C5_11  and  C6_12 
REMARK    2  A    between atoms: N3_13  and  N4_15 
ROOT
HETATM    1  C6  UNL     1      30.331  10.132  59.982  1.00  0.00     0.126 C 
HETATM    2  N3  UNL     1      30.535   9.470  58.900  1.00  0.00    -0.309 N 
ATOM      3  H3  UNL     1      30.032   9.765  58.064  1.00  0.00     0.186 HD
ENDROOT
BRANCH   1   4
HETATM    4  C5  UNL     1      29.427  11.266  60.067  1.00  0.00     0.071 A 
HETATM    5  C2  UNL     1      29.896  12.554  60.174  1.00  0.00     0.027 A 
HETATM    6  C1  UNL     1      31.351  12.815  60.205  1.00  0.00     0.069 C 
HETATM    7  N1  UNL     1      29.032  13.595  60.253  1.00  0.00    -0.312 N 
HETATM    8  C3  UNL     1      27.702  13.413  60.230  1.00  0.00     0.327 A 
ATOM      9  H1  UNL     1      29.402  14.542  60.333  1.00  0.00     0.170 HD
HETATM   10  O1  UNL     1      26.899  14.385  60.303  1.00  0.00    -0.247 OA
HETATM   11  N2  UNL     1      27.205  12.168  60.126  1.00  0.00    -0.275 N 
HETATM   12  C4  UNL     1      28.048  11.112  60.047  1.00  0.00     0.263 A 
ATOM     13  H2  UNL     1      26.196  12.020  60.106  1.00  0.00     0.173 HD
HETATM   14  O2  UNL     1      27.533   9.984  59.953  1.00  0.00    -0.267 OA
ENDBRANCH   1   4
BRANCH   2  15
HETATM   15  N4  UNL     1      31.383   8.393  58.787  1.00  0.00    -0.276 N 
HETATM   16  C7  UNL     1      31.219   7.402  57.991  1.00  0.00     0.227 C 
HETATM   17  O3  UNL     1      32.126   6.369  57.950  1.00  0.00    -0.329 OA
HETATM   18  C10 UNL     1      30.056   7.380  57.128  1.00  0.00     0.294 C 
HETATM   19  C8  UNL     1      31.938   5.183  57.210  1.00  0.00     0.197 C 
HETATM   20  C9  UNL     1      31.018   5.331  56.052  1.00  0.00     0.149 C 
HETATM   21  N5  UNL     1      29.930   6.239  56.259  1.00  0.00    -0.352 N 
ATOM     22  H5  UNL     1      29.045   6.073  55.779  1.00  0.00     0.162 HD
HETATM   23  O4  UNL     1      29.179   8.292  57.108  1.00  0.00    -0.264 OA
ATOM     24  H4  UNL     1      32.209   8.382  59.385  1.00  0.00     0.189 HD
ENDBRANCH   2  15
TORSDOF 2
ENDMDL
MODEL 5
REMARK VINA RESULT: -6.410474267      1.287      1.287
REMARK  2 active torsions:
REMARK  status: ('A' for Active; 'I' for Inactive)
REMARK    1  A    between atoms: C5_11  and  C6_12 
REMARK    2  A    between atoms: N3_13  and  N4_15 
ROOT
HETATM    1  C6  UNL     1      31.770   7.172  58.701  1.00  0.00     0.126 C 
HETATM    2  N3  UNL     1      30.950   7.628  59.580  1.00  0.00    -0.309 N 
ATOM      3  H3  UNL     1      29.960   7.411  59.459  1.00  0.00     0.186 HD
ENDROOT
BRANCH   1   4
HETATM    4  C5  UNL     1      31.358   6.375  57.560  1.00  0.00     0.071 A 
HETATM    5  C2  UNL     1      31.816   5.091  57.375  1.00  0.00     0.027 A 
HETATM    6  C1  UNL     1      32.752   4.489  58.347  1.00  0.00     0.069 C 
HETATM    7  N1  UNL     1      31.417   4.369  56.300  1.00  0.00    -0.312 N 
HETATM    8  C3  UNL     1      30.569   4.868  55.386  1.00  0.00     0.327 A 
ATOM      9  H1  UNL     1      31.770   3.419  56.182  1.00  0.00     0.170 HD
HETATM   10  O1  UNL     1      30.198   4.192  54.386  1.00  0.00    -0.247 OA
HETATM   11  N2  UNL     1      30.099   6.120  55.534  1.00  0.00    -0.275 N 
HETATM   12  C4  UNL     1      30.483   6.862  56.597  1.00  0.00     0.263 A 
ATOM     13  H2  UNL     1      29.453   6.508  54.845  1.00  0.00     0.173 HD
HETATM   14  O2  UNL     1      30.018   8.012  56.682  1.00  0.00    -0.267 OA
ENDBRANCH   1   4
BRANCH   2  15
HETATM   15  N4  UNL     1      31.307   8.385  60.670  1.00  0.00    -0.276 N 
HETATM   16  C7  UNL     1      30.644   9.380  61.130  1.00  0.00     0.227 C 
HETATM   17  O3  UNL     1      31.085  10.077  62.231  1.00  0.00    -0.329 OA
HETATM   18  C10 UNL     1      29.414   9.769  60.472  1.00  0.00     0.294 C 
HETATM   19  C8  UNL     1      30.489  11.265  62.705  1.00  0.00     0.197 C 
HETATM   20  C9  UNL     1      29.060  11.416  62.327  1.00  0.00     0.149 C 
HETATM   21  N5  UNL     1      28.717  10.894  61.038  1.00  0.00    -0.352 N 
ATOM     22  H5  UNL     1      27.962  11.331  60.509  1.00  0.00     0.162 HD
HETATM   23  O4  UNL     1      28.944   9.177  59.456  1.00  0.00    -0.264 OA
ATOM     24  H4  UNL     1      32.171   8.135  61.151  1.00  0.00     0.189 HD
ENDBRANCH   2  15
TORSDOF 2
ENDMDL
