MODEL 1
REMARK VINA RESULT: -6.484310257      0.000      0.000
REMARK  2 active torsions:
REMARK  status: ('A' for Active; 'I' for Inactive)
REMARK    1  A    between atoms: C5_8  and  C6_9 
REMARK    2  A    between atoms: C9_18  and  N4_19 
ROOT
HETATM    1  C6  UNL     1      32.166   6.855  58.820  1.00  0.00     0.065 A 
HETATM    2  N2  UNL     1      31.981   7.311  60.069  1.00  0.00    -0.309 N 
ATOM      3  H2  UNL     1      32.639   7.022  60.792  1.00  0.00     0.170 HD
HETATM    4  C7  UNL     1      30.977   8.125  60.412  1.00  0.00     0.327 A 
HETATM    5  O2  UNL     1      30.855   8.522  61.609  1.00  0.00    -0.247 OA
HETATM    6  N3  UNL     1      30.105   8.516  59.464  1.00  0.00    -0.273 N 
ATOM      7  H3  UNL     1      29.337   9.137  59.716  1.00  0.00     0.173 HD
HETATM    8  C8  UNL     1      30.229   8.099  58.187  1.00  0.00     0.284 A 
HETATM    9  O3  UNL     1      29.393   8.496  57.357  1.00  0.00    -0.265 OA
HETATM   10  C9  UNL     1      31.276   7.245  57.821  1.00  0.00     0.194 A 
ENDROOT
BRANCH   1  11
HETATM   11  C5  UNL     1      33.202   5.897  58.400  1.00  0.00     0.130 C 
HETATM   12  C1  UNL     1      32.883   4.518  58.881  1.00  0.00     0.227 C 
HETATM   13  O1  UNL     1      31.845   3.927  58.545  1.00  0.00    -0.273 OA
HETATM   14  N1  UNL     1      33.812   3.875  59.764  1.00  0.00    -0.360 N 
HETATM   15  C2  UNL     1      35.263   4.014  59.657  1.00  0.00     0.122 C 
ATOM     16  H1  UNL     1      33.438   3.288  60.510  1.00  0.00     0.162 HD
HETATM   17  C3  UNL     1      35.505   5.275  58.794  1.00  0.00     0.021 C 
HETATM   18  C4  UNL     1      34.446   6.230  59.287  1.00  0.00     0.022 C 
ENDBRANCH   1  11
BRANCH  10  19
HETATM   19  N4  UNL     1      31.441   6.881  56.462  1.00  0.00    -0.108 N 
HETATM   20  O4  UNL     1      32.150   7.552  55.716  1.00  0.00    -0.532 OA
HETATM   21  O5  UNL     1      30.785   5.786  55.973  1.00  0.00    -0.532 OA
ENDBRANCH  10  19
TORSDOF 2
ENDMDL
MODEL 2
REMARK VINA RESULT: -6.448612790      4.671      6.909
REMARK  2 active torsions:
REMARK  status: ('A' for Active; 'I' for Inactive)
REMARK    1  A    between atoms: C5_8  and  C6_9 
REMARK    2  A    between atoms: C9_18  and  N4_19 
ROOT
HETATM    1  C6  UNL     1      28.081  11.030  60.528  1.00  0.00     0.065 A 
HETATM    2  N2  UNL     1      27.874   9.845  61.124  1.00  0.00    -0.309 N 
ATOM      3  H2  UNL     1      28.598   9.131  61.047  1.00  0.00     0.170 HD
HETATM    4  C7  UNL     1      26.765   9.554  61.812  1.00  0.00     0.327 A 
HETATM    5  O2  UNL     1      26.627   8.416  62.352  1.00  0.00    -0.247 OA
HETATM    6  N3  UNL     1      25.804  10.490  61.922  1.00  0.00    -0.273 N 
ATOM      7  H3  UNL     1      24.955  10.277  62.446  1.00  0.00     0.173 HD
HETATM    8  C8  UNL     1      25.944  11.704  61.352  1.00  0.00     0.284 A 
HETATM    9  O3  UNL     1      25.023  12.528  61.491  1.00  0.00    -0.265 OA
HETATM   10  C9  UNL     1      27.101  12.016  60.629  1.00  0.00     0.194 A 
ENDROOT
BRANCH   1  11
HETATM   11  C5  UNL     1      29.243  11.380  59.694  1.00  0.00     0.130 C 
HETATM   12  C1  UNL     1      29.795  10.170  59.012  1.00  0.00     0.227 C 
HETATM   13  O1  UNL     1      29.118   9.489  58.226  1.00  0.00    -0.273 OA
HETATM   14  N1  UNL     1      31.150   9.793  59.292  1.00  0.00    -0.360 N 
HETATM   15  C2  UNL     1      32.233  10.752  59.503  1.00  0.00     0.122 C 
ATOM     16  H1  UNL     1      31.370   8.798  59.347  1.00  0.00     0.162 HD
HETATM   17  C3  UNL     1      31.546  12.101  59.825  1.00  0.00     0.021 C 
HETATM   18  C4  UNL     1      30.392  11.690  60.706  1.00  0.00     0.022 C 
ENDBRANCH   1  11
BRANCH  10  19
HETATM   19  N4  UNL     1      27.270  13.321  60.104  1.00  0.00    -0.108 N 
HETATM   20  O4  UNL     1      26.868  13.599  58.977  1.00  0.00    -0.532 OA
HETATM   21  O5  UNL     1      27.907  14.272  60.851  1.00  0.00    -0.532 OA
ENDBRANCH  10  19
TORSDOF 2
ENDMDL
MODEL 3
REMARK VINA RESULT: -6.124134143      1.006      1.006
REMARK  2 active torsions:
REMARK  status: ('A' for Active; 'I' for Inactive)
REMARK    1  A    between atoms: C5_8  and  C6_9 
REMARK    2  A    between atoms: C9_18  and  N4_19 
ROOT
HETATM    1  C6  UNL     1      31.932   6.777  59.205  1.00  0.00     0.065 A 
HETATM    2  N2  UNL     1      31.662   7.503  60.302  1.00  0.00    -0.309 N 
ATOM      3  H2  UNL     1      32.207   7.327  61.145  1.00  0.00     0.170 HD
HETATM    4  C7  UNL     1      30.713   8.445  60.342  1.00  0.00     0.327 A 
HETATM    5  O2  UNL     1      30.505   9.098  61.408  1.00  0.00    -0.247 OA
HETATM    6  N3  UNL     1      29.990   8.687  59.233  1.00  0.00    -0.273 N 
ATOM      7  H3  UNL     1      29.265   9.405  59.255  1.00  0.00     0.173 HD
HETATM    8  C8  UNL     1      30.207   7.998  58.094  1.00  0.00     0.284 A 
HETATM    9  O3  UNL     1      29.508   8.269  57.102  1.00  0.00    -0.265 OA
HETATM   10  C9  UNL     1      31.197   7.010  58.044  1.00  0.00     0.194 A 
ENDROOT
BRANCH   1  11
HETATM   11  C5  UNL     1      32.906   5.676  59.123  1.00  0.00     0.130 C 
HETATM   12  C1  UNL     1      33.090   5.024  60.456  1.00  0.00     0.227 C 
HETATM   13  O1  UNL     1      32.151   4.483  61.060  1.00  0.00    -0.273 OA
HETATM   14  N1  UNL     1      34.397   5.040  61.044  1.00  0.00    -0.360 N 
HETATM   15  C2  UNL     1      35.635   4.905  60.277  1.00  0.00     0.122 C 
ATOM     16  H1  UNL     1      34.468   5.152  62.056  1.00  0.00     0.162 HD
HETATM   17  C3  UNL     1      35.259   5.223  58.810  1.00  0.00     0.021 C 
HETATM   18  C4  UNL     1      34.294   6.374  58.950  1.00  0.00     0.022 C 
ENDBRANCH   1  11
BRANCH  10  19
HETATM   19  N4  UNL     1      31.468   6.351  56.820  1.00  0.00    -0.108 N 
HETATM   20  O4  UNL     1      32.190   6.873  55.975  1.00  0.00    -0.532 OA
HETATM   21  O5  UNL     1      30.901   5.133  56.569  1.00  0.00    -0.532 OA
ENDBRANCH  10  19
TORSDOF 2
ENDMDL
MODEL 4
REMARK VINA RESULT: -6.096606822      2.343      3.906
REMARK  2 active torsions:
REMARK  status: ('A' for Active; 'I' for Inactive)
REMARK    1  A    between atoms: C5_8  and  C6_9 
REMARK    2  A    between atoms: C9_18  and  N4_19 
ROOT
HETATM    1  C6  UNL     1      32.293   7.138  58.971  1.00  0.00     0.065 A 
HETATM    2  N2  UNL     1      32.448   6.420  60.095  1.00  0.00    -0.309 N 
ATOM      3  H2  UNL     1      32.934   6.850  60.881  1.00  0.00     0.170 HD
HETATM    4  C7  UNL     1      31.995   5.170  60.234  1.00  0.00     0.327 A 
HETATM    5  O2  UNL     1      32.171   4.543  61.322  1.00  0.00    -0.247 OA
HETATM    6  N3  UNL     1      31.348   4.594  59.204  1.00  0.00    -0.273 N 
ATOM      7  H3  UNL     1      30.998   3.641  59.302  1.00  0.00     0.173 HD
HETATM    8  C8  UNL     1      31.155   5.255  58.045  1.00  0.00     0.284 A 
HETATM    9  O3  UNL     1      30.548   4.670  57.130  1.00  0.00    -0.265 OA
HETATM   10  C9  UNL     1      31.627   6.563  57.890  1.00  0.00     0.194 A 
ENDROOT
BRANCH   1  11
HETATM   11  C5  UNL     1      32.837   8.485  58.731  1.00  0.00     0.130 C 
HETATM   12  C1  UNL     1      34.166   8.651  59.395  1.00  0.00     0.227 C 
HETATM   13  O1  UNL     1      35.138   7.935  59.112  1.00  0.00    -0.273 OA
HETATM   14  N1  UNL     1      34.303   9.670  60.394  1.00  0.00    -0.360 N 
HETATM   15  C2  UNL     1      33.645  10.974  60.319  1.00  0.00     0.122 C 
ATOM     16  H1  UNL     1      34.892   9.474  61.203  1.00  0.00     0.162 HD
HETATM   17  C3  UNL     1      32.500  10.812  59.291  1.00  0.00     0.021 C 
HETATM   18  C4  UNL     1      31.958   9.439  59.604  1.00  0.00     0.022 C 
ENDBRANCH   1  11
BRANCH  10  19
HETATM   19  N4  UNL     1      31.346   7.274  56.697  1.00  0.00    -0.108 N 
HETATM   20  O4  UNL     1      30.377   8.027  56.631  1.00  0.00    -0.532 OA
HETATM   21  O5  UNL     1      32.147   7.100  55.604  1.00  0.00    -0.532 OA
ENDBRANCH  10  19
TORSDOF 2
ENDMDL
MODEL 5
REMARK VINA RESULT: -5.980835632      1.652      3.508
REMARK  2 active torsions:
REMARK  status: ('A' for Active; 'I' for Inactive)
REMARK    1  A    between atoms: C5_8  and  C6_9 
REMARK    2  A    between atoms: C9_18  and  N4_19 
ROOT
HETATM    1  C6  UNL     1      32.035   6.731  58.125  1.00  0.00     0.065 A 
HETATM    2  N2  UNL     1      32.024   6.282  56.859  1.00  0.00    -0.309 N 
ATOM      3  H2  UNL     1      32.688   5.554  56.598  1.00  0.00     0.170 HD
HETATM    4  C7  UNL     1      31.185   6.744  55.925  1.00  0.00     0.327 A 
HETATM    5  O2  UNL     1      31.223   6.280  54.746  1.00  0.00    -0.247 OA
HETATM    6  N3  UNL     1      30.302   7.702  56.261  1.00  0.00    -0.273 N 
ATOM      7  H3  UNL     1      29.657   8.059  55.555  1.00  0.00     0.173 HD
HETATM    8  C8  UNL     1      30.254   8.199  57.514  1.00  0.00     0.284 A 
HETATM    9  O3  UNL     1      29.414   9.082  57.763  1.00  0.00    -0.265 OA
HETATM   10  C9  UNL     1      31.129   7.723  58.497  1.00  0.00     0.194 A 
ENDROOT
BRANCH   1  11
HETATM   11  C5  UNL     1      32.984   6.319  59.173  1.00  0.00     0.130 C 
HETATM   12  C1  UNL     1      34.326   6.939  58.952  1.00  0.00     0.227 C 
HETATM   13  O1  UNL     1      34.490   8.169  58.935  1.00  0.00    -0.273 OA
HETATM   14  N1  UNL     1      35.448   6.071  58.747  1.00  0.00    -0.360 N 
HETATM   15  C2  UNL     1      35.625   4.795  59.439  1.00  0.00     0.122 C 
ATOM     16  H1  UNL     1      36.165   6.360  58.081  1.00  0.00     0.162 HD
HETATM   17  C3  UNL     1      34.228   4.414  59.986  1.00  0.00     0.021 C 
HETATM   18  C4  UNL     1      33.304   4.820  58.865  1.00  0.00     0.022 C 
ENDBRANCH   1  11
BRANCH  10  19
HETATM   19  N4  UNL     1      31.014   8.196  59.827  1.00  0.00    -0.108 N 
HETATM   20  O4  UNL     1      30.317   7.599  60.645  1.00  0.00    -0.532 OA
HETATM   21  O5  UNL     1      31.665   9.339  60.196  1.00  0.00    -0.532 OA
ENDBRANCH  10  19
TORSDOF 2
ENDMDL
