MODEL 1
REMARK VINA RESULT: -6.236146058      0.000      0.000
REMARK  5 active torsions:
REMARK  status: ('A' for Active; 'I' for Inactive)
REMARK    1  A    between atoms: N1_2  and  O1_3 
REMARK    2  A    between atoms: N1_2  and  C2_5 
REMARK    3  A    between atoms: C3_8  and  C4_9 
REMARK    4  A    between atoms: N6_17  and  N7_19 
REMARK    5  A    between atoms: N7_19  and  O3_21 
ROOT
HETATM    1  C2  UNL     1     -11.828 -15.387 -30.800  1.00  0.00     0.182 C 
HETATM    2  N2  UNL     1     -12.497 -14.605 -31.700  1.00  0.00    -0.331 N 
ATOM      3  H2  UNL     1     -12.049 -13.723 -31.946  1.00  0.00     0.168 HD
HETATM    4  C3  UNL     1     -13.681 -14.858 -32.306  1.00  0.00     0.141 C 
HETATM    5  C5  UNL     1     -14.660 -15.740 -31.909  1.00  0.00     0.150 C 
HETATM    6  N4  UNL     1     -15.953 -15.393 -32.373  1.00  0.00    -0.080 NA
HETATM    7  N5  UNL     1     -14.557 -16.871 -31.150  1.00  0.00    -0.324 N 
ATOM      8  H5  UNL     1     -15.362 -17.498 -31.141  1.00  0.00     0.169 HD
HETATM    9  C6  UNL     1     -13.490 -17.234 -30.415  1.00  0.00     0.178 C 
HETATM   10  N6  UNL     1     -13.602 -18.361 -29.786  1.00  0.00    -0.262 N 
ATOM     11  H6  UNL     1     -12.824 -18.687 -29.212  1.00  0.00     0.190 HD
HETATM   12  C7  UNL     1     -12.298 -16.559 -30.246  1.00  0.00     0.262 C 
HETATM   13  O4  UNL     1     -11.460 -17.082 -29.444  1.00  0.00    -0.280 OA
ENDROOT
BRANCH  10  14
HETATM   14  N7  UNL     1     -14.758 -19.143 -29.872  1.00  0.00    -0.208 N 
ATOM     15  H7  UNL     1     -14.805 -19.977 -30.457  1.00  0.00     0.215 HD
BRANCH  14  16
HETATM   16  O3  UNL     1     -15.743 -18.752 -29.177  1.00  0.00    -0.274 OA
ATOM     17  H3  UNL     1     -16.544 -19.253 -29.275  1.00  0.00     0.246 HD
ENDBRANCH  14  16
ENDBRANCH  10  14
BRANCH   1  18
HETATM   18  N1  UNL     1     -10.535 -14.959 -30.396  1.00  0.00    -0.245 N 
HETATM   19  C1  UNL     1     -10.307 -13.847 -29.497  1.00  0.00     0.187 C 
BRANCH  18  20
HETATM   20  O1  UNL     1      -9.432 -15.606 -30.863  1.00  0.00    -0.286 OA
ATOM     21  H1  UNL     1      -9.083 -16.302 -30.320  1.00  0.00     0.244 HD
ENDBRANCH  18  20
ENDBRANCH   1  18
BRANCH   4  22
HETATM   22  C4  UNL     1     -13.973 -14.116 -33.526  1.00  0.00     0.284 C 
HETATM   23  N3  UNL     1     -14.542 -12.832 -33.541  1.00  0.00    -0.056 NA
HETATM   24  O2  UNL     1     -13.703 -14.643 -34.652  1.00  0.00    -0.269 OA
ENDBRANCH   4  22
TORSDOF 5
ENDMDL
MODEL 2
REMARK VINA RESULT: -6.001054583      2.724      4.237
REMARK  5 active torsions:
REMARK  status: ('A' for Active; 'I' for Inactive)
REMARK    1  A    between atoms: N1_2  and  O1_3 
REMARK    2  A    between atoms: N1_2  and  C2_5 
REMARK    3  A    between atoms: C3_8  and  C4_9 
REMARK    4  A    between atoms: N6_17  and  N7_19 
REMARK    5  A    between atoms: N7_19  and  O3_21 
ROOT
HETATM    1  C2  UNL     1     -13.481 -14.086 -32.001  1.00  0.00     0.182 C 
HETATM    2  N2  UNL     1     -13.757 -12.751 -31.902  1.00  0.00    -0.331 N 
ATOM      3  H2  UNL     1     -13.323 -12.262 -31.119  1.00  0.00     0.168 HD
HETATM    4  C3  UNL     1     -14.534 -11.998 -32.714  1.00  0.00     0.141 C 
HETATM    5  C5  UNL     1     -15.510 -12.429 -33.584  1.00  0.00     0.150 C 
HETATM    6  N4  UNL     1     -16.498 -11.449 -33.853  1.00  0.00    -0.080 NA
HETATM    7  N5  UNL     1     -15.650 -13.636 -34.206  1.00  0.00    -0.324 N 
ATOM      8  H5  UNL     1     -16.324 -13.688 -34.971  1.00  0.00     0.169 HD
HETATM    9  C6  UNL     1     -14.982 -14.764 -33.901  1.00  0.00     0.178 C 
HETATM   10  N6  UNL     1     -15.259 -15.794 -34.636  1.00  0.00    -0.262 N 
ATOM     11  H6  UNL     1     -14.782 -16.677 -34.451  1.00  0.00     0.190 HD
HETATM   12  C7  UNL     1     -14.043 -14.959 -32.909  1.00  0.00     0.262 C 
HETATM   13  O4  UNL     1     -13.595 -16.143 -32.779  1.00  0.00    -0.280 OA
ENDROOT
BRANCH  10  14
HETATM   14  N7  UNL     1     -16.193 -15.731 -35.675  1.00  0.00    -0.208 N 
ATOM     15  H7  UNL     1     -15.935 -15.432 -36.616  1.00  0.00     0.215 HD
BRANCH  14  16
HETATM   16  O3  UNL     1     -17.377 -16.066 -35.376  1.00  0.00    -0.274 OA
ATOM     17  H3  UNL     1     -18.039 -15.878 -36.031  1.00  0.00     0.246 HD
ENDBRANCH  14  16
ENDBRANCH  10  14
BRANCH   1  18
HETATM   18  N1  UNL     1     -12.532 -14.627 -31.092  1.00  0.00    -0.245 N 
HETATM   19  C1  UNL     1     -12.702 -14.604 -29.654  1.00  0.00     0.187 C 
BRANCH  18  20
HETATM   20  O1  UNL     1     -11.394 -15.204 -31.566  1.00  0.00    -0.286 OA
ATOM     21  H1  UNL     1     -11.389 -15.449 -32.484  1.00  0.00     0.244 HD
ENDBRANCH  18  20
ENDBRANCH   1  18
BRANCH   4  22
HETATM   22  C4  UNL     1     -14.330 -10.556 -32.677  1.00  0.00     0.284 C 
HETATM   23  N3  UNL     1     -13.632  -9.841 -33.663  1.00  0.00    -0.056 NA
HETATM   24  O2  UNL     1     -14.805  -9.886 -31.704  1.00  0.00    -0.269 OA
ENDBRANCH   4  22
TORSDOF 5
ENDMDL
MODEL 3
REMARK VINA RESULT: -5.937358919      1.752      5.251
REMARK  5 active torsions:
REMARK  status: ('A' for Active; 'I' for Inactive)
REMARK    1  A    between atoms: N1_2  and  O1_3 
REMARK    2  A    between atoms: N1_2  and  C2_5 
REMARK    3  A    between atoms: C3_8  and  C4_9 
REMARK    4  A    between atoms: N6_17  and  N7_19 
REMARK    5  A    between atoms: N7_19  and  O3_21 
ROOT
HETATM    1  C2  UNL     1     -14.150 -16.003 -31.747  1.00  0.00     0.182 C 
HETATM    2  N2  UNL     1     -14.678 -16.888 -30.849  1.00  0.00    -0.331 N 
ATOM      3  H2  UNL     1     -15.670 -17.095 -30.957  1.00  0.00     0.168 HD
HETATM    4  C3  UNL     1     -14.046 -17.524 -29.836  1.00  0.00     0.141 C 
HETATM    5  C5  UNL     1     -12.859 -17.176 -29.231  1.00  0.00     0.150 C 
HETATM    6  N4  UNL     1     -12.743 -17.653 -27.901  1.00  0.00    -0.080 NA
HETATM    7  N5  UNL     1     -11.810 -16.455 -29.724  1.00  0.00    -0.324 N 
ATOM      8  H5  UNL     1     -10.939 -16.482 -29.193  1.00  0.00     0.169 HD
HETATM    9  C6  UNL     1     -11.821 -15.711 -30.846  1.00  0.00     0.178 C 
HETATM   10  N6  UNL     1     -10.704 -15.123 -31.138  1.00  0.00    -0.262 N 
ATOM     11  H6  UNL     1     -10.653 -14.546 -31.977  1.00  0.00     0.190 HD
HETATM   12  C7  UNL     1     -12.867 -15.497 -31.720  1.00  0.00     0.262 C 
HETATM   13  O4  UNL     1     -12.645 -14.698 -32.684  1.00  0.00    -0.280 OA
ENDROOT
BRANCH  10  14
HETATM   14  N7  UNL     1      -9.567 -15.257 -30.335  1.00  0.00    -0.208 N 
ATOM     15  H7  UNL     1      -9.318 -14.564 -29.629  1.00  0.00     0.215 HD
BRANCH  14  16
HETATM   16  O3  UNL     1      -8.865 -16.292 -30.538  1.00  0.00    -0.274 OA
ATOM     17  H3  UNL     1      -8.607 -16.777 -29.762  1.00  0.00     0.246 HD
ENDBRANCH  14  16
ENDBRANCH  10  14
BRANCH   1  18
HETATM   18  N1  UNL     1     -14.993 -15.560 -32.801  1.00  0.00    -0.245 N 
HETATM   19  C1  UNL     1     -16.113 -14.663 -32.605  1.00  0.00     0.187 C 
BRANCH  18  20
HETATM   20  O1  UNL     1     -14.762 -15.983 -34.074  1.00  0.00    -0.286 OA
ATOM     21  H1  UNL     1     -13.974 -15.662 -34.496  1.00  0.00     0.244 HD
ENDBRANCH  18  20
ENDBRANCH   1  18
BRANCH   4  22
HETATM   22  C4  UNL     1     -14.682 -18.724 -29.307  1.00  0.00     0.284 C 
HETATM   23  N3  UNL     1     -15.848 -18.709 -28.525  1.00  0.00    -0.056 NA
HETATM   24  O2  UNL     1     -14.168 -19.861 -29.557  1.00  0.00    -0.269 OA
ENDBRANCH   4  22
TORSDOF 5
ENDMDL
MODEL 4
REMARK VINA RESULT: -5.872177417      1.596      4.090
REMARK  5 active torsions:
REMARK  status: ('A' for Active; 'I' for Inactive)
REMARK    1  A    between atoms: N1_2  and  O1_3 
REMARK    2  A    between atoms: N1_2  and  C2_5 
REMARK    3  A    between atoms: C3_8  and  C4_9 
REMARK    4  A    between atoms: N6_17  and  N7_19 
REMARK    5  A    between atoms: N7_19  and  O3_21 
ROOT
HETATM    1  C2  UNL     1     -13.227 -15.210 -31.963  1.00  0.00     0.182 C 
HETATM    2  N2  UNL     1     -12.001 -14.864 -31.466  1.00  0.00    -0.331 N 
ATOM      3  H2  UNL     1     -11.486 -14.162 -31.997  1.00  0.00     0.168 HD
HETATM    4  C3  UNL     1     -11.387 -15.338 -30.358  1.00  0.00     0.141 C 
HETATM    5  C5  UNL     1     -11.649 -16.509 -29.684  1.00  0.00     0.150 C 
HETATM    6  N4  UNL     1     -10.537 -17.000 -28.955  1.00  0.00    -0.080 NA
HETATM    7  N5  UNL     1     -12.800 -17.240 -29.624  1.00  0.00    -0.324 N 
ATOM      8  H5  UNL     1     -12.853 -17.964 -28.907  1.00  0.00     0.169 HD
HETATM    9  C6  UNL     1     -13.871 -17.093 -30.426  1.00  0.00     0.178 C 
HETATM   10  N6  UNL     1     -14.867 -17.884 -30.179  1.00  0.00    -0.262 N 
ATOM     11  H6  UNL     1     -15.707 -17.817 -30.755  1.00  0.00     0.190 HD
HETATM   12  C7  UNL     1     -14.041 -16.210 -31.473  1.00  0.00     0.262 C 
HETATM   13  O4  UNL     1     -15.130 -16.306 -32.124  1.00  0.00    -0.280 OA
ENDROOT
BRANCH  10  14
HETATM   14  N7  UNL     1     -14.824 -18.825 -29.146  1.00  0.00    -0.208 N 
ATOM     15  H7  UNL     1     -15.330 -18.692 -28.270  1.00  0.00     0.215 HD
BRANCH  14  16
HETATM   16  O3  UNL     1     -14.119 -19.855 -29.365  1.00  0.00    -0.274 OA
ATOM     17  H3  UNL     1     -14.595 -20.672 -29.461  1.00  0.00     0.246 HD
ENDBRANCH  14  16
ENDBRANCH  10  14
BRANCH   1  18
HETATM   18  N1  UNL     1     -13.710 -14.479 -33.082  1.00  0.00    -0.245 N 
HETATM   19  C1  UNL     1     -14.233 -13.133 -32.990  1.00  0.00     0.187 C 
BRANCH  18  20
HETATM   20  O1  UNL     1     -13.694 -15.048 -34.319  1.00  0.00    -0.286 OA
ATOM     21  H1  UNL     1     -12.841 -15.249 -34.686  1.00  0.00     0.244 HD
ENDBRANCH  18  20
ENDBRANCH   1  18
BRANCH   4  22
HETATM   22  C4  UNL     1     -10.316 -14.525 -29.795  1.00  0.00     0.284 C 
HETATM   23  N3  UNL     1      -9.093 -14.288 -30.444  1.00  0.00    -0.056 NA
HETATM   24  O2  UNL     1     -10.478 -13.989 -28.652  1.00  0.00    -0.269 OA
ENDBRANCH   4  22
TORSDOF 5
ENDMDL
MODEL 5
REMARK VINA RESULT: -5.776402891      1.558      4.129
REMARK  5 active torsions:
REMARK  status: ('A' for Active; 'I' for Inactive)
REMARK    1  A    between atoms: N1_2  and  O1_3 
REMARK    2  A    between atoms: N1_2  and  C2_5 
REMARK    3  A    between atoms: C3_8  and  C4_9 
REMARK    4  A    between atoms: N6_17  and  N7_19 
REMARK    5  A    between atoms: N7_19  and  O3_21 
ROOT
HETATM    1  C2  UNL     1     -14.203 -17.188 -30.429  1.00  0.00     0.182 C 
HETATM    2  N2  UNL     1     -15.001 -16.560 -31.344  1.00  0.00    -0.331 N 
ATOM      3  H2  UNL     1     -15.935 -16.949 -31.463  1.00  0.00     0.168 HD
HETATM    4  C3  UNL     1     -14.704 -15.485 -32.110  1.00  0.00     0.141 C 
HETATM    5  C5  UNL     1     -13.458 -15.000 -32.436  1.00  0.00     0.150 C 
HETATM    6  N4  UNL     1     -13.438 -14.266 -33.649  1.00  0.00    -0.080 NA
HETATM    7  N5  UNL     1     -12.273 -15.127 -31.770  1.00  0.00    -0.324 N 
ATOM      8  H5  UNL     1     -11.507 -14.522 -32.067  1.00  0.00     0.169 HD
HETATM    9  C6  UNL     1     -12.024 -15.977 -30.756  1.00  0.00     0.178 C 
HETATM   10  N6  UNL     1     -10.831 -15.915 -30.255  1.00  0.00    -0.262 N 
ATOM     11  H6  UNL     1     -10.585 -16.536 -29.484  1.00  0.00     0.190 HD
HETATM   12  C7  UNL     1     -12.876 -16.901 -30.187  1.00  0.00     0.262 C 
HETATM   13  O4  UNL     1     -12.383 -17.638 -29.274  1.00  0.00    -0.280 OA
ENDROOT
BRANCH  10  14
HETATM   14  N7  UNL     1      -9.871 -15.022 -30.741  1.00  0.00    -0.208 N 
ATOM     15  H7  UNL     1      -9.149 -15.310 -31.403  1.00  0.00     0.215 HD
BRANCH  14  16
HETATM   16  O3  UNL     1      -9.952 -13.834 -30.309  1.00  0.00    -0.274 OA
ATOM     17  H3  UNL     1      -9.507 -13.660 -29.487  1.00  0.00     0.246 HD
ENDBRANCH  14  16
ENDBRANCH  10  14
BRANCH   1  18
HETATM   18  N1  UNL     1     -14.787 -18.227 -29.656  1.00  0.00    -0.245 N 
HETATM   19  C1  UNL     1     -15.850 -18.009 -28.698  1.00  0.00     0.187 C 
BRANCH  18  20
HETATM   20  O1  UNL     1     -14.344 -19.507 -29.799  1.00  0.00    -0.286 OA
ATOM     21  H1  UNL     1     -14.519 -19.929 -30.632  1.00  0.00     0.244 HD
ENDBRANCH  18  20
ENDBRANCH   1  18
BRANCH   4  22
HETATM   22  C4  UNL     1     -15.824 -14.739 -32.668  1.00  0.00     0.284 C 
HETATM   23  N3  UNL     1     -16.569 -15.164 -33.780  1.00  0.00    -0.056 NA
HETATM   24  O2  UNL     1     -16.165 -13.636 -32.131  1.00  0.00    -0.269 OA
ENDBRANCH   4  22
TORSDOF 5
ENDMDL
