MODEL 1
REMARK VINA RESULT: -6.796761501      0.000      0.000
REMARK  5 active torsions:
REMARK  status: ('A' for Active; 'I' for Inactive)
REMARK    1  A    between atoms: C2_2  and  O1_3 
REMARK    2  A    between atoms: C2_2  and  N1_5 
REMARK    3  A    between atoms: C4_10  and  N3_11 
REMARK    4  A    between atoms: C5_16  and  N5_17 
REMARK    5  A    between atoms: N5_17  and  N7_20 
ROOT
HETATM    1  N5  UNL     1     -14.318 -14.829 -33.253  1.00  0.00    -0.006 N 
HETATM    2  C6  UNL     1     -14.639 -13.480 -33.407  1.00  0.00     0.221 C 
HETATM    3  N6  UNL     1     -14.925 -12.352 -33.546  1.00  0.00    -0.169 NA
ENDROOT
BRANCH   1   4
HETATM    4  C5  UNL     1     -13.558 -15.262 -32.134  1.00  0.00     0.731 C 
HETATM    5  N4  UNL     1     -13.826 -16.499 -31.657  1.00  0.00    -0.020 N 
HETATM    6  C4  UNL     1     -13.183 -17.230 -30.721  1.00  0.00     0.692 C 
ATOM      7  H4  UNL     1     -14.642 -16.952 -32.069  1.00  0.00     0.203 HD
HETATM    8  N2  UNL     1     -12.101 -16.841 -30.030  1.00  0.00    -0.171 N 
HETATM    9  C3  UNL     1     -11.313 -15.718 -30.140  1.00  0.00     0.188 C 
ATOM     10  H2  UNL     1     -11.812 -17.489 -29.297  1.00  0.00     0.186 HD
HETATM   11  N1  UNL     1     -10.134 -15.799 -29.763  1.00  0.00    -0.345 N 
HETATM   12  C8  UNL     1     -11.752 -14.510 -30.636  1.00  0.00     0.304 C 
ATOM     13  H1  UNL     1      -9.920 -16.732 -29.411  1.00  0.00     0.163 HD
HETATM   14  N9  UNL     1     -12.648 -14.389 -31.663  1.00  0.00    -0.150 N 
HETATM   15  O2  UNL     1     -11.320 -13.456 -30.131  1.00  0.00    -0.263 OA
ATOM     16  H9  UNL     1     -12.622 -13.494 -32.151  1.00  0.00     0.188 HD
BRANCH   6  17
HETATM   17  N3  UNL     1     -13.661 -18.416 -30.472  1.00  0.00    -0.234 N 
ATOM     18  H32 UNL     1     -13.005 -19.195 -30.519  1.00  0.00     0.174 HD
ATOM     19  H31 UNL     1     -14.654 -18.486 -30.249  1.00  0.00     0.174 HD
ENDBRANCH   6  17
BRANCH  11  20
HETATM   20  C2  UNL     1      -9.022 -14.960 -29.691  1.00  0.00     0.215 C 
HETATM   21  C1  UNL     1      -8.898 -14.146 -28.432  1.00  0.00     0.063 C 
BRANCH  20  22
HETATM   22  O1  UNL     1      -8.929 -14.058 -30.770  1.00  0.00    -0.377 OA
ATOM     23  H1  UNL     1      -8.977 -14.575 -31.565  1.00  0.00     0.212 HD
ENDBRANCH  20  22
ENDBRANCH  11  20
ENDBRANCH   1   4
BRANCH   1  24
HETATM   24  N7  UNL     1     -14.751 -15.751 -34.210  1.00  0.00    -0.206 N 
HETATM   25  C7  UNL     1     -16.044 -15.788 -34.714  1.00  0.00     0.199 C 
HETATM   26  N8  UNL     1     -17.106 -15.813 -35.128  1.00  0.00    -0.170 NA
ATOM     27  H7  UNL     1     -14.079 -16.435 -34.558  1.00  0.00     0.201 HD
ENDBRANCH   1  24
TORSDOF 5
ENDMDL
MODEL 2
REMARK VINA RESULT: -6.773863603      1.012      1.043
REMARK  5 active torsions:
REMARK  status: ('A' for Active; 'I' for Inactive)
REMARK    1  A    between atoms: C2_2  and  O1_3 
REMARK    2  A    between atoms: C2_2  and  N1_5 
REMARK    3  A    between atoms: C4_10  and  N3_11 
REMARK    4  A    between atoms: C5_16  and  N5_17 
REMARK    5  A    between atoms: N5_17  and  N7_20 
ROOT
HETATM    1  N5  UNL     1     -14.591 -14.625 -33.452  1.00  0.00    -0.006 N 
HETATM    2  C6  UNL     1     -15.061 -13.343 -33.741  1.00  0.00     0.221 C 
HETATM    3  N6  UNL     1     -15.470 -12.274 -33.993  1.00  0.00    -0.169 NA
ENDROOT
BRANCH   1   4
HETATM    4  C5  UNL     1     -13.831 -14.862 -32.276  1.00  0.00     0.731 C 
HETATM    5  N4  UNL     1     -13.852 -16.121 -31.781  1.00  0.00    -0.020 N 
HETATM    6  C4  UNL     1     -13.127 -16.677 -30.786  1.00  0.00     0.692 C 
ATOM      7  H4  UNL     1     -14.519 -16.748 -32.228  1.00  0.00     0.203 HD
HETATM    8  N2  UNL     1     -12.205 -16.048 -30.042  1.00  0.00    -0.171 N 
HETATM    9  C3  UNL     1     -11.678 -14.780 -30.136  1.00  0.00     0.188 C 
ATOM     10  H2  UNL     1     -11.830 -16.605 -29.274  1.00  0.00     0.186 HD
HETATM   11  N1  UNL     1     -10.537 -14.593 -29.686  1.00  0.00    -0.345 N 
HETATM   12  C8  UNL     1     -12.337 -13.707 -30.693  1.00  0.00     0.304 C 
ATOM     13  H1  UNL     1     -10.147 -15.450 -29.293  1.00  0.00     0.163 HD
HETATM   14  N9  UNL     1     -13.168 -13.803 -31.777  1.00  0.00    -0.150 N 
HETATM   15  O2  UNL     1     -12.182 -12.576 -30.194  1.00  0.00    -0.263 OA
ATOM     16  H9  UNL     1     -13.307 -12.932 -32.288  1.00  0.00     0.188 HD
BRANCH   6  17
HETATM   17  N3  UNL     1     -13.349 -17.935 -30.532  1.00  0.00    -0.234 N 
ATOM     18  H32 UNL     1     -13.586 -18.174 -29.569  1.00  0.00     0.174 HD
ATOM     19  H31 UNL     1     -13.272 -18.594 -31.307  1.00  0.00     0.174 HD
ENDBRANCH   6  17
BRANCH  11  20
HETATM   20  C2  UNL     1      -9.643 -13.528 -29.571  1.00  0.00     0.215 C 
HETATM   21  C1  UNL     1      -8.198 -13.905 -29.394  1.00  0.00     0.063 C 
BRANCH  20  22
HETATM   22  O1  UNL     1      -9.963 -12.639 -28.525  1.00  0.00    -0.377 OA
ATOM     23  H1  UNL     1     -10.204 -13.171 -27.776  1.00  0.00     0.212 HD
ENDBRANCH  20  22
ENDBRANCH  11  20
ENDBRANCH   1   4
BRANCH   1  24
HETATM   24  N7  UNL     1     -14.877 -15.674 -34.330  1.00  0.00    -0.206 N 
HETATM   25  C7  UNL     1     -16.125 -15.881 -34.903  1.00  0.00     0.199 C 
HETATM   26  N8  UNL     1     -17.149 -16.046 -35.374  1.00  0.00    -0.170 NA
ATOM     27  H7  UNL     1     -14.126 -16.324 -34.564  1.00  0.00     0.201 HD
ENDBRANCH   1  24
TORSDOF 5
ENDMDL
MODEL 3
REMARK VINA RESULT: -6.756531824      2.726      5.882
REMARK  5 active torsions:
REMARK  status: ('A' for Active; 'I' for Inactive)
REMARK    1  A    between atoms: C2_2  and  O1_3 
REMARK    2  A    between atoms: C2_2  and  N1_5 
REMARK    3  A    between atoms: C4_10  and  N3_11 
REMARK    4  A    between atoms: C5_16  and  N5_17 
REMARK    5  A    between atoms: N5_17  and  N7_20 
ROOT
HETATM    1  N5  UNL     1     -12.091 -13.453 -29.996  1.00  0.00    -0.006 N 
HETATM    2  C6  UNL     1     -12.579 -12.151 -29.885  1.00  0.00     0.221 C 
HETATM    3  N6  UNL     1     -12.973 -11.051 -29.787  1.00  0.00    -0.169 NA
ENDROOT
BRANCH   1   4
HETATM    4  C5  UNL     1     -12.689 -14.369 -30.902  1.00  0.00     0.731 C 
HETATM    5  N4  UNL     1     -12.850 -15.640 -30.466  1.00  0.00    -0.020 N 
HETATM    6  C4  UNL     1     -13.508 -16.677 -31.029  1.00  0.00     0.692 C 
ATOM      7  H4  UNL     1     -12.404 -15.848 -29.573  1.00  0.00     0.203 HD
HETATM    8  N2  UNL     1     -14.152 -16.651 -32.205  1.00  0.00    -0.171 N 
HETATM    9  C3  UNL     1     -14.416 -15.612 -33.069  1.00  0.00     0.188 C 
ATOM     10  H2  UNL     1     -14.507 -17.556 -32.512  1.00  0.00     0.186 HD
HETATM   11  N1  UNL     1     -15.408 -15.711 -33.806  1.00  0.00    -0.345 N 
HETATM   12  C8  UNL     1     -13.646 -14.474 -33.170  1.00  0.00     0.304 C 
ATOM     13  H1  UNL     1     -15.899 -16.592 -33.653  1.00  0.00     0.163 HD
HETATM   14  N9  UNL     1     -13.034 -13.873 -32.104  1.00  0.00    -0.150 N 
HETATM   15  O2  UNL     1     -13.485 -13.950 -34.289  1.00  0.00    -0.263 OA
ATOM     16  H9  UNL     1     -12.801 -12.890 -32.243  1.00  0.00     0.188 HD
BRANCH   6  17
HETATM   17  N3  UNL     1     -13.511 -17.798 -30.366  1.00  0.00    -0.234 N 
ATOM     18  H32 UNL     1     -13.865 -17.764 -29.410  1.00  0.00     0.174 HD
ATOM     19  H31 UNL     1     -13.162 -18.630 -30.842  1.00  0.00     0.174 HD
ENDBRANCH   6  17
BRANCH  11  20
HETATM   20  C2  UNL     1     -16.035 -14.944 -34.789  1.00  0.00     0.215 C 
HETATM   21  C1  UNL     1     -17.355 -14.338 -34.401  1.00  0.00     0.063 C 
BRANCH  20  22
HETATM   22  O1  UNL     1     -16.245 -15.642 -35.995  1.00  0.00    -0.377 OA
ATOM     23  H1  UNL     1     -15.476 -16.180 -36.139  1.00  0.00     0.212 HD
ENDBRANCH  20  22
ENDBRANCH  11  20
ENDBRANCH   1   4
BRANCH   1  24
HETATM   24  N7  UNL     1     -11.007 -13.848 -29.207  1.00  0.00    -0.206 N 
HETATM   25  C7  UNL     1      -9.693 -13.478 -29.462  1.00  0.00     0.199 C 
HETATM   26  N8  UNL     1      -8.617 -13.167 -29.671  1.00  0.00    -0.170 NA
ATOM     27  H7  UNL     1     -11.191 -14.442 -28.399  1.00  0.00     0.201 HD
ENDBRANCH   1  24
TORSDOF 5
ENDMDL
MODEL 4
REMARK VINA RESULT: -6.754783431      2.561      3.650
REMARK  5 active torsions:
REMARK  status: ('A' for Active; 'I' for Inactive)
REMARK    1  A    between atoms: C2_2  and  O1_3 
REMARK    2  A    between atoms: C2_2  and  N1_5 
REMARK    3  A    between atoms: C4_10  and  N3_11 
REMARK    4  A    between atoms: C5_16  and  N5_17 
REMARK    5  A    between atoms: N5_17  and  N7_20 
ROOT
HETATM    1  N5  UNL     1     -14.089 -14.933 -33.133  1.00  0.00    -0.006 N 
HETATM    2  C6  UNL     1     -14.278 -13.551 -33.127  1.00  0.00     0.221 C 
HETATM    3  N6  UNL     1     -14.452 -12.392 -33.132  1.00  0.00    -0.169 NA
ENDROOT
BRANCH   1   4
HETATM    4  C5  UNL     1     -13.369 -15.563 -32.082  1.00  0.00     0.731 C 
HETATM    5  N4  UNL     1     -12.214 -14.972 -31.695  1.00  0.00    -0.020 N 
HETATM    6  C4  UNL     1     -11.405 -15.243 -30.648  1.00  0.00     0.692 C 
ATOM      7  H4  UNL     1     -11.907 -14.201 -32.288  1.00  0.00     0.203 HD
HETATM    8  N2  UNL     1     -11.592 -16.218 -29.746  1.00  0.00    -0.171 N 
HETATM    9  C3  UNL     1     -12.639 -17.092 -29.562  1.00  0.00     0.188 C 
ATOM     10  H2  UNL     1     -10.825 -16.332 -29.083  1.00  0.00     0.186 HD
HETATM   11  N1  UNL     1     -12.821 -17.545 -28.421  1.00  0.00    -0.345 N 
HETATM   12  C8  UNL     1     -13.494 -17.498 -30.562  1.00  0.00     0.304 C 
ATOM     13  H1  UNL     1     -12.130 -17.184 -27.764  1.00  0.00     0.163 HD
HETATM   14  N9  UNL     1     -13.914 -16.686 -31.581  1.00  0.00    -0.150 N 
HETATM   15  O2  UNL     1     -13.919 -18.669 -30.557  1.00  0.00    -0.263 OA
ATOM     16  H9  UNL     1     -14.780 -16.979 -32.033  1.00  0.00     0.188 HD
BRANCH   6  17
HETATM   17  N3  UNL     1     -10.354 -14.488 -30.509  1.00  0.00    -0.234 N 
ATOM     18  H32 UNL     1     -10.019 -14.009 -31.346  1.00  0.00     0.174 HD
ATOM     19  H31 UNL     1      -9.937 -14.425 -29.580  1.00  0.00     0.174 HD
ENDBRANCH   6  17
BRANCH  11  20
HETATM   20  C2  UNL     1     -13.713 -18.415 -27.795  1.00  0.00     0.215 C 
HETATM   21  C1  UNL     1     -13.957 -18.159 -26.333  1.00  0.00     0.063 C 
BRANCH  20  22
HETATM   22  O1  UNL     1     -13.353 -19.771 -27.916  1.00  0.00    -0.377 OA
ATOM     23  H1  UNL     1     -13.975 -20.268 -27.398  1.00  0.00     0.212 HD
ENDBRANCH  20  22
ENDBRANCH  11  20
ENDBRANCH   1   4
BRANCH   1  24
HETATM   24  N7  UNL     1     -14.615 -15.693 -34.181  1.00  0.00    -0.206 N 
HETATM   25  C7  UNL     1     -15.951 -15.668 -34.556  1.00  0.00     0.199 C 
HETATM   26  N8  UNL     1     -17.048 -15.640 -34.863  1.00  0.00    -0.170 NA
ATOM     27  H7  UNL     1     -13.981 -16.301 -34.700  1.00  0.00     0.201 HD
ENDBRANCH   1  24
TORSDOF 5
ENDMDL
MODEL 5
REMARK VINA RESULT: -6.590640795      2.283      5.902
REMARK  5 active torsions:
REMARK  status: ('A' for Active; 'I' for Inactive)
REMARK    1  A    between atoms: C2_2  and  O1_3 
REMARK    2  A    between atoms: C2_2  and  N1_5 
REMARK    3  A    between atoms: C4_10  and  N3_11 
REMARK    4  A    between atoms: C5_16  and  N5_17 
REMARK    5  A    between atoms: N5_17  and  N7_20 
ROOT
HETATM    1  N5  UNL     1     -10.534 -16.031 -29.880  1.00  0.00    -0.006 N 
HETATM    2  C6  UNL     1      -9.823 -14.845 -30.067  1.00  0.00     0.221 C 
HETATM    3  N6  UNL     1      -9.210 -13.858 -30.222  1.00  0.00    -0.169 NA
ENDROOT
BRANCH   1   4
HETATM    4  C5  UNL     1     -11.792 -16.220 -30.513  1.00  0.00     0.731 C 
HETATM    5  N4  UNL     1     -12.495 -17.319 -30.154  1.00  0.00    -0.020 N 
HETATM    6  C4  UNL     1     -13.759 -17.683 -30.462  1.00  0.00     0.692 C 
ATOM      7  H4  UNL     1     -11.992 -17.975 -29.557  1.00  0.00     0.203 HD
HETATM    8  N2  UNL     1     -14.604 -16.994 -31.243  1.00  0.00    -0.171 N 
HETATM    9  C3  UNL     1     -14.490 -15.752 -31.825  1.00  0.00     0.188 C 
ATOM     10  H2  UNL     1     -15.483 -17.474 -31.440  1.00  0.00     0.186 HD
HETATM   11  N1  UNL     1     -15.535 -15.131 -32.071  1.00  0.00    -0.345 N 
HETATM   12  C8  UNL     1     -13.292 -15.158 -32.154  1.00  0.00     0.304 C 
ATOM     13  H1  UNL     1     -16.359 -15.664 -31.794  1.00  0.00     0.163 HD
HETATM   14  N9  UNL     1     -12.151 -15.282 -31.408  1.00  0.00    -0.150 N 
HETATM   15  O2  UNL     1     -13.224 -14.466 -33.188  1.00  0.00    -0.263 OA
ATOM     16  H9  UNL     1     -11.462 -14.544 -31.554  1.00  0.00     0.188 HD
BRANCH   6  17
HETATM   17  N3  UNL     1     -14.186 -18.803 -29.953  1.00  0.00    -0.234 N 
ATOM     18  H32 UNL     1     -15.173 -19.022 -30.090  1.00  0.00     0.174 HD
ATOM     19  H31 UNL     1     -13.511 -19.382 -29.453  1.00  0.00     0.174 HD
ENDBRANCH   6  17
BRANCH  11  20
HETATM   20  C2  UNL     1     -15.889 -13.901 -32.627  1.00  0.00     0.215 C 
HETATM   21  C1  UNL     1     -17.164 -13.293 -32.110  1.00  0.00     0.063 C 
BRANCH  20  22
HETATM   22  O1  UNL     1     -15.992 -13.929 -34.032  1.00  0.00    -0.377 OA
ATOM     23  H1  UNL     1     -15.145 -14.201 -34.364  1.00  0.00     0.212 HD
ENDBRANCH  20  22
ENDBRANCH  11  20
ENDBRANCH   1   4
BRANCH   1  24
HETATM   24  N7  UNL     1      -9.997 -17.031 -29.065  1.00  0.00    -0.206 N 
HETATM   25  C7  UNL     1      -9.988 -16.972 -27.678  1.00  0.00     0.199 C 
HETATM   26  N8  UNL     1      -9.986 -16.922 -26.540  1.00  0.00    -0.170 NA
ATOM     27  H7  UNL     1      -9.589 -17.850 -29.515  1.00  0.00     0.201 HD
ENDBRANCH   1  24
TORSDOF 5
ENDMDL
