MODEL 1
REMARK VINA RESULT: -8.270908185      0.000      0.000
REMARK  9 active torsions:
REMARK  status: ('A' for Active; 'I' for Inactive)
REMARK    1  A    between atoms: C2_2  and  N1_3 
REMARK    2  A    between atoms: C4_8  and  O1_9 
REMARK    3  A    between atoms: C5_11  and  O2_12 
REMARK    4  A    between atoms: C6_14  and  C7_15 
REMARK       I    between atoms: C7_15  and  N3_17 
REMARK    5  A    between atoms: N3_17  and  N4_19 
REMARK    6  A    between atoms: C8_22  and  O4_23 
REMARK    7  A    between atoms: O4_23  and  N5_24 
REMARK    8  A    between atoms: N5_24  and  C9_25 
REMARK    9  A    between atoms: C9_25  and  C11_28 
ROOT
HETATM    1  C9  UNL     1     123.986 101.450  12.472  1.00  0.00     0.283 C 
HETATM    2  C10 UNL     1     123.456 100.827  13.682  1.00  0.00     0.141 C 
HETATM    3  N6  UNL     1     123.043 100.344  14.647  1.00  0.00    -0.188 NA
ENDROOT
BRANCH   1   4
HETATM    4  N5  UNL     1     123.366 102.251  11.849  1.00  0.00    -0.259 NA
BRANCH   4   5
HETATM    5  O4  UNL     1     122.707 103.102  11.211  1.00  0.00    -0.166 OA
BRANCH   5   6
HETATM    6  C8  UNL     1     122.548 104.489  11.240  1.00  0.00     0.144 C 
HETATM    7  C6  UNL     1     123.267 105.290  10.494  1.00  0.00     0.080 C 
HETATM    8  C5  UNL     1     122.878 106.693  10.736  1.00  0.00     0.225 C 
HETATM    9  C4  UNL     1     121.525 106.597  11.409  1.00  0.00     0.294 C 
HETATM   10  N2  UNL     1     120.444 106.419  10.458  1.00  0.00    -0.011 N 
HETATM   11  C12 UNL     1     121.609 105.271  12.065  1.00  0.00     0.351 C 
HETATM   12  C3  UNL     1     119.489 105.547  11.113  1.00  0.00     0.507 C 
ATOM     13  H22 UNL     1     120.753 106.078   9.547  1.00  0.00     0.283 HD
ATOM     14  H21 UNL     1     120.041 107.295  10.128  1.00  0.00     0.283 HD
HETATM   15  N1  UNL     1     120.267 104.727  12.041  1.00  0.00     0.129 N 
BRANCH   7  16
HETATM   16  C7  UNL     1     124.326 104.881   9.530  1.00  0.00     0.271 C 
HETATM   17  O3  UNL     1     124.256 105.276   8.340  1.00  0.00    -0.266 OA
HETATM   18  N3  UNL     1     125.390 104.074   9.904  1.00  0.00    -0.273 N 
ATOM     19  H3  UNL     1     125.459 103.742  10.866  1.00  0.00     0.189 HD
BRANCH  18  20
HETATM   20  N4  UNL     1     126.367 103.710   8.976  1.00  0.00    -0.342 N 
ATOM     21  H42 UNL     1     126.420 104.222   8.095  1.00  0.00     0.176 HD
ATOM     22  H41 UNL     1     127.014 102.948   9.175  1.00  0.00     0.176 HD
ENDBRANCH  18  20
ENDBRANCH   7  16
BRANCH   8  23
HETATM   23  O2  UNL     1     122.684 107.412   9.553  1.00  0.00    -0.386 OA
ATOM     24  H2  UNL     1     123.464 107.283   9.026  1.00  0.00     0.210 HD
ENDBRANCH   8  23
BRANCH   9  25
HETATM   25  O1  UNL     1     121.297 107.609  12.303  1.00  0.00    -0.361 OA
ATOM     26  H1  UNL     1     121.786 107.512  13.112  1.00  0.00     0.212 HD
ENDBRANCH   9  25
BRANCH  15  27
HETATM   27  C2  UNL     1     119.707 104.823  13.366  1.00  0.00     0.271 C 
HETATM   28  C1  UNL     1     120.523 104.130  14.418  1.00  0.00     0.037 C 
ENDBRANCH  15  27
ENDBRANCH   5   6
ENDBRANCH   4   5
ENDBRANCH   1   4
BRANCH   1  29
HETATM   29  C11 UNL     1     125.332 100.993  12.096  1.00  0.00     0.309 C 
HETATM   30  N7  UNL     1     126.075 100.075  12.870  1.00  0.00    -0.054 NA
HETATM   31  O5  UNL     1     125.907 101.404  11.042  1.00  0.00    -0.267 OA
ENDBRANCH   1  29
TORSDOF 9
ENDMDL
MODEL 2
REMARK VINA RESULT: -8.236213982      1.365      1.497
REMARK  9 active torsions:
REMARK  status: ('A' for Active; 'I' for Inactive)
REMARK    1  A    between atoms: C2_2  and  N1_3 
REMARK    2  A    between atoms: C4_8  and  O1_9 
REMARK    3  A    between atoms: C5_11  and  O2_12 
REMARK    4  A    between atoms: C6_14  and  C7_15 
REMARK       I    between atoms: C7_15  and  N3_17 
REMARK    5  A    between atoms: N3_17  and  N4_19 
REMARK    6  A    between atoms: C8_22  and  O4_23 
REMARK    7  A    between atoms: O4_23  and  N5_24 
REMARK    8  A    between atoms: N5_24  and  C9_25 
REMARK    9  A    between atoms: C9_25  and  C11_28 
ROOT
HETATM    1  C9  UNL     1     124.566 101.003  12.843  1.00  0.00     0.283 C 
HETATM    2  C10 UNL     1     123.414 100.602  13.647  1.00  0.00     0.141 C 
HETATM    3  N6  UNL     1     122.507 100.295  14.293  1.00  0.00    -0.188 NA
ENDROOT
BRANCH   1   4
HETATM    4  N5  UNL     1     124.468 101.766  11.936  1.00  0.00    -0.259 NA
BRANCH   4   5
HETATM    5  O4  UNL     1     124.355 102.580  10.993  1.00  0.00    -0.166 OA
BRANCH   5   6
HETATM    6  C8  UNL     1     123.720 103.807  10.786  1.00  0.00     0.144 C 
HETATM    7  C6  UNL     1     123.946 104.540   9.724  1.00  0.00     0.080 C 
HETATM    8  C5  UNL     1     123.136 105.772   9.777  1.00  0.00     0.225 C 
HETATM    9  C4  UNL     1     122.065 105.473  10.804  1.00  0.00     0.294 C 
HETATM   10  N2  UNL     1     120.957 104.721  10.246  1.00  0.00    -0.011 N 
HETATM   11  C12 UNL     1     122.741 104.474  11.664  1.00  0.00     0.351 C 
HETATM   12  C3  UNL     1     120.521 103.828  11.302  1.00  0.00     0.507 C 
ATOM     13  H22 UNL     1     121.184 104.244   9.374  1.00  0.00     0.283 HD
ATOM     14  H21 UNL     1     120.211 105.308   9.872  1.00  0.00     0.283 HD
HETATM   15  N1  UNL     1     121.705 103.573  12.123  1.00  0.00     0.129 N 
BRANCH   7  16
HETATM   16  C7  UNL     1     124.874 104.209   8.607  1.00  0.00     0.271 C 
HETATM   17  O3  UNL     1     124.404 104.022   7.457  1.00  0.00    -0.266 OA
HETATM   18  N3  UNL     1     126.243 104.096   8.796  1.00  0.00    -0.273 N 
ATOM     19  H3  UNL     1     126.639 104.241   9.725  1.00  0.00     0.189 HD
BRANCH  18  20
HETATM   20  N4  UNL     1     127.084 103.786   7.727  1.00  0.00    -0.342 N 
ATOM     21  H42 UNL     1     127.005 102.867   7.291  1.00  0.00     0.176 HD
ATOM     22  H41 UNL     1     127.765 104.465   7.388  1.00  0.00     0.176 HD
ENDBRANCH  18  20
ENDBRANCH   7  16
BRANCH   8  23
HETATM   23  O2  UNL     1     122.473 106.036   8.575  1.00  0.00    -0.386 OA
ATOM     24  H2  UNL     1     121.827 105.349   8.465  1.00  0.00     0.210 HD
ENDBRANCH   8  23
BRANCH   9  25
HETATM   25  O1  UNL     1     121.667 106.582  11.504  1.00  0.00    -0.361 OA
ATOM     26  H1  UNL     1     120.831 106.469  11.941  1.00  0.00     0.212 HD
ENDBRANCH   9  25
BRANCH  15  27
HETATM   27  C2  UNL     1     121.415 103.870  13.504  1.00  0.00     0.271 C 
HETATM   28  C1  UNL     1     119.992 104.279  13.748  1.00  0.00     0.037 C 
ENDBRANCH  15  27
ENDBRANCH   5   6
ENDBRANCH   4   5
ENDBRANCH   1   4
BRANCH   1  29
HETATM   29  C11 UNL     1     125.833 100.378  13.246  1.00  0.00     0.309 C 
HETATM   30  N7  UNL     1     126.434 100.603  14.505  1.00  0.00    -0.054 NA
HETATM   31  O5  UNL     1     126.465  99.591  12.476  1.00  0.00    -0.267 OA
ENDBRANCH   1  29
TORSDOF 9
ENDMDL
MODEL 3
REMARK VINA RESULT: -8.187167881      2.091      5.328
REMARK  9 active torsions:
REMARK  status: ('A' for Active; 'I' for Inactive)
REMARK    1  A    between atoms: C2_2  and  N1_3 
REMARK    2  A    between atoms: C4_8  and  O1_9 
REMARK    3  A    between atoms: C5_11  and  O2_12 
REMARK    4  A    between atoms: C6_14  and  C7_15 
REMARK       I    between atoms: C7_15  and  N3_17 
REMARK    5  A    between atoms: N3_17  and  N4_19 
REMARK    6  A    between atoms: C8_22  and  O4_23 
REMARK    7  A    between atoms: O4_23  and  N5_24 
REMARK    8  A    between atoms: N5_24  and  C9_25 
REMARK    9  A    between atoms: C9_25  and  C11_28 
ROOT
HETATM    1  C9  UNL     1     121.146 105.923  10.484  1.00  0.00     0.283 C 
HETATM    2  C10 UNL     1     120.471 106.093  11.768  1.00  0.00     0.141 C 
HETATM    3  N6  UNL     1     119.925 106.225  12.778  1.00  0.00    -0.188 NA
ENDROOT
BRANCH   1   4
HETATM    4  N5  UNL     1     121.657 104.896  10.170  1.00  0.00    -0.259 NA
BRANCH   4   5
HETATM    5  O4  UNL     1     122.178 103.811   9.830  1.00  0.00    -0.166 OA
BRANCH   5   6
HETATM    6  C8  UNL     1     123.352 103.115  10.128  1.00  0.00     0.144 C 
HETATM    7  C6  UNL     1     124.432 103.218   9.393  1.00  0.00     0.080 C 
HETATM    8  C5  UNL     1     125.506 102.374   9.950  1.00  0.00     0.225 C 
HETATM    9  C4  UNL     1     125.062 102.088  11.369  1.00  0.00     0.294 C 
HETATM   10  N2  UNL     1     125.384 103.171  12.280  1.00  0.00    -0.011 N 
HETATM   11  C12 UNL     1     123.588 102.187  11.249  1.00  0.00     0.351 C 
HETATM   12  C3  UNL     1     124.289 103.221  13.228  1.00  0.00     0.507 C 
ATOM     13  H22 UNL     1     125.563 104.060  11.812  1.00  0.00     0.283 HD
ATOM     14  H21 UNL     1     126.301 103.078  12.717  1.00  0.00     0.283 HD
HETATM   15  N1  UNL     1     123.118 102.715  12.513  1.00  0.00     0.129 N 
BRANCH   7  16
HETATM   16  C7  UNL     1     124.588 104.055   8.171  1.00  0.00     0.271 C 
HETATM   17  O3  UNL     1     125.440 103.726   7.308  1.00  0.00    -0.266 OA
HETATM   18  N3  UNL     1     123.823 105.192   7.955  1.00  0.00    -0.273 N 
ATOM     19  H3  UNL     1     123.130 105.474   8.648  1.00  0.00     0.189 HD
BRANCH  18  20
HETATM   20  N4  UNL     1     123.994 105.953   6.799  1.00  0.00    -0.342 N 
ATOM     21  H42 UNL     1     124.691 105.658   6.116  1.00  0.00     0.176 HD
ATOM     22  H41 UNL     1     123.432 106.789   6.639  1.00  0.00     0.176 HD
ENDBRANCH  18  20
ENDBRANCH   7  16
BRANCH   8  23
HETATM   23  O2  UNL     1     126.728 103.046  10.043  1.00  0.00    -0.386 OA
ATOM     24  H2  UNL     1     126.607 103.744  10.678  1.00  0.00     0.210 HD
ENDBRANCH   8  23
BRANCH   9  25
HETATM   25  O1  UNL     1     125.469 100.861  11.823  1.00  0.00    -0.361 OA
ATOM     26  H1  UNL     1     125.085 100.625  12.660  1.00  0.00     0.212 HD
ENDBRANCH   9  25
BRANCH  15  27
HETATM   27  C2  UNL     1     122.513 101.642  13.263  1.00  0.00     0.271 C 
HETATM   28  C1  UNL     1     121.113 101.936  13.715  1.00  0.00     0.037 C 
ENDBRANCH  15  27
ENDBRANCH   5   6
ENDBRANCH   4   5
ENDBRANCH   1   4
BRANCH   1  29
HETATM   29  C11 UNL     1     121.144 107.123   9.635  1.00  0.00     0.309 C 
HETATM   30  N7  UNL     1     120.357 108.262   9.918  1.00  0.00    -0.054 NA
HETATM   31  O5  UNL     1     121.857 107.203   8.588  1.00  0.00    -0.267 OA
ENDBRANCH   1  29
TORSDOF 9
ENDMDL
MODEL 4
REMARK VINA RESULT: -8.134864453      2.720      7.107
REMARK  9 active torsions:
REMARK  status: ('A' for Active; 'I' for Inactive)
REMARK    1  A    between atoms: C2_2  and  N1_3 
REMARK    2  A    between atoms: C4_8  and  O1_9 
REMARK    3  A    between atoms: C5_11  and  O2_12 
REMARK    4  A    between atoms: C6_14  and  C7_15 
REMARK       I    between atoms: C7_15  and  N3_17 
REMARK    5  A    between atoms: N3_17  and  N4_19 
REMARK    6  A    between atoms: C8_22  and  O4_23 
REMARK    7  A    between atoms: O4_23  and  N5_24 
REMARK    8  A    between atoms: N5_24  and  C9_25 
REMARK    9  A    between atoms: C9_25  and  C11_28 
ROOT
HETATM    1  C9  UNL     1     120.630 103.119  12.924  1.00  0.00     0.283 C 
HETATM    2  C10 UNL     1     119.924 104.048  13.803  1.00  0.00     0.141 C 
HETATM    3  N6  UNL     1     119.352 104.774  14.496  1.00  0.00    -0.188 NA
ENDROOT
BRANCH   1   4
HETATM    4  N5  UNL     1     121.255 102.200  13.347  1.00  0.00    -0.259 NA
BRANCH   4   5
HETATM    5  O4  UNL     1     121.929 101.242  13.785  1.00  0.00    -0.166 OA
BRANCH   5   6
HETATM    6  C8  UNL     1     123.259 101.023  14.149  1.00  0.00     0.144 C 
HETATM    7  C6  UNL     1     123.602 100.118  15.032  1.00  0.00     0.080 C 
HETATM    8  C5  UNL     1     125.067 100.113  15.209  1.00  0.00     0.225 C 
HETATM    9  C4  UNL     1     125.596 100.839  13.991  1.00  0.00     0.294 C 
HETATM   10  N2  UNL     1     125.693  99.975  12.829  1.00  0.00    -0.011 N 
HETATM   11  C12 UNL     1     124.457 101.723  13.649  1.00  0.00     0.351 C 
HETATM   12  C3  UNL     1     125.362 100.812  11.693  1.00  0.00     0.507 C 
ATOM     13  H22 UNL     1     125.123  99.132  12.898  1.00  0.00     0.283 HD
ATOM     14  H21 UNL     1     126.594  99.505  12.744  1.00  0.00     0.283 HD
HETATM   15  N1  UNL     1     124.464 101.845  12.206  1.00  0.00     0.129 N 
BRANCH   7  16
HETATM   16  C7  UNL     1     122.678  99.209  15.765  1.00  0.00     0.271 C 
HETATM   17  O3  UNL     1     122.605  99.289  17.017  1.00  0.00    -0.266 OA
HETATM   18  N3  UNL     1     121.894  98.271  15.109  1.00  0.00    -0.273 N 
ATOM     19  H3  UNL     1     121.945  98.192  14.093  1.00  0.00     0.189 HD
BRANCH  18  20
HETATM   20  N4  UNL     1     121.037  97.436  15.826  1.00  0.00    -0.342 N 
ATOM     21  H42 UNL     1     121.028  96.440  15.608  1.00  0.00     0.176 HD
ATOM     22  H41 UNL     1     120.431  97.815  16.554  1.00  0.00     0.176 HD
ENDBRANCH  18  20
ENDBRANCH   7  16
BRANCH   8  23
HETATM   23  O2  UNL     1     125.612  98.826  15.174  1.00  0.00    -0.386 OA
ATOM     24  H2  UNL     1     125.056  98.281  15.719  1.00  0.00     0.210 HD
ENDBRANCH   8  23
BRANCH   9  25
HETATM   25  O1  UNL     1     126.746 101.541  14.240  1.00  0.00    -0.361 OA
ATOM     26  H1  UNL     1     127.215 101.784  13.450  1.00  0.00     0.212 HD
ENDBRANCH   9  25
BRANCH  15  27
HETATM   27  C2  UNL     1     124.970 103.150  11.858  1.00  0.00     0.271 C 
HETATM   28  C1  UNL     1     125.531 103.228  10.468  1.00  0.00     0.037 C 
ENDBRANCH  15  27
ENDBRANCH   5   6
ENDBRANCH   4   5
ENDBRANCH   1   4
BRANCH   1  29
HETATM   29  C11 UNL     1     120.508 103.429  11.492  1.00  0.00     0.309 C 
HETATM   30  N7  UNL     1     119.268 103.689  10.866  1.00  0.00    -0.054 NA
HETATM   31  O5  UNL     1     121.522 103.481  10.730  1.00  0.00    -0.267 OA
ENDBRANCH   1  29
TORSDOF 9
ENDMDL
MODEL 5
REMARK VINA RESULT: -7.940329048      2.044      2.592
REMARK  9 active torsions:
REMARK  status: ('A' for Active; 'I' for Inactive)
REMARK    1  A    between atoms: C2_2  and  N1_3 
REMARK    2  A    between atoms: C4_8  and  O1_9 
REMARK    3  A    between atoms: C5_11  and  O2_12 
REMARK    4  A    between atoms: C6_14  and  C7_15 
REMARK       I    between atoms: C7_15  and  N3_17 
REMARK    5  A    between atoms: N3_17  and  N4_19 
REMARK    6  A    between atoms: C8_22  and  O4_23 
REMARK    7  A    between atoms: O4_23  and  N5_24 
REMARK    8  A    between atoms: N5_24  and  C9_25 
REMARK    9  A    between atoms: C9_25  and  C11_28 
ROOT
HETATM    1  C9  UNL     1     123.157 103.099  10.626  1.00  0.00     0.283 C 
HETATM    2  C10 UNL     1     123.176 102.270  11.828  1.00  0.00     0.141 C 
HETATM    3  N6  UNL     1     123.200 101.624  12.785  1.00  0.00    -0.188 NA
ENDROOT
BRANCH   1   4
HETATM    4  N5  UNL     1     122.288 103.883  10.413  1.00  0.00    -0.259 NA
BRANCH   4   5
HETATM    5  O4  UNL     1     121.363 104.693  10.183  1.00  0.00    -0.166 OA
BRANCH   5   6
HETATM    6  C8  UNL     1     121.063 106.012  10.531  1.00  0.00     0.144 C 
HETATM    7  C6  UNL     1     121.464 107.032   9.813  1.00  0.00     0.080 C 
HETATM    8  C5  UNL     1     120.998 108.293  10.421  1.00  0.00     0.225 C 
HETATM    9  C4  UNL     1     119.892 107.869  11.365  1.00  0.00     0.294 C 
HETATM   10  N2  UNL     1     118.624 107.683  10.684  1.00  0.00    -0.011 N 
HETATM   11  C12 UNL     1     120.294 106.483  11.698  1.00  0.00     0.351 C 
HETATM   12  C3  UNL     1     117.981 106.572  11.358  1.00  0.00     0.507 C 
ATOM     13  H22 UNL     1     118.716 107.553   9.676  1.00  0.00     0.283 HD
ATOM     14  H21 UNL     1     118.052 108.526  10.646  1.00  0.00     0.283 HD
HETATM   15  N1  UNL     1     119.064 105.743  11.886  1.00  0.00     0.129 N 
BRANCH   7  16
HETATM   16  C7  UNL     1     122.268 106.965   8.562  1.00  0.00     0.271 C 
HETATM   17  O3  UNL     1     122.136 107.871   7.701  1.00  0.00    -0.266 OA
HETATM   18  N3  UNL     1     123.158 105.932   8.312  1.00  0.00    -0.273 N 
ATOM     19  H3  UNL     1     123.273 105.187   9.000  1.00  0.00     0.189 HD
BRANCH  18  20
HETATM   20  N4  UNL     1     123.898 105.901   7.130  1.00  0.00    -0.342 N 
ATOM     21  H42 UNL     1     124.672 106.556   7.019  1.00  0.00     0.176 HD
ATOM     22  H41 UNL     1     123.669 105.236   6.391  1.00  0.00     0.176 HD
ENDBRANCH  18  20
ENDBRANCH   7  16
BRANCH   8  23
HETATM   23  O2  UNL     1     120.417 109.160   9.491  1.00  0.00    -0.386 OA
ATOM     24  H2  UNL     1     121.114 109.436   8.906  1.00  0.00     0.210 HD
ENDBRANCH   8  23
BRANCH   9  25
HETATM   25  O1  UNL     1     119.797 108.668  12.474  1.00  0.00    -0.361 OA
ATOM     26  H1  UNL     1     120.195 109.523  12.355  1.00  0.00     0.212 HD
ENDBRANCH   9  25
BRANCH  15  27
HETATM   27  C2  UNL     1     118.869 105.524  13.297  1.00  0.00     0.271 C 
HETATM   28  C1  UNL     1     119.837 104.545  13.896  1.00  0.00     0.037 C 
ENDBRANCH  15  27
ENDBRANCH   5   6
ENDBRANCH   4   5
ENDBRANCH   1   4
BRANCH   1  29
HETATM   29  C11 UNL     1     124.288 102.871   9.715  1.00  0.00     0.309 C 
HETATM   30  N7  UNL     1     125.562 102.457  10.162  1.00  0.00    -0.054 NA
HETATM   31  O5  UNL     1     124.180 103.036   8.461  1.00  0.00    -0.267 OA
ENDBRANCH   1  29
TORSDOF 9
ENDMDL
