MODEL 1
REMARK VINA RESULT: -7.943640915      0.000      0.000
REMARK  9 active torsions:
REMARK  status: ('A' for Active; 'I' for Inactive)
REMARK    1  A    between atoms: C2_3  and  O1_4 
REMARK    2  A    between atoms: C3_6  and  C4_7 
REMARK    3  A    between atoms: C4_7  and  O2_8 
REMARK    4  A    between atoms: C4_7  and  O3_10 
REMARK    5  A    between atoms: N2_12  and  C5_13 
REMARK    6  A    between atoms: C7_16  and  C8_17 
REMARK    7  A    between atoms: C9_22  and  C10_23 
REMARK    8  A    between atoms: C10_23  and  O6_24 
REMARK    9  A    between atoms: C10_23  and  O7_26 
ROOT
HETATM    1  C5  UNL     1     121.816 104.229  10.646  1.00  0.00     0.191 C 
HETATM    2  C6  UNL     1     121.797 105.732  10.800  1.00  0.00     0.080 C 
HETATM    3  N3  UNL     1     122.899 106.614  10.814  1.00  0.00    -0.102 NA
HETATM    4  C7  UNL     1     120.486 106.120  10.889  1.00  0.00     0.128 C 
HETATM    5  N4  UNL     1     119.745 104.919  10.721  1.00  0.00    -0.155 NA
HETATM    6  N5  UNL     1     119.275 103.636  10.712  1.00  0.00    -0.121 NA
HETATM    7  C9  UNL     1     120.503 103.931  11.395  1.00  0.00     0.194 A 
ENDROOT
BRANCH   1   8
HETATM    8  N2  UNL     1     122.935 103.551  11.109  1.00  0.00    -0.281 N 
HETATM    9  C3  UNL     1     123.829 102.925  10.299  1.00  0.00     0.123 A 
HETATM   10  C2  UNL     1     124.786 102.373  11.127  1.00  0.00     0.174 A 
HETATM   11  N1  UNL     1     124.510 102.638  12.391  1.00  0.00    -0.282 N 
HETATM   12  C1  UNL     1     125.283 102.227  13.565  1.00  0.00     0.163 C 
HETATM   13  C11 UNL     1     123.364 103.364  12.355  1.00  0.00     0.331 A 
HETATM   14  O8  UNL     1     122.895 103.741  13.478  1.00  0.00    -0.246 OA
BRANCH   9  15
HETATM   15  C4  UNL     1     123.939 102.746   8.861  1.00  0.00     0.310 C 
BRANCH  15  16
HETATM   16  O2  UNL     1     125.299 102.924   8.498  1.00  0.00    -0.366 OA
ATOM     17  H2  UNL     1     125.612 102.111   8.118  1.00  0.00     0.213 HD
ENDBRANCH  15  16
BRANCH  15  18
HETATM   18  O3  UNL     1     123.204 103.446   8.005  1.00  0.00    -0.366 OA
ATOM     19  H3  UNL     1     123.399 103.472   7.075  1.00  0.00     0.213 HD
ENDBRANCH  15  18
ENDBRANCH   9  15
BRANCH  10  20
HETATM   20  O1  UNL     1     125.925 101.621  10.748  1.00  0.00    -0.344 OA
ATOM     21  H1  UNL     1     126.285 101.660   9.870  1.00  0.00     0.219 HD
ENDBRANCH  10  20
ENDBRANCH   1   8
BRANCH   7  22
HETATM   22  C10 UNL     1     120.454 103.654  12.835  1.00  0.00     0.298 C 
BRANCH  22  23
HETATM   23  O6  UNL     1     120.263 102.260  13.023  1.00  0.00    -0.368 OA
ATOM     24  H6  UNL     1     119.427 102.123  13.454  1.00  0.00     0.212 HD
ENDBRANCH  22  23
BRANCH  22  25
HETATM   25  O7  UNL     1     119.290 104.194  13.457  1.00  0.00    -0.368 OA
ATOM     26  H7  UNL     1     119.280 105.144  13.448  1.00  0.00     0.212 HD
ENDBRANCH  22  25
ENDBRANCH   7  22
BRANCH   4  27
HETATM   27  C8  UNL     1     120.073 107.482  11.050  1.00  0.00     0.224 C 
HETATM   28  O4  UNL     1     119.860 108.208  10.064  1.00  0.00    -0.643 OA
HETATM   29  O5  UNL     1     119.907 108.005  12.312  1.00  0.00    -0.643 OA
ENDBRANCH   4  27
TORSDOF 9
ENDMDL
MODEL 2
REMARK VINA RESULT: -7.758918109      3.462      6.034
REMARK  9 active torsions:
REMARK  status: ('A' for Active; 'I' for Inactive)
REMARK    1  A    between atoms: C2_3  and  O1_4 
REMARK    2  A    between atoms: C3_6  and  C4_7 
REMARK    3  A    between atoms: C4_7  and  O2_8 
REMARK    4  A    between atoms: C4_7  and  O3_10 
REMARK    5  A    between atoms: N2_12  and  C5_13 
REMARK    6  A    between atoms: C7_16  and  C8_17 
REMARK    7  A    between atoms: C9_22  and  C10_23 
REMARK    8  A    between atoms: C10_23  and  O6_24 
REMARK    9  A    between atoms: C10_23  and  O7_26 
ROOT
HETATM    1  C5  UNL     1     124.104 100.690  12.678  1.00  0.00     0.191 C 
HETATM    2  C6  UNL     1     125.197 101.016  11.688  1.00  0.00     0.080 C 
HETATM    3  N3  UNL     1     126.458 100.394  11.557  1.00  0.00    -0.102 NA
HETATM    4  C7  UNL     1     124.737 102.023  10.882  1.00  0.00     0.128 C 
HETATM    5  N4  UNL     1     123.402 102.245  11.315  1.00  0.00    -0.155 NA
HETATM    6  N5  UNL     1     122.235 102.387  12.012  1.00  0.00    -0.121 NA
HETATM    7  C9  UNL     1     123.448 102.083  12.721  1.00  0.00     0.194 A 
ENDROOT
BRANCH   1   8
HETATM    8  N2  UNL     1     124.485 100.172  13.908  1.00  0.00    -0.281 N 
HETATM    9  C3  UNL     1     123.637  99.530  14.754  1.00  0.00     0.123 A 
HETATM   10  C2  UNL     1     124.384  99.172  15.858  1.00  0.00     0.174 A 
HETATM   11  N1  UNL     1     125.636  99.566  15.715  1.00  0.00    -0.282 N 
HETATM   12  C1  UNL     1     126.733  99.374  16.666  1.00  0.00     0.163 C 
HETATM   13  C11 UNL     1     125.674 100.181  14.506  1.00  0.00     0.331 A 
HETATM   14  O8  UNL     1     126.801 100.654  14.144  1.00  0.00    -0.246 OA
BRANCH   9  15
HETATM   15  C4  UNL     1     122.223  99.195  14.709  1.00  0.00     0.310 C 
BRANCH  15  16
HETATM   16  O2  UNL     1     121.489 100.322  15.159  1.00  0.00    -0.366 OA
ATOM     17  H2  UNL     1     120.600 100.040  15.345  1.00  0.00     0.213 HD
ENDBRANCH  15  16
BRANCH  15  18
HETATM   18  O3  UNL     1     121.732  98.127  15.326  1.00  0.00    -0.366 OA
ATOM     19  H3  UNL     1     121.473  98.148  16.241  1.00  0.00     0.213 HD
ENDBRANCH  15  18
ENDBRANCH   9  15
BRANCH  10  20
HETATM   20  O1  UNL     1     123.941  98.480  17.012  1.00  0.00    -0.344 OA
ATOM     21  H1  UNL     1     124.393  98.548  17.845  1.00  0.00     0.219 HD
ENDBRANCH  10  20
ENDBRANCH   1   8
BRANCH   7  22
HETATM   22  C10 UNL     1     123.837 103.117  13.686  1.00  0.00     0.298 C 
BRANCH  22  23
HETATM   23  O6  UNL     1     123.241 104.347  13.300  1.00  0.00    -0.368 OA
ATOM     24  H6  UNL     1     122.324 104.331  13.546  1.00  0.00     0.212 HD
ENDBRANCH  22  23
BRANCH  22  25
HETATM   25  O7  UNL     1     125.226 103.433  13.619  1.00  0.00    -0.368 OA
ATOM     26  H7  UNL     1     125.779 102.693  13.844  1.00  0.00     0.212 HD
ENDBRANCH  22  25
ENDBRANCH   7  22
BRANCH   4  27
HETATM   27  C8  UNL     1     125.506 102.602   9.822  1.00  0.00     0.224 C 
HETATM   28  O4  UNL     1     126.071 103.700   9.965  1.00  0.00    -0.643 OA
HETATM   29  O5  UNL     1     125.626 101.942   8.621  1.00  0.00    -0.643 OA
ENDBRANCH   4  27
TORSDOF 9
ENDMDL
MODEL 3
REMARK VINA RESULT: -7.734494733      2.920      5.886
REMARK  9 active torsions:
REMARK  status: ('A' for Active; 'I' for Inactive)
REMARK    1  A    between atoms: C2_3  and  O1_4 
REMARK    2  A    between atoms: C3_6  and  C4_7 
REMARK    3  A    between atoms: C4_7  and  O2_8 
REMARK    4  A    between atoms: C4_7  and  O3_10 
REMARK    5  A    between atoms: N2_12  and  C5_13 
REMARK    6  A    between atoms: C7_16  and  C8_17 
REMARK    7  A    between atoms: C9_22  and  C10_23 
REMARK    8  A    between atoms: C10_23  and  O6_24 
REMARK    9  A    between atoms: C10_23  and  O7_26 
ROOT
HETATM    1  C5  UNL     1     120.441 106.490  10.212  1.00  0.00     0.191 C 
HETATM    2  C6  UNL     1     121.592 105.671   9.676  1.00  0.00     0.080 C 
HETATM    3  N3  UNL     1     121.825 104.290   9.850  1.00  0.00    -0.102 NA
HETATM    4  C7  UNL     1     122.382 106.508   8.933  1.00  0.00     0.128 C 
HETATM    5  N4  UNL     1     121.702 107.756   8.956  1.00  0.00    -0.155 NA
HETATM    6  N5  UNL     1     120.968 108.866   9.267  1.00  0.00    -0.121 NA
HETATM    7  C9  UNL     1     121.165 107.849  10.263  1.00  0.00     0.194 A 
ENDROOT
BRANCH   1   8
HETATM    8  N2  UNL     1     119.860 106.078  11.403  1.00  0.00    -0.281 N 
HETATM    9  C3  UNL     1     118.573 106.344  11.749  1.00  0.00     0.123 A 
HETATM   10  C2  UNL     1     118.377 105.775  12.991  1.00  0.00     0.174 A 
HETATM   11  N1  UNL     1     119.482 105.183  13.406  1.00  0.00    -0.282 N 
HETATM   12  C1  UNL     1     119.676 104.469  14.670  1.00  0.00     0.163 C 
HETATM   13  C11 UNL     1     120.382 105.383  12.411  1.00  0.00     0.331 A 
HETATM   14  O8  UNL     1     121.545 104.893  12.589  1.00  0.00    -0.246 OA
BRANCH   9  15
HETATM   15  C4  UNL     1     117.479 107.056  11.108  1.00  0.00     0.310 C 
BRANCH  15  16
HETATM   16  O2  UNL     1     117.302 108.291  11.783  1.00  0.00    -0.366 OA
ATOM     17  H2  UNL     1     116.397 108.560  11.674  1.00  0.00     0.213 HD
ENDBRANCH  15  16
BRANCH  15  18
HETATM   18  O3  UNL     1     116.278 106.511  10.955  1.00  0.00    -0.366 OA
ATOM     19  H3  UNL     1     116.134 105.757  10.393  1.00  0.00     0.213 HD
ENDBRANCH  15  18
ENDBRANCH   9  15
BRANCH  10  20
HETATM   20  O1  UNL     1     117.193 105.785  13.768  1.00  0.00    -0.344 OA
ATOM     21  H1  UNL     1     116.746 106.592  13.997  1.00  0.00     0.219 HD
ENDBRANCH  10  20
ENDBRANCH   1   8
BRANCH   7  22
HETATM   22  C10 UNL     1     121.886 108.322  11.449  1.00  0.00     0.298 C 
BRANCH  22  23
HETATM   23  O6  UNL     1     120.958 108.944  12.326  1.00  0.00    -0.368 OA
ATOM     24  H6  UNL     1     120.123 109.023  11.879  1.00  0.00     0.212 HD
ENDBRANCH  22  23
BRANCH  22  25
HETATM   25  O7  UNL     1     122.776 109.397  11.156  1.00  0.00    -0.368 OA
ATOM     26  H7  UNL     1     122.650 109.746  10.281  1.00  0.00     0.212 HD
ENDBRANCH  22  25
ENDBRANCH   7  22
BRANCH   4  27
HETATM   27  C8  UNL     1     123.578 106.085   8.269  1.00  0.00     0.224 C 
HETATM   28  O4  UNL     1     123.755 106.311   7.060  1.00  0.00    -0.643 OA
HETATM   29  O5  UNL     1     124.553 105.415   8.971  1.00  0.00    -0.643 OA
ENDBRANCH   4  27
TORSDOF 9
ENDMDL
MODEL 4
REMARK VINA RESULT: -7.628743609      1.490      1.621
REMARK  9 active torsions:
REMARK  status: ('A' for Active; 'I' for Inactive)
REMARK    1  A    between atoms: C2_3  and  O1_4 
REMARK    2  A    between atoms: C3_6  and  C4_7 
REMARK    3  A    between atoms: C4_7  and  O2_8 
REMARK    4  A    between atoms: C4_7  and  O3_10 
REMARK    5  A    between atoms: N2_12  and  C5_13 
REMARK    6  A    between atoms: C7_16  and  C8_17 
REMARK    7  A    between atoms: C9_22  and  C10_23 
REMARK    8  A    between atoms: C10_23  and  O6_24 
REMARK    9  A    between atoms: C10_23  and  O7_26 
ROOT
HETATM    1  C5  UNL     1     122.293 103.669  10.393  1.00  0.00     0.191 C 
HETATM    2  C6  UNL     1     122.788 105.080  10.173  1.00  0.00     0.080 C 
HETATM    3  N3  UNL     1     124.122 105.512  10.011  1.00  0.00    -0.102 NA
HETATM    4  C7  UNL     1     121.690 105.897  10.115  1.00  0.00     0.128 C 
HETATM    5  N4  UNL     1     120.581 105.015  10.219  1.00  0.00    -0.155 NA
HETATM    6  N5  UNL     1     119.707 104.005  10.508  1.00  0.00    -0.121 NA
HETATM    7  C9  UNL     1     120.995 104.025  11.143  1.00  0.00     0.194 A 
ENDROOT
BRANCH   1   8
HETATM    8  N2  UNL     1     123.139 102.787  11.050  1.00  0.00    -0.281 N 
HETATM    9  C3  UNL     1     124.393 102.483  10.623  1.00  0.00     0.123 A 
HETATM   10  C2  UNL     1     124.906 101.580  11.532  1.00  0.00     0.174 A 
HETATM   11  N1  UNL     1     124.023 101.329  12.481  1.00  0.00    -0.282 N 
HETATM   12  C1  UNL     1     124.191 100.427  13.623  1.00  0.00     0.163 C 
HETATM   13  C11 UNL     1     122.942 102.084  12.162  1.00  0.00     0.331 A 
HETATM   14  O8  UNL     1     121.943 102.006  12.949  1.00  0.00    -0.246 OA
BRANCH   9  15
HETATM   15  C4  UNL     1     125.204 102.893   9.488  1.00  0.00     0.310 C 
BRANCH  15  16
HETATM   16  O2  UNL     1     125.394 101.763   8.651  1.00  0.00    -0.366 OA
ATOM     17  H2  UNL     1     124.946 101.926   7.829  1.00  0.00     0.213 HD
ENDBRANCH  15  16
BRANCH  15  18
HETATM   18  O3  UNL     1     126.385 103.479   9.641  1.00  0.00    -0.366 OA
ATOM     19  H3  UNL     1     126.613 104.282   9.186  1.00  0.00     0.213 HD
ENDBRANCH  15  18
ENDBRANCH   9  15
BRANCH  10  20
HETATM   20  O1  UNL     1     126.184 100.969  11.514  1.00  0.00    -0.344 OA
ATOM     21  H1  UNL     1     126.557 100.601  10.722  1.00  0.00     0.219 HD
ENDBRANCH  10  20
ENDBRANCH   1   8
BRANCH   7  22
HETATM   22  C10 UNL     1     120.926 104.140  12.604  1.00  0.00     0.298 C 
BRANCH  22  23
HETATM   23  O6  UNL     1     119.719 103.538  13.050  1.00  0.00    -0.368 OA
ATOM     24  H6  UNL     1     119.086 104.224  13.228  1.00  0.00     0.212 HD
ENDBRANCH  22  23
BRANCH  22  25
HETATM   25  O7  UNL     1     120.758 105.487  13.039  1.00  0.00    -0.368 OA
ATOM     26  H7  UNL     1     120.678 105.557  13.984  1.00  0.00     0.212 HD
ENDBRANCH  22  25
ENDBRANCH   7  22
BRANCH   4  27
HETATM   27  C8  UNL     1     121.768 107.314   9.921  1.00  0.00     0.224 C 
HETATM   28  O4  UNL     1     121.550 107.822   8.808  1.00  0.00    -0.643 OA
HETATM   29  O5  UNL     1     122.089 108.135  10.977  1.00  0.00    -0.643 OA
ENDBRANCH   4  27
TORSDOF 9
ENDMDL
MODEL 5
REMARK VINA RESULT: -7.570716682      2.658      5.397
REMARK  9 active torsions:
REMARK  status: ('A' for Active; 'I' for Inactive)
REMARK    1  A    between atoms: C2_3  and  O1_4 
REMARK    2  A    between atoms: C3_6  and  C4_7 
REMARK    3  A    between atoms: C4_7  and  O2_8 
REMARK    4  A    between atoms: C4_7  and  O3_10 
REMARK    5  A    between atoms: N2_12  and  C5_13 
REMARK    6  A    between atoms: C7_16  and  C8_17 
REMARK    7  A    between atoms: C9_22  and  C10_23 
REMARK    8  A    between atoms: C10_23  and  O6_24 
REMARK    9  A    between atoms: C10_23  and  O7_26 
ROOT
HETATM    1  C5  UNL     1     124.060 104.868  10.486  1.00  0.00     0.191 C 
HETATM    2  C6  UNL     1     124.780 103.606  10.899  1.00  0.00     0.080 C 
HETATM    3  N3  UNL     1     125.895 103.004  10.276  1.00  0.00    -0.102 NA
HETATM    4  C7  UNL     1     124.179 103.143  12.039  1.00  0.00     0.128 C 
HETATM    5  N4  UNL     1     123.192 104.118  12.344  1.00  0.00    -0.155 NA
HETATM    6  N5  UNL     1     122.220 105.079  12.326  1.00  0.00    -0.121 NA
HETATM    7  C9  UNL     1     122.684 104.522  11.086  1.00  0.00     0.194 A 
ENDROOT
BRANCH   1   8
HETATM    8  N2  UNL     1     124.058 105.194   9.137  1.00  0.00    -0.281 N 
HETATM    9  C3  UNL     1     123.698 106.412   8.653  1.00  0.00     0.123 A 
HETATM   10  C2  UNL     1     123.826 106.340   7.281  1.00  0.00     0.174 A 
HETATM   11  N1  UNL     1     124.245 105.142   6.919  1.00  0.00    -0.282 N 
HETATM   12  C1  UNL     1     124.501 104.674   5.555  1.00  0.00     0.163 C 
HETATM   13  C11 UNL     1     124.380 104.452   8.080  1.00  0.00     0.331 A 
HETATM   14  O8  UNL     1     124.780 103.246   7.981  1.00  0.00    -0.246 OA
BRANCH   9  15
HETATM   15  C4  UNL     1     123.240 107.649   9.265  1.00  0.00     0.310 C 
BRANCH  15  16
HETATM   16  O2  UNL     1     121.859 107.798   8.978  1.00  0.00    -0.366 OA
ATOM     17  H2  UNL     1     121.437 108.169   9.745  1.00  0.00     0.213 HD
ENDBRANCH  15  16
BRANCH  15  18
HETATM   18  O3  UNL     1     123.826 108.815   9.019  1.00  0.00    -0.366 OA
ATOM     19  H3  UNL     1     123.327 109.597   8.812  1.00  0.00     0.213 HD
ENDBRANCH  15  18
ENDBRANCH   9  15
BRANCH  10  20
HETATM   20  O1  UNL     1     123.565 107.362   6.335  1.00  0.00    -0.344 OA
ATOM     21  H1  UNL     1     122.681 107.601   6.082  1.00  0.00     0.219 HD
ENDBRANCH  10  20
ENDBRANCH   1   8
BRANCH   7  22
HETATM   22  C10 UNL     1     121.636 103.830  10.327  1.00  0.00     0.298 C 
BRANCH  22  23
HETATM   23  O6  UNL     1     120.855 104.799   9.644  1.00  0.00    -0.368 OA
ATOM     24  H6  UNL     1     120.320 104.356   8.996  1.00  0.00     0.212 HD
ENDBRANCH  22  23
BRANCH  22  25
HETATM   25  O7  UNL     1     120.665 103.214  11.170  1.00  0.00    -0.368 OA
ATOM     26  H7  UNL     1     120.459 102.327  10.901  1.00  0.00     0.212 HD
ENDBRANCH  22  25
ENDBRANCH   7  22
BRANCH   4  27
HETATM   27  C8  UNL     1     124.589 101.954  12.723  1.00  0.00     0.224 C 
HETATM   28  O4  UNL     1     123.975 100.884  12.575  1.00  0.00    -0.643 OA
HETATM   29  O5  UNL     1     125.680 101.985  13.561  1.00  0.00    -0.643 OA
ENDBRANCH   4  27
TORSDOF 9
ENDMDL
