MODEL 1
REMARK VINA RESULT: -10.517367495      0.000      0.000
REMARK  7 active torsions:
REMARK  status: ('A' for Active; 'I' for Inactive)
REMARK    1  A    between atoms: C1_2  and  C2_4 
REMARK    2  A    between atoms: C4_9  and  N3_10 
REMARK    3  A    between atoms: N7_22  and  C9_23 
REMARK    4  A    between atoms: C9_23  and  O4_24 
REMARK    5  A    between atoms: C9_23  and  C10_26 
REMARK    6  A    between atoms: C10_26  and  O5_27 
REMARK    7  A    between atoms: C11_29  and  O6_30 
ROOT
HETATM    1  N3  UNL     1     123.691 101.548  13.406  1.00  0.00    -0.249 N 
HETATM    2  C5  UNL     1     122.379 101.626  13.621  1.00  0.00     0.333 A 
HETATM    3  O2  UNL     1     121.713 102.510  12.977  1.00  0.00    -0.246 OA
HETATM    4  N4  UNL     1     121.783 100.800  14.488  1.00  0.00    -0.273 N 
ATOM      5  H4  UNL     1     120.777 100.886  14.631  1.00  0.00     0.173 HD
HETATM    6  C6  UNL     1     122.453  99.863  15.179  1.00  0.00     0.281 A 
HETATM    7  O3  UNL     1     121.903  99.087  15.990  1.00  0.00    -0.265 OA
HETATM    8  C7  UNL     1     123.814  99.741  14.991  1.00  0.00     0.165 A 
HETATM    9  C8  UNL     1     124.385 100.612  14.089  1.00  0.00     0.161 A 
HETATM   10  N5  UNL     1     125.699 100.292  14.089  1.00  0.00    -0.267 N 
ATOM     11  H5  UNL     1     126.417 100.748  13.527  1.00  0.00     0.186 HD
HETATM   12  N6  UNL     1     125.907  99.296  14.932  1.00  0.00    -0.015 NA
HETATM   13  N7  UNL     1     124.759  98.925  15.513  1.00  0.00    -0.236 N 
ENDROOT
BRANCH   1  14
HETATM   14  C4  UNL     1     124.379 102.413  12.482  1.00  0.00     0.326 C 
HETATM   15  N2  UNL     1     123.654 103.598  12.119  1.00  0.00    -0.050 N 
HETATM   16  C3  UNL     1     124.291 104.030  10.890  1.00  0.00     0.251 C 
ATOM     17  H22 UNL     1     123.619 104.311  12.848  1.00  0.00     0.279 HD
ATOM     18  H21 UNL     1     122.644 103.468  12.047  1.00  0.00     0.279 HD
HETATM   19  C2  UNL     1     124.345 102.736  10.103  1.00  0.00     0.133 C 
HETATM   20  C11 UNL     1     124.767 101.752  11.190  1.00  0.00     0.183 C 
BRANCH  19  21
HETATM   21  C1  UNL     1     125.290 102.798   8.982  1.00  0.00     0.239 C 
HETATM   22  N1  UNL     1     125.865 103.987   8.476  1.00  0.00    -0.062 NA
HETATM   23  O1  UNL     1     125.624 101.724   8.417  1.00  0.00    -0.276 OA
ENDBRANCH  19  21
BRANCH  20  24
HETATM   24  O6  UNL     1     126.176 101.665  11.096  1.00  0.00    -0.391 OA
ATOM     25  H6  UNL     1     126.402 102.075  10.269  1.00  0.00     0.210 HD
ENDBRANCH  20  24
ENDBRANCH   1  14
BRANCH  13  26
HETATM   26  C9  UNL     1     124.568  97.875  16.492  1.00  0.00     0.263 C 
BRANCH  26  27
HETATM   27  O4  UNL     1     123.459  97.066  16.151  1.00  0.00    -0.373 OA
ATOM     28  H4  UNL     1     123.720  96.158  16.053  1.00  0.00     0.212 HD
ENDBRANCH  26  27
BRANCH  26  29
HETATM   29  C10 UNL     1     124.354  98.439  17.880  1.00  0.00     0.219 C 
BRANCH  29  30
HETATM   30  O5  UNL     1     123.083  98.134  18.361  1.00  0.00    -0.397 OA
ATOM     31  H5  UNL     1     122.919  97.199  18.331  1.00  0.00     0.209 HD
ENDBRANCH  29  30
ENDBRANCH  26  29
ENDBRANCH  13  26
TORSDOF 7
ENDMDL
MODEL 2
REMARK VINA RESULT: -10.503471109      1.882      6.669
REMARK  7 active torsions:
REMARK  status: ('A' for Active; 'I' for Inactive)
REMARK    1  A    between atoms: C1_2  and  C2_4 
REMARK    2  A    between atoms: C4_9  and  N3_10 
REMARK    3  A    between atoms: N7_22  and  C9_23 
REMARK    4  A    between atoms: C9_23  and  O4_24 
REMARK    5  A    between atoms: C9_23  and  C10_26 
REMARK    6  A    between atoms: C10_26  and  O5_27 
REMARK    7  A    between atoms: C11_29  and  O6_30 
ROOT
HETATM    1  N3  UNL     1     123.265 101.215  13.168  1.00  0.00    -0.249 N 
HETATM    2  C5  UNL     1     122.220 101.996  13.435  1.00  0.00     0.333 A 
HETATM    3  O2  UNL     1     121.427 101.642  14.376  1.00  0.00    -0.246 OA
HETATM    4  N4  UNL     1     122.013 103.115  12.733  1.00  0.00    -0.273 N 
ATOM      5  H4  UNL     1     121.202 103.692  12.962  1.00  0.00     0.173 HD
HETATM    6  C6  UNL     1     122.826 103.514  11.740  1.00  0.00     0.281 A 
HETATM    7  O3  UNL     1     122.638 104.559  11.081  1.00  0.00    -0.265 OA
HETATM    8  C7  UNL     1     123.923 102.740  11.426  1.00  0.00     0.165 A 
HETATM    9  C8  UNL     1     124.097 101.596  12.174  1.00  0.00     0.161 A 
HETATM   10  N5  UNL     1     125.219 101.029  11.676  1.00  0.00    -0.267 N 
ATOM     11  H5  UNL     1     125.636 100.159  12.006  1.00  0.00     0.186 HD
HETATM   12  N6  UNL     1     125.691 101.778  10.696  1.00  0.00    -0.015 NA
HETATM   13  N7  UNL     1     124.912 102.851  10.509  1.00  0.00    -0.236 N 
ENDROOT
BRANCH   1  14
HETATM   14  C4  UNL     1     123.532 100.000  13.895  1.00  0.00     0.326 C 
HETATM   15  N2  UNL     1     122.458  99.560  14.740  1.00  0.00    -0.050 N 
HETATM   16  C3  UNL     1     123.103  98.658  15.676  1.00  0.00     0.251 C 
ATOM     17  H22 UNL     1     121.669  99.153  14.239  1.00  0.00     0.279 HD
ATOM     18  H21 UNL     1     121.931 100.316  15.178  1.00  0.00     0.279 HD
HETATM   19  C2  UNL     1     124.305  99.474  16.108  1.00  0.00     0.133 C 
HETATM   20  C11 UNL     1     124.751 100.062  14.772  1.00  0.00     0.183 C 
BRANCH  19  21
HETATM   21  C1  UNL     1     125.338  98.656  16.752  1.00  0.00     0.239 C 
HETATM   22  N1  UNL     1     126.550  99.159  17.283  1.00  0.00    -0.062 NA
HETATM   23  O1  UNL     1     125.151  97.416  16.849  1.00  0.00    -0.276 OA
ENDBRANCH  19  21
BRANCH  20  24
HETATM   24  O6  UNL     1     125.744  99.180  14.283  1.00  0.00    -0.391 OA
ATOM     25  H6  UNL     1     125.326  98.690  13.584  1.00  0.00     0.210 HD
ENDBRANCH  20  24
ENDBRANCH   1  14
BRANCH  13  26
HETATM   26  C9  UNL     1     125.090 103.908   9.535  1.00  0.00     0.263 C 
BRANCH  26  27
HETATM   27  O4  UNL     1     123.949 104.023   8.705  1.00  0.00    -0.373 OA
ATOM     28  H4  UNL     1     124.203 104.174   7.802  1.00  0.00     0.212 HD
ENDBRANCH  26  27
BRANCH  26  29
HETATM   29  C10 UNL     1     126.305 103.665   8.665  1.00  0.00     0.219 C 
BRANCH  29  30
HETATM   30  O5  UNL     1     126.140 102.534   7.868  1.00  0.00    -0.397 OA
ATOM     31  H5  UNL     1     126.403 101.746   8.329  1.00  0.00     0.209 HD
ENDBRANCH  29  30
ENDBRANCH  26  29
ENDBRANCH  13  26
TORSDOF 7
ENDMDL
MODEL 3
REMARK VINA RESULT: -10.475750914      2.185      3.954
REMARK  7 active torsions:
REMARK  status: ('A' for Active; 'I' for Inactive)
REMARK    1  A    between atoms: C1_2  and  C2_4 
REMARK    2  A    between atoms: C4_9  and  N3_10 
REMARK    3  A    between atoms: N7_22  and  C9_23 
REMARK    4  A    between atoms: C9_23  and  O4_24 
REMARK    5  A    between atoms: C9_23  and  C10_26 
REMARK    6  A    between atoms: C10_26  and  O5_27 
REMARK    7  A    between atoms: C11_29  and  O6_30 
ROOT
HETATM    1  N3  UNL     1     123.686 101.343  13.418  1.00  0.00    -0.249 N 
HETATM    2  C5  UNL     1     124.934 101.625  13.049  1.00  0.00     0.333 A 
HETATM    3  O2  UNL     1     125.106 102.376  12.025  1.00  0.00    -0.246 OA
HETATM    4  N4  UNL     1     125.972 101.133  13.734  1.00  0.00    -0.273 N 
ATOM      5  H4  UNL     1     126.916 101.368  13.425  1.00  0.00     0.173 HD
HETATM    6  C6  UNL     1     125.825 100.344  14.811  1.00  0.00     0.281 A 
HETATM    7  O3  UNL     1     126.790  99.881  15.456  1.00  0.00    -0.265 OA
HETATM    8  C7  UNL     1     124.552 100.023  15.233  1.00  0.00     0.165 A 
HETATM    9  C8  UNL     1     123.514 100.551  14.498  1.00  0.00     0.161 A 
HETATM   10  N5  UNL     1     122.396 100.094  15.107  1.00  0.00    -0.267 N 
ATOM     11  H5  UNL     1     121.440 100.298  14.815  1.00  0.00     0.186 HD
HETATM   12  N6  UNL     1     122.735  99.343  16.139  1.00  0.00    -0.015 NA
HETATM   13  N7  UNL     1     124.067  99.273  16.251  1.00  0.00    -0.236 N 
ENDROOT
BRANCH   1  14
HETATM   14  C4  UNL     1     122.535 101.848  12.713  1.00  0.00     0.326 C 
HETATM   15  N2  UNL     1     122.842 102.623  11.544  1.00  0.00    -0.050 N 
HETATM   16  C3  UNL     1     121.629 103.382  11.304  1.00  0.00     0.251 C 
ATOM     17  H22 UNL     1     123.159 102.072  10.745  1.00  0.00     0.279 HD
ATOM     18  H21 UNL     1     123.685 103.191  11.625  1.00  0.00     0.279 HD
HETATM   19  C2  UNL     1     121.331 103.926  12.687  1.00  0.00     0.133 C 
HETATM   20  C11 UNL     1     121.626 102.703  13.550  1.00  0.00     0.183 C 
BRANCH  19  21
HETATM   21  C1  UNL     1     119.951 104.406  12.818  1.00  0.00     0.239 C 
HETATM   22  N1  UNL     1     119.446 105.112  13.936  1.00  0.00    -0.062 NA
HETATM   23  O1  UNL     1     119.144 104.182  11.880  1.00  0.00    -0.276 OA
ENDBRANCH  19  21
BRANCH  20  24
HETATM   24  O6  UNL     1     120.381 102.055  13.728  1.00  0.00    -0.391 OA
ATOM     25  H6  UNL     1     120.403 101.698  14.608  1.00  0.00     0.210 HD
ENDBRANCH  20  24
ENDBRANCH   1  14
BRANCH  13  26
HETATM   26  C9  UNL     1     124.829  98.551  17.249  1.00  0.00     0.263 C 
BRANCH  26  27
HETATM   27  O4  UNL     1     125.681  97.599  16.638  1.00  0.00    -0.373 OA
ATOM     28  H4  UNL     1     125.221  96.781  16.489  1.00  0.00     0.212 HD
ENDBRANCH  26  27
BRANCH  26  29
HETATM   29  C10 UNL     1     123.925  97.838  18.232  1.00  0.00     0.219 C 
BRANCH  29  30
HETATM   30  O5  UNL     1     123.072  96.949  17.583  1.00  0.00    -0.397 OA
ATOM     31  H5  UNL     1     123.050  97.111  16.648  1.00  0.00     0.209 HD
ENDBRANCH  29  30
ENDBRANCH  26  29
ENDBRANCH  13  26
TORSDOF 7
ENDMDL
MODEL 4
REMARK VINA RESULT: -10.426411682      1.948      3.495
REMARK  7 active torsions:
REMARK  status: ('A' for Active; 'I' for Inactive)
REMARK    1  A    between atoms: C1_2  and  C2_4 
REMARK    2  A    between atoms: C4_9  and  N3_10 
REMARK    3  A    between atoms: N7_22  and  C9_23 
REMARK    4  A    between atoms: C9_23  and  O4_24 
REMARK    5  A    between atoms: C9_23  and  C10_26 
REMARK    6  A    between atoms: C10_26  and  O5_27 
REMARK    7  A    between atoms: C11_29  and  O6_30 
ROOT
HETATM    1  N3  UNL     1     123.819 101.386  12.827  1.00  0.00    -0.249 N 
HETATM    2  C5  UNL     1     125.093 101.218  12.477  1.00  0.00     0.333 A 
HETATM    3  O2  UNL     1     125.516 101.823  11.430  1.00  0.00    -0.246 OA
HETATM    4  N4  UNL     1     125.899 100.437  13.204  1.00  0.00    -0.273 N 
ATOM      5  H4  UNL     1     126.870 100.329  12.909  1.00  0.00     0.173 HD
HETATM    6  C6  UNL     1     125.486  99.789  14.306  1.00  0.00     0.281 A 
HETATM    7  O3  UNL     1     126.234  99.058  14.990  1.00  0.00    -0.265 OA
HETATM    8  C7  UNL     1     124.175  99.931  14.710  1.00  0.00     0.165 A 
HETATM    9  C8  UNL     1     123.381 100.744  13.932  1.00  0.00     0.161 A 
HETATM   10  N5  UNL     1     122.169 100.714  14.531  1.00  0.00    -0.267 N 
ATOM     11  H5  UNL     1     121.340 101.213  14.210  1.00  0.00     0.186 HD
HETATM   12  N6  UNL     1     122.227  99.938  15.598  1.00  0.00    -0.015 NA
HETATM   13  N7  UNL     1     123.457  99.432  15.744  1.00  0.00    -0.236 N 
ENDROOT
BRANCH   1  14
HETATM   14  C4  UNL     1     122.911 102.216  12.077  1.00  0.00     0.326 C 
HETATM   15  N2  UNL     1     123.364 102.560  10.759  1.00  0.00    -0.050 N 
HETATM   16  C3  UNL     1     122.567 103.722  10.413  1.00  0.00     0.251 C 
ATOM     17  H22 UNL     1     123.312 101.798  10.084  1.00  0.00     0.279 HD
ATOM     18  H21 UNL     1     124.371 102.703  10.685  1.00  0.00     0.279 HD
HETATM   19  C2  UNL     1     122.709 104.573  11.659  1.00  0.00     0.133 C 
HETATM   20  C11 UNL     1     122.566 103.515  12.749  1.00  0.00     0.183 C 
BRANCH  19  21
HETATM   21  C1  UNL     1     121.692 105.627  11.740  1.00  0.00     0.239 C 
HETATM   22  N1  UNL     1     120.564 105.727  10.891  1.00  0.00    -0.062 NA
HETATM   23  O1  UNL     1     121.815 106.515  12.622  1.00  0.00    -0.276 OA
ENDBRANCH  19  21
BRANCH  20  24
HETATM   24  O6  UNL     1     121.198 103.525  13.110  1.00  0.00    -0.391 OA
ATOM     25  H6  UNL     1     120.953 102.612  13.204  1.00  0.00     0.210 HD
ENDBRANCH  20  24
ENDBRANCH   1  14
BRANCH  13  26
HETATM   26  C9  UNL     1     123.924  98.539  16.785  1.00  0.00     0.263 C 
BRANCH  26  27
HETATM   27  O4  UNL     1     124.383  97.320  16.233  1.00  0.00    -0.373 OA
ATOM     28  H4  UNL     1     125.308  97.195  16.412  1.00  0.00     0.212 HD
ENDBRANCH  26  27
BRANCH  26  29
HETATM   29  C10 UNL     1     122.834  98.240  17.792  1.00  0.00     0.219 C 
BRANCH  29  30
HETATM   30  O5  UNL     1     122.023  97.191  17.365  1.00  0.00    -0.397 OA
ATOM     31  H5  UNL     1     121.143  97.491  17.171  1.00  0.00     0.209 HD
ENDBRANCH  29  30
ENDBRANCH  26  29
ENDBRANCH  13  26
TORSDOF 7
ENDMDL
MODEL 5
REMARK VINA RESULT: -10.294945332      2.494      3.900
REMARK  7 active torsions:
REMARK  status: ('A' for Active; 'I' for Inactive)
REMARK    1  A    between atoms: C1_2  and  C2_4 
REMARK    2  A    between atoms: C4_9  and  N3_10 
REMARK    3  A    between atoms: N7_22  and  C9_23 
REMARK    4  A    between atoms: C9_23  and  O4_24 
REMARK    5  A    between atoms: C9_23  and  C10_26 
REMARK    6  A    between atoms: C10_26  and  O5_27 
REMARK    7  A    between atoms: C11_29  and  O6_30 
ROOT
HETATM    1  N3  UNL     1     123.003 101.869  12.876  1.00  0.00    -0.249 N 
HETATM    2  C5  UNL     1     124.089 101.812  12.107  1.00  0.00     0.333 A 
HETATM    3  O2  UNL     1     124.183 102.638  11.133  1.00  0.00    -0.246 OA
HETATM    4  N4  UNL     1     125.047 100.913  12.354  1.00  0.00    -0.273 N 
ATOM      5  H4  UNL     1     125.867 100.894  11.746  1.00  0.00     0.173 HD
HETATM    6  C6  UNL     1     124.979 100.033  13.367  1.00  0.00     0.281 A 
HETATM    7  O3  UNL     1     125.871  99.191  13.603  1.00  0.00    -0.265 OA
HETATM    8  C7  UNL     1     123.874 100.053  14.192  1.00  0.00     0.165 A 
HETATM    9  C8  UNL     1     122.912 100.995  13.901  1.00  0.00     0.161 A 
HETATM   10  N5  UNL     1     121.955 100.807  14.839  1.00  0.00    -0.267 N 
ATOM     11  H5  UNL     1     121.091 101.344  14.915  1.00  0.00     0.186 HD
HETATM   12  N6  UNL     1     122.315  99.822  15.641  1.00  0.00    -0.015 NA
HETATM   13  N7  UNL     1     123.502  99.326  15.272  1.00  0.00    -0.236 N 
ENDROOT
BRANCH   1  14
HETATM   14  C4  UNL     1     121.943 102.819  12.653  1.00  0.00     0.326 C 
HETATM   15  N2  UNL     1     121.425 102.834  11.314  1.00  0.00    -0.050 N 
HETATM   16  C3  UNL     1     120.760 104.119  11.215  1.00  0.00     0.251 C 
ATOM     17  H22 UNL     1     120.833 102.035  11.083  1.00  0.00     0.279 HD
ATOM     18  H21 UNL     1     122.124 102.664  10.590  1.00  0.00     0.279 HD
HETATM   19  C2  UNL     1     121.813 105.052  11.777  1.00  0.00     0.133 C 
HETATM   20  C11 UNL     1     122.312 104.241  12.969  1.00  0.00     0.183 C 
BRANCH  19  21
HETATM   21  C1  UNL     1     121.264 106.359  12.157  1.00  0.00     0.239 C 
HETATM   22  N1  UNL     1     119.901 106.608  12.443  1.00  0.00    -0.062 NA
HETATM   23  O1  UNL     1     122.047 107.340  12.239  1.00  0.00    -0.276 OA
ENDBRANCH  19  21
BRANCH  20  24
HETATM   24  O6  UNL     1     121.564 104.699  14.079  1.00  0.00    -0.391 OA
ATOM     25  H6  UNL     1     121.498 103.955  14.667  1.00  0.00     0.210 HD
ENDBRANCH  20  24
ENDBRANCH   1  14
BRANCH  13  26
HETATM   26  C9  UNL     1     124.234  98.242  15.894  1.00  0.00     0.263 C 
BRANCH  26  27
HETATM   27  O4  UNL     1     123.363  97.406  16.633  1.00  0.00    -0.373 OA
ATOM     28  H4  UNL     1     123.810  97.034  17.384  1.00  0.00     0.212 HD
ENDBRANCH  26  27
BRANCH  26  29
HETATM   29  C10 UNL     1     125.317  98.759  16.817  1.00  0.00     0.219 C 
BRANCH  29  30
HETATM   30  O5  UNL     1     126.582  98.371  16.381  1.00  0.00    -0.397 OA
ATOM     31  H5  UNL     1     127.075  97.955  17.079  1.00  0.00     0.209 HD
ENDBRANCH  29  30
ENDBRANCH  26  29
ENDBRANCH  13  26
TORSDOF 7
ENDMDL
