MODEL 1
REMARK VINA RESULT: -9.902521756      0.000      0.000
REMARK  6 active torsions:
REMARK  status: ('A' for Active; 'I' for Inactive)
REMARK    1  A    between atoms: C2_5  and  C3_6 
REMARK    2  A    between atoms: C3_6  and  O1_8 
REMARK    3  A    between atoms: C4_10  and  C5_11 
REMARK    4  A    between atoms: C5_11  and  N4_12 
REMARK    5  A    between atoms: N8_23  and  C9_24 
REMARK    6  A    between atoms: C10_28  and  N10_29 
ROOT
HETATM    1  C1  UNL     1     123.462 105.875  10.060  1.00  0.00     0.164 C 
HETATM    2  N1  UNL     1     122.879 104.673   9.525  1.00  0.00    -0.137 NA
HETATM    3  N2  UNL     1     123.798 103.705   9.175  1.00  0.00    -0.296 N 
ATOM      4  H2  UNL     1     124.100 103.438   8.238  1.00  0.00     0.183 HD
HETATM    5  C2  UNL     1     124.246 103.145  10.465  1.00  0.00     0.122 C 
HETATM    6  C4  UNL     1     123.291 103.293  11.349  1.00  0.00     0.101 C 
HETATM    7  N8  UNL     1     122.231 104.006  10.606  1.00  0.00    -0.236 N 
ENDROOT
BRANCH   6   8
HETATM    8  C5  UNL     1     123.022 103.010  12.726  1.00  0.00     0.155 C 
BRANCH   8   9
HETATM    9  N4  UNL     1     123.162 101.833  13.444  1.00  0.00    -0.213 N 
HETATM   10  N5  UNL     1     124.287 101.113  13.537  1.00  0.00    -0.273 N 
HETATM   11  C6  UNL     1     124.390  99.950  14.160  1.00  0.00     0.200 A 
ATOM     12  H5  UNL     1     125.126 101.489  13.096  1.00  0.00     0.189 HD
HETATM   13  N6  UNL     1     125.611  99.203  14.243  1.00  0.00    -0.075 NA
HETATM   14  C7  UNL     1     123.281  99.426  14.759  1.00  0.00     0.292 A 
HETATM   15  O2  UNL     1     123.352  98.314  15.361  1.00  0.00    -0.264 OA
HETATM   16  N7  UNL     1     122.121 100.098  14.702  1.00  0.00    -0.271 N 
HETATM   17  C8  UNL     1     122.072 101.273  14.057  1.00  0.00     0.348 A 
ATOM     18  H7  UNL     1     121.284  99.719  15.145  1.00  0.00     0.174 HD
HETATM   19  O3  UNL     1     120.970 101.889  14.016  1.00  0.00    -0.245 OA
ENDBRANCH   8   9
ENDBRANCH   6   8
BRANCH   5  20
HETATM   20  C3  UNL     1     125.540 102.552  10.561  1.00  0.00     0.180 C 
HETATM   21  N3  UNL     1     125.899 101.298  11.018  1.00  0.00    -0.072 NA
BRANCH  20  22
HETATM   22  O1  UNL     1     126.562 103.258  10.173  1.00  0.00    -0.347 OA
ATOM     23  H1  UNL     1     127.279 103.374  10.784  1.00  0.00     0.219 HD
ENDBRANCH  20  22
ENDBRANCH   5  20
BRANCH   7  24
HETATM   24  C9  UNL     1     120.826 104.121  10.785  1.00  0.00     0.456 C 
HETATM   25  N9  UNL     1     120.077 103.166  11.508  1.00  0.00     0.023 N 
HETATM   26  C10 UNL     1     119.421 104.310  12.136  1.00  0.00     0.530 C 
ATOM     27  H92 UNL     1     119.545 102.433  11.039  1.00  0.00     0.287 HD
ATOM     28  H91 UNL     1     120.526 102.436  12.059  1.00  0.00     0.287 HD
HETATM   29  O4  UNL     1     120.509 105.102  11.754  1.00  0.00    -0.287 OA
BRANCH  26  30
HETATM   30  N10 UNL     1     118.201 104.616  11.446  1.00  0.00    -0.027 N 
ATOM     31 3H10 UNL     1     118.318 104.592  10.433  1.00  0.00     0.279 HD
ATOM     32 2H10 UNL     1     117.514 103.868  11.533  1.00  0.00     0.279 HD
ATOM     33 1H10 UNL     1     117.833 105.512  11.767  1.00  0.00     0.279 HD
ENDBRANCH  26  30
ENDBRANCH   7  24
TORSDOF 6
ENDMDL
MODEL 2
REMARK VINA RESULT: -9.674414829      2.019      4.330
REMARK  6 active torsions:
REMARK  status: ('A' for Active; 'I' for Inactive)
REMARK    1  A    between atoms: C2_5  and  C3_6 
REMARK    2  A    between atoms: C3_6  and  O1_8 
REMARK    3  A    between atoms: C4_10  and  C5_11 
REMARK    4  A    between atoms: C5_11  and  N4_12 
REMARK    5  A    between atoms: N8_23  and  C9_24 
REMARK    6  A    between atoms: C10_28  and  N10_29 
ROOT
HETATM    1  C1  UNL     1     121.485 104.832   9.889  1.00  0.00     0.164 C 
HETATM    2  N1  UNL     1     122.551 105.320  10.723  1.00  0.00    -0.137 NA
HETATM    3  N2  UNL     1     122.224 105.414  12.061  1.00  0.00    -0.296 N 
ATOM      4  H2  UNL     1     122.024 106.257  12.598  1.00  0.00     0.183 HD
HETATM    5  C2  UNL     1     122.230 104.017  12.536  1.00  0.00     0.122 C 
HETATM    6  C4  UNL     1     123.047 103.316  11.791  1.00  0.00     0.101 C 
HETATM    7  N8  UNL     1     123.534 104.289  10.791  1.00  0.00    -0.236 N 
ENDROOT
BRANCH   6   8
HETATM    8  C5  UNL     1     123.535 101.976  11.664  1.00  0.00     0.155 C 
BRANCH   8   9
HETATM    9  N4  UNL     1     124.072 101.123  12.614  1.00  0.00    -0.213 N 
HETATM   10  N5  UNL     1     123.476 100.770  13.760  1.00  0.00    -0.273 N 
HETATM   11  C6  UNL     1     124.029 100.018  14.698  1.00  0.00     0.200 A 
ATOM     12  H5  UNL     1     122.527 101.105  13.923  1.00  0.00     0.189 HD
HETATM   13  N6  UNL     1     123.365  99.656  15.916  1.00  0.00    -0.075 NA
HETATM   14  C7  UNL     1     125.300  99.556  14.505  1.00  0.00     0.292 A 
HETATM   15  O2  UNL     1     125.852  98.834  15.386  1.00  0.00    -0.264 OA
HETATM   16  N7  UNL     1     125.952  99.874  13.377  1.00  0.00    -0.271 N 
HETATM   17  C8  UNL     1     125.344 100.641  12.458  1.00  0.00     0.348 A 
ATOM     18  H7  UNL     1     126.901  99.536  13.218  1.00  0.00     0.174 HD
HETATM   19  O3  UNL     1     125.977 100.927  11.404  1.00  0.00    -0.245 OA
ENDBRANCH   8   9
ENDBRANCH   6   8
BRANCH   5  20
HETATM   20  C3  UNL     1     121.428 103.654  13.659  1.00  0.00     0.180 C 
HETATM   21  N3  UNL     1     121.014 102.403  14.074  1.00  0.00    -0.072 NA
BRANCH  20  22
HETATM   22  O1  UNL     1     121.001 104.608  14.434  1.00  0.00    -0.347 OA
ATOM     23  H1  UNL     1     120.501 104.364  15.204  1.00  0.00     0.219 HD
ENDBRANCH  20  22
ENDBRANCH   5  20
BRANCH   7  24
HETATM   24  C9  UNL     1     124.696 104.348   9.975  1.00  0.00     0.456 C 
HETATM   25  N9  UNL     1     125.915 103.742  10.354  1.00  0.00     0.023 N 
HETATM   26  C10 UNL     1     125.978 103.252   8.980  1.00  0.00     0.530 C 
ATOM     27  H92 UNL     1     126.676 104.280  10.767  1.00  0.00     0.287 HD
ATOM     28  H91 UNL     1     125.977 103.111  11.152  1.00  0.00     0.287 HD
HETATM   29  O4  UNL     1     124.599 103.462   8.876  1.00  0.00    -0.287 OA
BRANCH  26  30
HETATM   30  N10 UNL     1     126.769 104.140   8.177  1.00  0.00    -0.027 N 
ATOM     31 3H10 UNL     1     126.332 105.056   8.076  1.00  0.00     0.279 HD
ATOM     32 2H10 UNL     1     127.620 104.433   8.656  1.00  0.00     0.279 HD
ATOM     33 1H10 UNL     1     126.968 103.710   7.273  1.00  0.00     0.279 HD
ENDBRANCH  26  30
ENDBRANCH   7  24
TORSDOF 6
ENDMDL
MODEL 3
REMARK VINA RESULT: -9.104081001      1.448      2.136
REMARK  6 active torsions:
REMARK  status: ('A' for Active; 'I' for Inactive)
REMARK    1  A    between atoms: C2_5  and  C3_6 
REMARK    2  A    between atoms: C3_6  and  O1_8 
REMARK    3  A    between atoms: C4_10  and  C5_11 
REMARK    4  A    between atoms: C5_11  and  N4_12 
REMARK    5  A    between atoms: N8_23  and  C9_24 
REMARK    6  A    between atoms: C10_28  and  N10_29 
ROOT
HETATM    1  C1  UNL     1     123.335 106.167   9.492  1.00  0.00     0.164 C 
HETATM    2  N1  UNL     1     122.710 104.913   9.164  1.00  0.00    -0.137 NA
HETATM    3  N2  UNL     1     123.500 104.067   8.414  1.00  0.00    -0.296 N 
ATOM      4  H2  UNL     1     123.420 103.851   7.420  1.00  0.00     0.183 HD
HETATM    5  C2  UNL     1     124.489 103.543   9.377  1.00  0.00     0.122 C 
HETATM    6  C4  UNL     1     123.967 103.563  10.578  1.00  0.00     0.101 C 
HETATM    7  N8  UNL     1     122.630 104.157  10.370  1.00  0.00    -0.236 N 
ENDROOT
BRANCH   6   8
HETATM    8  C5  UNL     1     124.312 103.229  11.926  1.00  0.00     0.155 C 
BRANCH   8   9
HETATM    9  N4  UNL     1     124.138 102.049  12.631  1.00  0.00    -0.213 N 
HETATM   10  N5  UNL     1     123.162 101.815  13.518  1.00  0.00    -0.273 N 
HETATM   11  C6  UNL     1     123.050 100.715  14.244  1.00  0.00     0.200 A 
ATOM     12  H5  UNL     1     122.454 102.539  13.644  1.00  0.00     0.189 HD
HETATM   13  N6  UNL     1     121.992 100.494  15.187  1.00  0.00    -0.075 NA
HETATM   14  C7  UNL     1     123.985  99.731  14.094  1.00  0.00     0.292 A 
HETATM   15  O2  UNL     1     123.900  98.668  14.776  1.00  0.00    -0.264 OA
HETATM   16  N7  UNL     1     124.988  99.903  13.220  1.00  0.00    -0.271 N 
HETATM   17  C8  UNL     1     125.055 101.040  12.510  1.00  0.00     0.348 A 
ATOM     18  H7  UNL     1     125.694  99.177  13.097  1.00  0.00     0.174 HD
HETATM   19  O3  UNL     1     126.008 101.180  11.693  1.00  0.00    -0.245 OA
ENDBRANCH   8   9
ENDBRANCH   6   8
BRANCH   5  20
HETATM   20  C3  UNL     1     125.763 103.106   8.907  1.00  0.00     0.180 C 
HETATM   21  N3  UNL     1     126.106 102.550   7.689  1.00  0.00    -0.072 NA
BRANCH  20  22
HETATM   22  O1  UNL     1     126.782 103.231   9.707  1.00  0.00    -0.347 OA
ATOM     23  H1  UNL     1     127.597 103.554   9.341  1.00  0.00     0.219 HD
ENDBRANCH  20  22
ENDBRANCH   5  20
BRANCH   7  24
HETATM   24  C9  UNL     1     121.416 104.103  11.107  1.00  0.00     0.456 C 
HETATM   25  N9  UNL     1     121.011 105.142  11.974  1.00  0.00     0.023 N 
HETATM   26  C10 UNL     1     119.691 104.993  11.368  1.00  0.00     0.530 C 
ATOM     27  H92 UNL     1     121.149 105.084  12.982  1.00  0.00     0.287 HD
ATOM     28  H91 UNL     1     121.493 106.040  11.997  1.00  0.00     0.287 HD
HETATM   29  O4  UNL     1     120.299 104.362  10.277  1.00  0.00    -0.287 OA
BRANCH  26  30
HETATM   30  N10 UNL     1     118.877 104.125  12.169  1.00  0.00    -0.027 N 
ATOM     31 3H10 UNL     1     119.238 103.171  12.187  1.00  0.00     0.279 HD
ATOM     32 2H10 UNL     1     118.961 104.333  13.164  1.00  0.00     0.279 HD
ATOM     33 1H10 UNL     1     117.909 104.162  11.852  1.00  0.00     0.279 HD
ENDBRANCH  26  30
ENDBRANCH   7  24
TORSDOF 6
ENDMDL
MODEL 4
REMARK VINA RESULT: -9.045427876      1.823      4.082
REMARK  6 active torsions:
REMARK  status: ('A' for Active; 'I' for Inactive)
REMARK    1  A    between atoms: C2_5  and  C3_6 
REMARK    2  A    between atoms: C3_6  and  O1_8 
REMARK    3  A    between atoms: C4_10  and  C5_11 
REMARK    4  A    between atoms: C5_11  and  N4_12 
REMARK    5  A    between atoms: N8_23  and  C9_24 
REMARK    6  A    between atoms: C10_28  and  N10_29 
ROOT
HETATM    1  C1  UNL     1     121.220 105.484   9.940  1.00  0.00     0.164 C 
HETATM    2  N1  UNL     1     122.296 105.754  10.857  1.00  0.00    -0.137 NA
HETATM    3  N2  UNL     1     121.884 106.053  12.139  1.00  0.00    -0.296 N 
ATOM      4  H2  UNL     1     121.868 106.966  12.595  1.00  0.00     0.183 HD
HETATM    5  C2  UNL     1     121.471 104.752  12.703  1.00  0.00     0.122 C 
HETATM    6  C4  UNL     1     122.137 103.798  12.102  1.00  0.00     0.101 C 
HETATM    7  N8  UNL     1     122.956 104.514  11.103  1.00  0.00    -0.236 N 
ENDROOT
BRANCH   6   8
HETATM    8  C5  UNL     1     122.257 102.372  12.118  1.00  0.00     0.155 C 
BRANCH   8   9
HETATM    9  N4  UNL     1     123.110 101.552  12.839  1.00  0.00    -0.213 N 
HETATM   10  N5  UNL     1     124.327 101.160  12.440  1.00  0.00    -0.273 N 
HETATM   11  C6  UNL     1     125.102 100.313  13.099  1.00  0.00     0.200 A 
ATOM     12  H5  UNL     1     124.682 101.541  11.563  1.00  0.00     0.189 HD
HETATM   13  N6  UNL     1     126.401  99.913  12.644  1.00  0.00    -0.075 NA
HETATM   14  C7  UNL     1     124.649  99.789  14.275  1.00  0.00     0.292 A 
HETATM   15  O2  UNL     1     125.371  98.978  14.926  1.00  0.00    -0.264 OA
HETATM   16  N7  UNL     1     123.438 100.142  14.732  1.00  0.00    -0.271 N 
HETATM   17  C8  UNL     1     122.693 101.004  14.023  1.00  0.00     0.348 A 
ATOM     18  H7  UNL     1     123.088  99.759  15.609  1.00  0.00     0.174 HD
HETATM   19  O3  UNL     1     121.556 101.322  14.472  1.00  0.00    -0.245 OA
ENDBRANCH   8   9
ENDBRANCH   6   8
BRANCH   5  20
HETATM   20  C3  UNL     1     120.501 104.717  13.748  1.00  0.00     0.180 C 
HETATM   21  N3  UNL     1     119.272 105.343  13.826  1.00  0.00    -0.072 NA
BRANCH  20  22
HETATM   22  O1  UNL     1     120.769 104.002  14.801  1.00  0.00    -0.347 OA
ATOM     23  H1  UNL     1     120.923 104.458  15.620  1.00  0.00     0.219 HD
ENDBRANCH  20  22
ENDBRANCH   5  20
BRANCH   7  24
HETATM   24  C9  UNL     1     124.162 104.193  10.422  1.00  0.00     0.456 C 
HETATM   25  N9  UNL     1     124.202 103.274   9.351  1.00  0.00     0.023 N 
HETATM   26  C10 UNL     1     125.050 104.254   8.678  1.00  0.00     0.530 C 
ATOM     27  H92 UNL     1     124.500 102.307   9.483  1.00  0.00     0.287 HD
ATOM     28  H91 UNL     1     123.352 102.913   8.920  1.00  0.00     0.287 HD
HETATM   29  O4  UNL     1     124.549 105.232   9.544  1.00  0.00    -0.287 OA
BRANCH  26  30
HETATM   30  N10 UNL     1     126.433 103.935   8.889  1.00  0.00    -0.027 N 
ATOM     31 3H10 UNL     1     126.551 103.160   9.540  1.00  0.00     0.279 HD
ATOM     32 2H10 UNL     1     126.855 103.505   8.067  1.00  0.00     0.279 HD
ATOM     33 1H10 UNL     1     126.941 104.767   9.189  1.00  0.00     0.279 HD
ENDBRANCH  26  30
ENDBRANCH   7  24
TORSDOF 6
ENDMDL
MODEL 5
REMARK VINA RESULT: -8.862887766      1.921      2.405
REMARK  6 active torsions:
REMARK  status: ('A' for Active; 'I' for Inactive)
REMARK    1  A    between atoms: C2_5  and  C3_6 
REMARK    2  A    between atoms: C3_6  and  O1_8 
REMARK    3  A    between atoms: C4_10  and  C5_11 
REMARK    4  A    between atoms: C5_11  and  N4_12 
REMARK    5  A    between atoms: N8_23  and  C9_24 
REMARK    6  A    between atoms: C10_28  and  N10_29 
ROOT
HETATM    1  C1  UNL     1     122.240 107.062  11.336  1.00  0.00     0.164 C 
HETATM    2  N1  UNL     1     121.314 106.499  10.390  1.00  0.00    -0.137 NA
HETATM    3  N2  UNL     1     121.912 105.886   9.308  1.00  0.00    -0.296 N 
ATOM      4  H2  UNL     1     121.982 106.232   8.351  1.00  0.00     0.183 HD
HETATM    5  C2  UNL     1     122.430 104.614   9.852  1.00  0.00     0.122 C 
HETATM    6  C4  UNL     1     121.697 104.260  10.877  1.00  0.00     0.101 C 
HETATM    7  N8  UNL     1     120.721 105.361  11.011  1.00  0.00    -0.236 N 
ENDROOT
BRANCH   6   8
HETATM    8  C5  UNL     1     121.606 103.209  11.845  1.00  0.00     0.155 C 
BRANCH   8   9
HETATM    9  N4  UNL     1     122.581 102.358  12.340  1.00  0.00    -0.213 N 
HETATM   10  N5  UNL     1     123.760 102.110  11.755  1.00  0.00    -0.273 N 
HETATM   11  C6  UNL     1     124.652 101.236  12.193  1.00  0.00     0.200 A 
ATOM     12  H5  UNL     1     123.988 102.634  10.910  1.00  0.00     0.189 HD
HETATM   13  N6  UNL     1     125.907 100.994  11.544  1.00  0.00    -0.075 NA
HETATM   14  C7  UNL     1     124.371 100.523  13.323  1.00  0.00     0.292 A 
HETATM   15  O2  UNL     1     125.208  99.681  13.764  1.00  0.00    -0.264 OA
HETATM   16  N7  UNL     1     123.207 100.725  13.957  1.00  0.00    -0.271 N 
HETATM   17  C8  UNL     1     122.338 101.623  13.469  1.00  0.00     0.348 A 
ATOM     18  H7  UNL     1     122.984 100.200  14.803  1.00  0.00     0.174 HD
HETATM   19  O3  UNL     1     121.247 101.796  14.083  1.00  0.00    -0.245 OA
ENDBRANCH   8   9
ENDBRANCH   6   8
BRANCH   5  20
HETATM   20  C3  UNL     1     123.549 103.988   9.227  1.00  0.00     0.180 C 
HETATM   21  N3  UNL     1     124.887 104.037   9.572  1.00  0.00    -0.072 NA
BRANCH  20  22
HETATM   22  O1  UNL     1     123.327 103.253   8.177  1.00  0.00    -0.347 OA
ATOM     23  H1  UNL     1     124.050 103.104   7.579  1.00  0.00     0.219 HD
ENDBRANCH  20  22
ENDBRANCH   5  20
BRANCH   7  24
HETATM   24  C9  UNL     1     119.431 105.452  11.600  1.00  0.00     0.456 C 
HETATM   25  N9  UNL     1     119.239 105.879  12.932  1.00  0.00     0.023 N 
HETATM   26  C10 UNL     1     118.151 106.698  12.403  1.00  0.00     0.530 C 
ATOM     27  H92 UNL     1     119.090 105.217  13.693  1.00  0.00     0.287 HD
ATOM     28  H91 UNL     1     119.996 106.284  13.482  1.00  0.00     0.287 HD
HETATM   29  O4  UNL     1     118.732 106.591  11.135  1.00  0.00    -0.287 OA
BRANCH  26  30
HETATM   30  N10 UNL     1     116.903 106.004  12.538  1.00  0.00    -0.027 N 
ATOM     31 3H10 UNL     1     116.961 105.242  13.213  1.00  0.00     0.279 HD
ATOM     32 2H10 UNL     1     116.200 106.570  13.012  1.00  0.00     0.279 HD
ATOM     33 1H10 UNL     1     116.582 105.682  11.624  1.00  0.00     0.279 HD
ENDBRANCH  26  30
ENDBRANCH   7  24
TORSDOF 6
ENDMDL
