MODEL 1
REMARK VINA RESULT: -9.551562447      0.000      0.000
REMARK  9 active torsions:
REMARK  status: ('A' for Active; 'I' for Inactive)
REMARK    1  A    between atoms: N1_1  and  C1_4 
REMARK    2  A    between atoms: C5_14  and  N5_15 
REMARK       I    between atoms: N5_15  and  C6_17 
REMARK    3  A    between atoms: C6_17  and  C7_19 
REMARK    4  A    between atoms: C7_19  and  N6_20 
REMARK    5  A    between atoms: N7_24  and  C8_25 
REMARK    6  A    between atoms: C10_28  and  O3_29 
REMARK    7  A    between atoms: C10_28  and  O4_31 
REMARK    8  A    between atoms: C11_33  and  O5_34 
REMARK    9  A    between atoms: C12_36  and  O6_37 
ROOT
HETATM    1  C1  UNL     1     -34.643 -57.103  16.398  1.00  0.00     0.131 A 
HETATM    2  N2  UNL     1     -35.384 -56.663  17.426  1.00  0.00    -0.337 N 
ATOM      3  H2  UNL     1     -35.083 -56.830  18.387  1.00  0.00     0.168 HD
HETATM    4  C2  UNL     1     -36.536 -55.994  17.174  1.00  0.00     0.183 A 
HETATM    5  N3  UNL     1     -36.966 -55.754  15.924  1.00  0.00    -0.336 N 
ATOM      6  H3  UNL     1     -37.839 -55.247  15.783  1.00  0.00     0.168 HD
HETATM    7  C3  UNL     1     -36.275 -56.165  14.872  1.00  0.00     0.157 A 
HETATM    8  C4  UNL     1     -35.095 -56.851  15.133  1.00  0.00     0.137 A 
HETATM    9  N4  UNL     1     -34.585 -57.158  13.934  1.00  0.00    -0.184 N 
ATOM     10  H4  UNL     1     -33.717 -57.666  13.766  1.00  0.00     0.184 HD
HETATM   11  C5  UNL     1     -35.415 -56.681  12.992  1.00  0.00     0.690 A 
HETATM   12  N7  UNL     1     -36.469 -56.063  13.549  1.00  0.00    -0.151 N 
ENDROOT
BRANCH  12  13
HETATM   13  C8  UNL     1     -37.540 -55.446  12.849  1.00  0.00     0.216 C 
HETATM   14  C9  UNL     1     -38.485 -56.358  12.196  1.00  0.00     0.217 C 
HETATM   15  O2  UNL     1     -38.279 -57.505  11.900  1.00  0.00    -0.289 OA
HETATM   16  C10 UNL     1     -39.727 -55.585  11.977  1.00  0.00     0.254 C 
HETATM   17  C11 UNL     1     -39.489 -54.227  12.644  1.00  0.00     0.219 C 
HETATM   18  C12 UNL     1     -38.454 -54.613  13.712  1.00  0.00     0.184 C 
BRANCH  16  19
HETATM   19  O3  UNL     1     -39.907 -55.353  10.616  1.00  0.00    -0.357 OA
ATOM     20  H3  UNL     1     -40.834 -55.291  10.418  1.00  0.00     0.213 HD
ENDBRANCH  16  19
BRANCH  16  21
HETATM   21  O4  UNL     1     -40.844 -56.137  12.541  1.00  0.00    -0.357 OA
ATOM     22  H4  UNL     1     -41.555 -55.524  12.687  1.00  0.00     0.213 HD
ENDBRANCH  16  21
BRANCH  17  23
HETATM   23  O5  UNL     1     -40.607 -53.736  13.259  1.00  0.00    -0.387 OA
ATOM     24  H5  UNL     1     -41.207 -53.318  12.652  1.00  0.00     0.210 HD
ENDBRANCH  17  23
BRANCH  18  25
HETATM   25  O6  UNL     1     -37.836 -53.500  14.240  1.00  0.00    -0.390 OA
ATOM     26  H6  UNL     1     -38.214 -52.683  13.935  1.00  0.00     0.210 HD
ENDBRANCH  18  25
ENDBRANCH  12  13
BRANCH  11  27
HETATM   27  N5  UNL     1     -35.177 -56.831  11.591  1.00  0.00    -0.158 N 
HETATM   28  C6  UNL     1     -33.896 -56.666  11.051  1.00  0.00     0.261 C 
HETATM   29  O1  UNL     1     -32.920 -56.378  11.806  1.00  0.00    -0.271 OA
ATOM     30  H5  UNL     1     -35.954 -57.063  10.972  1.00  0.00     0.187 HD
BRANCH  28  31
HETATM   31  C7  UNL     1     -33.692 -56.829   9.592  1.00  0.00     0.332 C 
BRANCH  31  32
HETATM   32  N6  UNL     1     -34.898 -56.478   8.894  1.00  0.00    -0.071 N 
ATOM     33  H63 UNL     1     -35.641 -56.190   9.531  1.00  0.00     0.274 HD
ATOM     34  H62 UNL     1     -34.802 -55.604   8.377  1.00  0.00     0.274 HD
ATOM     35  H61 UNL     1     -35.183 -57.251   8.293  1.00  0.00     0.274 HD
ENDBRANCH  31  32
ENDBRANCH  28  31
ENDBRANCH  11  27
BRANCH   1  36
HETATM   36  N1  UNL     1     -33.554 -57.737  16.612  1.00  0.00    -0.383 N 
ATOM     37  H12 UNL     1     -33.171 -57.847  17.551  1.00  0.00     0.157 HD
ATOM     38  H11 UNL     1     -33.037 -58.149  15.835  1.00  0.00     0.157 HD
ENDBRANCH   1  36
TORSDOF 9
ENDMDL
MODEL 2
REMARK VINA RESULT: -9.209722277      2.331      5.068
REMARK  9 active torsions:
REMARK  status: ('A' for Active; 'I' for Inactive)
REMARK    1  A    between atoms: N1_1  and  C1_4 
REMARK    2  A    between atoms: C5_14  and  N5_15 
REMARK       I    between atoms: N5_15  and  C6_17 
REMARK    3  A    between atoms: C6_17  and  C7_19 
REMARK    4  A    between atoms: C7_19  and  N6_20 
REMARK    5  A    between atoms: N7_24  and  C8_25 
REMARK    6  A    between atoms: C10_28  and  O3_29 
REMARK    7  A    between atoms: C10_28  and  O4_31 
REMARK    8  A    between atoms: C11_33  and  O5_34 
REMARK    9  A    between atoms: C12_36  and  O6_37 
ROOT
HETATM    1  C1  UNL     1     -36.992 -55.988  18.446  1.00  0.00     0.131 A 
HETATM    2  N2  UNL     1     -35.910 -56.641  18.894  1.00  0.00    -0.337 N 
ATOM      3  H2  UNL     1     -35.796 -56.829  19.891  1.00  0.00     0.168 HD
HETATM    4  C2  UNL     1     -34.968 -57.049  18.008  1.00  0.00     0.183 A 
HETATM    5  N3  UNL     1     -35.080 -56.821  16.689  1.00  0.00    -0.336 N 
ATOM      6  H3  UNL     1     -34.347 -57.147  16.060  1.00  0.00     0.168 HD
HETATM    7  C3  UNL     1     -36.127 -56.182  16.191  1.00  0.00     0.157 A 
HETATM    8  C4  UNL     1     -37.090 -55.764  17.101  1.00  0.00     0.137 A 
HETATM    9  N4  UNL     1     -38.032 -55.153  16.373  1.00  0.00    -0.184 N 
ATOM     10  H4  UNL     1     -38.886 -54.726  16.735  1.00  0.00     0.184 HD
HETATM   11  C5  UNL     1     -37.659 -55.198  15.084  1.00  0.00     0.690 A 
HETATM   12  N7  UNL     1     -36.482 -55.829  14.946  1.00  0.00    -0.151 N 
ENDROOT
BRANCH  12  13
HETATM   13  C8  UNL     1     -35.794 -56.055  13.725  1.00  0.00     0.216 C 
HETATM   14  C9  UNL     1     -35.170 -54.875  13.116  1.00  0.00     0.217 C 
HETATM   15  O2  UNL     1     -35.455 -53.726  13.335  1.00  0.00    -0.289 OA
HETATM   16  C10 UNL     1     -34.136 -55.380  12.189  1.00  0.00     0.254 C 
HETATM   17  C11 UNL     1     -34.114 -56.899  12.385  1.00  0.00     0.219 C 
HETATM   18  C12 UNL     1     -34.628 -57.005  13.830  1.00  0.00     0.184 C 
BRANCH  16  19
HETATM   19  O3  UNL     1     -34.521 -55.138  10.872  1.00  0.00    -0.357 OA
ATOM     20  H3  UNL     1     -33.769 -55.218  10.296  1.00  0.00     0.213 HD
ENDBRANCH  16  19
BRANCH  16  21
HETATM   21  O4  UNL     1     -32.876 -54.910  12.435  1.00  0.00    -0.357 OA
ATOM     22  H4  UNL     1     -32.299 -54.914  11.679  1.00  0.00     0.213 HD
ENDBRANCH  16  21
BRANCH  17  23
HETATM   23  O5  UNL     1     -32.854 -57.424  12.316  1.00  0.00    -0.387 OA
ATOM     24  H5  UNL     1     -32.509 -57.438  11.431  1.00  0.00     0.210 HD
ENDBRANCH  17  23
BRANCH  18  25
HETATM   25  O6  UNL     1     -35.005 -58.295  14.136  1.00  0.00    -0.390 OA
ATOM     26  H6  UNL     1     -34.272 -58.853  14.369  1.00  0.00     0.210 HD
ENDBRANCH  18  25
ENDBRANCH  12  13
BRANCH  11  27
HETATM   27  N5  UNL     1     -38.437 -54.636  14.024  1.00  0.00    -0.158 N 
HETATM   28  C6  UNL     1     -39.607 -55.259  13.575  1.00  0.00     0.261 C 
HETATM   29  O1  UNL     1     -39.997 -56.339  14.107  1.00  0.00    -0.271 OA
ATOM     30  H5  UNL     1     -38.133 -53.766  13.587  1.00  0.00     0.187 HD
BRANCH  28  31
HETATM   31  C7  UNL     1     -40.383 -54.643  12.473  1.00  0.00     0.332 C 
BRANCH  31  32
HETATM   32  N6  UNL     1     -40.366 -55.510  11.327  1.00  0.00    -0.071 N 
ATOM     33  H63 UNL     1     -40.338 -56.495  11.591  1.00  0.00     0.274 HD
ATOM     34  H62 UNL     1     -41.260 -55.516  10.835  1.00  0.00     0.274 HD
ATOM     35  H61 UNL     1     -39.592 -55.253  10.714  1.00  0.00     0.274 HD
ENDBRANCH  31  32
ENDBRANCH  28  31
ENDBRANCH  11  27
BRANCH   1  36
HETATM   36  N1  UNL     1     -37.892 -55.593  19.264  1.00  0.00    -0.383 N 
ATOM     37  H12 UNL     1     -38.693 -55.041  18.957  1.00  0.00     0.157 HD
ATOM     38  H11 UNL     1     -37.825 -55.826  20.254  1.00  0.00     0.157 HD
ENDBRANCH   1  36
TORSDOF 9
ENDMDL
MODEL 3
REMARK VINA RESULT: -8.905018948      7.561     10.373
REMARK  9 active torsions:
REMARK  status: ('A' for Active; 'I' for Inactive)
REMARK    1  A    between atoms: N1_1  and  C1_4 
REMARK    2  A    between atoms: C5_14  and  N5_15 
REMARK       I    between atoms: N5_15  and  C6_17 
REMARK    3  A    between atoms: C6_17  and  C7_19 
REMARK    4  A    between atoms: C7_19  and  N6_20 
REMARK    5  A    between atoms: N7_24  and  C8_25 
REMARK    6  A    between atoms: C10_28  and  O3_29 
REMARK    7  A    between atoms: C10_28  and  O4_31 
REMARK    8  A    between atoms: C11_33  and  O5_34 
REMARK    9  A    between atoms: C12_36  and  O6_37 
ROOT
HETATM    1  C1  UNL     1     -41.867 -59.936  21.954  1.00  0.00     0.131 A 
HETATM    2  N2  UNL     1     -41.713 -60.856  22.918  1.00  0.00    -0.337 N 
ATOM      3  H2  UNL     1     -42.473 -61.498  23.145  1.00  0.00     0.168 HD
HETATM    4  C2  UNL     1     -40.536 -60.922  23.589  1.00  0.00     0.183 A 
HETATM    5  N3  UNL     1     -39.512 -60.096  23.320  1.00  0.00    -0.336 N 
ATOM      6  H3  UNL     1     -38.645 -60.183  23.850  1.00  0.00     0.168 HD
HETATM    7  C3  UNL     1     -39.608 -59.169  22.379  1.00  0.00     0.157 A 
HETATM    8  C4  UNL     1     -40.815 -59.102  21.694  1.00  0.00     0.137 A 
HETATM    9  N4  UNL     1     -40.673 -58.108  20.811  1.00  0.00    -0.184 N 
ATOM     10  H4  UNL     1     -41.379 -57.793  20.145  1.00  0.00     0.184 HD
HETATM   11  C5  UNL     1     -39.439 -57.596  20.952  1.00  0.00     0.690 A 
HETATM   12  N7  UNL     1     -38.761 -58.237  21.918  1.00  0.00    -0.151 N 
ENDROOT
BRANCH  12  13
HETATM   13  C8  UNL     1     -37.432 -57.955  22.332  1.00  0.00     0.216 C 
HETATM   14  C9  UNL     1     -37.193 -57.993  23.778  1.00  0.00     0.217 C 
HETATM   15  O2  UNL     1     -38.026 -57.894  24.641  1.00  0.00    -0.289 OA
HETATM   16  C10 UNL     1     -35.736 -58.172  23.956  1.00  0.00     0.254 C 
HETATM   17  C11 UNL     1     -35.169 -58.356  22.545  1.00  0.00     0.219 C 
HETATM   18  C12 UNL     1     -36.398 -58.925  21.819  1.00  0.00     0.184 C 
BRANCH  16  19
HETATM   19  O3  UNL     1     -35.176 -57.009  24.479  1.00  0.00    -0.357 OA
ATOM     20  H3  UNL     1     -35.431 -56.908  25.389  1.00  0.00     0.213 HD
ENDBRANCH  16  19
BRANCH  16  21
HETATM   21  O4  UNL     1     -35.387 -59.269  24.693  1.00  0.00    -0.357 OA
ATOM     22  H4  UNL     1     -36.031 -59.529  25.342  1.00  0.00     0.213 HD
ENDBRANCH  16  21
BRANCH  17  23
HETATM   23  O5  UNL     1     -34.155 -59.272  22.498  1.00  0.00    -0.387 OA
ATOM     24  H5  UNL     1     -34.317 -59.968  21.872  1.00  0.00     0.210 HD
ENDBRANCH  17  23
BRANCH  18  25
HETATM   25  O6  UNL     1     -36.241 -58.877  20.451  1.00  0.00    -0.390 OA
ATOM     26  H6  UNL     1     -36.858 -59.427  19.983  1.00  0.00     0.210 HD
ENDBRANCH  18  25
ENDBRANCH  12  13
BRANCH  11  27
HETATM   27  N5  UNL     1     -38.947 -56.512  20.161  1.00  0.00    -0.158 N 
HETATM   28  C6  UNL     1     -38.433 -56.725  18.877  1.00  0.00     0.261 C 
HETATM   29  O1  UNL     1     -38.397 -57.895  18.393  1.00  0.00    -0.271 OA
ATOM     30  H5  UNL     1     -38.970 -55.565  20.540  1.00  0.00     0.187 HD
BRANCH  28  31
HETATM   31  C7  UNL     1     -37.931 -55.573  18.092  1.00  0.00     0.332 C 
BRANCH  31  32
HETATM   32  N6  UNL     1     -36.712 -55.937  17.424  1.00  0.00    -0.071 N 
ATOM     33  H63 UNL     1     -36.742 -56.891  17.062  1.00  0.00     0.274 HD
ATOM     34  H62 UNL     1     -36.598 -55.447  16.536  1.00  0.00     0.274 HD
ATOM     35  H61 UNL     1     -35.921 -55.788  18.050  1.00  0.00     0.274 HD
ENDBRANCH  31  32
ENDBRANCH  28  31
ENDBRANCH  11  27
BRANCH   1  36
HETATM   36  N1  UNL     1     -42.968 -59.855  21.310  1.00  0.00    -0.383 N 
ATOM     37  H12 UNL     1     -42.996 -59.599  20.322  1.00  0.00     0.157 HD
ATOM     38  H11 UNL     1     -43.854 -60.046  21.778  1.00  0.00     0.157 HD
ENDBRANCH   1  36
TORSDOF 9
ENDMDL
MODEL 4
REMARK VINA RESULT: -8.855065640      2.227      4.406
REMARK  9 active torsions:
REMARK  status: ('A' for Active; 'I' for Inactive)
REMARK    1  A    between atoms: N1_1  and  C1_4 
REMARK    2  A    between atoms: C5_14  and  N5_15 
REMARK       I    between atoms: N5_15  and  C6_17 
REMARK    3  A    between atoms: C6_17  and  C7_19 
REMARK    4  A    between atoms: C7_19  and  N6_20 
REMARK    5  A    between atoms: N7_24  and  C8_25 
REMARK    6  A    between atoms: C10_28  and  O3_29 
REMARK    7  A    between atoms: C10_28  and  O4_31 
REMARK    8  A    between atoms: C11_33  and  O5_34 
REMARK    9  A    between atoms: C12_36  and  O6_37 
ROOT
HETATM    1  C1  UNL     1     -36.928 -56.084  18.197  1.00  0.00     0.131 A 
HETATM    2  N2  UNL     1     -35.833 -56.675  18.696  1.00  0.00    -0.337 N 
ATOM      3  H2  UNL     1     -35.769 -56.886  19.692  1.00  0.00     0.168 HD
HETATM    4  C2  UNL     1     -34.811 -56.990  17.861  1.00  0.00     0.183 A 
HETATM    5  N3  UNL     1     -34.857 -56.729  16.544  1.00  0.00    -0.336 N 
ATOM      6  H3  UNL     1     -34.065 -56.985  15.955  1.00  0.00     0.168 HD
HETATM    7  C3  UNL     1     -35.912 -56.148  15.997  1.00  0.00     0.157 A 
HETATM    8  C4  UNL     1     -36.958 -55.825  16.854  1.00  0.00     0.137 A 
HETATM    9  N4  UNL     1     -37.893 -55.257  16.084  1.00  0.00    -0.184 N 
ATOM     10  H4  UNL     1     -38.795 -54.902  16.402  1.00  0.00     0.184 HD
HETATM   11  C5  UNL     1     -37.438 -55.236  14.821  1.00  0.00     0.690 A 
HETATM   12  N7  UNL     1     -36.214 -55.782  14.742  1.00  0.00    -0.151 N 
ENDROOT
BRANCH  12  13
HETATM   13  C8  UNL     1     -35.437 -55.921  13.562  1.00  0.00     0.216 C 
HETATM   14  C9  UNL     1     -35.658 -57.151  12.794  1.00  0.00     0.217 C 
HETATM   15  O2  UNL     1     -36.141 -58.172  13.207  1.00  0.00    -0.289 OA
HETATM   16  C10 UNL     1     -35.168 -56.883  11.425  1.00  0.00     0.254 C 
HETATM   17  C11 UNL     1     -34.768 -55.404  11.414  1.00  0.00     0.219 C 
HETATM   18  C12 UNL     1     -35.680 -54.856  12.523  1.00  0.00     0.184 C 
BRANCH  16  19
HETATM   19  O3  UNL     1     -34.015 -57.625  11.179  1.00  0.00    -0.357 OA
ATOM     20  H3  UNL     1     -33.283 -57.252  11.656  1.00  0.00     0.213 HD
ENDBRANCH  16  19
BRANCH  16  21
HETATM   21  O4  UNL     1     -36.100 -57.070  10.443  1.00  0.00    -0.357 OA
ATOM     22  H4  UNL     1     -35.737 -57.267   9.587  1.00  0.00     0.213 HD
ENDBRANCH  16  21
BRANCH  17  23
HETATM   23  O5  UNL     1     -35.071 -54.782  10.235  1.00  0.00    -0.387 OA
ATOM     24  H5  UNL     1     -35.801 -54.180  10.313  1.00  0.00     0.210 HD
ENDBRANCH  17  23
BRANCH  18  25
HETATM   25  O6  UNL     1     -35.281 -53.601  12.928  1.00  0.00    -0.390 OA
ATOM     26  H6  UNL     1     -35.378 -52.941  12.252  1.00  0.00     0.210 HD
ENDBRANCH  18  25
ENDBRANCH  12  13
BRANCH  11  27
HETATM   27  N5  UNL     1     -38.186 -54.696  13.729  1.00  0.00    -0.158 N 
HETATM   28  C6  UNL     1     -39.459 -55.182  13.411  1.00  0.00     0.261 C 
HETATM   29  O1  UNL     1     -39.972 -56.117  14.094  1.00  0.00    -0.271 OA
ATOM     30  H5  UNL     1     -37.784 -53.943  13.171  1.00  0.00     0.187 HD
BRANCH  28  31
HETATM   31  C7  UNL     1     -40.200 -54.595  12.270  1.00  0.00     0.332 C 
BRANCH  31  32
HETATM   32  N6  UNL     1     -40.250 -55.540  11.188  1.00  0.00    -0.071 N 
ATOM     33  H63 UNL     1     -39.777 -56.414  11.419  1.00  0.00     0.274 HD
ATOM     34  H62 UNL     1     -41.189 -55.914  11.047  1.00  0.00     0.274 HD
ATOM     35  H61 UNL     1     -39.875 -55.112  10.342  1.00  0.00     0.274 HD
ENDBRANCH  31  32
ENDBRANCH  28  31
ENDBRANCH  11  27
BRANCH   1  36
HETATM   36  N1  UNL     1     -37.903 -55.777  18.965  1.00  0.00    -0.383 N 
ATOM     37  H12 UNL     1     -37.753 -55.438  19.915  1.00  0.00     0.157 HD
ATOM     38  H11 UNL     1     -38.864 -55.869  18.637  1.00  0.00     0.157 HD
ENDBRANCH   1  36
TORSDOF 9
ENDMDL
MODEL 5
REMARK VINA RESULT: -8.696290890      0.918      2.072
REMARK  9 active torsions:
REMARK  status: ('A' for Active; 'I' for Inactive)
REMARK    1  A    between atoms: N1_1  and  C1_4 
REMARK    2  A    between atoms: C5_14  and  N5_15 
REMARK       I    between atoms: N5_15  and  C6_17 
REMARK    3  A    between atoms: C6_17  and  C7_19 
REMARK    4  A    between atoms: C7_19  and  N6_20 
REMARK    5  A    between atoms: N7_24  and  C8_25 
REMARK    6  A    between atoms: C10_28  and  O3_29 
REMARK    7  A    between atoms: C10_28  and  O4_31 
REMARK    8  A    between atoms: C11_33  and  O5_34 
REMARK    9  A    between atoms: C12_36  and  O6_37 
ROOT
HETATM    1  C1  UNL     1     -34.287 -57.199  17.067  1.00  0.00     0.131 A 
HETATM    2  N2  UNL     1     -35.057 -56.972  18.141  1.00  0.00    -0.337 N 
ATOM      3  H2  UNL     1     -34.685 -57.110  19.082  1.00  0.00     0.168 HD
HETATM    4  C2  UNL     1     -36.337 -56.557  17.964  1.00  0.00     0.183 A 
HETATM    5  N3  UNL     1     -36.863 -56.365  16.744  1.00  0.00    -0.336 N 
ATOM      6  H3  UNL     1     -37.830 -56.052  16.659  1.00  0.00     0.168 HD
HETATM    7  C3  UNL     1     -36.149 -56.573  15.649  1.00  0.00     0.157 A 
HETATM    8  C4  UNL     1     -34.839 -56.999  15.833  1.00  0.00     0.137 A 
HETATM    9  N4  UNL     1     -34.330 -57.139  14.603  1.00  0.00    -0.184 N 
ATOM     10  H4  UNL     1     -33.381 -57.441  14.379  1.00  0.00     0.184 HD
HETATM   11  C5  UNL     1     -35.284 -56.814  13.716  1.00  0.00     0.690 A 
HETATM   12  N7  UNL     1     -36.420 -56.461  14.339  1.00  0.00    -0.151 N 
ENDROOT
BRANCH  12  13
HETATM   13  C8  UNL     1     -37.628 -56.061  13.709  1.00  0.00     0.216 C 
HETATM   14  C9  UNL     1     -37.850 -54.614  13.615  1.00  0.00     0.217 C 
HETATM   15  O2  UNL     1     -37.323 -53.767  14.287  1.00  0.00    -0.289 OA
HETATM   16  C10 UNL     1     -38.844 -54.414  12.539  1.00  0.00     0.254 C 
HETATM   17  C11 UNL     1     -39.089 -55.802  11.941  1.00  0.00     0.219 C 
HETATM   18  C12 UNL     1     -37.755 -56.491  12.270  1.00  0.00     0.184 C 
BRANCH  16  19
HETATM   19  O3  UNL     1     -40.050 -53.977  13.082  1.00  0.00    -0.357 OA
ATOM     20  H3  UNL     1     -40.697 -54.672  13.033  1.00  0.00     0.213 HD
ENDBRANCH  16  19
BRANCH  16  21
HETATM   21  O4  UNL     1     -38.426 -53.592  11.528  1.00  0.00    -0.357 OA
ATOM     22  H4  UNL     1     -39.120 -53.087  11.119  1.00  0.00     0.213 HD
ENDBRANCH  16  21
BRANCH  17  23
HETATM   23  O5  UNL     1     -39.258 -55.773  10.585  1.00  0.00    -0.387 OA
ATOM     24  H5  UNL     1     -39.565 -54.931  10.270  1.00  0.00     0.210 HD
ENDBRANCH  17  23
BRANCH  18  25
HETATM   25  O6  UNL     1     -37.844 -57.858  12.118  1.00  0.00    -0.390 OA
ATOM     26  H6  UNL     1     -37.083 -58.322  12.448  1.00  0.00     0.210 HD
ENDBRANCH  18  25
ENDBRANCH  12  13
BRANCH  11  27
HETATM   27  N5  UNL     1     -35.083 -56.852  12.301  1.00  0.00    -0.158 N 
HETATM   28  C6  UNL     1     -33.963 -56.253  11.712  1.00  0.00     0.261 C 
HETATM   29  O1  UNL     1     -33.104 -55.663  12.432  1.00  0.00    -0.271 OA
ATOM     30  H5  UNL     1     -35.767 -57.323  11.710  1.00  0.00     0.187 HD
BRANCH  28  31
HETATM   31  C7  UNL     1     -33.793 -56.313  10.241  1.00  0.00     0.332 C 
BRANCH  31  32
HETATM   32  N6  UNL     1     -35.077 -56.458   9.612  1.00  0.00    -0.071 N 
ATOM     33  H63 UNL     1     -35.771 -55.820  10.002  1.00  0.00     0.274 HD
ATOM     34  H62 UNL     1     -35.077 -56.107   8.654  1.00  0.00     0.274 HD
ATOM     35  H61 UNL     1     -35.376 -57.432   9.664  1.00  0.00     0.274 HD
ENDBRANCH  31  32
ENDBRANCH  28  31
ENDBRANCH  11  27
BRANCH   1  36
HETATM   36  N1  UNL     1     -33.079 -57.591  17.211  1.00  0.00    -0.383 N 
ATOM     37  H12 UNL     1     -32.635 -57.644  18.128  1.00  0.00     0.157 HD
ATOM     38  H11 UNL     1     -32.526 -57.862  16.398  1.00  0.00     0.157 HD
ENDBRANCH   1  36
TORSDOF 9
ENDMDL
