MODEL 1
REMARK VINA RESULT: -7.139108801      0.000      0.000
REMARK  12 active torsions:
REMARK  status: ('A' for Active; 'I' for Inactive)
REMARK    1  A    between atoms: C2_2  and  O2_4 
REMARK    2  A    between atoms: O2_4  and  C3_5 
REMARK    3  A    between atoms: C3_5  and  C4_6 
REMARK    4  A    between atoms: C3_5  and  C21_26 
REMARK    5  A    between atoms: C4_6  and  C5_7 
REMARK    6  A    between atoms: C5_7  and  C6_8 
REMARK    7  A    between atoms: C5_7  and  C15_17 
REMARK    8  A    between atoms: C7_9  and  C8_10 
REMARK       I    between atoms: C15_17  and  N1_19 
REMARK    9  A    between atoms: C21_26  and  N3_27 
REMARK   10  A    between atoms: C21_26  and  C27_36 
REMARK       I    between atoms: N3_27  and  C22_29 
REMARK   11  A    between atoms: C22_29  and  O5_31 
REMARK   12  A    between atoms: O5_31  and  C23_32 
ROOT
HETATM    1  C4  UNL     1     -52.136  -0.878  58.570  1.00  0.00     0.079 C 
ENDROOT
BRANCH   1   2
HETATM    2  C3  UNL     1     -51.579  -2.103  57.939  1.00  0.00     0.159 C 
BRANCH   2   3
HETATM    3  O2  UNL     1     -52.634  -2.984  57.490  1.00  0.00    -0.314 OA
BRANCH   3   4
HETATM    4  C2  UNL     1     -53.366  -3.780  58.320  1.00  0.00     0.255 C 
HETATM    5  C1  UNL     1     -54.699  -4.254  57.870  1.00  0.00     0.126 C 
HETATM    6  O1  UNL     1     -52.902  -4.093  59.442  1.00  0.00    -0.266 OA
ENDBRANCH   3   4
ENDBRANCH   2   3
BRANCH   2   7
HETATM    7  C21 UNL     1     -50.612  -1.868  56.807  1.00  0.00     0.120 C 
BRANCH   7   8
HETATM    8  N3  UNL     1     -49.337  -2.509  57.219  1.00  0.00    -0.329 N 
HETATM    9  C22 UNL     1     -48.379  -1.855  58.001  1.00  0.00     0.365 C 
HETATM   10  O4  UNL     1     -48.569  -0.687  58.387  1.00  0.00    -0.238 OA
ATOM     11  H3  UNL     1     -49.153  -3.466  56.919  1.00  0.00     0.165 HD
BRANCH   9  12
HETATM   12  O5  UNL     1     -47.213  -2.520  58.339  1.00  0.00    -0.274 OA
BRANCH  12  13
HETATM   13  C23 UNL     1     -46.109  -1.903  58.901  1.00  0.00     0.149 C 
HETATM   14  C24 UNL     1     -45.237  -2.556  59.644  1.00  0.00    -0.065 C 
HETATM   15  C25 UNL     1     -44.065  -1.836  60.224  1.00  0.00     0.045 C 
HETATM   16  C26 UNL     1     -45.365  -4.005  59.942  1.00  0.00     0.045 C 
ENDBRANCH  12  13
ENDBRANCH   9  12
ENDBRANCH   7   8
BRANCH   7  17
HETATM   17  C27 UNL     1     -50.958  -2.466  55.496  1.00  0.00     0.003 C 
HETATM   18  C28 UNL     1     -51.683  -1.693  54.485  1.00  0.00     0.011 C 
HETATM   19  C29 UNL     1     -49.673  -3.021  54.860  1.00  0.00     0.011 C 
ENDBRANCH   7  17
ENDBRANCH   2   7
ENDBRANCH   1   2
BRANCH   1  20
HETATM   20  C5  UNL     1     -52.794   0.148  57.790  1.00  0.00     0.012 C 
BRANCH  20  21
HETATM   21  C6  UNL     1     -52.457   1.543  57.552  1.00  0.00     0.013 C 
HETATM   22  C7  UNL     1     -53.234   2.554  56.874  1.00  0.00     0.007 C 
BRANCH  22  23
HETATM   23  C8  UNL     1     -53.272   2.669  55.416  1.00  0.00    -0.062 C 
HETATM   24  C9  UNL     1     -53.089   1.617  54.646  1.00  0.00    -0.020 C 
HETATM   25  C10 UNL     1     -53.087   1.511  53.137  1.00  0.00     0.027 C 
HETATM   26  C11 UNL     1     -52.051   2.527  52.632  1.00  0.00     0.004 C 
HETATM   27  C12 UNL     1     -52.694   3.893  52.609  1.00  0.00     0.001 C 
HETATM   28  C13 UNL     1     -52.435   4.521  53.984  1.00  0.00     0.005 C 
HETATM   29  C14 UNL     1     -53.526   4.053  54.924  1.00  0.00     0.038 C 
ENDBRANCH  22  23
ENDBRANCH  20  21
BRANCH  20  30
HETATM   30  C15 UNL     1     -54.297   0.088  58.069  1.00  0.00     0.249 C 
HETATM   31  O3  UNL     1     -54.694   0.558  59.195  1.00  0.00    -0.268 OA
HETATM   32  N1  UNL     1     -55.262  -0.424  57.230  1.00  0.00    -0.345 N 
HETATM   33  C16 UNL     1     -56.669  -0.411  57.654  1.00  0.00     0.156 C 
HETATM   34  C20 UNL     1     -55.005  -0.983  55.942  1.00  0.00     0.156 C 
HETATM   35  C17 UNL     1     -57.584  -0.064  56.502  1.00  0.00     0.291 C 
HETATM   36  N2  UNL     1     -57.383  -0.903  55.360  1.00  0.00     0.087 N 
HETATM   37  C18 UNL     1     -58.532  -1.735  55.061  1.00  0.00     0.310 C 
HETATM   38  C19 UNL     1     -56.249  -1.780  55.554  1.00  0.00     0.291 C 
ENDBRANCH  20  30
ENDBRANCH   1  20
TORSDOF 12
ENDMDL
MODEL 2
REMARK VINA RESULT: -7.105227371      1.313      1.991
REMARK  12 active torsions:
REMARK  status: ('A' for Active; 'I' for Inactive)
REMARK    1  A    between atoms: C2_2  and  O2_4 
REMARK    2  A    between atoms: O2_4  and  C3_5 
REMARK    3  A    between atoms: C3_5  and  C4_6 
REMARK    4  A    between atoms: C3_5  and  C21_26 
REMARK    5  A    between atoms: C4_6  and  C5_7 
REMARK    6  A    between atoms: C5_7  and  C6_8 
REMARK    7  A    between atoms: C5_7  and  C15_17 
REMARK    8  A    between atoms: C7_9  and  C8_10 
REMARK       I    between atoms: C15_17  and  N1_19 
REMARK    9  A    between atoms: C21_26  and  N3_27 
REMARK   10  A    between atoms: C21_26  and  C27_36 
REMARK       I    between atoms: N3_27  and  C22_29 
REMARK   11  A    between atoms: C22_29  and  O5_31 
REMARK   12  A    between atoms: O5_31  and  C23_32 
ROOT
HETATM    1  C4  UNL     1     -52.173  -0.746  58.472  1.00  0.00     0.079 C 
ENDROOT
BRANCH   1   2
HETATM    2  C3  UNL     1     -51.549  -1.993  57.957  1.00  0.00     0.159 C 
BRANCH   2   3
HETATM    3  O2  UNL     1     -52.555  -2.962  57.581  1.00  0.00    -0.314 OA
BRANCH   3   4
HETATM    4  C2  UNL     1     -53.358  -3.610  58.472  1.00  0.00     0.255 C 
HETATM    5  C1  UNL     1     -54.797  -3.781  58.149  1.00  0.00     0.126 C 
HETATM    6  O1  UNL     1     -52.869  -4.044  59.541  1.00  0.00    -0.266 OA
ENDBRANCH   3   4
ENDBRANCH   2   3
BRANCH   2   7
HETATM    7  C21 UNL     1     -50.582  -1.811  56.815  1.00  0.00     0.120 C 
BRANCH   7   8
HETATM    8  N3  UNL     1     -49.327  -2.486  57.232  1.00  0.00    -0.329 N 
HETATM    9  C22 UNL     1     -48.366  -1.866  58.038  1.00  0.00     0.365 C 
HETATM   10  O4  UNL     1     -48.537  -0.701  58.443  1.00  0.00    -0.238 OA
ATOM     11  H3  UNL     1     -49.158  -3.441  56.917  1.00  0.00     0.165 HD
BRANCH   9  12
HETATM   12  O5  UNL     1     -47.219  -2.561  58.380  1.00  0.00    -0.274 OA
BRANCH  12  13
HETATM   13  C23 UNL     1     -46.095  -1.969  58.930  1.00  0.00     0.149 C 
HETATM   14  C24 UNL     1     -45.242  -2.638  59.681  1.00  0.00    -0.065 C 
HETATM   15  C25 UNL     1     -44.046  -1.946  60.248  1.00  0.00     0.045 C 
HETATM   16  C26 UNL     1     -45.414  -4.077  60.002  1.00  0.00     0.045 C 
ENDBRANCH  12  13
ENDBRANCH   9  12
ENDBRANCH   7   8
BRANCH   7  17
HETATM   17  C27 UNL     1     -50.956  -2.423  55.518  1.00  0.00     0.003 C 
HETATM   18  C28 UNL     1     -51.693  -1.657  54.511  1.00  0.00     0.011 C 
HETATM   19  C29 UNL     1     -49.686  -2.994  54.866  1.00  0.00     0.011 C 
ENDBRANCH   7  17
ENDBRANCH   2   7
ENDBRANCH   1   2
BRANCH   1  20
HETATM   20  C5  UNL     1     -52.825   0.199  57.590  1.00  0.00     0.012 C 
BRANCH  20  21
HETATM   21  C6  UNL     1     -52.694   1.642  57.458  1.00  0.00     0.013 C 
HETATM   22  C7  UNL     1     -53.528   2.557  56.714  1.00  0.00     0.007 C 
BRANCH  22  23
HETATM   23  C8  UNL     1     -53.386   2.754  55.272  1.00  0.00    -0.062 C 
HETATM   24  C9  UNL     1     -53.179   1.736  54.464  1.00  0.00    -0.020 C 
HETATM   25  C10 UNL     1     -53.005   1.713  52.961  1.00  0.00     0.027 C 
HETATM   26  C11 UNL     1     -51.856   2.682  52.643  1.00  0.00     0.004 C 
HETATM   27  C12 UNL     1     -52.407   4.088  52.631  1.00  0.00     0.001 C 
HETATM   28  C13 UNL     1     -52.275   4.621  54.064  1.00  0.00     0.005 C 
HETATM   29  C14 UNL     1     -53.496   4.177  54.841  1.00  0.00     0.038 C 
ENDBRANCH  22  23
ENDBRANCH  20  21
BRANCH  20  30
HETATM   30  C15 UNL     1     -54.319  -0.125  57.543  1.00  0.00     0.249 C 
HETATM   31  O3  UNL     1     -54.772  -0.605  56.443  1.00  0.00    -0.268 OA
HETATM   32  N1  UNL     1     -55.223   0.051  58.568  1.00  0.00    -0.345 N 
HETATM   33  C16 UNL     1     -56.632  -0.308  58.358  1.00  0.00     0.156 C 
HETATM   34  C20 UNL     1     -54.898   0.566  59.858  1.00  0.00     0.156 C 
HETATM   35  C17 UNL     1     -57.218  -0.966  59.585  1.00  0.00     0.291 C 
HETATM   36  N2  UNL     1     -57.043  -0.185  60.772  1.00  0.00     0.087 N 
HETATM   37  C18 UNL     1     -58.295   0.287  61.329  1.00  0.00     0.310 C 
HETATM   38  C19 UNL     1     -56.216   0.974  60.513  1.00  0.00     0.291 C 
ENDBRANCH  20  30
ENDBRANCH   1  20
TORSDOF 12
ENDMDL
MODEL 3
REMARK VINA RESULT: -7.090604449      2.886      6.228
REMARK  12 active torsions:
REMARK  status: ('A' for Active; 'I' for Inactive)
REMARK    1  A    between atoms: C2_2  and  O2_4 
REMARK    2  A    between atoms: O2_4  and  C3_5 
REMARK    3  A    between atoms: C3_5  and  C4_6 
REMARK    4  A    between atoms: C3_5  and  C21_26 
REMARK    5  A    between atoms: C4_6  and  C5_7 
REMARK    6  A    between atoms: C5_7  and  C6_8 
REMARK    7  A    between atoms: C5_7  and  C15_17 
REMARK    8  A    between atoms: C7_9  and  C8_10 
REMARK       I    between atoms: C15_17  and  N1_19 
REMARK    9  A    between atoms: C21_26  and  N3_27 
REMARK   10  A    between atoms: C21_26  and  C27_36 
REMARK       I    between atoms: N3_27  and  C22_29 
REMARK   11  A    between atoms: C22_29  and  O5_31 
REMARK   12  A    between atoms: O5_31  and  C23_32 
ROOT
HETATM    1  C4  UNL     1     -51.983  -3.221  57.949  1.00  0.00     0.079 C 
ENDROOT
BRANCH   1   2
HETATM    2  C3  UNL     1     -51.476  -1.964  57.340  1.00  0.00     0.159 C 
BRANCH   2   3
HETATM    3  O2  UNL     1     -51.371  -0.911  58.327  1.00  0.00    -0.314 OA
BRANCH   3   4
HETATM    4  C2  UNL     1     -52.410  -0.112  58.700  1.00  0.00     0.255 C 
HETATM    5  C1  UNL     1     -52.763   1.052  57.848  1.00  0.00     0.126 C 
HETATM    6  O1  UNL     1     -53.044  -0.374  59.749  1.00  0.00    -0.266 OA
ENDBRANCH   3   4
ENDBRANCH   2   3
BRANCH   2   7
HETATM    7  C21 UNL     1     -50.169  -2.083  56.599  1.00  0.00     0.120 C 
BRANCH   7   8
HETATM    8  N3  UNL     1     -49.231  -2.757  57.533  1.00  0.00    -0.329 N 
HETATM    9  C22 UNL     1     -48.049  -2.158  57.982  1.00  0.00     0.365 C 
HETATM   10  O4  UNL     1     -47.740  -1.012  57.607  1.00  0.00    -0.238 OA
ATOM     11  H3  UNL     1     -49.458  -3.696  57.860  1.00  0.00     0.165 HD
BRANCH   9  12
HETATM   12  O5  UNL     1     -47.225  -2.853  58.849  1.00  0.00    -0.274 OA
BRANCH  12  13
HETATM   13  C23 UNL     1     -46.056  -2.338  59.380  1.00  0.00     0.149 C 
HETATM   14  C24 UNL     1     -45.129  -3.104  59.924  1.00  0.00    -0.065 C 
HETATM   15  C25 UNL     1     -43.888  -2.491  60.482  1.00  0.00     0.045 C 
HETATM   16  C26 UNL     1     -45.262  -4.580  60.012  1.00  0.00     0.045 C 
ENDBRANCH  12  13
ENDBRANCH   9  12
ENDBRANCH   7   8
BRANCH   7  17
HETATM   17  C27 UNL     1     -50.171  -2.906  55.367  1.00  0.00     0.003 C 
HETATM   18  C28 UNL     1     -51.062  -2.585  54.250  1.00  0.00     0.011 C 
HETATM   19  C29 UNL     1     -48.730  -2.990  54.836  1.00  0.00     0.011 C 
ENDBRANCH   7  17
ENDBRANCH   2   7
ENDBRANCH   1   2
BRANCH   1  20
HETATM   20  C5  UNL     1     -53.174  -3.880  57.456  1.00  0.00     0.012 C 
BRANCH  20  21
HETATM   21  C6  UNL     1     -53.472  -4.498  56.174  1.00  0.00     0.013 C 
HETATM   22  C7  UNL     1     -54.424  -5.544  55.877  1.00  0.00     0.007 C 
BRANCH  22  23
HETATM   23  C8  UNL     1     -54.133  -6.959  56.108  1.00  0.00    -0.062 C 
HETATM   24  C9  UNL     1     -53.514  -7.682  55.199  1.00  0.00    -0.020 C 
HETATM   25  C10 UNL     1     -53.119  -9.143  55.230  1.00  0.00     0.027 C 
HETATM   26  C11 UNL     1     -54.404  -9.933  55.524  1.00  0.00     0.004 C 
HETATM   27  C12 UNL     1     -54.657  -9.894  57.012  1.00  0.00     0.001 C 
HETATM   28  C13 UNL     1     -55.523  -8.656  57.276  1.00  0.00     0.005 C 
HETATM   29  C14 UNL     1     -54.601  -7.465  57.429  1.00  0.00     0.038 C 
ENDBRANCH  22  23
ENDBRANCH  20  21
BRANCH  20  30
HETATM   30  C15 UNL     1     -54.394  -3.044  57.848  1.00  0.00     0.249 C 
HETATM   31  O3  UNL     1     -54.750  -2.123  57.029  1.00  0.00    -0.268 OA
HETATM   32  N1  UNL     1     -55.144  -3.185  58.995  1.00  0.00    -0.345 N 
HETATM   33  C16 UNL     1     -56.289  -2.293  59.224  1.00  0.00     0.156 C 
HETATM   34  C20 UNL     1     -54.898  -4.156  60.012  1.00  0.00     0.156 C 
HETATM   35  C17 UNL     1     -57.454  -3.042  59.827  1.00  0.00     0.291 C 
HETATM   36  N2  UNL     1     -57.099  -3.762  61.013  1.00  0.00     0.087 N 
HETATM   37  C18 UNL     1     -57.759  -3.257  62.201  1.00  0.00     0.310 C 
HETATM   38  C19 UNL     1     -55.672  -3.702  61.248  1.00  0.00     0.291 C 
ENDBRANCH  20  30
ENDBRANCH   1  20
TORSDOF 12
ENDMDL
MODEL 4
REMARK VINA RESULT: -7.089568960      2.553      4.200
REMARK  12 active torsions:
REMARK  status: ('A' for Active; 'I' for Inactive)
REMARK    1  A    between atoms: C2_2  and  O2_4 
REMARK    2  A    between atoms: O2_4  and  C3_5 
REMARK    3  A    between atoms: C3_5  and  C4_6 
REMARK    4  A    between atoms: C3_5  and  C21_26 
REMARK    5  A    between atoms: C4_6  and  C5_7 
REMARK    6  A    between atoms: C5_7  and  C6_8 
REMARK    7  A    between atoms: C5_7  and  C15_17 
REMARK    8  A    between atoms: C7_9  and  C8_10 
REMARK       I    between atoms: C15_17  and  N1_19 
REMARK    9  A    between atoms: C21_26  and  N3_27 
REMARK   10  A    between atoms: C21_26  and  C27_36 
REMARK       I    between atoms: N3_27  and  C22_29 
REMARK   11  A    between atoms: C22_29  and  O5_31 
REMARK   12  A    between atoms: O5_31  and  C23_32 
ROOT
HETATM    1  C4  UNL     1     -52.081  -3.160  57.449  1.00  0.00     0.079 C 
ENDROOT
BRANCH   1   2
HETATM    2  C3  UNL     1     -51.361  -1.917  57.067  1.00  0.00     0.159 C 
BRANCH   2   3
HETATM    3  O2  UNL     1     -51.268  -1.004  58.184  1.00  0.00    -0.314 OA
BRANCH   3   4
HETATM    4  C2  UNL     1     -52.281  -0.183  58.582  1.00  0.00     0.255 C 
HETATM    5  C1  UNL     1     -53.224  -0.660  59.625  1.00  0.00     0.126 C 
HETATM    6  O1  UNL     1     -52.397   0.951  58.061  1.00  0.00    -0.266 OA
ENDBRANCH   3   4
ENDBRANCH   2   3
BRANCH   2   7
HETATM    7  C21 UNL     1     -49.990  -2.119  56.474  1.00  0.00     0.120 C 
BRANCH   7   8
HETATM    8  N3  UNL     1     -49.158  -2.702  57.558  1.00  0.00    -0.329 N 
HETATM    9  C22 UNL     1     -47.936  -2.149  57.955  1.00  0.00     0.365 C 
HETATM   10  O4  UNL     1     -47.496  -1.125  57.400  1.00  0.00    -0.238 OA
ATOM     11  H3  UNL     1     -49.493  -3.541  58.032  1.00  0.00     0.165 HD
BRANCH   9  12
HETATM   12  O5  UNL     1     -47.218  -2.755  58.971  1.00  0.00    -0.274 OA
BRANCH  12  13
HETATM   13  C23 UNL     1     -45.995  -2.296  59.430  1.00  0.00     0.149 C 
HETATM   14  C24 UNL     1     -45.073  -3.106  59.911  1.00  0.00    -0.065 C 
HETATM   15  C25 UNL     1     -43.772  -2.552  60.392  1.00  0.00     0.045 C 
HETATM   16  C26 UNL     1     -45.266  -4.575  60.003  1.00  0.00     0.045 C 
ENDBRANCH  12  13
ENDBRANCH   9  12
ENDBRANCH   7   8
BRANCH   7  17
HETATM   17  C27 UNL     1     -49.885  -3.062  55.335  1.00  0.00     0.003 C 
HETATM   18  C28 UNL     1     -50.854  -3.024  54.237  1.00  0.00     0.011 C 
HETATM   19  C29 UNL     1     -48.470  -2.954  54.743  1.00  0.00     0.011 C 
ENDBRANCH   7  17
ENDBRANCH   2   7
ENDBRANCH   1   2
BRANCH   1  20
HETATM   20  C5  UNL     1     -53.400  -3.464  56.935  1.00  0.00     0.012 C 
BRANCH  20  21
HETATM   21  C6  UNL     1     -54.500  -2.601  56.533  1.00  0.00     0.013 C 
HETATM   22  C7  UNL     1     -55.025  -2.370  55.208  1.00  0.00     0.007 C 
BRANCH  22  23
HETATM   23  C8  UNL     1     -54.401  -1.442  54.265  1.00  0.00    -0.062 C 
HETATM   24  C9  UNL     1     -54.176  -1.791  53.016  1.00  0.00    -0.020 C 
HETATM   25  C10 UNL     1     -53.551  -0.999  51.888  1.00  0.00     0.027 C 
HETATM   26  C11 UNL     1     -52.179  -0.529  52.397  1.00  0.00     0.004 C 
HETATM   27  C12 UNL     1     -52.383   0.703  53.247  1.00  0.00     0.001 C 
HETATM   28  C13 UNL     1     -52.593   0.211  54.685  1.00  0.00     0.005 C 
HETATM   29  C14 UNL     1     -54.061  -0.117  54.856  1.00  0.00     0.038 C 
ENDBRANCH  22  23
ENDBRANCH  20  21
BRANCH  20  30
HETATM   30  C15 UNL     1     -53.999  -4.601  57.764  1.00  0.00     0.249 C 
HETATM   31  O3  UNL     1     -54.329  -4.324  58.972  1.00  0.00    -0.268 OA
HETATM   32  N1  UNL     1     -54.216  -5.893  57.338  1.00  0.00    -0.345 N 
HETATM   33  C16 UNL     1     -54.799  -6.872  58.266  1.00  0.00     0.156 C 
HETATM   34  C20 UNL     1     -53.916  -6.379  56.030  1.00  0.00     0.156 C 
HETATM   35  C17 UNL     1     -55.792  -7.767  57.564  1.00  0.00     0.291 C 
HETATM   36  N2  UNL     1     -55.247  -8.401  56.401  1.00  0.00     0.087 N 
HETATM   37  C18 UNL     1     -55.155  -9.842  56.533  1.00  0.00     0.310 C 
HETATM   38  C19 UNL     1     -53.918  -7.903  56.116  1.00  0.00     0.291 C 
ENDBRANCH  20  30
ENDBRANCH   1  20
TORSDOF 12
ENDMDL
MODEL 5
REMARK VINA RESULT: -7.053904169      3.250      5.565
REMARK  12 active torsions:
REMARK  status: ('A' for Active; 'I' for Inactive)
REMARK    1  A    between atoms: C2_2  and  O2_4 
REMARK    2  A    between atoms: O2_4  and  C3_5 
REMARK    3  A    between atoms: C3_5  and  C4_6 
REMARK    4  A    between atoms: C3_5  and  C21_26 
REMARK    5  A    between atoms: C4_6  and  C5_7 
REMARK    6  A    between atoms: C5_7  and  C6_8 
REMARK    7  A    between atoms: C5_7  and  C15_17 
REMARK    8  A    between atoms: C7_9  and  C8_10 
REMARK       I    between atoms: C15_17  and  N1_19 
REMARK    9  A    between atoms: C21_26  and  N3_27 
REMARK   10  A    between atoms: C21_26  and  C27_36 
REMARK       I    between atoms: N3_27  and  C22_29 
REMARK   11  A    between atoms: C22_29  and  O5_31 
REMARK   12  A    between atoms: O5_31  and  C23_32 
ROOT
HETATM    1  C4  UNL     1     -52.367  -3.518  57.725  1.00  0.00     0.079 C 
ENDROOT
BRANCH   1   2
HETATM    2  C3  UNL     1     -51.990  -2.132  57.343  1.00  0.00     0.159 C 
BRANCH   2   3
HETATM    3  O2  UNL     1     -51.857  -1.287  58.509  1.00  0.00    -0.314 OA
BRANCH   3   4
HETATM    4  C2  UNL     1     -52.715  -0.273  58.815  1.00  0.00     0.255 C 
HETATM    5  C1  UNL     1     -53.819  -0.531  59.773  1.00  0.00     0.126 C 
HETATM    6  O1  UNL     1     -52.555   0.851  58.284  1.00  0.00    -0.266 OA
ENDBRANCH   3   4
ENDBRANCH   2   3
BRANCH   2   7
HETATM    7  C21 UNL     1     -50.750  -2.009  56.495  1.00  0.00     0.120 C 
BRANCH   7   8
HETATM    8  N3  UNL     1     -49.651  -2.618  57.288  1.00  0.00    -0.329 N 
HETATM    9  C22 UNL     1     -48.706  -1.856  57.983  1.00  0.00     0.365 C 
HETATM   10  O4  UNL     1     -48.758  -0.612  57.961  1.00  0.00    -0.238 OA
ATOM     11  H3  UNL     1     -49.583  -3.635  57.326  1.00  0.00     0.165 HD
BRANCH   9  12
HETATM   12  O5  UNL     1     -47.710  -2.499  58.695  1.00  0.00    -0.274 OA
BRANCH  12  13
HETATM   13  C23 UNL     1     -46.490  -1.923  59.007  1.00  0.00     0.149 C 
HETATM   14  C24 UNL     1     -45.491  -2.618  59.515  1.00  0.00    -0.065 C 
HETATM   15  C25 UNL     1     -44.198  -1.941  59.832  1.00  0.00     0.045 C 
HETATM   16  C26 UNL     1     -45.588  -4.072  59.797  1.00  0.00     0.045 C 
ENDBRANCH  12  13
ENDBRANCH   9  12
ENDBRANCH   7   8
BRANCH   7  17
HETATM   17  C27 UNL     1     -50.753  -2.722  55.196  1.00  0.00     0.003 C 
HETATM   18  C28 UNL     1     -51.434  -2.157  54.030  1.00  0.00     0.011 C 
HETATM   19  C29 UNL     1     -49.298  -3.034  54.810  1.00  0.00     0.011 C 
ENDBRANCH   7  17
ENDBRANCH   2   7
ENDBRANCH   1   2
BRANCH   1  20
HETATM   20  C5  UNL     1     -53.502  -4.190  57.128  1.00  0.00     0.012 C 
BRANCH  20  21
HETATM   21  C6  UNL     1     -54.444  -3.764  56.105  1.00  0.00     0.013 C 
HETATM   22  C7  UNL     1     -54.932  -4.506  54.965  1.00  0.00     0.007 C 
BRANCH  22  23
HETATM   23  C8  UNL     1     -54.166  -4.635  53.725  1.00  0.00    -0.062 C 
HETATM   24  C9  UNL     1     -54.403  -3.850  52.695  1.00  0.00    -0.020 C 
HETATM   25  C10 UNL     1     -53.740  -3.810  51.336  1.00  0.00     0.027 C 
HETATM   26  C11 UNL     1     -53.852  -5.229  50.758  1.00  0.00     0.004 C 
HETATM   27  C12 UNL     1     -52.751  -6.075  51.352  1.00  0.00     0.001 C 
HETATM   28  C13 UNL     1     -53.322  -6.701  52.630  1.00  0.00     0.005 C 
HETATM   29  C14 UNL     1     -53.134  -5.709  53.760  1.00  0.00     0.038 C 
ENDBRANCH  22  23
ENDBRANCH  20  21
BRANCH  20  30
HETATM   30  C15 UNL     1     -54.315  -4.860  58.238  1.00  0.00     0.249 C 
HETATM   31  O3  UNL     1     -54.691  -4.112  59.210  1.00  0.00    -0.268 OA
HETATM   32  N1  UNL     1     -54.678  -6.188  58.293  1.00  0.00    -0.345 N 
HETATM   33  C16 UNL     1     -55.459  -6.676  59.438  1.00  0.00     0.156 C 
HETATM   34  C20 UNL     1     -54.353  -7.161  57.302  1.00  0.00     0.156 C 
HETATM   35  C17 UNL     1     -56.514  -7.664  58.999  1.00  0.00     0.291 C 
HETATM   36  N2  UNL     1     -55.978  -8.743  58.225  1.00  0.00     0.087 N 
HETATM   37  C18 UNL     1     -56.099 -10.028  58.887  1.00  0.00     0.310 C 
HETATM   38  C19 UNL     1     -54.575  -8.530  57.941  1.00  0.00     0.291 C 
ENDBRANCH  20  30
ENDBRANCH   1  20
TORSDOF 12
ENDMDL
