MODEL 1
REMARK VINA RESULT: -7.776140109      0.000      0.000
REMARK  12 active torsions:
REMARK  status: ('A' for Active; 'I' for Inactive)
REMARK    1  A    between atoms: C2_2  and  C3_3 
REMARK       I    between atoms: C3_3  and  N1_5 
REMARK    2  A    between atoms: N1_5  and  C4_7 
REMARK    3  A    between atoms: C6_9  and  C7_10 
REMARK    4  A    between atoms: C7_10  and  C9_12 
REMARK    5  A    between atoms: C9_12  and  C10_13 
REMARK    6  A    between atoms: C10_13  and  C11_14 
REMARK    7  A    between atoms: C18_22  and  C19_23 
REMARK    8  A    between atoms: C19_23  and  C20_24 
REMARK    9  A    between atoms: C26_32  and  O5_33 
REMARK   10  A    between atoms: O5_33  and  C27_34 
REMARK   11  A    between atoms: C27_34  and  C28_36 
REMARK   12  A    between atoms: C28_36  and  C30_38 
ROOT
HETATM    1  C4  UNL     1     -52.120  -0.984  56.154  1.00  0.00     0.134 C 
HETATM    2  C5  UNL     1     -51.154  -0.286  57.027  1.00  0.00     0.038 C 
HETATM    3  C6  UNL     1     -51.663   0.312  58.329  1.00  0.00     0.022 C 
HETATM    4  C15 UNL     1     -50.742  -0.605  59.048  1.00  0.00     0.030 C 
HETATM    5  C16 UNL     1     -50.385  -1.356  57.792  1.00  0.00     0.058 C 
HETATM    6  C17 UNL     1     -51.164  -2.573  57.533  1.00  0.00     0.176 C 
HETATM    7  O2  UNL     1     -51.359  -3.484  58.288  1.00  0.00    -0.294 OA
HETATM    8  C18 UNL     1     -51.657  -2.441  56.147  1.00  0.00     0.155 C 
HETATM    9  O3  UNL     1     -50.568  -2.518  55.213  1.00  0.00    -0.300 OA
HETATM   10  C24 UNL     1     -49.268  -2.903  55.507  1.00  0.00     0.262 C 
HETATM   11  O4  UNL     1     -48.594  -3.378  54.560  1.00  0.00    -0.265 OA
HETATM   12  C25 UNL     1     -48.626  -2.797  56.835  1.00  0.00     0.144 C 
HETATM   13  C26 UNL     1     -48.932  -1.439  57.482  1.00  0.00     0.157 C 
ENDROOT
BRANCH   3  14
HETATM   14  C7  UNL     1     -53.091   0.202  58.558  1.00  0.00    -0.084 C 
HETATM   15  C8  UNL     1     -53.624  -0.625  59.425  1.00  0.00     0.014 C 
BRANCH  14  16
HETATM   16  C9  UNL     1     -54.038   1.086  57.793  1.00  0.00     0.037 C 
BRANCH  16  17
HETATM   17  C10 UNL     1     -53.558   2.532  57.842  1.00  0.00     0.031 C 
BRANCH  17  18
HETATM   18  C11 UNL     1     -52.998   2.845  56.499  1.00  0.00    -0.024 C 
HETATM   19  C12 UNL     1     -53.668   3.546  55.613  1.00  0.00    -0.091 C 
HETATM   20  C13 UNL     1     -53.063   3.833  54.281  1.00  0.00     0.042 C 
HETATM   21  C14 UNL     1     -55.027   4.040  55.963  1.00  0.00     0.042 C 
ENDBRANCH  17  18
ENDBRANCH  16  17
ENDBRANCH  14  16
ENDBRANCH   3  14
BRANCH   1  22
HETATM   22  N1  UNL     1     -52.180  -0.471  54.802  1.00  0.00    -0.349 N 
HETATM   23  C3  UNL     1     -53.295  -0.004  54.123  1.00  0.00     0.240 C 
HETATM   24  O1  UNL     1     -54.420   0.009  54.663  1.00  0.00    -0.269 OA
ATOM     25  H1  UNL     1     -51.299  -0.450  54.288  1.00  0.00     0.163 HD
BRANCH  23  26
HETATM   26  C2  UNL     1     -53.172   0.482  52.760  1.00  0.00     0.064 C 
HETATM   27  C1  UNL     1     -52.028   0.841  52.219  1.00  0.00     0.017 C 
ENDBRANCH  23  26
ENDBRANCH   1  22
BRANCH   8  28
HETATM   28  C19 UNL     1     -52.762  -3.369  55.773  1.00  0.00     0.076 C 
BRANCH  28  29
HETATM   29  C20 UNL     1     -54.036  -2.912  56.441  1.00  0.00    -0.021 C 
HETATM   30  C21 UNL     1     -54.751  -3.735  57.182  1.00  0.00    -0.091 C 
HETATM   31  C22 UNL     1     -55.989  -3.269  57.826  1.00  0.00     0.042 C 
HETATM   32  C23 UNL     1     -54.298  -5.127  57.364  1.00  0.00     0.042 C 
ENDBRANCH  28  29
ENDBRANCH   8  28
BRANCH  13  33
HETATM   33  O5  UNL     1     -48.101  -1.402  58.642  1.00  0.00    -0.314 OA
BRANCH  33  34
HETATM   34  C27 UNL     1     -46.750  -1.688  58.586  1.00  0.00     0.263 C 
HETATM   35  O6  UNL     1     -46.205  -1.588  57.452  1.00  0.00    -0.265 OA
BRANCH  34  36
HETATM   36  C28 UNL     1     -45.932  -2.090  59.731  1.00  0.00     0.081 C 
HETATM   37  C29 UNL     1     -45.588  -3.561  59.663  1.00  0.00     0.020 C 
BRANCH  36  38
HETATM   38  C30 UNL     1     -44.639  -1.314  59.865  1.00  0.00     0.010 C 
HETATM   39  C31 UNL     1     -43.642  -2.253  60.546  1.00  0.00     0.006 C 
ENDBRANCH  36  38
ENDBRANCH  34  36
ENDBRANCH  33  34
ENDBRANCH  13  33
TORSDOF 12
ENDMDL
MODEL 2
REMARK VINA RESULT: -7.701489401      0.908      1.470
REMARK  12 active torsions:
REMARK  status: ('A' for Active; 'I' for Inactive)
REMARK    1  A    between atoms: C2_2  and  C3_3 
REMARK       I    between atoms: C3_3  and  N1_5 
REMARK    2  A    between atoms: N1_5  and  C4_7 
REMARK    3  A    between atoms: C6_9  and  C7_10 
REMARK    4  A    between atoms: C7_10  and  C9_12 
REMARK    5  A    between atoms: C9_12  and  C10_13 
REMARK    6  A    between atoms: C10_13  and  C11_14 
REMARK    7  A    between atoms: C18_22  and  C19_23 
REMARK    8  A    between atoms: C19_23  and  C20_24 
REMARK    9  A    between atoms: C26_32  and  O5_33 
REMARK   10  A    between atoms: O5_33  and  C27_34 
REMARK   11  A    between atoms: C27_34  and  C28_36 
REMARK   12  A    between atoms: C28_36  and  C30_38 
ROOT
HETATM    1  C4  UNL     1     -52.139  -0.991  56.151  1.00  0.00     0.134 C 
HETATM    2  C5  UNL     1     -51.176  -0.288  57.023  1.00  0.00     0.038 C 
HETATM    3  C6  UNL     1     -51.688   0.311  58.323  1.00  0.00     0.022 C 
HETATM    4  C15 UNL     1     -50.763  -0.601  59.044  1.00  0.00     0.030 C 
HETATM    5  C16 UNL     1     -50.403  -1.353  57.790  1.00  0.00     0.058 C 
HETATM    6  C17 UNL     1     -51.178  -2.574  57.532  1.00  0.00     0.176 C 
HETATM    7  O2  UNL     1     -51.369  -3.484  58.289  1.00  0.00    -0.294 OA
HETATM    8  C18 UNL     1     -51.671  -2.446  56.146  1.00  0.00     0.155 C 
HETATM    9  O3  UNL     1     -50.582  -2.520  55.213  1.00  0.00    -0.300 OA
HETATM   10  C24 UNL     1     -49.281  -2.900  55.507  1.00  0.00     0.262 C 
HETATM   11  O4  UNL     1     -48.604  -3.374  54.562  1.00  0.00    -0.265 OA
HETATM   12  C25 UNL     1     -48.638  -2.789  56.836  1.00  0.00     0.144 C 
HETATM   13  C26 UNL     1     -48.951  -1.431  57.480  1.00  0.00     0.157 C 
ENDROOT
BRANCH   3  14
HETATM   14  C7  UNL     1     -53.116   0.196  58.552  1.00  0.00    -0.084 C 
HETATM   15  C8  UNL     1     -53.646  -0.640  59.412  1.00  0.00     0.014 C 
BRANCH  14  16
HETATM   16  C9  UNL     1     -54.065   1.085  57.796  1.00  0.00     0.037 C 
BRANCH  16  17
HETATM   17  C10 UNL     1     -53.571   2.526  57.829  1.00  0.00     0.031 C 
BRANCH  17  18
HETATM   18  C11 UNL     1     -52.995   2.814  56.487  1.00  0.00    -0.024 C 
HETATM   19  C12 UNL     1     -53.646   3.515  55.587  1.00  0.00    -0.091 C 
HETATM   20  C13 UNL     1     -53.026   3.776  54.258  1.00  0.00     0.042 C 
HETATM   21  C14 UNL     1     -55.001   4.033  55.920  1.00  0.00     0.042 C 
ENDBRANCH  17  18
ENDBRANCH  16  17
ENDBRANCH  14  16
ENDBRANCH   3  14
BRANCH   1  22
HETATM   22  N1  UNL     1     -52.201  -0.480  54.797  1.00  0.00    -0.349 N 
HETATM   23  C3  UNL     1     -53.323  -0.047  54.107  1.00  0.00     0.240 C 
HETATM   24  O1  UNL     1     -54.454  -0.068  54.636  1.00  0.00    -0.269 OA
ATOM     25  H1  UNL     1     -51.316  -0.433  54.293  1.00  0.00     0.163 HD
BRANCH  23  26
HETATM   26  C2  UNL     1     -53.201   0.441  52.745  1.00  0.00     0.064 C 
HETATM   27  C1  UNL     1     -52.059   0.492  52.093  1.00  0.00     0.017 C 
ENDBRANCH  23  26
ENDBRANCH   1  22
BRANCH   8  28
HETATM   28  C19 UNL     1     -52.773  -3.379  55.774  1.00  0.00     0.076 C 
BRANCH  28  29
HETATM   29  C20 UNL     1     -52.477  -3.973  54.419  1.00  0.00    -0.021 C 
HETATM   30  C21 UNL     1     -53.394  -4.004  53.472  1.00  0.00    -0.091 C 
HETATM   31  C22 UNL     1     -53.085  -4.588  52.157  1.00  0.00     0.042 C 
HETATM   32  C23 UNL     1     -54.733  -3.446  53.740  1.00  0.00     0.042 C 
ENDBRANCH  28  29
ENDBRANCH   8  28
BRANCH  13  33
HETATM   33  O5  UNL     1     -48.120  -1.388  58.640  1.00  0.00    -0.314 OA
BRANCH  33  34
HETATM   34  C27 UNL     1     -46.774  -1.699  58.590  1.00  0.00     0.263 C 
HETATM   35  O6  UNL     1     -46.215  -1.580  57.465  1.00  0.00    -0.265 OA
BRANCH  34  36
HETATM   36  C28 UNL     1     -45.975  -2.145  59.733  1.00  0.00     0.081 C 
HETATM   37  C29 UNL     1     -45.599  -3.603  59.597  1.00  0.00     0.020 C 
BRANCH  36  38
HETATM   38  C30 UNL     1     -44.703  -1.352  59.940  1.00  0.00     0.010 C 
HETATM   39  C31 UNL     1     -43.607  -2.371  60.255  1.00  0.00     0.006 C 
ENDBRANCH  36  38
ENDBRANCH  34  36
ENDBRANCH  33  34
ENDBRANCH  13  33
TORSDOF 12
ENDMDL
MODEL 3
REMARK VINA RESULT: -7.435280664      1.230      3.234
REMARK  12 active torsions:
REMARK  status: ('A' for Active; 'I' for Inactive)
REMARK    1  A    between atoms: C2_2  and  C3_3 
REMARK       I    between atoms: C3_3  and  N1_5 
REMARK    2  A    between atoms: N1_5  and  C4_7 
REMARK    3  A    between atoms: C6_9  and  C7_10 
REMARK    4  A    between atoms: C7_10  and  C9_12 
REMARK    5  A    between atoms: C9_12  and  C10_13 
REMARK    6  A    between atoms: C10_13  and  C11_14 
REMARK    7  A    between atoms: C18_22  and  C19_23 
REMARK    8  A    between atoms: C19_23  and  C20_24 
REMARK    9  A    between atoms: C26_32  and  O5_33 
REMARK   10  A    between atoms: O5_33  and  C27_34 
REMARK   11  A    between atoms: C27_34  and  C28_36 
REMARK   12  A    between atoms: C28_36  and  C30_38 
ROOT
HETATM    1  C4  UNL     1     -52.060  -0.975  56.153  1.00  0.00     0.134 C 
HETATM    2  C5  UNL     1     -51.094  -0.282  57.031  1.00  0.00     0.038 C 
HETATM    3  C6  UNL     1     -51.606   0.315  58.333  1.00  0.00     0.022 C 
HETATM    4  C15 UNL     1     -50.690  -0.607  59.053  1.00  0.00     0.030 C 
HETATM    5  C16 UNL     1     -50.331  -1.357  57.796  1.00  0.00     0.058 C 
HETATM    6  C17 UNL     1     -51.113  -2.570  57.531  1.00  0.00     0.176 C 
HETATM    7  O2  UNL     1     -51.313  -3.482  58.283  1.00  0.00    -0.294 OA
HETATM    8  C18 UNL     1     -51.601  -2.433  56.144  1.00  0.00     0.155 C 
HETATM    9  O3  UNL     1     -50.510  -2.511  55.213  1.00  0.00    -0.300 OA
HETATM   10  C24 UNL     1     -49.213  -2.901  55.510  1.00  0.00     0.262 C 
HETATM   11  O4  UNL     1     -48.536  -3.375  54.564  1.00  0.00    -0.265 OA
HETATM   12  C25 UNL     1     -48.574  -2.800  56.840  1.00  0.00     0.144 C 
HETATM   13  C26 UNL     1     -48.878  -1.443  57.490  1.00  0.00     0.157 C 
ENDROOT
BRANCH   3  14
HETATM   14  C7  UNL     1     -53.035   0.208  58.557  1.00  0.00    -0.084 C 
HETATM   15  C8  UNL     1     -53.919   0.980  57.972  1.00  0.00     0.014 C 
BRANCH  14  16
HETATM   16  C9  UNL     1     -53.566  -0.850  59.486  1.00  0.00     0.037 C 
BRANCH  16  17
HETATM   17  C10 UNL     1     -54.697  -1.618  58.812  1.00  0.00     0.031 C 
BRANCH  17  18
HETATM   18  C11 UNL     1     -54.496  -3.055  59.140  1.00  0.00    -0.024 C 
HETATM   19  C12 UNL     1     -55.125  -4.010  58.493  1.00  0.00    -0.091 C 
HETATM   20  C13 UNL     1     -54.889  -5.436  58.860  1.00  0.00     0.042 C 
HETATM   21  C14 UNL     1     -56.067  -3.642  57.402  1.00  0.00     0.042 C 
ENDBRANCH  17  18
ENDBRANCH  16  17
ENDBRANCH  14  16
ENDBRANCH   3  14
BRANCH   1  22
HETATM   22  N1  UNL     1     -52.114  -0.458  54.802  1.00  0.00    -0.349 N 
HETATM   23  C3  UNL     1     -53.217   0.057  54.137  1.00  0.00     0.240 C 
HETATM   24  O1  UNL     1     -54.334   0.117  54.690  1.00  0.00    -0.269 OA
ATOM     25  H1  UNL     1     -51.239  -0.474  54.278  1.00  0.00     0.163 HD
BRANCH  23  26
HETATM   26  C2  UNL     1     -53.089   0.538  52.773  1.00  0.00     0.064 C 
HETATM   27  C1  UNL     1     -52.340  -0.049  51.864  1.00  0.00     0.017 C 
ENDBRANCH  23  26
ENDBRANCH   1  22
BRANCH   8  28
HETATM   28  C19 UNL     1     -52.709  -3.357  55.764  1.00  0.00     0.076 C 
BRANCH  28  29
HETATM   29  C20 UNL     1     -52.480  -3.845  54.355  1.00  0.00    -0.021 C 
HETATM   30  C21 UNL     1     -53.439  -3.796  53.451  1.00  0.00    -0.091 C 
HETATM   31  C22 UNL     1     -53.195  -4.277  52.082  1.00  0.00     0.042 C 
HETATM   32  C23 UNL     1     -54.759  -3.252  53.823  1.00  0.00     0.042 C 
ENDBRANCH  28  29
ENDBRANCH   8  28
BRANCH  13  33
HETATM   33  O5  UNL     1     -48.050  -1.411  58.653  1.00  0.00    -0.314 OA
BRANCH  33  34
HETATM   34  C27 UNL     1     -46.701  -1.706  58.601  1.00  0.00     0.263 C 
HETATM   35  O6  UNL     1     -46.150  -1.602  57.470  1.00  0.00    -0.265 OA
BRANCH  34  36
HETATM   36  C28 UNL     1     -45.891  -2.121  59.747  1.00  0.00     0.081 C 
HETATM   37  C29 UNL     1     -45.535  -3.588  59.658  1.00  0.00     0.020 C 
BRANCH  36  38
HETATM   38  C30 UNL     1     -44.606  -1.338  59.907  1.00  0.00     0.010 C 
HETATM   39  C31 UNL     1     -43.590  -2.298  60.527  1.00  0.00     0.006 C 
ENDBRANCH  36  38
ENDBRANCH  34  36
ENDBRANCH  33  34
ENDBRANCH  13  33
TORSDOF 12
ENDMDL
MODEL 4
REMARK VINA RESULT: -7.425774502      1.175      1.902
REMARK  12 active torsions:
REMARK  status: ('A' for Active; 'I' for Inactive)
REMARK    1  A    between atoms: C2_2  and  C3_3 
REMARK       I    between atoms: C3_3  and  N1_5 
REMARK    2  A    between atoms: N1_5  and  C4_7 
REMARK    3  A    between atoms: C6_9  and  C7_10 
REMARK    4  A    between atoms: C7_10  and  C9_12 
REMARK    5  A    between atoms: C9_12  and  C10_13 
REMARK    6  A    between atoms: C10_13  and  C11_14 
REMARK    7  A    between atoms: C18_22  and  C19_23 
REMARK    8  A    between atoms: C19_23  and  C20_24 
REMARK    9  A    between atoms: C26_32  and  O5_33 
REMARK   10  A    between atoms: O5_33  and  C27_34 
REMARK   11  A    between atoms: C27_34  and  C28_36 
REMARK   12  A    between atoms: C28_36  and  C30_38 
ROOT
HETATM    1  C4  UNL     1     -52.149  -0.940  56.195  1.00  0.00     0.134 C 
HETATM    2  C5  UNL     1     -51.168  -0.260  57.066  1.00  0.00     0.038 C 
HETATM    3  C6  UNL     1     -51.661   0.335  58.376  1.00  0.00     0.022 C 
HETATM    4  C15 UNL     1     -50.747  -0.599  59.082  1.00  0.00     0.030 C 
HETATM    5  C16 UNL     1     -50.408  -1.346  57.818  1.00  0.00     0.058 C 
HETATM    6  C17 UNL     1     -51.204  -2.551  57.555  1.00  0.00     0.176 C 
HETATM    7  O2  UNL     1     -51.405  -3.465  58.305  1.00  0.00    -0.294 OA
HETATM    8  C18 UNL     1     -51.704  -2.402  56.174  1.00  0.00     0.155 C 
HETATM    9  O3  UNL     1     -50.623  -2.486  55.232  1.00  0.00    -0.300 OA
HETATM   10  C24 UNL     1     -49.326  -2.889  55.514  1.00  0.00     0.262 C 
HETATM   11  O4  UNL     1     -48.664  -3.365  54.560  1.00  0.00    -0.265 OA
HETATM   12  C25 UNL     1     -48.673  -2.802  56.839  1.00  0.00     0.144 C 
HETATM   13  C26 UNL     1     -48.959  -1.444  57.498  1.00  0.00     0.157 C 
ENDROOT
BRANCH   3  14
HETATM   14  C7  UNL     1     -53.089   0.240  58.614  1.00  0.00    -0.084 C 
HETATM   15  C8  UNL     1     -53.633  -0.642  59.416  1.00  0.00     0.014 C 
BRANCH  14  16
HETATM   16  C9  UNL     1     -54.022   1.208  57.937  1.00  0.00     0.037 C 
BRANCH  16  17
HETATM   17  C10 UNL     1     -55.342   1.278  58.695  1.00  0.00     0.031 C 
BRANCH  17  18
HETATM   18  C11 UNL     1     -55.441   2.651  59.261  1.00  0.00    -0.024 C 
HETATM   19  C12 UNL     1     -55.653   2.862  60.540  1.00  0.00    -0.091 C 
HETATM   20  C13 UNL     1     -55.744   4.256  61.058  1.00  0.00     0.042 C 
HETATM   21  C14 UNL     1     -55.800   1.692  61.449  1.00  0.00     0.042 C 
ENDBRANCH  17  18
ENDBRANCH  16  17
ENDBRANCH  14  16
ENDBRANCH   3  14
BRANCH   1  22
HETATM   22  N1  UNL     1     -52.211  -0.416  54.847  1.00  0.00    -0.349 N 
HETATM   23  C3  UNL     1     -53.321   0.091  54.187  1.00  0.00     0.240 C 
HETATM   24  O1  UNL     1     -54.437   0.136  54.742  1.00  0.00    -0.269 OA
ATOM     25  H1  UNL     1     -51.337  -0.419  54.321  1.00  0.00     0.163 HD
BRANCH  23  26
HETATM   26  C2  UNL     1     -53.201   0.581  52.825  1.00  0.00     0.064 C 
HETATM   27  C1  UNL     1     -52.054   0.913  52.272  1.00  0.00     0.017 C 
ENDBRANCH  23  26
ENDBRANCH   1  22
BRANCH   8  28
HETATM   28  C19 UNL     1     -52.824  -3.313  55.800  1.00  0.00     0.076 C 
BRANCH  28  29
HETATM   29  C20 UNL     1     -54.092  -2.831  56.460  1.00  0.00    -0.021 C 
HETATM   30  C21 UNL     1     -54.812  -3.631  57.220  1.00  0.00    -0.091 C 
HETATM   31  C22 UNL     1     -56.046  -3.141  57.856  1.00  0.00     0.042 C 
HETATM   32  C23 UNL     1     -54.371  -5.023  57.433  1.00  0.00     0.042 C 
ENDBRANCH  28  29
ENDBRANCH   8  28
BRANCH  13  33
HETATM   33  O5  UNL     1     -48.119  -1.426  58.652  1.00  0.00    -0.314 OA
BRANCH  33  34
HETATM   34  C27 UNL     1     -46.767  -1.704  58.581  1.00  0.00     0.263 C 
HETATM   35  O6  UNL     1     -46.233  -1.584  57.444  1.00  0.00    -0.265 OA
BRANCH  34  36
HETATM   36  C28 UNL     1     -45.937  -2.117  59.713  1.00  0.00     0.081 C 
HETATM   37  C29 UNL     1     -45.587  -3.586  59.623  1.00  0.00     0.020 C 
BRANCH  36  38
HETATM   38  C30 UNL     1     -44.647  -1.337  59.846  1.00  0.00     0.010 C 
HETATM   39  C31 UNL     1     -43.649  -2.268  60.535  1.00  0.00     0.006 C 
ENDBRANCH  36  38
ENDBRANCH  34  36
ENDBRANCH  33  34
ENDBRANCH  13  33
TORSDOF 12
ENDMDL
MODEL 5
REMARK VINA RESULT: -6.941337079      2.337      7.078
REMARK  12 active torsions:
REMARK  status: ('A' for Active; 'I' for Inactive)
REMARK    1  A    between atoms: C2_2  and  C3_3 
REMARK       I    between atoms: C3_3  and  N1_5 
REMARK    2  A    between atoms: N1_5  and  C4_7 
REMARK    3  A    between atoms: C6_9  and  C7_10 
REMARK    4  A    between atoms: C7_10  and  C9_12 
REMARK    5  A    between atoms: C9_12  and  C10_13 
REMARK    6  A    between atoms: C10_13  and  C11_14 
REMARK    7  A    between atoms: C18_22  and  C19_23 
REMARK    8  A    between atoms: C19_23  and  C20_24 
REMARK    9  A    between atoms: C26_32  and  O5_33 
REMARK   10  A    between atoms: O5_33  and  C27_34 
REMARK   11  A    between atoms: C27_34  and  C28_36 
REMARK   12  A    between atoms: C28_36  and  C30_38 
ROOT
HETATM    1  C4  UNL     1     -52.531  -1.291  56.037  1.00  0.00     0.134 C 
HETATM    2  C5  UNL     1     -52.903  -1.969  57.296  1.00  0.00     0.038 C 
HETATM    3  C6  UNL     1     -51.856  -2.071  58.394  1.00  0.00     0.022 C 
HETATM    4  C15 UNL     1     -52.760  -1.268  59.257  1.00  0.00     0.030 C 
HETATM    5  C16 UNL     1     -53.706  -0.973  58.123  1.00  0.00     0.058 C 
HETATM    6  C17 UNL     1     -53.484   0.296  57.419  1.00  0.00     0.176 C 
HETATM    7  O2  UNL     1     -53.376   1.386  57.907  1.00  0.00    -0.294 OA
HETATM    8  C18 UNL     1     -53.422  -0.050  55.985  1.00  0.00     0.155 C 
HETATM    9  O3  UNL     1     -54.706  -0.490  55.514  1.00  0.00    -0.300 OA
HETATM   10  C24 UNL     1     -55.905  -0.387  56.203  1.00  0.00     0.262 C 
HETATM   11  O4  UNL     1     -56.952  -0.353  55.511  1.00  0.00    -0.265 OA
HETATM   12  C25 UNL     1     -56.042  -0.315  57.675  1.00  0.00     0.144 C 
HETATM   13  C26 UNL     1     -55.128  -1.343  58.357  1.00  0.00     0.157 C 
ENDROOT
BRANCH   3  14
HETATM   14  C7  UNL     1     -50.543  -1.548  58.065  1.00  0.00    -0.084 C 
HETATM   15  C8  UNL     1     -50.183  -0.306  58.284  1.00  0.00     0.014 C 
BRANCH  14  16
HETATM   16  C9  UNL     1     -49.508  -2.458  57.461  1.00  0.00     0.037 C 
BRANCH  16  17
HETATM   17  C10 UNL     1     -48.121  -1.844  57.610  1.00  0.00     0.031 C 
BRANCH  17  18
HETATM   18  C11 UNL     1     -47.413  -2.630  58.656  1.00  0.00    -0.024 C 
HETATM   19  C12 UNL     1     -46.106  -2.600  58.781  1.00  0.00    -0.091 C 
HETATM   20  C13 UNL     1     -45.443  -3.407  59.846  1.00  0.00     0.042 C 
HETATM   21  C14 UNL     1     -45.311  -1.756  57.848  1.00  0.00     0.042 C 
ENDBRANCH  17  18
ENDBRANCH  16  17
ENDBRANCH  14  16
ENDBRANCH   3  14
BRANCH   1  22
HETATM   22  N1  UNL     1     -52.722  -2.096  54.848  1.00  0.00    -0.349 N 
HETATM   23  C3  UNL     1     -51.758  -2.792  54.135  1.00  0.00     0.240 C 
HETATM   24  O1  UNL     1     -50.560  -2.777  54.484  1.00  0.00    -0.269 OA
ATOM     25  H1  UNL     1     -53.677  -2.157  54.495  1.00  0.00     0.163 HD
BRANCH  23  26
HETATM   26  C2  UNL     1     -52.130  -3.556  52.957  1.00  0.00     0.064 C 
HETATM   27  C1  UNL     1     -52.865  -3.070  51.980  1.00  0.00     0.017 C 
ENDBRANCH  23  26
ENDBRANCH   1  22
BRANCH   8  28
HETATM   28  C19 UNL     1     -52.848   1.003  55.099  1.00  0.00     0.076 C 
BRANCH  28  29
HETATM   29  C20 UNL     1     -53.766   1.206  53.919  1.00  0.00    -0.021 C 
HETATM   30  C21 UNL     1     -53.347   1.001  52.686  1.00  0.00    -0.091 C 
HETATM   31  C22 UNL     1     -54.257   1.203  51.548  1.00  0.00     0.042 C 
HETATM   32  C23 UNL     1     -51.957   0.562  52.455  1.00  0.00     0.042 C 
ENDBRANCH  28  29
ENDBRANCH   8  28
BRANCH  13  33
HETATM   33  O5  UNL     1     -55.507  -1.297  59.733  1.00  0.00    -0.314 OA
BRANCH  33  34
HETATM   34  C27 UNL     1     -56.087  -2.378  60.370  1.00  0.00     0.263 C 
HETATM   35  O6  UNL     1     -57.317  -2.276  60.634  1.00  0.00    -0.265 OA
BRANCH  34  36
HETATM   36  C28 UNL     1     -55.381  -3.603  60.749  1.00  0.00     0.081 C 
HETATM   37  C29 UNL     1     -55.732  -4.018  62.160  1.00  0.00     0.020 C 
BRANCH  36  38
HETATM   38  C30 UNL     1     -55.657  -4.778  59.835  1.00  0.00     0.010 C 
HETATM   39  C31 UNL     1     -54.435  -4.912  58.926  1.00  0.00     0.006 C 
ENDBRANCH  36  38
ENDBRANCH  34  36
ENDBRANCH  33  34
ENDBRANCH  13  33
TORSDOF 12
ENDMDL
