MODEL 1
REMARK VINA RESULT: -6.302366584      0.000      0.000
REMARK  16 active torsions:
REMARK  status: ('A' for Active; 'I' for Inactive)
REMARK    1  A    between atoms: C2_2  and  C3_3 
REMARK    2  A    between atoms: C3_3  and  C4_4 
REMARK    3  A    between atoms: C4_4  and  O2_6 
REMARK    4  A    between atoms: O2_6  and  C5_7 
REMARK    5  A    between atoms: C7_9  and  C8_10 
REMARK    6  A    between atoms: C8_10  and  O3_11 
REMARK    7  A    between atoms: O3_11  and  N1_12 
REMARK    8  A    between atoms: N1_12  and  C9_13 
REMARK    9  A    between atoms: N1_12  and  C10_15 
REMARK   10  A    between atoms: C10_15  and  C11_16 
REMARK   11  A    between atoms: C19_25  and  C20_26 
REMARK   12  A    between atoms: C20_26  and  C21_27 
REMARK   13  A    between atoms: C21_27  and  N2_28 
REMARK   14  A    between atoms: N2_28  and  C23_30 
REMARK   15  A    between atoms: C23_30  and  N3_32 
REMARK   16  A    between atoms: N3_32  and  C24_34 
ROOT
HETATM    1  C5  UNL     1     -49.608  -1.983  57.962  1.00  0.00     0.145 C 
HETATM    2  C6  UNL     1     -50.186  -0.623  58.060  1.00  0.00     0.078 C 
HETATM    3  C7  UNL     1     -51.681  -0.651  57.540  1.00  0.00     0.111 C 
HETATM    4  O5  UNL     1     -51.550  -1.137  56.254  1.00  0.00    -0.362 OA
HETATM    5  C14 UNL     1     -51.127  -2.431  56.135  1.00  0.00     0.064 C 
HETATM    6  C15 UNL     1     -52.317  -3.283  55.710  1.00  0.00     0.046 C 
HETATM    7  C16 UNL     1     -50.084  -2.527  55.070  1.00  0.00     0.046 C 
HETATM    8  C17 UNL     1     -50.675  -2.969  57.476  1.00  0.00     0.072 C 
HETATM    9  C18 UNL     1     -51.805  -2.817  58.405  1.00  0.00    -0.011 C 
HETATM   10  C19 UNL     1     -52.355  -1.545  58.440  1.00  0.00    -0.045 C 
ENDROOT
BRANCH  10  11
HETATM   11  C20 UNL     1     -53.412  -1.371  59.429  1.00  0.00     0.057 C 
BRANCH  11  12
HETATM   12  C21 UNL     1     -53.919  -2.600  60.117  1.00  0.00     0.129 C 
BRANCH  12  13
HETATM   13  N2  UNL     1     -55.404  -2.615  60.041  1.00  0.00    -0.362 N 
HETATM   14  C22 UNL     1     -56.137  -1.363  60.167  1.00  0.00     0.152 C 
BRANCH  13  15
HETATM   15  C23 UNL     1     -56.085  -3.840  59.850  1.00  0.00     0.170 C 
HETATM   16  S1  UNL     1     -57.018  -4.060  58.529  1.00  0.00    -0.041 SA
BRANCH  15  17
HETATM   17  N3  UNL     1     -55.977  -4.884  60.785  1.00  0.00    -0.359 N 
ATOM     18  H3  UNL     1     -55.378  -5.679  60.563  1.00  0.00     0.162 HD
BRANCH  17  19
HETATM   19  C24 UNL     1     -56.679  -4.880  62.050  1.00  0.00     0.021 C 
HETATM   20  C25 UNL     1     -57.945  -4.066  61.992  1.00  0.00     0.037 C 
HETATM   21  C26 UNL     1     -55.760  -4.303  63.113  1.00  0.00     0.037 C 
HETATM   22  C27 UNL     1     -56.990  -6.302  62.408  1.00  0.00     0.037 C 
ENDBRANCH  17  19
ENDBRANCH  15  17
ENDBRANCH  13  15
ENDBRANCH  12  13
ENDBRANCH  11  12
ENDBRANCH  10  11
BRANCH   3  23
HETATM   23  C8  UNL     1     -52.103   0.788  57.409  1.00  0.00     0.244 C 
BRANCH  23  24
HETATM   24  O3  UNL     1     -53.214   1.005  56.722  1.00  0.00    -0.273 OA
BRANCH  24  25
HETATM   25  N1  UNL     1     -53.343   1.689  55.625  1.00  0.00    -0.233 N 
BRANCH  25  26
HETATM   26  C9  UNL     1     -53.435   3.145  55.819  1.00  0.00     0.376 C 
HETATM   27  O4  UNL     1     -52.711   3.947  55.220  1.00  0.00    -0.281 OA
ENDBRANCH  25  26
BRANCH  25  28
HETATM   28  C10 UNL     1     -53.505   1.280  54.266  1.00  0.00     0.162 C 
BRANCH  28  29
HETATM   29  C11 UNL     1     -52.344   0.791  53.506  1.00  0.00    -0.002 C 
HETATM   30  C12 UNL     1     -52.435  -0.554  52.863  1.00  0.00     0.011 C 
HETATM   31  C13 UNL     1     -52.036   1.774  52.343  1.00  0.00     0.011 C 
ENDBRANCH  28  29
ENDBRANCH  25  28
ENDBRANCH  24  25
ENDBRANCH  23  24
ENDBRANCH   3  23
BRANCH   1  32
HETATM   32  O2  UNL     1     -48.515  -2.123  57.091  1.00  0.00    -0.315 OA
BRANCH  32  33
HETATM   33  C4  UNL     1     -47.193  -1.882  57.500  1.00  0.00     0.259 C 
HETATM   34  O1  UNL     1     -46.419  -1.447  56.639  1.00  0.00    -0.265 OA
BRANCH  33  35
HETATM   35  C3  UNL     1     -46.880  -2.177  58.914  1.00  0.00     0.111 C 
BRANCH  35  36
HETATM   36  C2  UNL     1     -45.425  -2.553  59.027  1.00  0.00     0.005 C 
HETATM   37  C1  UNL     1     -44.651  -1.497  59.757  1.00  0.00     0.005 C 
ENDBRANCH  35  36
ENDBRANCH  33  35
ENDBRANCH  32  33
ENDBRANCH   1  32
TORSDOF 16
ENDMDL
MODEL 2
REMARK VINA RESULT: -6.282852068      1.250      1.693
REMARK  16 active torsions:
REMARK  status: ('A' for Active; 'I' for Inactive)
REMARK    1  A    between atoms: C2_2  and  C3_3 
REMARK    2  A    between atoms: C3_3  and  C4_4 
REMARK    3  A    between atoms: C4_4  and  O2_6 
REMARK    4  A    between atoms: O2_6  and  C5_7 
REMARK    5  A    between atoms: C7_9  and  C8_10 
REMARK    6  A    between atoms: C8_10  and  O3_11 
REMARK    7  A    between atoms: O3_11  and  N1_12 
REMARK    8  A    between atoms: N1_12  and  C9_13 
REMARK    9  A    between atoms: N1_12  and  C10_15 
REMARK   10  A    between atoms: C10_15  and  C11_16 
REMARK   11  A    between atoms: C19_25  and  C20_26 
REMARK   12  A    between atoms: C20_26  and  C21_27 
REMARK   13  A    between atoms: C21_27  and  N2_28 
REMARK   14  A    between atoms: N2_28  and  C23_30 
REMARK   15  A    between atoms: C23_30  and  N3_32 
REMARK   16  A    between atoms: N3_32  and  C24_34 
ROOT
HETATM    1  C5  UNL     1     -49.670  -2.010  57.952  1.00  0.00     0.145 C 
HETATM    2  C6  UNL     1     -50.236  -0.643  58.024  1.00  0.00     0.078 C 
HETATM    3  C7  UNL     1     -51.719  -0.661  57.470  1.00  0.00     0.111 C 
HETATM    4  O5  UNL     1     -51.565  -1.160  56.192  1.00  0.00    -0.362 OA
HETATM    5  C14 UNL     1     -51.153  -2.459  56.095  1.00  0.00     0.064 C 
HETATM    6  C15 UNL     1     -52.342  -3.303  55.651  1.00  0.00     0.046 C 
HETATM    7  C16 UNL     1     -50.087  -2.576  55.055  1.00  0.00     0.046 C 
HETATM    8  C17 UNL     1     -50.736  -2.990  57.450  1.00  0.00     0.072 C 
HETATM    9  C18 UNL     1     -51.885  -2.817  58.353  1.00  0.00    -0.011 C 
HETATM   10  C19 UNL     1     -52.423  -1.540  58.364  1.00  0.00    -0.045 C 
ENDROOT
BRANCH  10  11
HETATM   11  C20 UNL     1     -53.500  -1.345  59.327  1.00  0.00     0.057 C 
BRANCH  11  12
HETATM   12  C21 UNL     1     -54.888  -1.691  58.885  1.00  0.00     0.129 C 
BRANCH  12  13
HETATM   13  N2  UNL     1     -55.645  -2.217  60.051  1.00  0.00    -0.362 N 
HETATM   14  C22 UNL     1     -56.600  -1.353  60.730  1.00  0.00     0.152 C 
BRANCH  13  15
HETATM   15  C23 UNL     1     -55.429  -3.545  60.488  1.00  0.00     0.170 C 
HETATM   16  S1  UNL     1     -55.904  -4.003  61.981  1.00  0.00    -0.041 SA
BRANCH  15  17
HETATM   17  N3  UNL     1     -54.804  -4.491  59.656  1.00  0.00    -0.359 N 
ATOM     18  H3  UNL     1     -53.787  -4.564  59.677  1.00  0.00     0.162 HD
BRANCH  17  19
HETATM   19  C24 UNL     1     -55.542  -5.366  58.771  1.00  0.00     0.021 C 
HETATM   20  C25 UNL     1     -56.946  -4.877  58.533  1.00  0.00     0.037 C 
HETATM   21  C26 UNL     1     -55.591  -6.752  59.388  1.00  0.00     0.037 C 
HETATM   22  C27 UNL     1     -54.792  -5.446  57.475  1.00  0.00     0.037 C 
ENDBRANCH  17  19
ENDBRANCH  15  17
ENDBRANCH  13  15
ENDBRANCH  12  13
ENDBRANCH  11  12
ENDBRANCH  10  11
BRANCH   3  23
HETATM   23  C8  UNL     1     -52.123   0.781  57.317  1.00  0.00     0.244 C 
BRANCH  23  24
HETATM   24  O3  UNL     1     -53.258   0.999  56.671  1.00  0.00    -0.273 OA
BRANCH  24  25
HETATM   25  N1  UNL     1     -53.417   1.620  55.541  1.00  0.00    -0.233 N 
BRANCH  25  26
HETATM   26  C9  UNL     1     -53.618   3.073  55.666  1.00  0.00     0.376 C 
HETATM   27  O4  UNL     1     -52.766   3.899  55.319  1.00  0.00    -0.281 OA
ENDBRANCH  25  26
BRANCH  25  28
HETATM   28  C10 UNL     1     -53.525   1.139  54.201  1.00  0.00     0.162 C 
BRANCH  28  29
HETATM   29  C11 UNL     1     -52.313   0.752  53.463  1.00  0.00    -0.002 C 
HETATM   30  C12 UNL     1     -52.302  -0.567  52.762  1.00  0.00     0.011 C 
HETATM   31  C13 UNL     1     -52.025   1.801  52.354  1.00  0.00     0.011 C 
ENDBRANCH  28  29
ENDBRANCH  25  28
ENDBRANCH  24  25
ENDBRANCH  23  24
ENDBRANCH   3  23
BRANCH   1  32
HETATM   32  O2  UNL     1     -48.559  -2.170  57.107  1.00  0.00    -0.315 OA
BRANCH  32  33
HETATM   33  C4  UNL     1     -47.249  -1.894  57.529  1.00  0.00     0.259 C 
HETATM   34  O1  UNL     1     -46.471  -1.460  56.671  1.00  0.00    -0.265 OA
BRANCH  33  35
HETATM   35  C3  UNL     1     -46.950  -2.157  58.953  1.00  0.00     0.111 C 
BRANCH  35  36
HETATM   36  C2  UNL     1     -45.518  -2.609  59.079  1.00  0.00     0.005 C 
HETATM   37  C1  UNL     1     -45.424  -3.889  59.854  1.00  0.00     0.005 C 
ENDBRANCH  35  36
ENDBRANCH  33  35
ENDBRANCH  32  33
ENDBRANCH   1  32
TORSDOF 16
ENDMDL
MODEL 3
REMARK VINA RESULT: -6.189394076      2.206      3.367
REMARK  16 active torsions:
REMARK  status: ('A' for Active; 'I' for Inactive)
REMARK    1  A    between atoms: C2_2  and  C3_3 
REMARK    2  A    between atoms: C3_3  and  C4_4 
REMARK    3  A    between atoms: C4_4  and  O2_6 
REMARK    4  A    between atoms: O2_6  and  C5_7 
REMARK    5  A    between atoms: C7_9  and  C8_10 
REMARK    6  A    between atoms: C8_10  and  O3_11 
REMARK    7  A    between atoms: O3_11  and  N1_12 
REMARK    8  A    between atoms: N1_12  and  C9_13 
REMARK    9  A    between atoms: N1_12  and  C10_15 
REMARK   10  A    between atoms: C10_15  and  C11_16 
REMARK   11  A    between atoms: C19_25  and  C20_26 
REMARK   12  A    between atoms: C20_26  and  C21_27 
REMARK   13  A    between atoms: C21_27  and  N2_28 
REMARK   14  A    between atoms: N2_28  and  C23_30 
REMARK   15  A    between atoms: C23_30  and  N3_32 
REMARK   16  A    between atoms: N3_32  and  C24_34 
ROOT
HETATM    1  C5  UNL     1     -49.876  -1.963  57.988  1.00  0.00     0.145 C 
HETATM    2  C6  UNL     1     -50.323  -0.552  57.981  1.00  0.00     0.078 C 
HETATM    3  C7  UNL     1     -51.842  -0.486  57.537  1.00  0.00     0.111 C 
HETATM    4  O5  UNL     1     -51.828  -1.099  56.300  1.00  0.00    -0.362 OA
HETATM    5  C14 UNL     1     -51.529  -2.432  56.286  1.00  0.00     0.064 C 
HETATM    6  C15 UNL     1     -52.812  -3.204  56.003  1.00  0.00     0.046 C 
HETATM    7  C16 UNL     1     -50.560  -2.724  55.187  1.00  0.00     0.046 C 
HETATM    8  C17 UNL     1     -51.052  -2.885  57.650  1.00  0.00     0.072 C 
HETATM    9  C18 UNL     1     -52.110  -2.542  58.613  1.00  0.00    -0.011 C 
HETATM   10  C19 UNL     1     -52.542  -1.227  58.551  1.00  0.00    -0.045 C 
ENDROOT
BRANCH  10  11
HETATM   11  C20 UNL     1     -53.522  -0.864  59.567  1.00  0.00     0.057 C 
BRANCH  11  12
HETATM   12  C21 UNL     1     -54.907  -1.412  59.413  1.00  0.00     0.129 C 
BRANCH  12  13
HETATM   13  N2  UNL     1     -55.854  -0.278  59.248  1.00  0.00    -0.362 N 
HETATM   14  C22 UNL     1     -56.347   0.052  57.917  1.00  0.00     0.152 C 
BRANCH  13  15
HETATM   15  C23 UNL     1     -56.264   0.466  60.379  1.00  0.00     0.170 C 
HETATM   16  S1  UNL     1     -57.559  -0.014  61.249  1.00  0.00    -0.041 SA
BRANCH  15  17
HETATM   17  N3  UNL     1     -55.574   1.626  60.774  1.00  0.00    -0.359 N 
ATOM     18  H3  UNL     1     -54.839   1.541  61.476  1.00  0.00     0.162 HD
BRANCH  17  19
HETATM   19  C24 UNL     1     -55.860   2.933  60.226  1.00  0.00     0.021 C 
HETATM   20  C25 UNL     1     -57.266   3.030  59.697  1.00  0.00     0.037 C 
HETATM   21  C26 UNL     1     -54.880   3.214  59.101  1.00  0.00     0.037 C 
HETATM   22  C27 UNL     1     -55.642   3.944  61.312  1.00  0.00     0.037 C 
ENDBRANCH  17  19
ENDBRANCH  15  17
ENDBRANCH  13  15
ENDBRANCH  12  13
ENDBRANCH  11  12
ENDBRANCH  10  11
BRANCH   3  23
HETATM   23  C8  UNL     1     -52.141   0.967  57.288  1.00  0.00     0.244 C 
BRANCH  23  24
HETATM   24  O3  UNL     1     -53.271   1.224  56.647  1.00  0.00    -0.273 OA
BRANCH  24  25
HETATM   25  N1  UNL     1     -53.410   1.798  55.490  1.00  0.00    -0.233 N 
BRANCH  25  26
HETATM   26  C9  UNL     1     -53.558   3.261  55.546  1.00  0.00     0.376 C 
HETATM   27  O4  UNL     1     -52.662   4.039  55.198  1.00  0.00    -0.281 OA
ENDBRANCH  25  26
BRANCH  25  28
HETATM   28  C10 UNL     1     -53.537   1.258  54.174  1.00  0.00     0.162 C 
BRANCH  28  29
HETATM   29  C11 UNL     1     -52.343   0.780  53.460  1.00  0.00    -0.002 C 
HETATM   30  C12 UNL     1     -52.418  -0.536  52.757  1.00  0.00     0.011 C 
HETATM   31  C13 UNL     1     -51.954   1.805  52.359  1.00  0.00     0.011 C 
ENDBRANCH  28  29
ENDBRANCH  25  28
ENDBRANCH  24  25
ENDBRANCH  23  24
ENDBRANCH   3  23
BRANCH   1  32
HETATM   32  O2  UNL     1     -48.850  -2.285  57.083  1.00  0.00    -0.315 OA
BRANCH  32  33
HETATM   33  C4  UNL     1     -47.501  -1.996  57.344  1.00  0.00     0.259 C 
HETATM   34  O1  UNL     1     -46.816  -1.637  56.379  1.00  0.00    -0.265 OA
BRANCH  33  35
HETATM   35  C3  UNL     1     -47.054  -2.155  58.745  1.00  0.00     0.111 C 
BRANCH  35  36
HETATM   36  C2  UNL     1     -45.557  -2.001  58.804  1.00  0.00     0.005 C 
HETATM   37  C1  UNL     1     -45.070  -2.012  60.221  1.00  0.00     0.005 C 
ENDBRANCH  35  36
ENDBRANCH  33  35
ENDBRANCH  32  33
ENDBRANCH   1  32
TORSDOF 16
ENDMDL
MODEL 4
REMARK VINA RESULT: -6.179424253      1.874      3.240
REMARK  16 active torsions:
REMARK  status: ('A' for Active; 'I' for Inactive)
REMARK    1  A    between atoms: C2_2  and  C3_3 
REMARK    2  A    between atoms: C3_3  and  C4_4 
REMARK    3  A    between atoms: C4_4  and  O2_6 
REMARK    4  A    between atoms: O2_6  and  C5_7 
REMARK    5  A    between atoms: C7_9  and  C8_10 
REMARK    6  A    between atoms: C8_10  and  O3_11 
REMARK    7  A    between atoms: O3_11  and  N1_12 
REMARK    8  A    between atoms: N1_12  and  C9_13 
REMARK    9  A    between atoms: N1_12  and  C10_15 
REMARK   10  A    between atoms: C10_15  and  C11_16 
REMARK   11  A    between atoms: C19_25  and  C20_26 
REMARK   12  A    between atoms: C20_26  and  C21_27 
REMARK   13  A    between atoms: C21_27  and  N2_28 
REMARK   14  A    between atoms: N2_28  and  C23_30 
REMARK   15  A    between atoms: C23_30  and  N3_32 
REMARK   16  A    between atoms: N3_32  and  C24_34 
ROOT
HETATM    1  C5  UNL     1     -49.660  -2.088  57.944  1.00  0.00     0.145 C 
HETATM    2  C6  UNL     1     -50.231  -0.730  58.095  1.00  0.00     0.078 C 
HETATM    3  C7  UNL     1     -51.724  -0.728  57.566  1.00  0.00     0.111 C 
HETATM    4  O5  UNL     1     -51.589  -1.161  56.262  1.00  0.00    -0.362 OA
HETATM    5  C14 UNL     1     -51.172  -2.451  56.091  1.00  0.00     0.064 C 
HETATM    6  C15 UNL     1     -52.365  -3.278  55.626  1.00  0.00     0.046 C 
HETATM    7  C16 UNL     1     -50.124  -2.509  55.029  1.00  0.00     0.046 C 
HETATM    8  C17 UNL     1     -50.730  -3.048  57.411  1.00  0.00     0.072 C 
HETATM    9  C18 UNL     1     -51.864  -2.927  58.340  1.00  0.00    -0.011 C 
HETATM   10  C19 UNL     1     -52.407  -1.655  58.426  1.00  0.00    -0.045 C 
ENDROOT
BRANCH  10  11
HETATM   11  C20 UNL     1     -53.469  -1.516  59.415  1.00  0.00     0.057 C 
BRANCH  11  12
HETATM   12  C21 UNL     1     -53.892  -2.751  60.148  1.00  0.00     0.129 C 
BRANCH  12  13
HETATM   13  N2  UNL     1     -55.368  -2.893  60.036  1.00  0.00    -0.362 N 
HETATM   14  C22 UNL     1     -56.146  -3.208  61.226  1.00  0.00     0.152 C 
BRANCH  13  15
HETATM   15  C23 UNL     1     -55.997  -2.722  58.781  1.00  0.00     0.170 C 
HETATM   16  S1  UNL     1     -57.315  -1.769  58.649  1.00  0.00    -0.041 SA
BRANCH  15  17
HETATM   17  N3  UNL     1     -55.507  -3.365  57.630  1.00  0.00    -0.359 N 
ATOM     18  H3  UNL     1     -54.973  -2.818  56.955  1.00  0.00     0.162 HD
BRANCH  17  19
HETATM   19  C24 UNL     1     -55.728  -4.769  57.362  1.00  0.00     0.021 C 
HETATM   20  C25 UNL     1     -56.912  -5.310  58.120  1.00  0.00     0.037 C 
HETATM   21  C26 UNL     1     -54.483  -5.542  57.760  1.00  0.00     0.037 C 
HETATM   22  C27 UNL     1     -55.937  -4.928  55.886  1.00  0.00     0.037 C 
ENDBRANCH  17  19
ENDBRANCH  15  17
ENDBRANCH  13  15
ENDBRANCH  12  13
ENDBRANCH  11  12
ENDBRANCH  10  11
BRANCH   3  23
HETATM   23  C8  UNL     1     -52.137   0.717  57.493  1.00  0.00     0.244 C 
BRANCH  23  24
HETATM   24  O3  UNL     1     -53.081   1.006  56.611  1.00  0.00    -0.273 OA
BRANCH  24  25
HETATM   25  N1  UNL     1     -54.339   1.229  56.846  1.00  0.00    -0.233 N 
BRANCH  25  26
HETATM   26  C9  UNL     1     -55.258   0.258  56.232  1.00  0.00     0.376 C 
HETATM   27  O4  UNL     1     -54.924  -0.901  55.961  1.00  0.00    -0.281 OA
ENDBRANCH  25  26
BRANCH  25  28
HETATM   28  C10 UNL     1     -55.003   2.301  57.517  1.00  0.00     0.162 C 
BRANCH  28  29
HETATM   29  C11 UNL     1     -54.763   2.527  58.951  1.00  0.00    -0.002 C 
HETATM   30  C12 UNL     1     -55.116   3.859  59.527  1.00  0.00     0.011 C 
HETATM   31  C13 UNL     1     -55.581   1.498  59.780  1.00  0.00     0.011 C 
ENDBRANCH  28  29
ENDBRANCH  25  28
ENDBRANCH  24  25
ENDBRANCH  23  24
ENDBRANCH   3  23
BRANCH   1  32
HETATM   32  O2  UNL     1     -48.563  -2.198  57.073  1.00  0.00    -0.315 OA
BRANCH  32  33
HETATM   33  C4  UNL     1     -47.250  -1.909  57.479  1.00  0.00     0.259 C 
HETATM   34  O1  UNL     1     -46.497  -1.437  56.619  1.00  0.00    -0.265 OA
BRANCH  33  35
HETATM   35  C3  UNL     1     -46.920  -2.203  58.890  1.00  0.00     0.111 C 
BRANCH  35  36
HETATM   36  C2  UNL     1     -45.458  -2.556  58.989  1.00  0.00     0.005 C 
HETATM   37  C1  UNL     1     -44.697  -1.496  59.725  1.00  0.00     0.005 C 
ENDBRANCH  35  36
ENDBRANCH  33  35
ENDBRANCH  32  33
ENDBRANCH   1  32
TORSDOF 16
ENDMDL
MODEL 5
REMARK VINA RESULT: -6.142235081      1.704      2.733
REMARK  16 active torsions:
REMARK  status: ('A' for Active; 'I' for Inactive)
REMARK    1  A    between atoms: C2_2  and  C3_3 
REMARK    2  A    between atoms: C3_3  and  C4_4 
REMARK    3  A    between atoms: C4_4  and  O2_6 
REMARK    4  A    between atoms: O2_6  and  C5_7 
REMARK    5  A    between atoms: C7_9  and  C8_10 
REMARK    6  A    between atoms: C8_10  and  O3_11 
REMARK    7  A    between atoms: O3_11  and  N1_12 
REMARK    8  A    between atoms: N1_12  and  C9_13 
REMARK    9  A    between atoms: N1_12  and  C10_15 
REMARK   10  A    between atoms: C10_15  and  C11_16 
REMARK   11  A    between atoms: C19_25  and  C20_26 
REMARK   12  A    between atoms: C20_26  and  C21_27 
REMARK   13  A    between atoms: C21_27  and  N2_28 
REMARK   14  A    between atoms: N2_28  and  C23_30 
REMARK   15  A    between atoms: C23_30  and  N3_32 
REMARK   16  A    between atoms: N3_32  and  C24_34 
ROOT
HETATM    1  C5  UNL     1     -49.701  -1.942  57.930  1.00  0.00     0.145 C 
HETATM    2  C6  UNL     1     -50.314  -0.599  58.049  1.00  0.00     0.078 C 
HETATM    3  C7  UNL     1     -51.826  -0.671  57.582  1.00  0.00     0.111 C 
HETATM    4  O5  UNL     1     -51.728  -1.155  56.293  1.00  0.00    -0.362 OA
HETATM    5  C14 UNL     1     -51.272  -2.436  56.159  1.00  0.00     0.064 C 
HETATM    6  C15 UNL     1     -52.452  -3.322  55.778  1.00  0.00     0.046 C 
HETATM    7  C16 UNL     1     -50.266  -2.504  55.057  1.00  0.00     0.046 C 
HETATM    8  C17 UNL     1     -50.756  -2.960  57.483  1.00  0.00     0.072 C 
HETATM    9  C18 UNL     1     -51.856  -2.838  58.452  1.00  0.00    -0.011 C 
HETATM   10  C19 UNL     1     -52.441  -1.583  58.507  1.00  0.00    -0.045 C 
ENDROOT
BRANCH  10  11
HETATM   11  C20 UNL     1     -53.466  -1.438  59.533  1.00  0.00     0.057 C 
BRANCH  11  12
HETATM   12  C21 UNL     1     -53.964  -2.688  60.189  1.00  0.00     0.129 C 
BRANCH  12  13
HETATM   13  N2  UNL     1     -55.314  -3.006  59.653  1.00  0.00    -0.362 N 
HETATM   14  C22 UNL     1     -56.353  -1.985  59.683  1.00  0.00     0.152 C 
BRANCH  13  15
HETATM   15  C23 UNL     1     -55.574  -4.292  59.124  1.00  0.00     0.170 C 
HETATM   16  S1  UNL     1     -55.888  -4.474  57.533  1.00  0.00    -0.041 SA
BRANCH  15  17
HETATM   17  N3  UNL     1     -55.572  -5.431  59.949  1.00  0.00    -0.359 N 
ATOM     18  H3  UNL     1     -54.813  -6.105  59.848  1.00  0.00     0.162 HD
BRANCH  17  19
HETATM   19  C24 UNL     1     -56.598  -5.687  60.936  1.00  0.00     0.021 C 
HETATM   20  C25 UNL     1     -57.961  -5.259  60.459  1.00  0.00     0.037 C 
HETATM   21  C26 UNL     1     -56.250  -4.931  62.206  1.00  0.00     0.037 C 
HETATM   22  C27 UNL     1     -56.589  -7.156  61.236  1.00  0.00     0.037 C 
ENDBRANCH  17  19
ENDBRANCH  15  17
ENDBRANCH  13  15
ENDBRANCH  12  13
ENDBRANCH  11  12
ENDBRANCH  10  11
BRANCH   3  23
HETATM   23  C8  UNL     1     -52.293   0.755  57.466  1.00  0.00     0.244 C 
BRANCH  23  24
HETATM   24  O3  UNL     1     -53.354   0.956  56.701  1.00  0.00    -0.273 OA
BRANCH  24  25
HETATM   25  N1  UNL     1     -54.580   1.148  57.085  1.00  0.00    -0.233 N 
BRANCH  25  26
HETATM   26  C9  UNL     1     -55.514   0.074  56.708  1.00  0.00     0.376 C 
HETATM   27  O4  UNL     1     -55.136  -1.050  56.359  1.00  0.00    -0.281 OA
ENDBRANCH  25  26
BRANCH  25  28
HETATM   28  C10 UNL     1     -55.210   2.257  57.728  1.00  0.00     0.162 C 
BRANCH  28  29
HETATM   29  C11 UNL     1     -54.853   2.598  59.113  1.00  0.00    -0.002 C 
HETATM   30  C12 UNL     1     -55.175   3.970  59.610  1.00  0.00     0.011 C 
HETATM   31  C13 UNL     1     -55.583   1.634  60.089  1.00  0.00     0.011 C 
ENDBRANCH  28  29
ENDBRANCH  25  28
ENDBRANCH  24  25
ENDBRANCH  23  24
ENDBRANCH   3  23
BRANCH   1  32
HETATM   32  O2  UNL     1     -48.637  -2.053  57.021  1.00  0.00    -0.315 OA
BRANCH  32  33
HETATM   33  C4  UNL     1     -47.297  -1.896  57.410  1.00  0.00     0.259 C 
HETATM   34  O1  UNL     1     -46.499  -1.562  56.526  1.00  0.00    -0.265 OA
BRANCH  33  35
HETATM   35  C3  UNL     1     -46.994  -2.150  58.835  1.00  0.00     0.111 C 
BRANCH  35  36
HETATM   36  C2  UNL     1     -45.554  -2.576  58.963  1.00  0.00     0.005 C 
HETATM   37  C1  UNL     1     -44.739  -1.519  59.644  1.00  0.00     0.005 C 
ENDBRANCH  35  36
ENDBRANCH  33  35
ENDBRANCH  32  33
ENDBRANCH   1  32
TORSDOF 16
ENDMDL
