MODEL 1
REMARK VINA RESULT: -6.089949944      0.000      0.000
REMARK  5 active torsions:
REMARK  status: ('A' for Active; 'I' for Inactive)
REMARK    1  A    between atoms: N3_4  and  C2_6 
REMARK    2  A    between atoms: C2_6  and  C3_7 
REMARK    3  A    between atoms: C3_7  and  S1_8 
REMARK    4  A    between atoms: S1_8  and  N4_9 
REMARK    5  A    between atoms: S1_8  and  C4_12 
ROOT
HETATM    1  C3  UNL     1       7.662  14.398  14.267  1.00  0.00     0.104 C 
ENDROOT
BRANCH   1   2
HETATM    2  C2  UNL     1       8.124  15.778  13.899  1.00  0.00     0.133 C 
BRANCH   2   3
HETATM    3  N3  UNL     1       8.583  15.771  12.529  1.00  0.00    -0.366 N 
HETATM    4  C1  UNL     1       7.838  16.284  11.626  1.00  0.00     0.196 C 
HETATM    5  N1  UNL     1       8.233  16.309  10.251  1.00  0.00    -0.067 NA
HETATM    6  N2  UNL     1       6.595  16.840  11.993  1.00  0.00    -0.067 NA
ATOM      7  H3  UNL     1       9.485  15.362  12.286  1.00  0.00     0.161 HD
ENDBRANCH   2   3
ENDBRANCH   1   2
BRANCH   1   8
HETATM    8  S1  UNL     1       8.834  13.599  15.335  1.00  0.00    -0.129 SA
BRANCH   8   9
HETATM    9  N4  UNL     1       8.546  14.103  16.936  1.00  0.00    -0.383 NA
ATOM     10  H42 UNL     1       8.418  15.110  17.042  1.00  0.00     0.163 HD
ATOM     11  H41 UNL     1       9.332  13.811  17.517  1.00  0.00     0.163 HD
ENDBRANCH   8   9
BRANCH   8  12
HETATM   12  C4  UNL     1       8.724  11.868  15.094  1.00  0.00     0.057 A 
HETATM   13  C5  UNL     1       9.765  10.933  15.572  1.00  0.00     0.017 A 
HETATM   14  C6  UNL     1       9.775  11.301  14.141  1.00  0.00     0.017 A 
ENDBRANCH   8  12
ENDBRANCH   1   8
TORSDOF 5
ENDMDL
MODEL 2
REMARK VINA RESULT: -6.006704744      1.250      1.343
REMARK  5 active torsions:
REMARK  status: ('A' for Active; 'I' for Inactive)
REMARK    1  A    between atoms: N3_4  and  C2_6 
REMARK    2  A    between atoms: C2_6  and  C3_7 
REMARK    3  A    between atoms: C3_7  and  S1_8 
REMARK    4  A    between atoms: S1_8  and  N4_9 
REMARK    5  A    between atoms: S1_8  and  C4_12 
ROOT
HETATM    1  C3  UNL     1       9.367  15.098  14.933  1.00  0.00     0.104 C 
ENDROOT
BRANCH   1   2
HETATM    2  C2  UNL     1       8.665  16.185  14.170  1.00  0.00     0.133 C 
BRANCH   2   3
HETATM    3  N3  UNL     1       8.967  16.043  12.764  1.00  0.00    -0.366 N 
HETATM    4  C1  UNL     1       8.026  16.195  11.913  1.00  0.00     0.196 C 
HETATM    5  N1  UNL     1       8.259  16.069  10.506  1.00  0.00    -0.067 NA
HETATM    6  N2  UNL     1       6.726  16.495  12.369  1.00  0.00    -0.067 NA
ATOM      7  H3  UNL     1       9.914  15.824  12.457  1.00  0.00     0.161 HD
ENDBRANCH   2   3
ENDBRANCH   1   2
BRANCH   1   8
HETATM    8  S1  UNL     1       8.282  13.723  15.224  1.00  0.00    -0.129 SA
BRANCH   8   9
HETATM    9  N4  UNL     1       6.794  14.029  14.456  1.00  0.00    -0.383 NA
ATOM     10  H42 UNL     1       6.414  14.959  14.634  1.00  0.00     0.163 HD
ATOM     11  H41 UNL     1       6.116  13.334  14.769  1.00  0.00     0.163 HD
ENDBRANCH   8   9
BRANCH   8  12
HETATM   12  C4  UNL     1       9.079  12.257  14.692  1.00  0.00     0.057 A 
HETATM   13  C5  UNL     1       8.549  10.911  14.996  1.00  0.00     0.017 A 
HETATM   14  C6  UNL     1       9.663  11.415  15.827  1.00  0.00     0.017 A 
ENDBRANCH   8  12
ENDBRANCH   1   8
TORSDOF 5
ENDMDL
MODEL 3
REMARK VINA RESULT: -5.886900693      0.782      1.263
REMARK  5 active torsions:
REMARK  status: ('A' for Active; 'I' for Inactive)
REMARK    1  A    between atoms: N3_4  and  C2_6 
REMARK    2  A    between atoms: C2_6  and  C3_7 
REMARK    3  A    between atoms: C3_7  and  S1_8 
REMARK    4  A    between atoms: S1_8  and  N4_9 
REMARK    5  A    between atoms: S1_8  and  C4_12 
ROOT
HETATM    1  C3  UNL     1       7.777  14.243  14.188  1.00  0.00     0.104 C 
ENDROOT
BRANCH   1   2
HETATM    2  C2  UNL     1       8.165  15.671  13.933  1.00  0.00     0.133 C 
BRANCH   2   3
HETATM    3  N3  UNL     1       6.999  16.403  13.495  1.00  0.00    -0.366 N 
HETATM    4  C1  UNL     1       6.846  16.630  12.247  1.00  0.00     0.196 C 
HETATM    5  N1  UNL     1       5.714  17.348  11.747  1.00  0.00    -0.067 NA
HETATM    6  N2  UNL     1       7.817  16.162  11.338  1.00  0.00    -0.067 NA
ATOM      7  H3  UNL     1       6.310  16.733  14.170  1.00  0.00     0.161 HD
ENDBRANCH   2   3
ENDBRANCH   1   2
BRANCH   1   8
HETATM    8  S1  UNL     1       8.901  13.473  15.326  1.00  0.00    -0.129 SA
BRANCH   8   9
HETATM    9  N4  UNL     1       8.570  14.048  16.894  1.00  0.00    -0.383 NA
ATOM     10  H42 UNL     1       8.032  14.913  16.919  1.00  0.00     0.163 HD
ATOM     11  H41 UNL     1       9.454  14.199  17.381  1.00  0.00     0.163 HD
ENDBRANCH   8   9
BRANCH   8  12
HETATM   12  C4  UNL     1       8.772  11.735  15.154  1.00  0.00     0.057 A 
HETATM   13  C5  UNL     1       9.852  10.814  15.568  1.00  0.00     0.017 A 
HETATM   14  C6  UNL     1       9.735  11.134  14.130  1.00  0.00     0.017 A 
ENDBRANCH   8  12
ENDBRANCH   1   8
TORSDOF 5
ENDMDL
MODEL 4
REMARK VINA RESULT: -5.361666712      2.926      3.562
REMARK  5 active torsions:
REMARK  status: ('A' for Active; 'I' for Inactive)
REMARK    1  A    between atoms: N3_4  and  C2_6 
REMARK    2  A    between atoms: C2_6  and  C3_7 
REMARK    3  A    between atoms: C3_7  and  S1_8 
REMARK    4  A    between atoms: S1_8  and  N4_9 
REMARK    5  A    between atoms: S1_8  and  C4_12 
ROOT
HETATM    1  C3  UNL     1       8.161  13.793  14.724  1.00  0.00     0.104 C 
ENDROOT
BRANCH   1   2
HETATM    2  C2  UNL     1       8.918  15.090  14.759  1.00  0.00     0.133 C 
BRANCH   2   3
HETATM    3  N3  UNL     1       9.422  15.303  16.096  1.00  0.00    -0.366 N 
HETATM    4  C1  UNL     1      10.218  16.280  16.307  1.00  0.00     0.196 C 
HETATM    5  N1  UNL     1      10.752  16.547  17.607  1.00  0.00    -0.067 NA
HETATM    6  N2  UNL     1      10.581  17.117  15.231  1.00  0.00    -0.067 NA
ATOM      7  H3  UNL     1       9.147  14.685  16.859  1.00  0.00     0.161 HD
ENDBRANCH   2   3
ENDBRANCH   1   2
BRANCH   1   8
HETATM    8  S1  UNL     1       9.136  12.470  15.396  1.00  0.00    -0.129 SA
BRANCH   8   9
HETATM    9  N4  UNL     1       9.091  12.567  17.095  1.00  0.00    -0.383 NA
ATOM     10  H42 UNL     1       8.315  13.117  17.464  1.00  0.00     0.163 HD
ATOM     11  H41 UNL     1       9.966  12.976  17.423  1.00  0.00     0.163 HD
ENDBRANCH   8   9
BRANCH   8  12
HETATM   12  C4  UNL     1       8.548  10.954  14.745  1.00  0.00     0.057 A 
HETATM   13  C5  UNL     1       9.023   9.642  15.236  1.00  0.00     0.017 A 
HETATM   14  C6  UNL     1       9.598  10.155  13.974  1.00  0.00     0.017 A 
ENDBRANCH   8  12
ENDBRANCH   1   8
TORSDOF 5
ENDMDL
MODEL 5
REMARK VINA RESULT: -5.289472246      2.101      2.880
REMARK  5 active torsions:
REMARK  status: ('A' for Active; 'I' for Inactive)
REMARK    1  A    between atoms: N3_4  and  C2_6 
REMARK    2  A    between atoms: C2_6  and  C3_7 
REMARK    3  A    between atoms: C3_7  and  S1_8 
REMARK    4  A    between atoms: S1_8  and  N4_9 
REMARK    5  A    between atoms: S1_8  and  C4_12 
ROOT
HETATM    1  C3  UNL     1       7.861  14.476  14.090  1.00  0.00     0.104 C 
ENDROOT
BRANCH   1   2
HETATM    2  C2  UNL     1       8.420  15.845  13.828  1.00  0.00     0.133 C 
BRANCH   2   3
HETATM    3  N3  UNL     1       9.061  16.328  15.029  1.00  0.00    -0.366 N 
HETATM    4  C1  UNL     1      10.318  16.558  15.008  1.00  0.00     0.196 C 
HETATM    5  N1  UNL     1      11.012  17.039  16.164  1.00  0.00    -0.067 NA
HETATM    6  N2  UNL     1      11.039  16.332  13.818  1.00  0.00    -0.067 NA
ATOM      7  H3  UNL     1       8.519  16.484  15.879  1.00  0.00     0.161 HD
ENDBRANCH   2   3
ENDBRANCH   1   2
BRANCH   1   8
HETATM    8  S1  UNL     1       8.839  13.608  15.290  1.00  0.00    -0.129 SA
BRANCH   8   9
HETATM    9  N4  UNL     1       8.373  14.117  16.847  1.00  0.00    -0.383 NA
ATOM     10  H42 UNL     1       8.525  15.109  17.027  1.00  0.00     0.163 HD
ATOM     11  H41 UNL     1       8.895  13.577  17.537  1.00  0.00     0.163 HD
ENDBRANCH   8   9
BRANCH   8  12
HETATM   12  C4  UNL     1       8.669  11.887  15.014  1.00  0.00     0.057 A 
HETATM   13  C5  UNL     1       9.614  10.897  15.574  1.00  0.00     0.017 A 
HETATM   14  C6  UNL     1       9.779  11.279  14.156  1.00  0.00     0.017 A 
ENDBRANCH   8  12
ENDBRANCH   1   8
TORSDOF 5
ENDMDL
