MODEL 1
REMARK VINA RESULT: -6.517772224      0.000      0.000
REMARK  4 active torsions:
REMARK  status: ('A' for Active; 'I' for Inactive)
REMARK    1  A    between atoms: C3_3  and  N1_4 
REMARK    2  A    between atoms: N1_4  and  C4_5 
REMARK       I    between atoms: N1_4  and  C9_13 
REMARK    3  A    between atoms: C4_5  and  C5_6 
REMARK    4  A    between atoms: C5_6  and  C6_7 
ROOT
HETATM    1  C1  UNL     1       9.753  11.708  14.378  1.00  0.00     0.014 C 
HETATM    2  C2  UNL     1       8.899  12.557  14.579  1.00  0.00    -0.098 C 
HETATM    3  C3  UNL     1       7.880  13.591  14.807  1.00  0.00     0.218 C 
ENDROOT
BRANCH   3   4
HETATM    4  N1  UNL     1       8.467  14.871  14.423  1.00  0.00    -0.345 N 
HETATM    5  C9  UNL     1       7.904  15.680  13.400  1.00  0.00     0.184 C 
HETATM    6  N4  UNL     1       7.030  16.599  13.630  1.00  0.00    -0.374 N 
HETATM    7  N5  UNL     1       8.329  15.457  12.064  1.00  0.00    -0.064 NA
ATOM      8  H42 UNL     1       6.725  16.759  14.590  1.00  0.00     0.158 HD
ATOM      9  H41 UNL     1       6.625  17.180  12.896  1.00  0.00     0.158 HD
BRANCH   4  10
HETATM   10  C4  UNL     1       9.660  15.277  15.143  1.00  0.00     0.133 C 
BRANCH  10  11
HETATM   11  C5  UNL     1       9.864  16.773  15.115  1.00  0.00     0.093 C 
BRANCH  11  12
HETATM   12  C6  UNL     1      11.259  17.042  14.696  1.00  0.00     0.102 C 
HETATM   13  N2  UNL     1      12.100  17.716  15.630  1.00  0.00    -0.087 NA
HETATM   14  N3  UNL     1      11.641  16.669  13.545  1.00  0.00    -0.308 N 
HETATM   15  C7  UNL     1      12.952  16.891  13.083  1.00  0.00     0.000 C 
ATOM     16  H3  UNL     1      10.978  16.192  12.934  1.00  0.00     0.177 HD
HETATM   17  C8  UNL     1      14.084  17.062  12.686  1.00  0.00     0.037 C 
ENDBRANCH  11  12
ENDBRANCH  10  11
ENDBRANCH   4  10
ENDBRANCH   3   4
TORSDOF 4
ENDMDL
MODEL 2
REMARK VINA RESULT: -6.232306056      1.882      2.904
REMARK  4 active torsions:
REMARK  status: ('A' for Active; 'I' for Inactive)
REMARK    1  A    between atoms: C3_3  and  N1_4 
REMARK    2  A    between atoms: N1_4  and  C4_5 
REMARK       I    between atoms: N1_4  and  C9_13 
REMARK    3  A    between atoms: C4_5  and  C5_6 
REMARK    4  A    between atoms: C5_6  and  C6_7 
ROOT
HETATM    1  C1  UNL     1       9.366  11.541  14.957  1.00  0.00     0.014 C 
HETATM    2  C2  UNL     1       8.526  12.421  14.858  1.00  0.00    -0.098 C 
HETATM    3  C3  UNL     1       7.527  13.492  14.728  1.00  0.00     0.218 C 
ENDROOT
BRANCH   3   4
HETATM    4  N1  UNL     1       8.255  14.740  14.517  1.00  0.00    -0.345 N 
HETATM    5  C9  UNL     1       7.881  15.665  13.505  1.00  0.00     0.184 C 
HETATM    6  N4  UNL     1       7.061  16.637  13.707  1.00  0.00    -0.374 N 
HETATM    7  N5  UNL     1       8.444  15.499  12.210  1.00  0.00    -0.064 NA
ATOM      8  H42 UNL     1       6.658  16.756  14.636  1.00  0.00     0.158 HD
ATOM      9  H41 UNL     1       6.793  17.301  12.980  1.00  0.00     0.158 HD
BRANCH   4  10
HETATM   10  C4  UNL     1       9.382  14.989  15.396  1.00  0.00     0.133 C 
BRANCH  10  11
HETATM   11  C5  UNL     1      10.047  16.315  15.110  1.00  0.00     0.093 C 
BRANCH  11  12
HETATM   12  C6  UNL     1      10.698  16.783  16.356  1.00  0.00     0.102 C 
HETATM   13  N2  UNL     1      11.975  17.405  16.229  1.00  0.00    -0.087 NA
HETATM   14  N3  UNL     1      10.103  16.614  17.465  1.00  0.00    -0.308 N 
HETATM   15  C7  UNL     1      10.663  17.035  18.685  1.00  0.00     0.000 C 
ATOM     16  H3  UNL     1       9.191  16.159  17.472  1.00  0.00     0.177 HD
HETATM   17  C8  UNL     1      11.130  17.411  19.738  1.00  0.00     0.037 C 
ENDBRANCH  11  12
ENDBRANCH  10  11
ENDBRANCH   4  10
ENDBRANCH   3   4
TORSDOF 4
ENDMDL
MODEL 3
REMARK VINA RESULT: -6.115462507      1.252      1.345
REMARK  4 active torsions:
REMARK  status: ('A' for Active; 'I' for Inactive)
REMARK    1  A    between atoms: C3_3  and  N1_4 
REMARK    2  A    between atoms: N1_4  and  C4_5 
REMARK       I    between atoms: N1_4  and  C9_13 
REMARK    3  A    between atoms: C4_5  and  C5_6 
REMARK    4  A    between atoms: C5_6  and  C6_7 
ROOT
HETATM    1  C1  UNL     1       9.769  11.798  14.194  1.00  0.00     0.014 C 
HETATM    2  C2  UNL     1       8.924  12.622  14.503  1.00  0.00    -0.098 C 
HETATM    3  C3  UNL     1       7.912  13.628  14.860  1.00  0.00     0.218 C 
ENDROOT
BRANCH   3   4
HETATM    4  N1  UNL     1       8.429  14.929  14.449  1.00  0.00    -0.345 N 
HETATM    5  C9  UNL     1       7.833  15.677  13.398  1.00  0.00     0.184 C 
HETATM    6  N4  UNL     1       6.905  16.549  13.592  1.00  0.00    -0.374 N 
HETATM    7  N5  UNL     1       8.289  15.443  12.072  1.00  0.00    -0.064 NA
ATOM      8  H42 UNL     1       6.578  16.716  14.544  1.00  0.00     0.158 HD
ATOM      9  H41 UNL     1       6.477  17.085  12.837  1.00  0.00     0.158 HD
BRANCH   4  10
HETATM   10  C4  UNL     1       9.587  15.423  15.171  1.00  0.00     0.133 C 
BRANCH  10  11
HETATM   11  C5  UNL     1       9.868  16.877  14.876  1.00  0.00     0.093 C 
BRANCH  11  12
HETATM   12  C6  UNL     1      11.161  17.235  15.503  1.00  0.00     0.102 C 
HETATM   13  N2  UNL     1      11.333  16.897  16.878  1.00  0.00    -0.087 NA
HETATM   14  N3  UNL     1      12.046  17.817  14.804  1.00  0.00    -0.308 N 
HETATM   15  C7  UNL     1      13.296  18.185  15.336  1.00  0.00     0.000 C 
ATOM     16  H3  UNL     1      11.846  18.025  13.826  1.00  0.00     0.177 HD
HETATM   17  C8  UNL     1      14.382  18.487  15.781  1.00  0.00     0.037 C 
ENDBRANCH  11  12
ENDBRANCH  10  11
ENDBRANCH   4  10
ENDBRANCH   3   4
TORSDOF 4
ENDMDL
MODEL 4
REMARK VINA RESULT: -5.834209654      2.455      3.654
REMARK  4 active torsions:
REMARK  status: ('A' for Active; 'I' for Inactive)
REMARK    1  A    between atoms: C3_3  and  N1_4 
REMARK    2  A    between atoms: N1_4  and  C4_5 
REMARK       I    between atoms: N1_4  and  C9_13 
REMARK    3  A    between atoms: C4_5  and  C5_6 
REMARK    4  A    between atoms: C5_6  and  C6_7 
ROOT
HETATM    1  C1  UNL     1       8.586  10.285  15.252  1.00  0.00     0.014 C 
HETATM    2  C2  UNL     1       9.103  11.335  14.908  1.00  0.00    -0.098 C 
HETATM    3  C3  UNL     1       9.718  12.610  14.508  1.00  0.00     0.218 C 
ENDROOT
BRANCH   3   4
HETATM    4  N1  UNL     1       8.848  13.680  14.987  1.00  0.00    -0.345 N 
HETATM    5  C9  UNL     1       7.619  13.992  14.346  1.00  0.00     0.184 C 
HETATM    6  N4  UNL     1       6.494  13.463  14.684  1.00  0.00    -0.374 N 
HETATM    7  N5  UNL     1       7.643  14.933  13.281  1.00  0.00    -0.064 NA
ATOM      8  H42 UNL     1       6.477  12.788  15.449  1.00  0.00     0.158 HD
ATOM      9  H41 UNL     1       5.611  13.687  14.224  1.00  0.00     0.158 HD
BRANCH   4  10
HETATM   10  C4  UNL     1       9.304  14.411  16.155  1.00  0.00     0.133 C 
BRANCH  10  11
HETATM   11  C5  UNL     1       9.875  15.762  15.796  1.00  0.00     0.093 C 
BRANCH  11  12
HETATM   12  C6  UNL     1      10.347  16.409  17.042  1.00  0.00     0.102 C 
HETATM   13  N2  UNL     1      11.653  16.982  17.023  1.00  0.00    -0.087 NA
HETATM   14  N3  UNL     1       9.584  16.427  18.057  1.00  0.00    -0.308 N 
HETATM   15  C7  UNL     1       9.969  17.025  19.271  1.00  0.00     0.000 C 
ATOM     16  H3  UNL     1       8.664  15.995  17.990  1.00  0.00     0.177 HD
HETATM   17  C8  UNL     1      10.286  17.554  20.314  1.00  0.00     0.037 C 
ENDBRANCH  11  12
ENDBRANCH  10  11
ENDBRANCH   4  10
ENDBRANCH   3   4
TORSDOF 4
ENDMDL
MODEL 5
REMARK VINA RESULT: -5.790774678      2.150      4.969
REMARK  4 active torsions:
REMARK  status: ('A' for Active; 'I' for Inactive)
REMARK    1  A    between atoms: C3_3  and  N1_4 
REMARK    2  A    between atoms: N1_4  and  C4_5 
REMARK       I    between atoms: N1_4  and  C9_13 
REMARK    3  A    between atoms: C4_5  and  C5_6 
REMARK    4  A    between atoms: C5_6  and  C6_7 
ROOT
HETATM    1  C1  UNL     1      11.453  16.778  14.485  1.00  0.00     0.014 C 
HETATM    2  C2  UNL     1      10.236  16.717  14.537  1.00  0.00    -0.098 C 
HETATM    3  C3  UNL     1       8.769  16.625  14.591  1.00  0.00     0.218 C 
ENDROOT
BRANCH   3   4
HETATM    4  N1  UNL     1       8.352  15.718  13.526  1.00  0.00    -0.345 N 
HETATM    5  C9  UNL     1       8.079  16.179  12.210  1.00  0.00     0.184 C 
HETATM    6  N4  UNL     1       8.971  16.226  11.281  1.00  0.00    -0.374 N 
HETATM    7  N5  UNL     1       6.757  16.607  11.915  1.00  0.00    -0.064 NA
ATOM      8  H42 UNL     1       9.920  15.918  11.493  1.00  0.00     0.158 HD
ATOM      9  H41 UNL     1       8.775  16.557  10.336  1.00  0.00     0.158 HD
BRANCH   4  10
HETATM   10  C4  UNL     1       8.231  14.316  13.881  1.00  0.00     0.133 C 
BRANCH  10  11
HETATM   11  C5  UNL     1       8.206  14.104  15.376  1.00  0.00     0.093 C 
BRANCH  11  12
HETATM   12  C6  UNL     1       8.636  12.713  15.653  1.00  0.00     0.102 C 
HETATM   13  N2  UNL     1       9.451  12.501  16.803  1.00  0.00    -0.087 NA
HETATM   14  N3  UNL     1       8.266  11.785  14.870  1.00  0.00    -0.308 N 
HETATM   15  C7  UNL     1       8.637  10.443  15.074  1.00  0.00     0.000 C 
ATOM     16  H3  UNL     1       7.682  12.019  14.067  1.00  0.00     0.177 HD
HETATM   17  C8  UNL     1       8.935   9.283  15.254  1.00  0.00     0.037 C 
ENDBRANCH  11  12
ENDBRANCH  10  11
ENDBRANCH   4  10
ENDBRANCH   3   4
TORSDOF 4
ENDMDL
