MODEL 1
REMARK VINA RESULT: -5.657663742      0.000      0.000
REMARK  6 active torsions:
REMARK  status: ('A' for Active; 'I' for Inactive)
REMARK    1  A    between atoms: N1_1  and  N2_4 
REMARK    2  A    between atoms: N2_4  and  N3_6 
REMARK    3  A    between atoms: C6_13  and  N4_14 
REMARK    4  A    between atoms: N4_14  and  C7_16 
REMARK    5  A    between atoms: C7_16  and  C8_17 
REMARK    6  A    between atoms: C8_17  and  O1_18 
ROOT
HETATM    1  N3  UNL     1       8.961  14.746  16.481  1.00  0.00    -0.293 N 
ATOM      2  H3  UNL     1       8.415  15.302  15.824  1.00  0.00     0.188 HD
HETATM    3  C1  UNL     1       8.841  13.614  16.098  1.00  0.00     0.027 C 
HETATM    4  C2  UNL     1       9.464  12.432  16.744  1.00  0.00     0.056 C 
HETATM    5  C3  UNL     1       9.341  11.155  16.003  1.00  0.00     0.006 C 
HETATM    6  C4  UNL     1       9.187  11.221  14.540  1.00  0.00     0.003 C 
HETATM    7  C5  UNL     1       9.043  12.638  13.979  1.00  0.00     0.031 C 
HETATM    8  C6  UNL     1       7.994  13.329  14.820  1.00  0.00     0.124 C 
ENDROOT
BRANCH   1   9
HETATM    9  N2  UNL     1       9.456  15.629  17.344  1.00  0.00    -0.249 N 
ATOM     10  H2  UNL     1       9.359  15.400  18.333  1.00  0.00     0.207 HD
BRANCH   9  11
HETATM   11  N1  UNL     1      10.050  16.753  17.068  1.00  0.00    -0.331 N 
ATOM     12  H12 UNL     1       9.544  17.592  17.349  1.00  0.00     0.178 HD
ATOM     13  H11 UNL     1      10.952  16.879  16.610  1.00  0.00     0.178 HD
ENDBRANCH   9  11
ENDBRANCH   1   9
BRANCH   8  14
HETATM   14  N4  UNL     1       7.480  14.545  14.363  1.00  0.00    -0.410 N 
ATOM     15  H4  UNL     1       6.752  15.010  14.906  1.00  0.00     0.154 HD
BRANCH  14  16
HETATM   16  C7  UNL     1       7.938  15.148  13.171  1.00  0.00     0.140 C 
BRANCH  16  17
HETATM   17  C8  UNL     1       8.200  16.612  13.360  1.00  0.00     0.183 C 
BRANCH  17  18
HETATM   18  O1  UNL     1       8.675  17.069  14.528  1.00  0.00    -0.399 OA
ATOM     19  H1  UNL     1       8.521  17.969  14.789  1.00  0.00     0.209 HD
ENDBRANCH  17  18
ENDBRANCH  16  17
ENDBRANCH  14  16
ENDBRANCH   8  14
TORSDOF 6
ENDMDL
MODEL 2
REMARK VINA RESULT: -5.645411767      1.469      2.946
REMARK  6 active torsions:
REMARK  status: ('A' for Active; 'I' for Inactive)
REMARK    1  A    between atoms: N1_1  and  N2_4 
REMARK    2  A    between atoms: N2_4  and  N3_6 
REMARK    3  A    between atoms: C6_13  and  N4_14 
REMARK    4  A    between atoms: N4_14  and  C7_16 
REMARK    5  A    between atoms: C7_16  and  C8_17 
REMARK    6  A    between atoms: C8_17  and  O1_18 
ROOT
HETATM    1  N3  UNL     1       7.996  14.760  14.354  1.00  0.00    -0.293 N 
ATOM      2  H3  UNL     1       8.130  15.409  15.128  1.00  0.00     0.188 HD
HETATM    3  C1  UNL     1       8.685  13.814  14.624  1.00  0.00     0.027 C 
HETATM    4  C2  UNL     1       8.820  12.598  13.784  1.00  0.00     0.056 C 
HETATM    5  C3  UNL     1       9.574  11.477  14.392  1.00  0.00     0.006 C 
HETATM    6  C4  UNL     1       9.604  11.385  15.862  1.00  0.00     0.003 C 
HETATM    7  C5  UNL     1       8.944  12.562  16.586  1.00  0.00     0.031 C 
HETATM    8  C6  UNL     1       9.497  13.820  15.956  1.00  0.00     0.124 C 
ENDROOT
BRANCH   1   9
HETATM    9  N2  UNL     1       7.144  15.375  13.538  1.00  0.00    -0.249 N 
ATOM     10  H2  UNL     1       6.719  14.801  12.810  1.00  0.00     0.207 HD
BRANCH   9  11
HETATM   11  N1  UNL     1       6.791  16.627  13.565  1.00  0.00    -0.331 N 
ATOM     12  H12 UNL     1       7.524  17.290  13.317  1.00  0.00     0.178 HD
ATOM     13  H11 UNL     1       5.875  17.005  13.804  1.00  0.00     0.178 HD
ENDBRANCH   9  11
ENDBRANCH   1   9
BRANCH   8  14
HETATM   14  N4  UNL     1       9.261  15.037  16.600  1.00  0.00    -0.410 N 
ATOM     15  H4  UNL     1       8.330  15.228  16.972  1.00  0.00     0.154 HD
BRANCH  14  16
HETATM   16  C7  UNL     1      10.273  16.011  16.750  1.00  0.00     0.140 C 
BRANCH  16  17
HETATM   17  C8  UNL     1      10.451  16.818  15.501  1.00  0.00     0.183 C 
BRANCH  17  18
HETATM   18  O1  UNL     1       9.386  17.339  14.874  1.00  0.00    -0.399 OA
ATOM     19  H1  UNL     1       9.319  18.277  14.744  1.00  0.00     0.209 HD
ENDBRANCH  17  18
ENDBRANCH  16  17
ENDBRANCH  14  16
ENDBRANCH   8  14
TORSDOF 6
ENDMDL
MODEL 3
REMARK VINA RESULT: -5.467247169      2.612      3.177
REMARK  6 active torsions:
REMARK  status: ('A' for Active; 'I' for Inactive)
REMARK    1  A    between atoms: N1_1  and  N2_4 
REMARK    2  A    between atoms: N2_4  and  N3_6 
REMARK    3  A    between atoms: C6_13  and  N4_14 
REMARK    4  A    between atoms: N4_14  and  C7_16 
REMARK    5  A    between atoms: C7_16  and  C8_17 
REMARK    6  A    between atoms: C8_17  and  O1_18 
ROOT
HETATM    1  N3  UNL     1      10.421  16.432  13.944  1.00  0.00    -0.293 N 
ATOM      2  H3  UNL     1       9.885  16.956  13.252  1.00  0.00     0.188 HD
HETATM    3  C1  UNL     1       9.603  15.784  14.539  1.00  0.00     0.027 C 
HETATM    4  C2  UNL     1       9.908  14.853  15.654  1.00  0.00     0.056 C 
HETATM    5  C3  UNL     1       8.779  14.018  16.122  1.00  0.00     0.006 C 
HETATM    6  C4  UNL     1       7.701  13.718  15.164  1.00  0.00     0.003 C 
HETATM    7  C5  UNL     1       7.832  14.433  13.816  1.00  0.00     0.031 C 
HETATM    8  C6  UNL     1       8.102  15.888  14.125  1.00  0.00     0.124 C 
ENDROOT
BRANCH   1   9
HETATM    9  N2  UNL     1      11.684  16.800  13.745  1.00  0.00    -0.249 N 
ATOM     10  H2  UNL     1      12.170  17.201  14.547  1.00  0.00     0.207 HD
BRANCH   9  11
HETATM   11  N1  UNL     1      12.368  16.706  12.643  1.00  0.00    -0.331 N 
ATOM     12  H12 UNL     1      11.848  16.362  11.836  1.00  0.00     0.178 HD
ATOM     13  H11 UNL     1      13.352  16.936  12.505  1.00  0.00     0.178 HD
ENDBRANCH   9  11
ENDBRANCH   1   9
BRANCH   8  14
HETATM   14  N4  UNL     1       8.006  16.812  13.082  1.00  0.00    -0.410 N 
ATOM     15  H4  UNL     1       8.378  17.752  13.216  1.00  0.00     0.154 HD
BRANCH  14  16
HETATM   16  C7  UNL     1       7.407  16.481  11.845  1.00  0.00     0.140 C 
BRANCH  16  17
HETATM   17  C8  UNL     1       8.430  16.338  10.759  1.00  0.00     0.183 C 
BRANCH  17  18
HETATM   18  O1  UNL     1       9.734  16.481  11.035  1.00  0.00    -0.399 OA
ATOM     19  H1  UNL     1      10.319  16.872  10.398  1.00  0.00     0.209 HD
ENDBRANCH  17  18
ENDBRANCH  16  17
ENDBRANCH  14  16
ENDBRANCH   8  14
TORSDOF 6
ENDMDL
MODEL 4
REMARK VINA RESULT: -5.435470404      1.262      1.293
REMARK  6 active torsions:
REMARK  status: ('A' for Active; 'I' for Inactive)
REMARK    1  A    between atoms: N1_1  and  N2_4 
REMARK    2  A    between atoms: N2_4  and  N3_6 
REMARK    3  A    between atoms: C6_13  and  N4_14 
REMARK    4  A    between atoms: N4_14  and  C7_16 
REMARK    5  A    between atoms: C7_16  and  C8_17 
REMARK    6  A    between atoms: C8_17  and  O1_18 
ROOT
HETATM    1  N3  UNL     1       9.212  15.123  16.601  1.00  0.00    -0.293 N 
ATOM      2  H3  UNL     1       8.782  15.782  15.952  1.00  0.00     0.188 HD
HETATM    3  C1  UNL     1       8.933  14.038  16.165  1.00  0.00     0.027 C 
HETATM    4  C2  UNL     1       9.343  12.750  16.778  1.00  0.00     0.056 C 
HETATM    5  C3  UNL     1       9.051  11.537  15.980  1.00  0.00     0.006 C 
HETATM    6  C4  UNL     1       8.961  11.681  14.517  1.00  0.00     0.003 C 
HETATM    7  C5  UNL     1       9.057  13.124  14.013  1.00  0.00     0.031 C 
HETATM    8  C6  UNL     1       8.097  13.937  14.852  1.00  0.00     0.124 C 
ENDROOT
BRANCH   1   9
HETATM    9  N2  UNL     1       9.806  15.885  17.514  1.00  0.00    -0.249 N 
ATOM     10  H2  UNL     1      10.820  15.975  17.439  1.00  0.00     0.207 HD
BRANCH   9  11
HETATM   11  N1  UNL     1       9.241  16.529  18.493  1.00  0.00    -0.331 N 
ATOM     12  H12 UNL     1       9.883  16.997  19.133  1.00  0.00     0.178 HD
ATOM     13  H11 UNL     1       8.243  16.613  18.683  1.00  0.00     0.178 HD
ENDBRANCH   9  11
ENDBRANCH   1   9
BRANCH   8  14
HETATM   14  N4  UNL     1       7.793  15.234  14.434  1.00  0.00    -0.410 N 
ATOM     15  H4  UNL     1       6.971  15.700  14.819  1.00  0.00     0.154 HD
BRANCH  14  16
HETATM   16  C7  UNL     1       8.591  15.921  13.492  1.00  0.00     0.140 C 
BRANCH  16  17
HETATM   17  C8  UNL     1       7.826  16.228  12.240  1.00  0.00     0.183 C 
BRANCH  17  18
HETATM   18  O1  UNL     1       8.263  15.781  11.054  1.00  0.00    -0.399 OA
ATOM     19  H1  UNL     1       7.876  16.103  10.249  1.00  0.00     0.209 HD
ENDBRANCH  17  18
ENDBRANCH  16  17
ENDBRANCH  14  16
ENDBRANCH   8  14
TORSDOF 6
ENDMDL
MODEL 5
REMARK VINA RESULT: -5.376522576      6.382      7.505
REMARK  6 active torsions:
REMARK  status: ('A' for Active; 'I' for Inactive)
REMARK    1  A    between atoms: N1_1  and  N2_4 
REMARK    2  A    between atoms: N2_4  and  N3_6 
REMARK    3  A    between atoms: C6_13  and  N4_14 
REMARK    4  A    between atoms: N4_14  and  C7_16 
REMARK    5  A    between atoms: C7_16  and  C8_17 
REMARK    6  A    between atoms: C8_17  and  O1_18 
ROOT
HETATM    1  N3  UNL     1      12.013  17.966  14.871  1.00  0.00    -0.293 N 
ATOM      2  H3  UNL     1      11.931  18.746  15.522  1.00  0.00     0.188 HD
HETATM    3  C1  UNL     1      13.161  17.981  14.518  1.00  0.00     0.027 C 
HETATM    4  C2  UNL     1      13.764  17.022  13.559  1.00  0.00     0.056 C 
HETATM    5  C3  UNL     1      15.235  17.106  13.406  1.00  0.00     0.006 C 
HETATM    6  C4  UNL     1      16.016  17.629  14.539  1.00  0.00     0.003 C 
HETATM    7  C5  UNL     1      15.172  18.151  15.705  1.00  0.00     0.031 C 
HETATM    8  C6  UNL     1      14.123  19.059  15.105  1.00  0.00     0.124 C 
ENDROOT
BRANCH   1   9
HETATM    9  N2  UNL     1      10.796  17.430  14.827  1.00  0.00    -0.249 N 
ATOM     10  H2  UNL     1      10.082  17.882  15.398  1.00  0.00     0.207 HD
BRANCH   9  11
HETATM   11  N1  UNL     1      10.414  16.395  14.138  1.00  0.00    -0.331 N 
ATOM     12  H12 UNL     1      10.742  15.495  14.488  1.00  0.00     0.178 HD
ATOM     13  H11 UNL     1       9.832  16.391  13.301  1.00  0.00     0.178 HD
ENDBRANCH   9  11
ENDBRANCH   1   9
BRANCH   8  14
HETATM   14  N4  UNL     1      13.385  19.872  15.968  1.00  0.00    -0.410 N 
ATOM     15  H4  UNL     1      12.374  19.936  15.845  1.00  0.00     0.154 HD
BRANCH  14  16
HETATM   16  C7  UNL     1      13.997  20.610  17.006  1.00  0.00     0.140 C 
BRANCH  16  17
HETATM   17  C8  UNL     1      14.714  21.815  16.476  1.00  0.00     0.183 C 
BRANCH  17  18
HETATM   18  O1  UNL     1      14.067  22.983  16.345  1.00  0.00    -0.399 OA
ATOM     19  H1  UNL     1      13.518  23.144  15.587  1.00  0.00     0.209 HD
ENDBRANCH  17  18
ENDBRANCH  16  17
ENDBRANCH  14  16
ENDBRANCH   8  14
TORSDOF 6
ENDMDL
