MODEL 1
REMARK VINA RESULT: -9.207837817      0.000      0.000
REMARK  4 active torsions:
REMARK  status: ('A' for Active; 'I' for Inactive)
REMARK    1  A    between atoms: O1_2  and  C2_3 
REMARK    2  A    between atoms: C4_6  and  C5_7 
REMARK    3  A    between atoms: N1_11  and  O3_13 
REMARK    4  A    between atoms: C13_22  and  O5_24 
ROOT
HETATM    1  C5  UNL     1     -88.720  -5.997   3.480  1.00  0.00     0.006 C 
HETATM    2  C6  UNL     1     -88.352  -5.904   4.963  1.00  0.00     0.019 C 
HETATM    3  C7  UNL     1     -90.178  -6.397   3.506  1.00  0.00     0.070 C 
HETATM    4  C8  UNL     1     -90.359  -7.838   3.811  1.00  0.00     0.039 C 
HETATM    5  N1  UNL     1     -91.524  -8.233   4.151  1.00  0.00    -0.275 N 
ATOM      6  H1  UNL     1     -91.668  -9.220   4.364  1.00  0.00     0.193 HD
HETATM    7  C9  UNL     1     -89.288  -8.857   3.750  1.00  0.00     0.175 C 
HETATM    8  C10 UNL     1     -89.088  -9.218   2.295  1.00  0.00     0.120 C 
HETATM    9  C11 UNL     1     -88.416  -7.919   1.815  1.00  0.00     0.272 C 
HETATM   10  F1  UNL     1     -89.296  -7.332   0.980  1.00  0.00    -0.203 F 
HETATM   11  F2  UNL     1     -87.352  -8.369   1.011  1.00  0.00    -0.203 F 
HETATM   12  C12 UNL     1     -87.971  -7.238   3.023  1.00  0.00     0.204 C 
HETATM   13  O4  UNL     1     -88.095  -8.214   4.046  1.00  0.00    -0.368 OA
ENDROOT
BRANCH   1  14
HETATM   14  C4  UNL     1     -88.445  -4.796   2.690  1.00  0.00     0.103 C 
HETATM   15  C3  UNL     1     -87.003  -4.542   2.389  1.00  0.00     0.164 C 
HETATM   16  C2  UNL     1     -86.698  -3.573   1.303  1.00  0.00     0.198 C 
HETATM   17  O2  UNL     1     -86.057  -5.048   2.943  1.00  0.00    -0.295 OA
HETATM   18  C16 UNL     1     -87.891  -2.732   0.945  1.00  0.00    -0.012 C 
HETATM   19  C15 UNL     1     -88.869  -2.461   2.008  1.00  0.00     0.050 C 
HETATM   20  C17 UNL     1     -87.295  -1.373   0.514  1.00  0.00     0.018 C 
HETATM   21  C18 UNL     1     -88.577  -3.253  -0.324  1.00  0.00     0.018 C 
HETATM   22  C13 UNL     1     -88.952  -3.464   3.142  1.00  0.00     0.066 C 
HETATM   23  C14 UNL     1     -88.225  -2.875   4.313  1.00  0.00     0.046 C 
BRANCH  16  24
HETATM   24  O1  UNL     1     -86.386  -4.322   0.167  1.00  0.00    -0.382 OA
HETATM   25  C1  UNL     1     -85.028  -4.195  -0.181  1.00  0.00     0.202 C 
ENDBRANCH  16  24
BRANCH  22  26
HETATM   26  O5  UNL     1     -90.296  -3.575   3.466  1.00  0.00    -0.389 OA
ATOM     27  H5  UNL     1     -90.665  -2.705   3.569  1.00  0.00     0.210 HD
ENDBRANCH  22  26
ENDBRANCH   1  14
BRANCH   5  28
HETATM   28  O3  UNL     1     -92.583  -7.376   4.238  1.00  0.00    -0.290 OA
ATOM     29  H3  UNL     1     -93.281  -7.499   4.871  1.00  0.00     0.244 HD
ENDBRANCH   5  28
TORSDOF 4
ENDMDL
MODEL 2
REMARK VINA RESULT: -8.956956650      2.766      6.074
REMARK  4 active torsions:
REMARK  status: ('A' for Active; 'I' for Inactive)
REMARK    1  A    between atoms: O1_2  and  C2_3 
REMARK    2  A    between atoms: C4_6  and  C5_7 
REMARK    3  A    between atoms: N1_11  and  O3_13 
REMARK    4  A    between atoms: C13_22  and  O5_24 
ROOT
HETATM    1  C5  UNL     1     -87.283  -4.439   0.765  1.00  0.00     0.006 C 
HETATM    2  C6  UNL     1     -85.782  -4.134   0.802  1.00  0.00     0.019 C 
HETATM    3  C7  UNL     1     -87.666  -4.131  -0.665  1.00  0.00     0.070 C 
HETATM    4  C8  UNL     1     -87.787  -2.673  -0.913  1.00  0.00     0.039 C 
HETATM    5  N1  UNL     1     -87.812  -2.275  -2.125  1.00  0.00    -0.275 N 
ATOM      6  H1  UNL     1     -87.896  -1.277  -2.315  1.00  0.00     0.193 HD
HETATM    7  C9  UNL     1     -87.883  -1.640   0.142  1.00  0.00     0.175 C 
HETATM    8  C10 UNL     1     -89.307  -1.646   0.652  1.00  0.00     0.120 C 
HETATM    9  C11 UNL     1     -89.285  -2.982   1.417  1.00  0.00     0.272 C 
HETATM   10  F1  UNL     1     -90.105  -3.810   0.741  1.00  0.00    -0.203 F 
HETATM   11  F2  UNL     1     -89.937  -2.686   2.629  1.00  0.00    -0.203 F 
HETATM   12  C12 UNL     1     -87.877  -3.310   1.591  1.00  0.00     0.204 C 
HETATM   13  O4  UNL     1     -87.190  -2.118   1.245  1.00  0.00    -0.368 OA
ENDROOT
BRANCH   1  14
HETATM   14  C4  UNL     1     -87.660  -5.781   1.209  1.00  0.00     0.103 C 
HETATM   15  C3  UNL     1     -87.603  -6.009   2.685  1.00  0.00     0.164 C 
HETATM   16  C2  UNL     1     -88.316  -7.202   3.214  1.00  0.00     0.198 C 
HETATM   17  O2  UNL     1     -87.031  -5.318   3.493  1.00  0.00    -0.295 OA
HETATM   18  C16 UNL     1     -88.661  -8.182   2.129  1.00  0.00    -0.012 C 
HETATM   19  C15 UNL     1     -87.771  -8.235   0.960  1.00  0.00     0.050 C 
HETATM   20  C17 UNL     1     -88.596  -9.564   2.817  1.00  0.00     0.018 C 
HETATM   21  C18 UNL     1     -90.129  -8.048   1.706  1.00  0.00     0.018 C 
HETATM   22  C13 UNL     1     -86.979  -6.983   0.638  1.00  0.00     0.066 C 
HETATM   23  C14 UNL     1     -85.577  -7.205   1.121  1.00  0.00     0.046 C 
BRANCH  16  24
HETATM   24  O1  UNL     1     -89.527  -6.749   3.740  1.00  0.00    -0.382 OA
HETATM   25  C1  UNL     1     -89.531  -6.793   5.146  1.00  0.00     0.202 C 
ENDBRANCH  16  24
BRANCH  22  26
HETATM   26  O5  UNL     1     -86.959  -6.881  -0.746  1.00  0.00    -0.389 OA
ATOM     27  H5  UNL     1     -87.767  -6.478  -1.041  1.00  0.00     0.210 HD
ENDBRANCH  22  26
ENDBRANCH   1  14
BRANCH   5  28
HETATM   28  O3  UNL     1     -87.730  -3.144  -3.175  1.00  0.00    -0.290 OA
ATOM     29  H3  UNL     1     -88.350  -3.854  -3.292  1.00  0.00     0.244 HD
ENDBRANCH   5  28
TORSDOF 4
ENDMDL
MODEL 3
REMARK VINA RESULT: -8.629009331      2.866      4.899
REMARK  4 active torsions:
REMARK  status: ('A' for Active; 'I' for Inactive)
REMARK    1  A    between atoms: O1_2  and  C2_3 
REMARK    2  A    between atoms: C4_6  and  C5_7 
REMARK    3  A    between atoms: N1_11  and  O3_13 
REMARK    4  A    between atoms: C13_22  and  O5_24 
ROOT
HETATM    1  C5  UNL     1     -88.161  -6.176   2.254  1.00  0.00     0.006 C 
HETATM    2  C6  UNL     1     -87.859  -6.729   3.650  1.00  0.00     0.019 C 
HETATM    3  C7  UNL     1     -87.513  -7.184   1.331  1.00  0.00     0.070 C 
HETATM    4  C8  UNL     1     -86.041  -7.015   1.260  1.00  0.00     0.039 C 
HETATM    5  N1  UNL     1     -85.356  -7.969   0.761  1.00  0.00    -0.275 N 
ATOM      6  H1  UNL     1     -84.342  -7.871   0.704  1.00  0.00     0.193 HD
HETATM    7  C9  UNL     1     -85.302  -5.821   1.725  1.00  0.00     0.175 C 
HETATM    8  C10 UNL     1     -85.448  -4.756   0.660  1.00  0.00     0.120 C 
HETATM    9  C11 UNL     1     -86.931  -4.403   0.874  1.00  0.00     0.272 C 
HETATM   10  F1  UNL     1     -87.576  -4.821  -0.232  1.00  0.00    -0.203 F 
HETATM   11  F2  UNL     1     -86.951  -2.996   0.832  1.00  0.00    -0.203 F 
HETATM   12  C12 UNL     1     -87.277  -4.941   2.183  1.00  0.00     0.204 C 
HETATM   13  O4  UNL     1     -86.029  -5.272   2.771  1.00  0.00    -0.368 OA
ENDROOT
BRANCH   1  14
HETATM   14  C4  UNL     1     -89.575  -5.929   1.971  1.00  0.00     0.103 C 
HETATM   15  C3  UNL     1     -90.214  -4.852   2.786  1.00  0.00     0.164 C 
HETATM   16  C2  UNL     1     -91.511  -4.311   2.298  1.00  0.00     0.198 C 
HETATM   17  O2  UNL     1     -89.781  -4.376   3.808  1.00  0.00    -0.295 OA
HETATM   18  C16 UNL     1     -92.141  -5.203   1.266  1.00  0.00    -0.012 C 
HETATM   19  C15 UNL     1     -91.856  -6.642   1.353  1.00  0.00     0.050 C 
HETATM   20  C17 UNL     1     -93.662  -5.024   1.474  1.00  0.00     0.018 C 
HETATM   21  C18 UNL     1     -91.897  -4.671  -0.152  1.00  0.00     0.018 C 
HETATM   22  C13 UNL     1     -90.562  -7.050   2.029  1.00  0.00     0.066 C 
HETATM   23  C14 UNL     1     -90.908  -7.517   3.411  1.00  0.00     0.046 C 
BRANCH  16  24
HETATM   24  O1  UNL     1     -91.230  -3.102   1.660  1.00  0.00    -0.382 OA
HETATM   25  C1  UNL     1     -91.740  -2.005   2.379  1.00  0.00     0.202 C 
ENDBRANCH  16  24
BRANCH  22  26
HETATM   26  O5  UNL     1     -90.069  -8.128   1.308  1.00  0.00    -0.389 OA
ATOM     27  H5  UNL     1     -90.755  -8.779   1.213  1.00  0.00     0.210 HD
ENDBRANCH  22  26
ENDBRANCH   1  14
BRANCH   5  28
HETATM   28  O3  UNL     1     -85.937  -9.117   0.302  1.00  0.00    -0.290 OA
ATOM     29  H3  UNL     1     -85.476  -9.723  -0.265  1.00  0.00     0.244 HD
ENDBRANCH   5  28
TORSDOF 4
ENDMDL
MODEL 4
REMARK VINA RESULT: -8.490254708      2.311      3.906
REMARK  4 active torsions:
REMARK  status: ('A' for Active; 'I' for Inactive)
REMARK    1  A    between atoms: O1_2  and  C2_3 
REMARK    2  A    between atoms: C4_6  and  C5_7 
REMARK    3  A    between atoms: N1_11  and  O3_13 
REMARK    4  A    between atoms: C13_22  and  O5_24 
ROOT
HETATM    1  C5  UNL     1     -89.915  -6.633   1.992  1.00  0.00     0.006 C 
HETATM    2  C6  UNL     1     -91.093  -7.366   1.344  1.00  0.00     0.019 C 
HETATM    3  C7  UNL     1     -88.720  -7.468   1.590  1.00  0.00     0.070 C 
HETATM    4  C8  UNL     1     -88.605  -8.709   2.396  1.00  0.00     0.039 C 
HETATM    5  N1  UNL     1     -87.831  -9.628   1.967  1.00  0.00    -0.275 N 
ATOM      6  H1  UNL     1     -87.739 -10.488   2.508  1.00  0.00     0.193 HD
HETATM    7  C9  UNL     1     -89.322  -8.964   3.665  1.00  0.00     0.175 C 
HETATM    8  C10 UNL     1     -88.589  -8.218   4.757  1.00  0.00     0.120 C 
HETATM    9  C11 UNL     1     -88.979  -6.779   4.371  1.00  0.00     0.272 C 
HETATM   10  F1  UNL     1     -87.843  -6.184   3.959  1.00  0.00    -0.203 F 
HETATM   11  F2  UNL     1     -89.312  -6.181   5.601  1.00  0.00    -0.203 F 
HETATM   12  C12 UNL     1     -90.118  -6.910   3.473  1.00  0.00     0.204 C 
HETATM   13  O4  UNL     1     -90.520  -8.264   3.604  1.00  0.00    -0.368 OA
ENDROOT
BRANCH   1  14
HETATM   14  C4  UNL     1     -89.795  -5.216   1.649  1.00  0.00     0.103 C 
HETATM   15  C3  UNL     1     -90.593  -4.280   2.499  1.00  0.00     0.164 C 
HETATM   16  C2  UNL     1     -90.230  -2.839   2.444  1.00  0.00     0.198 C 
HETATM   17  O2  UNL     1     -91.507  -4.580   3.228  1.00  0.00    -0.295 OA
HETATM   18  C16 UNL     1     -89.365  -2.519   1.258  1.00  0.00    -0.012 C 
HETATM   19  C15 UNL     1     -89.534  -3.348   0.056  1.00  0.00     0.050 C 
HETATM   20  C17 UNL     1     -89.749  -1.072   0.875  1.00  0.00     0.018 C 
HETATM   21  C18 UNL     1     -87.888  -2.414   1.660  1.00  0.00     0.018 C 
HETATM   22  C13 UNL     1     -90.071  -4.751   0.255  1.00  0.00     0.066 C 
HETATM   23  C14 UNL     1     -91.520  -4.734  -0.130  1.00  0.00     0.046 C 
BRANCH  16  24
HETATM   24  O1  UNL     1     -89.463  -2.571   3.579  1.00  0.00    -0.382 OA
HETATM   25  C1  UNL     1     -89.984  -1.490   4.314  1.00  0.00     0.202 C 
ENDBRANCH  16  24
BRANCH  22  26
HETATM   26  O5  UNL     1     -89.385  -5.561  -0.639  1.00  0.00    -0.389 OA
ATOM     27  H5  UNL     1     -88.716  -6.045  -0.170  1.00  0.00     0.210 HD
ENDBRANCH  22  26
ENDBRANCH   1  14
BRANCH   5  28
HETATM   28  O3  UNL     1     -87.121  -9.496   0.808  1.00  0.00    -0.290 OA
ATOM     29  H3  UNL     1     -86.927  -8.647   0.429  1.00  0.00     0.244 HD
ENDBRANCH   5  28
TORSDOF 4
ENDMDL
MODEL 5
REMARK VINA RESULT: -8.486970452      2.377      4.368
REMARK  4 active torsions:
REMARK  status: ('A' for Active; 'I' for Inactive)
REMARK    1  A    between atoms: O1_2  and  C2_3 
REMARK    2  A    between atoms: C4_6  and  C5_7 
REMARK    3  A    between atoms: N1_11  and  O3_13 
REMARK    4  A    between atoms: C13_22  and  O5_24 
ROOT
HETATM    1  C5  UNL     1     -88.148  -6.152   1.729  1.00  0.00     0.006 C 
HETATM    2  C6  UNL     1     -89.153  -7.187   1.216  1.00  0.00     0.019 C 
HETATM    3  C7  UNL     1     -87.863  -6.611   3.141  1.00  0.00     0.070 C 
HETATM    4  C8  UNL     1     -88.957  -6.257   4.078  1.00  0.00     0.039 C 
HETATM    5  N1  UNL     1     -88.978  -6.836   5.215  1.00  0.00    -0.275 N 
ATOM      6  H1  UNL     1     -89.723  -6.604   5.872  1.00  0.00     0.193 HD
HETATM    7  C9  UNL     1     -90.030  -5.278   3.795  1.00  0.00     0.175 C 
HETATM    8  C10 UNL     1     -89.446  -3.897   3.996  1.00  0.00     0.120 C 
HETATM    9  C11 UNL     1     -88.532  -3.839   2.758  1.00  0.00     0.272 C 
HETATM   10  F1  UNL     1     -87.270  -3.841   3.229  1.00  0.00    -0.203 F 
HETATM   11  F2  UNL     1     -88.754  -2.551   2.237  1.00  0.00    -0.203 F 
HETATM   12  C12 UNL     1     -88.998  -4.901   1.877  1.00  0.00     0.204 C 
HETATM   13  O4  UNL     1     -90.247  -5.294   2.425  1.00  0.00    -0.368 OA
ENDROOT
BRANCH   1  14
HETATM   14  C4  UNL     1     -86.951  -5.980   0.904  1.00  0.00     0.103 C 
HETATM   15  C3  UNL     1     -87.201  -5.569  -0.512  1.00  0.00     0.164 C 
HETATM   16  C2  UNL     1     -86.045  -5.026  -1.274  1.00  0.00     0.198 C 
HETATM   17  O2  UNL     1     -88.253  -5.635  -1.100  1.00  0.00    -0.295 OA
HETATM   18  C16 UNL     1     -84.734  -5.332  -0.605  1.00  0.00    -0.012 C 
HETATM   19  C15 UNL     1     -84.657  -6.559   0.199  1.00  0.00     0.050 C 
HETATM   20  C17 UNL     1     -83.729  -5.483  -1.769  1.00  0.00     0.018 C 
HETATM   21  C18 UNL     1     -84.213  -4.119   0.177  1.00  0.00     0.018 C 
HETATM   22  C13 UNL     1     -85.955  -7.087   0.781  1.00  0.00     0.066 C 
HETATM   23  C14 UNL     1     -86.391  -8.238  -0.074  1.00  0.00     0.046 C 
BRANCH  16  24
HETATM   24  O1  UNL     1     -86.176  -3.637  -1.273  1.00  0.00    -0.382 OA
HETATM   25  C1  UNL     1     -86.965  -3.189  -2.349  1.00  0.00     0.202 C 
ENDBRANCH  16  24
BRANCH  22  26
HETATM   26  O5  UNL     1     -85.648  -7.566   2.046  1.00  0.00    -0.389 OA
ATOM     27  H5  UNL     1     -84.904  -7.084   2.390  1.00  0.00     0.210 HD
ENDBRANCH  22  26
ENDBRANCH   1  14
BRANCH   5  28
HETATM   28  O3  UNL     1     -88.036  -7.755   5.578  1.00  0.00    -0.290 OA
ATOM     29  H3  UNL     1     -87.358  -7.558   6.213  1.00  0.00     0.244 HD
ENDBRANCH   5  28
TORSDOF 4
ENDMDL
