MODEL 1
REMARK VINA RESULT: -8.894521901      0.000      0.000
REMARK  4 active torsions:
REMARK  status: ('A' for Active; 'I' for Inactive)
REMARK    1  A    between atoms: C1_2  and  O2_3 
REMARK       I    between atoms: C1_2  and  N2_16 
REMARK    2  A    between atoms: O2_3  and  N1_4 
REMARK    3  A    between atoms: C2_6  and  C3_8 
REMARK    4  A    between atoms: C3_8  and  O3_9 
ROOT
HETATM    1  N1  UNL     1     -88.347  -1.780   3.489  1.00  0.00    -0.250 N 
ATOM      2  H1  UNL     1     -88.548  -0.883   3.047  1.00  0.00     0.195 HD
HETATM    3  C2  UNL     1     -88.272  -2.795   2.726  1.00  0.00     0.113 C 
HETATM    4 BR1  UNL     1     -88.529  -2.607   0.865  1.00  0.00    -0.031 Br
ENDROOT
BRANCH   1   5
HETATM    5  O2  UNL     1     -88.183  -1.778   4.841  1.00  0.00    -0.180 OA
BRANCH   5   6
HETATM    6  C1  UNL     1     -87.835  -0.650   5.567  1.00  0.00     0.396 C 
HETATM    7  O1  UNL     1     -86.710  -0.631   6.124  1.00  0.00    -0.235 OA
HETATM    8  N2  UNL     1     -88.723   0.474   5.686  1.00  0.00    -0.232 N 
HETATM    9  C9  UNL     1     -89.925   0.465   5.096  1.00  0.00     0.129 A 
HETATM   10  C13 UNL     1     -88.343   1.547   6.401  1.00  0.00     0.256 A 
HETATM   11  C10 UNL     1     -90.791   1.536   5.201  1.00  0.00     0.050 A 
HETATM   12 CL1  UNL     1     -92.375   1.504   4.413  1.00  0.00    -0.083 Cl
HETATM   13  C11 UNL     1     -90.397   2.636   5.936  1.00  0.00     0.031 A 
HETATM   14  C12 UNL     1     -89.165   2.647   6.542  1.00  0.00     0.077 A 
HETATM   15  O4  UNL     1     -87.218   1.575   6.964  1.00  0.00    -0.268 OA
ENDBRANCH   5   6
ENDBRANCH   1   5
BRANCH   3  16
HETATM   16  C3  UNL     1     -87.985  -4.126   3.279  1.00  0.00     0.108 C 
HETATM   17  C4  UNL     1     -89.223  -4.584   4.023  1.00  0.00     0.045 C 
HETATM   18  C5  UNL     1     -88.933  -5.988   4.514  1.00  0.00     0.003 C 
HETATM   19  C6  UNL     1     -88.966  -6.859   3.252  1.00  0.00     0.000 C 
HETATM   20  C7  UNL     1     -87.772  -6.483   2.435  1.00  0.00     0.003 C 
HETATM   21  C8  UNL     1     -87.650  -5.040   2.126  1.00  0.00     0.045 C 
BRANCH  16  22
HETATM   22  O3  UNL     1     -86.948  -4.116   4.222  1.00  0.00    -0.383 OA
ATOM     23  H3  UNL     1     -86.111  -3.863   3.850  1.00  0.00     0.211 HD
ENDBRANCH  16  22
ENDBRANCH   3  16
TORSDOF 4
ENDMDL
MODEL 2
REMARK VINA RESULT: -8.682258174      1.823      2.370
REMARK  4 active torsions:
REMARK  status: ('A' for Active; 'I' for Inactive)
REMARK    1  A    between atoms: C1_2  and  O2_3 
REMARK       I    between atoms: C1_2  and  N2_16 
REMARK    2  A    between atoms: O2_3  and  N1_4 
REMARK    3  A    between atoms: C2_6  and  C3_8 
REMARK    4  A    between atoms: C3_8  and  O3_9 
ROOT
HETATM    1  N1  UNL     1     -88.035  -2.883   4.774  1.00  0.00    -0.250 N 
ATOM      2  H1  UNL     1     -87.295  -3.092   5.445  1.00  0.00     0.195 HD
HETATM    3  C2  UNL     1     -88.659  -3.873   4.278  1.00  0.00     0.113 C 
HETATM    4 BR1  UNL     1     -88.206  -5.635   4.785  1.00  0.00    -0.031 Br
ENDROOT
BRANCH   1   5
HETATM    5  O2  UNL     1     -88.260  -1.570   4.495  1.00  0.00    -0.180 OA
BRANCH   5   6
HETATM    6  C1  UNL     1     -87.922  -0.537   5.354  1.00  0.00     0.396 C 
HETATM    7  O1  UNL     1     -86.802  -0.582   5.920  1.00  0.00    -0.235 OA
HETATM    8  N2  UNL     1     -88.814   0.563   5.600  1.00  0.00    -0.232 N 
HETATM    9  C9  UNL     1     -90.011   0.623   5.003  1.00  0.00     0.129 A 
HETATM   10  C13 UNL     1     -88.444   1.543   6.442  1.00  0.00     0.256 A 
HETATM   11  C10 UNL     1     -90.882   1.672   5.228  1.00  0.00     0.050 A 
HETATM   12 CL1  UNL     1     -92.458   1.731   4.427  1.00  0.00    -0.083 Cl
HETATM   13  C11 UNL     1     -90.497   2.676   6.093  1.00  0.00     0.031 A 
HETATM   14  C12 UNL     1     -89.271   2.617   6.707  1.00  0.00     0.077 A 
HETATM   15  O4  UNL     1     -87.324   1.506   7.014  1.00  0.00    -0.268 OA
ENDBRANCH   5   6
ENDBRANCH   1   5
BRANCH   3  16
HETATM   16  C3  UNL     1     -89.741  -3.664   3.305  1.00  0.00     0.108 C 
HETATM   17  C4  UNL     1     -89.097  -3.289   1.986  1.00  0.00     0.045 C 
HETATM   18  C5  UNL     1     -90.224  -3.157   0.981  1.00  0.00     0.003 C 
HETATM   19  C6  UNL     1     -90.690  -4.596   0.724  1.00  0.00     0.000 C 
HETATM   20  C7  UNL     1     -91.347  -5.069   1.979  1.00  0.00     0.003 C 
HETATM   21  C8  UNL     1     -90.525  -4.949   3.205  1.00  0.00     0.045 C 
BRANCH  16  22
HETATM   22  O3  UNL     1     -90.583  -2.595   3.643  1.00  0.00    -0.383 OA
ATOM     23  H3  UNL     1     -90.474  -1.842   3.074  1.00  0.00     0.211 HD
ENDBRANCH  16  22
ENDBRANCH   3  16
TORSDOF 4
ENDMDL
MODEL 3
REMARK VINA RESULT: -8.558676003      2.471      3.188
REMARK  4 active torsions:
REMARK  status: ('A' for Active; 'I' for Inactive)
REMARK    1  A    between atoms: C1_2  and  O2_3 
REMARK       I    between atoms: C1_2  and  N2_16 
REMARK    2  A    between atoms: O2_3  and  N1_4 
REMARK    3  A    between atoms: C2_6  and  C3_8 
REMARK    4  A    between atoms: C3_8  and  O3_9 
ROOT
HETATM    1  N1  UNL     1     -88.277  -1.492   2.822  1.00  0.00    -0.250 N 
ATOM      2  H1  UNL     1     -87.290  -1.310   2.639  1.00  0.00     0.195 HD
HETATM    3  C2  UNL     1     -89.023  -1.691   1.811  1.00  0.00     0.113 C 
HETATM    4 BR1  UNL     1     -88.298  -1.641   0.068  1.00  0.00    -0.031 Br
ENDROOT
BRANCH   1   5
HETATM    5  O2  UNL     1     -88.671  -1.499   4.125  1.00  0.00    -0.180 OA
BRANCH   5   6
HETATM    6  C1  UNL     1     -88.272  -0.549   5.050  1.00  0.00     0.396 C 
HETATM    7  O1  UNL     1     -87.127  -0.659   5.553  1.00  0.00    -0.235 OA
HETATM    8  N2  UNL     1     -89.129   0.541   5.431  1.00  0.00    -0.232 N 
HETATM    9  C9  UNL     1     -90.351   0.669   4.901  1.00  0.00     0.129 A 
HETATM   10  C13 UNL     1     -88.699   1.440   6.332  1.00  0.00     0.256 A 
HETATM   11  C10 UNL     1     -91.189   1.709   5.256  1.00  0.00     0.050 A 
HETATM   12 CL1  UNL     1     -92.801   1.861   4.542  1.00  0.00    -0.083 Cl
HETATM   13  C11 UNL     1     -90.743   2.631   6.182  1.00  0.00     0.031 A 
HETATM   14  C12 UNL     1     -89.490   2.500   6.727  1.00  0.00     0.077 A 
HETATM   15  O4  UNL     1     -87.554   1.337   6.843  1.00  0.00    -0.268 OA
ENDBRANCH   5   6
ENDBRANCH   1   5
BRANCH   3  16
HETATM   16  C3  UNL     1     -90.457  -1.961   1.983  1.00  0.00     0.108 C 
HETATM   17  C4  UNL     1     -91.177  -0.628   1.947  1.00  0.00     0.045 C 
HETATM   18  C5  UNL     1     -92.657  -0.938   2.044  1.00  0.00     0.003 C 
HETATM   19  C6  UNL     1     -93.021  -1.545   0.683  1.00  0.00     0.000 C 
HETATM   20  C7  UNL     1     -92.353  -2.880   0.612  1.00  0.00     0.003 C 
HETATM   21  C8  UNL     1     -90.892  -2.867   0.857  1.00  0.00     0.045 C 
BRANCH  16  22
HETATM   22  O3  UNL     1     -90.763  -2.533   3.226  1.00  0.00    -0.383 OA
ATOM     23  H3  UNL     1     -91.459  -2.076   3.684  1.00  0.00     0.211 HD
ENDBRANCH  16  22
ENDBRANCH   3  16
TORSDOF 4
ENDMDL
MODEL 4
REMARK VINA RESULT: -8.363030861      6.132      8.003
REMARK  4 active torsions:
REMARK  status: ('A' for Active; 'I' for Inactive)
REMARK    1  A    between atoms: C1_2  and  O2_3 
REMARK       I    between atoms: C1_2  and  N2_16 
REMARK    2  A    between atoms: O2_3  and  N1_4 
REMARK    3  A    between atoms: C2_6  and  C3_8 
REMARK    4  A    between atoms: C3_8  and  O3_9 
ROOT
HETATM    1  N1  UNL     1     -86.513  -5.533   2.493  1.00  0.00    -0.250 N 
ATOM      2  H1  UNL     1     -86.024  -4.643   2.398  1.00  0.00     0.195 HD
HETATM    3  C2  UNL     1     -87.563  -5.539   3.210  1.00  0.00     0.113 C 
HETATM    4 BR1  UNL     1     -88.157  -3.952   4.043  1.00  0.00    -0.031 Br
ENDROOT
BRANCH   1   5
HETATM    5  O2  UNL     1     -85.979  -6.603   1.842  1.00  0.00    -0.180 OA
BRANCH   5   6
HETATM    6  C1  UNL     1     -84.837  -6.530   1.061  1.00  0.00     0.396 C 
HETATM    7  O1  UNL     1     -83.728  -6.715   1.619  1.00  0.00    -0.235 OA
HETATM    8  N2  UNL     1     -84.902  -6.252  -0.348  1.00  0.00    -0.232 N 
HETATM    9  C9  UNL     1     -86.079  -6.052  -0.954  1.00  0.00     0.129 A 
HETATM   10  C13 UNL     1     -83.768  -6.191  -1.066  1.00  0.00     0.256 A 
HETATM   11  C10 UNL     1     -86.161  -5.784  -2.307  1.00  0.00     0.050 A 
HETATM   12 CL1  UNL     1     -87.727  -5.523  -3.088  1.00  0.00    -0.083 Cl
HETATM   13  C11 UNL     1     -84.994  -5.722  -3.041  1.00  0.00     0.031 A 
HETATM   14  C12 UNL     1     -83.786  -5.926  -2.421  1.00  0.00     0.077 A 
HETATM   15  O4  UNL     1     -82.652  -6.375  -0.516  1.00  0.00    -0.268 OA
ENDBRANCH   5   6
ENDBRANCH   1   5
BRANCH   3  16
HETATM   16  C3  UNL     1     -88.331  -6.778   3.400  1.00  0.00     0.108 C 
HETATM   17  C4  UNL     1     -89.182  -6.596   4.641  1.00  0.00     0.045 C 
HETATM   18  C5  UNL     1     -90.022  -7.851   4.771  1.00  0.00     0.003 C 
HETATM   19  C6  UNL     1     -91.057  -7.749   3.643  1.00  0.00     0.000 C 
HETATM   20  C7  UNL     1     -90.314  -7.915   2.357  1.00  0.00     0.003 C 
HETATM   21  C8  UNL     1     -89.172  -6.992   2.166  1.00  0.00     0.045 C 
BRANCH  16  22
HETATM   22  O3  UNL     1     -87.519  -7.894   3.647  1.00  0.00    -0.383 OA
ATOM     23  H3  UNL     1     -87.640  -8.255   4.517  1.00  0.00     0.211 HD
ENDBRANCH  16  22
ENDBRANCH   3  16
TORSDOF 4
ENDMDL
MODEL 5
REMARK VINA RESULT: -8.337746179      2.994      4.169
REMARK  4 active torsions:
REMARK  status: ('A' for Active; 'I' for Inactive)
REMARK    1  A    between atoms: C1_2  and  O2_3 
REMARK       I    between atoms: C1_2  and  N2_16 
REMARK    2  A    between atoms: O2_3  and  N1_4 
REMARK    3  A    between atoms: C2_6  and  C3_8 
REMARK    4  A    between atoms: C3_8  and  O3_9 
ROOT
HETATM    1  N1  UNL     1     -89.764  -3.008   2.774  1.00  0.00    -0.250 N 
ATOM      2  H1  UNL     1     -88.940  -3.593   2.634  1.00  0.00     0.195 HD
HETATM    3  C2  UNL     1     -90.594  -2.942   1.813  1.00  0.00     0.113 C 
HETATM    4 BR1  UNL     1     -90.277  -3.897   0.215  1.00  0.00    -0.031 Br
ENDROOT
BRANCH   1   5
HETATM    5  O2  UNL     1     -89.872  -2.372   3.973  1.00  0.00    -0.180 OA
BRANCH   5   6
HETATM    6  C1  UNL     1     -88.783  -1.914   4.696  1.00  0.00     0.396 C 
HETATM    7  O1  UNL     1     -87.806  -2.688   4.847  1.00  0.00    -0.235 OA
HETATM    8  N2  UNL     1     -88.754  -0.592   5.261  1.00  0.00    -0.232 N 
HETATM    9  C9  UNL     1     -89.789   0.243   5.107  1.00  0.00     0.129 A 
HETATM   10  C13 UNL     1     -87.676  -0.190   5.954  1.00  0.00     0.256 A 
HETATM   11  C10 UNL     1     -89.779   1.516   5.643  1.00  0.00     0.050 A 
HETATM   12 CL1  UNL     1     -91.158   2.603   5.427  1.00  0.00    -0.083 Cl
HETATM   13  C11 UNL     1     -88.670   1.925   6.355  1.00  0.00     0.031 A 
HETATM   14  C12 UNL     1     -87.607   1.071   6.514  1.00  0.00     0.077 A 
HETATM   15  O4  UNL     1     -86.692  -0.959   6.112  1.00  0.00    -0.268 OA
ENDBRANCH   5   6
ENDBRANCH   1   5
BRANCH   3  16
HETATM   16  C3  UNL     1     -91.810  -2.125   1.930  1.00  0.00     0.108 C 
HETATM   17  C4  UNL     1     -91.387  -0.672   1.850  1.00  0.00     0.045 C 
HETATM   18  C5  UNL     1     -92.661   0.147   1.891  1.00  0.00     0.003 C 
HETATM   19  C6  UNL     1     -93.319  -0.080   0.524  1.00  0.00     0.000 C 
HETATM   20  C7  UNL     1     -93.776  -1.502   0.494  1.00  0.00     0.003 C 
HETATM   21  C8  UNL     1     -92.731  -2.507   0.797  1.00  0.00     0.045 C 
BRANCH  16  22
HETATM   22  O3  UNL     1     -92.454  -2.274   3.165  1.00  0.00    -0.383 OA
ATOM     23  H3  UNL     1     -91.896  -2.659   3.831  1.00  0.00     0.211 HD
ENDBRANCH  16  22
ENDBRANCH   3  16
TORSDOF 4
ENDMDL
