MODEL 1
REMARK VINA RESULT: -8.010351621      0.000      0.000
REMARK  4 active torsions:
REMARK  status: ('A' for Active; 'I' for Inactive)
REMARK    1  A    between atoms: O1_1  and  N1_3 
REMARK    2  A    between atoms: C1_4  and  C2_5 
REMARK    3  A    between atoms: C6_16  and  C7_17 
REMARK    4  A    between atoms: C7_17  and  O3_18 
ROOT
HETATM    1  N1  UNL     1     -87.962  -1.227   5.329  1.00  0.00    -0.187 N 
HETATM    2  C1  UNL     1     -88.612  -2.034   4.527  1.00  0.00     0.185 A 
HETATM    3  N2  UNL     1     -89.775  -1.387   4.139  1.00  0.00    -0.280 N 
ATOM      4  H2  UNL     1     -90.489  -1.765   3.515  1.00  0.00     0.188 HD
HETATM    5  N3  UNL     1     -89.801  -0.200   4.714  1.00  0.00    -0.283 N 
ATOM      6  H3  UNL     1     -90.537   0.499   4.612  1.00  0.00     0.188 HD
HETATM    7  C6  UNL     1     -88.707  -0.074   5.446  1.00  0.00     0.161 A 
ENDROOT
BRANCH   2   8
HETATM    8  C2  UNL     1     -88.350  -3.402   4.055  1.00  0.00     0.141 A 
HETATM    9  O2  UNL     1     -88.518  -4.488   4.820  1.00  0.00    -0.298 OA
HETATM   10  C3  UNL     1     -88.227  -5.578   4.219  1.00  0.00     0.123 A 
HETATM   11 BR1  UNL     1     -88.297  -7.390   4.872  1.00  0.00    -0.023 Br
HETATM   12  C4  UNL     1     -87.828  -5.252   2.953  1.00  0.00     0.067 A 
HETATM   13  C5  UNL     1     -87.911  -3.851   2.854  1.00  0.00     0.052 A 
HETATM   14 BR2  UNL     1     -87.488  -2.952   1.235  1.00  0.00    -0.048 Br
ENDBRANCH   2   8
BRANCH   1  15
HETATM   15  O1  UNL     1     -86.782  -1.459   5.974  1.00  0.00    -0.280 OA
ATOM     16  H1  UNL     1     -86.603  -1.390   6.904  1.00  0.00     0.245 HD
ENDBRANCH   1  15
BRANCH   7  17
HETATM   17  C7  UNL     1     -88.314   1.079   6.257  1.00  0.00     0.119 C 
HETATM   18  C8  UNL     1     -88.989   2.380   5.876  1.00  0.00     0.046 C 
HETATM   19  C9  UNL     1     -89.126   2.669   7.375  1.00  0.00     0.007 C 
HETATM   20  C10 UNL     1     -89.046   1.175   7.606  1.00  0.00     0.046 C 
BRANCH  17  21
HETATM   21  O3  UNL     1     -86.954   1.213   6.499  1.00  0.00    -0.382 OA
ATOM     22  H3  UNL     1     -86.498   1.849   5.960  1.00  0.00     0.211 HD
ENDBRANCH  17  21
ENDBRANCH   7  17
TORSDOF 4
ENDMDL
MODEL 2
REMARK VINA RESULT: -7.555594578      6.177      7.674
REMARK  4 active torsions:
REMARK  status: ('A' for Active; 'I' for Inactive)
REMARK    1  A    between atoms: O1_1  and  N1_3 
REMARK    2  A    between atoms: C1_4  and  C2_5 
REMARK    3  A    between atoms: C6_16  and  C7_17 
REMARK    4  A    between atoms: C7_17  and  O3_18 
ROOT
HETATM    1  N1  UNL     1     -86.860  -7.357   1.666  1.00  0.00    -0.187 N 
HETATM    2  C1  UNL     1     -86.140  -6.597   0.877  1.00  0.00     0.185 A 
HETATM    3  N2  UNL     1     -85.982  -5.373   1.509  1.00  0.00    -0.280 N 
ATOM      4  H2  UNL     1     -85.469  -4.572   1.141  1.00  0.00     0.188 HD
HETATM    5  N3  UNL     1     -86.612  -5.421   2.668  1.00  0.00    -0.283 N 
ATOM      6  H3  UNL     1     -86.669  -4.665   3.350  1.00  0.00     0.188 HD
HETATM    7  C6  UNL     1     -87.157  -6.619   2.791  1.00  0.00     0.161 A 
ENDROOT
BRANCH   2   8
HETATM    8  C2  UNL     1     -85.563  -6.804  -0.459  1.00  0.00     0.141 A 
HETATM    9  O2  UNL     1     -86.178  -7.500  -1.424  1.00  0.00    -0.298 OA
HETATM   10  C3  UNL     1     -85.502  -7.566  -2.508  1.00  0.00     0.123 A 
HETATM   11 BR1  UNL     1     -85.938  -8.439  -4.170  1.00  0.00    -0.023 Br
HETATM   12  C4  UNL     1     -84.339  -6.877  -2.305  1.00  0.00     0.067 A 
HETATM   13  C5  UNL     1     -84.385  -6.389  -0.986  1.00  0.00     0.052 A 
HETATM   14 BR2  UNL     1     -82.979  -5.326  -0.280  1.00  0.00    -0.048 Br
ENDBRANCH   2   8
BRANCH   1  15
HETATM   15  O1  UNL     1     -87.288  -8.632   1.437  1.00  0.00    -0.280 OA
ATOM     16  H1  UNL     1     -87.975  -8.920   0.848  1.00  0.00     0.245 HD
ENDBRANCH   1  15
BRANCH   7  17
HETATM   17  C7  UNL     1     -87.947  -7.119   3.916  1.00  0.00     0.119 C 
HETATM   18  C8  UNL     1     -88.289  -6.078   4.962  1.00  0.00     0.046 C 
HETATM   19  C9  UNL     1     -89.686  -6.706   5.031  1.00  0.00     0.007 C 
HETATM   20  C10 UNL     1     -89.454  -7.224   3.627  1.00  0.00     0.046 C 
BRANCH  17  21
HETATM   21  O3  UNL     1     -87.531  -8.328   4.458  1.00  0.00    -0.382 OA
ATOM     22  H3  UNL     1     -86.897  -8.270   5.163  1.00  0.00     0.211 HD
ENDBRANCH  17  21
ENDBRANCH   7  17
TORSDOF 4
ENDMDL
MODEL 3
REMARK VINA RESULT: -7.385364443      3.344      7.011
REMARK  4 active torsions:
REMARK  status: ('A' for Active; 'I' for Inactive)
REMARK    1  A    between atoms: O1_1  and  N1_3 
REMARK    2  A    between atoms: C1_4  and  C2_5 
REMARK    3  A    between atoms: C6_16  and  C7_17 
REMARK    4  A    between atoms: C7_17  and  O3_18 
ROOT
HETATM    1  N1  UNL     1     -88.612  -5.428   4.247  1.00  0.00    -0.187 N 
HETATM    2  C1  UNL     1     -88.980  -4.288   3.714  1.00  0.00     0.185 A 
HETATM    3  N2  UNL     1     -89.415  -4.553   2.425  1.00  0.00    -0.280 N 
ATOM      4  H2  UNL     1     -89.763  -3.863   1.758  1.00  0.00     0.188 HD
HETATM    5  N3  UNL     1     -89.301  -5.849   2.207  1.00  0.00    -0.283 N 
ATOM      6  H3  UNL     1     -89.545  -6.335   1.344  1.00  0.00     0.188 HD
HETATM    7  C6  UNL     1     -88.814  -6.409   3.301  1.00  0.00     0.161 A 
ENDROOT
BRANCH   2   8
HETATM    8  C2  UNL     1     -88.967  -2.903   4.207  1.00  0.00     0.141 A 
HETATM    9  O2  UNL     1     -87.999  -2.412   4.991  1.00  0.00    -0.298 OA
HETATM   10  C3  UNL     1     -88.182  -1.187   5.311  1.00  0.00     0.123 A 
HETATM   11 BR1  UNL     1     -87.095  -0.035   6.408  1.00  0.00    -0.023 Br
HETATM   12  C4  UNL     1     -89.346  -0.781   4.721  1.00  0.00     0.067 A 
HETATM   13  C5  UNL     1     -89.845  -1.889   4.012  1.00  0.00     0.052 A 
HETATM   14 BR2  UNL     1     -91.443  -1.767   2.992  1.00  0.00    -0.048 Br
ENDBRANCH   2   8
BRANCH   1  15
HETATM   15  O1  UNL     1     -88.090  -5.641   5.489  1.00  0.00    -0.280 OA
ATOM     16  H1  UNL     1     -88.487  -5.448   6.330  1.00  0.00     0.245 HD
ENDBRANCH   1  15
BRANCH   7  17
HETATM   17  C7  UNL     1     -88.525  -7.827   3.515  1.00  0.00     0.119 C 
HETATM   18  C8  UNL     1     -89.735  -8.678   3.837  1.00  0.00     0.046 C 
HETATM   19  C9  UNL     1     -89.142  -9.751   2.916  1.00  0.00     0.007 C 
HETATM   20  C10 UNL     1     -88.385  -8.642   2.217  1.00  0.00     0.046 C 
BRANCH  17  21
HETATM   21  O3  UNL     1     -87.425  -8.107   4.315  1.00  0.00    -0.382 OA
ATOM     22  H3  UNL     1     -87.562  -8.020   5.251  1.00  0.00     0.211 HD
ENDBRANCH  17  21
ENDBRANCH   7  17
TORSDOF 4
ENDMDL
MODEL 4
REMARK VINA RESULT: -7.328707830      6.331      9.333
REMARK  4 active torsions:
REMARK  status: ('A' for Active; 'I' for Inactive)
REMARK    1  A    between atoms: O1_1  and  N1_3 
REMARK    2  A    between atoms: C1_4  and  C2_5 
REMARK    3  A    between atoms: C6_16  and  C7_17 
REMARK    4  A    between atoms: C7_17  and  O3_18 
ROOT
HETATM    1  N1  UNL     1     -86.753  -5.532  -1.097  1.00  0.00    -0.187 N 
HETATM    2  C1  UNL     1     -87.704  -4.660  -1.326  1.00  0.00     0.185 A 
HETATM    3  N2  UNL     1     -88.279  -4.982  -2.546  1.00  0.00    -0.280 N 
ATOM      4  H2  UNL     1     -89.047  -4.483  -2.995  1.00  0.00     0.188 HD
HETATM    5  N3  UNL     1     -87.661  -6.044  -3.027  1.00  0.00    -0.283 N 
ATOM      6  H3  UNL     1     -87.868  -6.508  -3.912  1.00  0.00     0.188 HD
HETATM    7  C6  UNL     1     -86.725  -6.401  -2.165  1.00  0.00     0.161 A 
ENDROOT
BRANCH   2   8
HETATM    8  C2  UNL     1     -88.185  -3.484  -0.586  1.00  0.00     0.141 A 
HETATM    9  O2  UNL     1     -89.459  -3.325  -0.208  1.00  0.00    -0.298 OA
HETATM   10  C3  UNL     1     -89.666  -2.229   0.419  1.00  0.00     0.123 A 
HETATM   11 BR1  UNL     1     -91.305  -1.536   1.161  1.00  0.00    -0.023 Br
HETATM   12  C4  UNL     1     -88.472  -1.570   0.493  1.00  0.00     0.067 A 
HETATM   13  C5  UNL     1     -87.523  -2.383  -0.154  1.00  0.00     0.052 A 
HETATM   14 BR2  UNL     1     -85.695  -1.875  -0.254  1.00  0.00    -0.048 Br
ENDBRANCH   2   8
BRANCH   1  15
HETATM   15  O1  UNL     1     -85.903  -5.582  -0.030  1.00  0.00    -0.280 OA
ATOM     16  H1  UNL     1     -85.042  -5.980   0.011  1.00  0.00     0.245 HD
ENDBRANCH   1  15
BRANCH   7  17
HETATM   17  C7  UNL     1     -85.797  -7.527  -2.283  1.00  0.00     0.119 C 
HETATM   18  C8  UNL     1     -85.862  -8.265  -3.604  1.00  0.00     0.046 C 
HETATM   19  C9  UNL     1     -84.331  -8.335  -3.563  1.00  0.00     0.007 C 
HETATM   20  C10 UNL     1     -84.363  -7.119  -2.661  1.00  0.00     0.046 C 
BRANCH  17  21
HETATM   21  O3  UNL     1     -85.725  -8.370  -1.183  1.00  0.00    -0.382 OA
ATOM     22  H3  UNL     1     -86.238  -8.110  -0.427  1.00  0.00     0.211 HD
ENDBRANCH  17  21
ENDBRANCH   7  17
TORSDOF 4
ENDMDL
MODEL 5
REMARK VINA RESULT: -7.204135782      6.008      7.641
REMARK  4 active torsions:
REMARK  status: ('A' for Active; 'I' for Inactive)
REMARK    1  A    between atoms: O1_1  and  N1_3 
REMARK    2  A    between atoms: C1_4  and  C2_5 
REMARK    3  A    between atoms: C6_16  and  C7_17 
REMARK    4  A    between atoms: C7_17  and  O3_18 
ROOT
HETATM    1  N1  UNL     1     -86.743  -6.289   1.441  1.00  0.00    -0.187 N 
HETATM    2  C1  UNL     1     -86.412  -7.166   0.525  1.00  0.00     0.185 A 
HETATM    3  N2  UNL     1     -86.824  -8.412   0.973  1.00  0.00    -0.280 N 
ATOM      4  H2  UNL     1     -86.704  -9.295   0.477  1.00  0.00     0.188 HD
HETATM    5  N3  UNL     1     -87.397  -8.259   2.152  1.00  0.00    -0.283 N 
ATOM      6  H3  UNL     1     -87.797  -9.002   2.725  1.00  0.00     0.188 HD
HETATM    7  C6  UNL     1     -87.362  -6.974   2.463  1.00  0.00     0.161 A 
ENDROOT
BRANCH   2   8
HETATM    8  C2  UNL     1     -85.704  -7.054  -0.759  1.00  0.00     0.141 A 
HETATM    9  O2  UNL     1     -86.195  -7.528  -1.911  1.00  0.00    -0.298 OA
HETATM   10  C3  UNL     1     -85.418  -7.333  -2.908  1.00  0.00     0.123 A 
HETATM   11 BR1  UNL     1     -85.658  -7.819  -4.758  1.00  0.00    -0.023 Br
HETATM   12  C4  UNL     1     -84.310  -6.683  -2.441  1.00  0.00     0.067 A 
HETATM   13  C5  UNL     1     -84.501  -6.506  -1.058  1.00  0.00     0.052 A 
HETATM   14 BR2  UNL     1     -83.216  -5.599   0.005  1.00  0.00    -0.048 Br
ENDBRANCH   2   8
BRANCH   1  15
HETATM   15  O1  UNL     1     -86.506  -4.945   1.437  1.00  0.00    -0.280 OA
ATOM     16  H1  UNL     1     -86.208  -4.404   2.158  1.00  0.00     0.245 HD
ENDBRANCH   1  15
BRANCH   7  17
HETATM   17  C7  UNL     1     -87.884  -6.344   3.676  1.00  0.00     0.119 C 
HETATM   18  C8  UNL     1     -89.355  -5.987   3.621  1.00  0.00     0.046 C 
HETATM   19  C9  UNL     1     -89.460  -6.484   5.067  1.00  0.00     0.007 C 
HETATM   20  C10 UNL     1     -88.238  -7.336   4.796  1.00  0.00     0.046 C 
BRANCH  17  21
HETATM   21  O3  UNL     1     -87.095  -5.343   4.226  1.00  0.00    -0.382 OA
ATOM     22  H3  UNL     1     -87.292  -4.457   3.943  1.00  0.00     0.211 HD
ENDBRANCH  17  21
ENDBRANCH   7  17
TORSDOF 4
ENDMDL
