MODEL 1
REMARK VINA RESULT: -8.305454096      0.000      0.000
REMARK  4 active torsions:
REMARK  status: ('A' for Active; 'I' for Inactive)
REMARK    1  A    between atoms: C1_2  and  C2_4 
REMARK    2  A    between atoms: C4_7  and  N1_8 
REMARK    3  A    between atoms: C5_10  and  N2_11 
REMARK    4  A    between atoms: C7_13  and  O3_14 
ROOT
HETATM    1  N2  UNL     1     -87.683  -4.499   1.467  1.00  0.00    -0.311 N 
HETATM    2  C6  UNL     1     -88.446  -5.644   1.006  1.00  0.00     0.165 C 
HETATM    3  C7  UNL     1     -88.308  -5.504  -0.500  1.00  0.00     0.154 C 
HETATM    4  C8  UNL     1     -86.823  -5.235  -0.633  1.00  0.00     0.072 C 
HETATM    5  C9  UNL     1     -86.499  -4.487  -1.904  1.00  0.00     0.025 C 
HETATM    6  C10 UNL     1     -86.212  -5.651  -2.861  1.00  0.00     0.043 C 
HETATM    7  C11 UNL     1     -85.401  -6.582  -2.013  1.00  0.00     0.114 C 
HETATM    8 CL1  UNL     1     -83.703  -6.029  -2.045  1.00  0.00    -0.102 Cl
HETATM    9 CL2  UNL     1     -85.445  -8.240  -2.639  1.00  0.00    -0.102 Cl
HETATM   10  C12 UNL     1     -86.008  -6.490  -0.652  1.00  0.00     0.064 C 
HETATM   11  C13 UNL     1     -86.572  -4.402   0.583  1.00  0.00     0.236 C 
HETATM   12  O4  UNL     1     -85.559  -3.696   0.857  1.00  0.00    -0.272 OA
ENDROOT
BRANCH   1  13
HETATM   13  C5  UNL     1     -88.012  -3.670   2.575  1.00  0.00     0.187 C 
HETATM   14  N1  UNL     1     -88.270  -2.440   2.419  1.00  0.00    -0.332 N 
ATOM     15  H1  UNL     1     -88.233  -2.066   1.470  1.00  0.00     0.168 HD
BRANCH  14  16
HETATM   16  C4  UNL     1     -88.608  -1.543   3.470  1.00  0.00     0.150 A 
HETATM   17  S1  UNL     1     -90.126  -0.807   3.715  1.00  0.00    -0.063 SA
HETATM   18  C3  UNL     1     -89.760   0.094   5.120  1.00  0.00     0.090 A 
HETATM   19  C2  UNL     1     -88.436  -0.240   5.324  1.00  0.00     0.118 A 
HETATM   20  N3  UNL     1     -87.903  -1.064   4.471  1.00  0.00    -0.331 N 
ATOM     21  H3  UNL     1     -86.927  -1.340   4.580  1.00  0.00     0.168 HD
BRANCH  19  22
HETATM   22  C1  UNL     1     -87.691   0.320   6.456  1.00  0.00     0.227 C 
HETATM   23  O1  UNL     1     -88.239   1.063   7.297  1.00  0.00    -0.643 OA
HETATM   24  O2  UNL     1     -86.351   0.033   6.617  1.00  0.00    -0.643 OA
ENDBRANCH  19  22
ENDBRANCH  14  16
ENDBRANCH   1  13
BRANCH   3  25
HETATM   25  O3  UNL     1     -89.003  -4.372  -0.881  1.00  0.00    -0.393 OA
ATOM     26  H3  UNL     1     -89.907  -4.625  -1.023  1.00  0.00     0.210 HD
ENDBRANCH   3  25
TORSDOF 4
ENDMDL
MODEL 2
REMARK VINA RESULT: -8.300311363      5.372      6.253
REMARK  4 active torsions:
REMARK  status: ('A' for Active; 'I' for Inactive)
REMARK    1  A    between atoms: C1_2  and  C2_4 
REMARK    2  A    between atoms: C4_7  and  N1_8 
REMARK    3  A    between atoms: C5_10  and  N2_11 
REMARK    4  A    between atoms: C7_13  and  O3_14 
ROOT
HETATM    1  N2  UNL     1     -92.669  -2.134   2.714  1.00  0.00    -0.311 N 
HETATM    2  C6  UNL     1     -94.001  -2.542   3.118  1.00  0.00     0.165 C 
HETATM    3  C7  UNL     1     -94.773  -2.359   1.823  1.00  0.00     0.154 C 
HETATM    4  C8  UNL     1     -93.836  -3.018   0.831  1.00  0.00     0.072 C 
HETATM    5  C9  UNL     1     -94.035  -2.486  -0.569  1.00  0.00     0.025 C 
HETATM    6  C10 UNL     1     -95.062  -3.485  -1.116  1.00  0.00     0.043 C 
HETATM    7  C11 UNL     1     -94.548  -4.797  -0.608  1.00  0.00     0.114 C 
HETATM    8 CL1  UNL     1     -93.275  -5.367  -1.723  1.00  0.00    -0.102 Cl
HETATM    9 CL2  UNL     1     -95.825  -6.026  -0.566  1.00  0.00    -0.102 Cl
HETATM   10  C12 UNL     1     -94.022  -4.501   0.758  1.00  0.00     0.064 C 
HETATM   11  C13 UNL     1     -92.505  -2.630   1.391  1.00  0.00     0.236 C 
HETATM   12  O4  UNL     1     -91.370  -2.700   0.839  1.00  0.00    -0.272 OA
ENDROOT
BRANCH   1  13
HETATM   13  C5  UNL     1     -91.749  -1.391   3.506  1.00  0.00     0.187 C 
HETATM   14  N1  UNL     1     -90.575  -1.815   3.713  1.00  0.00    -0.332 N 
ATOM     15  H1  UNL     1     -90.312  -2.707   3.294  1.00  0.00     0.168 HD
BRANCH  14  16
HETATM   16  C4  UNL     1     -89.594  -1.136   4.490  1.00  0.00     0.150 A 
HETATM   17  S1  UNL     1     -88.092  -1.770   4.990  1.00  0.00    -0.063 SA
HETATM   18  C3  UNL     1     -87.505  -0.413   5.848  1.00  0.00     0.090 A 
HETATM   19  C2  UNL     1     -88.543   0.482   5.691  1.00  0.00     0.118 A 
HETATM   20  N3  UNL     1     -89.569   0.075   5.003  1.00  0.00    -0.331 N 
ATOM     21  H3  UNL     1     -90.361   0.701   4.860  1.00  0.00     0.168 HD
BRANCH  19  22
HETATM   22  C1  UNL     1     -88.469   1.823   6.281  1.00  0.00     0.227 C 
HETATM   23  O1  UNL     1     -87.939   2.018   7.394  1.00  0.00    -0.643 OA
HETATM   24  O2  UNL     1     -88.991   2.909   5.608  1.00  0.00    -0.643 OA
ENDBRANCH  19  22
ENDBRANCH  14  16
ENDBRANCH   1  13
BRANCH   3  25
HETATM   25  O3  UNL     1     -94.826  -1.005   1.556  1.00  0.00    -0.393 OA
ATOM     26  H3  UNL     1     -94.182  -0.820   0.881  1.00  0.00     0.210 HD
ENDBRANCH   3  25
TORSDOF 4
ENDMDL
MODEL 3
REMARK VINA RESULT: -8.280429686      1.616      2.076
REMARK  4 active torsions:
REMARK  status: ('A' for Active; 'I' for Inactive)
REMARK    1  A    between atoms: C1_2  and  C2_4 
REMARK    2  A    between atoms: C4_7  and  N1_8 
REMARK    3  A    between atoms: C5_10  and  N2_11 
REMARK    4  A    between atoms: C7_13  and  O3_14 
ROOT
HETATM    1  N2  UNL     1     -87.769  -2.491   0.760  1.00  0.00    -0.311 N 
HETATM    2  C6  UNL     1     -87.999  -2.477  -0.673  1.00  0.00     0.165 C 
HETATM    3  C7  UNL     1     -86.653  -2.950  -1.193  1.00  0.00     0.154 C 
HETATM    4  C8  UNL     1     -86.388  -4.132  -0.284  1.00  0.00     0.072 C 
HETATM    5  C9  UNL     1     -84.912  -4.428  -0.163  1.00  0.00     0.025 C 
HETATM    6  C10 UNL     1     -84.728  -5.454  -1.287  1.00  0.00     0.043 C 
HETATM    7  C11 UNL     1     -85.939  -6.325  -1.140  1.00  0.00     0.114 C 
HETATM    8 CL1  UNL     1     -85.605  -7.534   0.131  1.00  0.00    -0.102 Cl
HETATM    9 CL2  UNL     1     -86.301  -7.198  -2.640  1.00  0.00    -0.102 Cl
HETATM   10  C12 UNL     1     -87.041  -5.389  -0.766  1.00  0.00     0.064 C 
HETATM   11  C13 UNL     1     -86.965  -3.639   1.004  1.00  0.00     0.236 C 
HETATM   12  O4  UNL     1     -86.811  -4.112   2.167  1.00  0.00    -0.272 OA
ENDROOT
BRANCH   1  13
HETATM   13  C5  UNL     1     -88.261  -1.535   1.692  1.00  0.00     0.187 C 
HETATM   14  N1  UNL     1     -88.249  -1.769   2.936  1.00  0.00    -0.332 N 
ATOM     15  H1  UNL     1     -87.874  -2.666   3.246  1.00  0.00     0.168 HD
BRANCH  14  16
HETATM   16  C4  UNL     1     -88.719  -0.869   3.934  1.00  0.00     0.150 A 
HETATM   17  S1  UNL     1     -90.316  -0.293   4.095  1.00  0.00    -0.063 SA
HETATM   18  C3  UNL     1     -90.100   0.701   5.469  1.00  0.00     0.090 A 
HETATM   19  C2  UNL     1     -88.757   0.521   5.730  1.00  0.00     0.118 A 
HETATM   20  N3  UNL     1     -88.107  -0.274   4.934  1.00  0.00    -0.331 N 
ATOM     21  H3  UNL     1     -87.112  -0.439   5.086  1.00  0.00     0.168 HD
BRANCH  19  22
HETATM   22  C1  UNL     1     -88.119   1.206   6.859  1.00  0.00     0.227 C 
HETATM   23  O1  UNL     1     -86.913   1.529   6.831  1.00  0.00    -0.643 OA
HETATM   24  O2  UNL     1     -88.848   1.512   7.990  1.00  0.00    -0.643 OA
ENDBRANCH  19  22
ENDBRANCH  14  16
ENDBRANCH   1  13
BRANCH   3  25
HETATM   25  O3  UNL     1     -85.729  -1.960  -0.921  1.00  0.00    -0.393 OA
ATOM     26  H3  UNL     1     -85.552  -1.501  -1.733  1.00  0.00     0.210 HD
ENDBRANCH   3  25
TORSDOF 4
ENDMDL
MODEL 4
REMARK VINA RESULT: -8.094108930      3.339      4.369
REMARK  4 active torsions:
REMARK  status: ('A' for Active; 'I' for Inactive)
REMARK    1  A    between atoms: C1_2  and  C2_4 
REMARK    2  A    between atoms: C4_7  and  N1_8 
REMARK    3  A    between atoms: C5_10  and  N2_11 
REMARK    4  A    between atoms: C7_13  and  O3_14 
ROOT
HETATM    1  N2  UNL     1     -88.665  -3.651   3.003  1.00  0.00    -0.311 N 
HETATM    2  C6  UNL     1     -87.595  -4.120   2.143  1.00  0.00     0.165 C 
HETATM    3  C7  UNL     1     -87.099  -5.327   2.919  1.00  0.00     0.154 C 
HETATM    4  C8  UNL     1     -88.407  -6.007   3.266  1.00  0.00     0.072 C 
HETATM    5  C9  UNL     1     -88.281  -6.874   4.497  1.00  0.00     0.025 C 
HETATM    6  C10 UNL     1     -87.928  -8.226   3.866  1.00  0.00     0.043 C 
HETATM    7  C11 UNL     1     -88.850  -8.290   2.687  1.00  0.00     0.114 C 
HETATM    8 CL1  UNL     1     -90.439  -8.876   3.254  1.00  0.00    -0.102 Cl
HETATM    9 CL2  UNL     1     -88.260  -9.423   1.457  1.00  0.00    -0.102 Cl
HETATM   10  C12 UNL     1     -88.907  -6.891   2.168  1.00  0.00     0.064 C 
HETATM   11  C13 UNL     1     -89.292  -4.826   3.504  1.00  0.00     0.236 C 
HETATM   12  O4  UNL     1     -90.428  -4.794   4.057  1.00  0.00    -0.272 OA
ENDROOT
BRANCH   1  13
HETATM   13  C5  UNL     1     -88.988  -2.290   3.266  1.00  0.00     0.187 C 
HETATM   14  N1  UNL     1     -89.423  -1.928   4.398  1.00  0.00    -0.332 N 
ATOM     15  H1  UNL     1     -89.534  -2.646   5.114  1.00  0.00     0.168 HD
BRANCH  14  16
HETATM   16  C4  UNL     1     -89.768  -0.591   4.744  1.00  0.00     0.150 A 
HETATM   17  S1  UNL     1     -91.099   0.290   4.144  1.00  0.00    -0.063 SA
HETATM   18  C3  UNL     1     -90.849   1.754   4.992  1.00  0.00     0.090 A 
HETATM   19  C2  UNL     1     -89.711   1.462   5.715  1.00  0.00     0.118 A 
HETATM   20  N3  UNL     1     -89.205   0.275   5.557  1.00  0.00    -0.331 N 
ATOM     21  H3  UNL     1     -88.363   0.013   6.070  1.00  0.00     0.168 HD
BRANCH  19  22
HETATM   22  C1  UNL     1     -89.119   2.462   6.610  1.00  0.00     0.227 C 
HETATM   23  O1  UNL     1     -89.657   3.573   6.797  1.00  0.00    -0.643 OA
HETATM   24  O2  UNL     1     -87.940   2.190   7.274  1.00  0.00    -0.643 OA
ENDBRANCH  19  22
ENDBRANCH  14  16
ENDBRANCH   1  13
BRANCH   3  25
HETATM   25  O3  UNL     1     -86.513  -4.865   4.082  1.00  0.00    -0.393 OA
ATOM     26  H3  UNL     1     -86.146  -5.614   4.536  1.00  0.00     0.210 HD
ENDBRANCH   3  25
TORSDOF 4
ENDMDL
MODEL 5
REMARK VINA RESULT: -7.972399337      4.898      6.020
REMARK  4 active torsions:
REMARK  status: ('A' for Active; 'I' for Inactive)
REMARK    1  A    between atoms: C1_2  and  C2_4 
REMARK    2  A    between atoms: C4_7  and  N1_8 
REMARK    3  A    between atoms: C5_10  and  N2_11 
REMARK    4  A    between atoms: C7_13  and  O3_14 
ROOT
HETATM    1  N2  UNL     1     -91.450  -2.535   1.476  1.00  0.00    -0.311 N 
HETATM    2  C6  UNL     1     -90.924  -3.332   0.385  1.00  0.00     0.165 C 
HETATM    3  C7  UNL     1     -91.668  -4.641   0.587  1.00  0.00     0.154 C 
HETATM    4  C8  UNL     1     -93.081  -4.141   0.804  1.00  0.00     0.072 C 
HETATM    5  C9  UNL     1     -93.910  -5.124   1.597  1.00  0.00     0.025 C 
HETATM    6  C10 UNL     1     -94.543  -5.947   0.468  1.00  0.00     0.043 C 
HETATM    7  C11 UNL     1     -94.921  -4.898  -0.532  1.00  0.00     0.114 C 
HETATM    8 CL1  UNL     1     -96.492  -4.203  -0.045  1.00  0.00    -0.102 Cl
HETATM    9 CL2  UNL     1     -95.109  -5.582  -2.157  1.00  0.00    -0.102 Cl
HETATM   10  C12 UNL     1     -93.811  -3.899  -0.479  1.00  0.00     0.064 C 
HETATM   11  C13 UNL     1     -92.827  -2.882   1.570  1.00  0.00     0.236 C 
HETATM   12  O4  UNL     1     -93.651  -2.180   2.223  1.00  0.00    -0.272 OA
ENDROOT
BRANCH   1  13
HETATM   13  C5  UNL     1     -90.711  -1.611   2.266  1.00  0.00     0.187 C 
HETATM   14  N1  UNL     1     -91.057  -1.341   3.453  1.00  0.00    -0.332 N 
ATOM     15  H1  UNL     1     -91.884  -1.810   3.823  1.00  0.00     0.168 HD
BRANCH  14  16
HETATM   16  C4  UNL     1     -90.375  -0.432   4.309  1.00  0.00     0.150 A 
HETATM   17  S1  UNL     1     -90.967   1.071   4.856  1.00  0.00    -0.063 SA
HETATM   18  C3  UNL     1     -89.628   1.553   5.802  1.00  0.00     0.090 A 
HETATM   19  C2  UNL     1     -88.771   0.485   5.633  1.00  0.00     0.118 A 
HETATM   20  N3  UNL     1     -89.190  -0.486   4.876  1.00  0.00    -0.331 N 
ATOM     21  H3  UNL     1     -88.592  -1.298   4.720  1.00  0.00     0.168 HD
BRANCH  19  22
HETATM   22  C1  UNL     1     -87.459   0.469   6.287  1.00  0.00     0.227 C 
HETATM   23  O1  UNL     1     -87.007   1.476   6.870  1.00  0.00    -0.643 OA
HETATM   24  O2  UNL     1     -86.687  -0.675   6.270  1.00  0.00    -0.643 OA
ENDBRANCH  19  22
ENDBRANCH  14  16
ENDBRANCH   1  13
BRANCH   3  25
HETATM   25  O3  UNL     1     -91.208  -5.205   1.762  1.00  0.00    -0.393 OA
ATOM     26  H3  UNL     1     -91.963  -5.370   2.315  1.00  0.00     0.210 HD
ENDBRANCH   3  25
TORSDOF 4
ENDMDL
