MODEL 1
REMARK VINA RESULT: -9.744182368      0.000      0.000
REMARK  4 active torsions:
REMARK  status: ('A' for Active; 'I' for Inactive)
REMARK    1  A    between atoms: O1_2  and  C2_3 
REMARK    2  A    between atoms: N1_15  and  O3_17 
REMARK    3  A    between atoms: C14_22  and  C15_23 
REMARK    4  A    between atoms: C15_23  and  O4_25 
ROOT
HETATM    1  C2  UNL     1     -86.484  -3.917  -0.378  1.00  0.00     0.179 C 
HETATM    2  C3  UNL     1     -87.828  -4.099   0.215  1.00  0.00     0.073 C 
HETATM    3  C4  UNL     1     -88.224  -5.523   0.461  1.00  0.00     0.057 C 
HETATM    4  C5  UNL     1     -87.205  -6.118   1.391  1.00  0.00     0.179 C 
HETATM    5  O2  UNL     1     -87.514  -5.568   2.687  1.00  0.00    -0.327 OA
HETATM    6  C6  UNL     1     -88.656  -6.221   3.169  1.00  0.00     0.083 A 
HETATM    7  C7  UNL     1     -89.610  -5.855   4.095  1.00  0.00     0.038 A 
HETATM    8  C8  UNL     1     -90.670  -6.671   4.421  1.00  0.00     0.003 A 
HETATM    9  C9  UNL     1     -90.751  -7.895   3.776  1.00  0.00     0.001 A 
HETATM   10  C10 UNL     1     -89.812  -8.267   2.857  1.00  0.00     0.016 A 
HETATM   11  C11 UNL     1     -88.748  -7.436   2.538  1.00  0.00     0.025 A 
HETATM   12  C12 UNL     1     -87.611  -7.529   1.630  1.00  0.00     0.086 C 
HETATM   13  N1  UNL     1     -87.123  -8.623   1.178  1.00  0.00    -0.269 N 
ATOM     14  H1  UNL     1     -86.324  -8.594   0.544  1.00  0.00     0.194 HD
HETATM   15  C13 UNL     1     -85.807  -5.890   1.042  1.00  0.00     0.295 C 
HETATM   16  F1  UNL     1     -85.157  -7.119   0.908  1.00  0.00    -0.201 F 
HETATM   17  F2  UNL     1     -85.163  -5.278   2.122  1.00  0.00    -0.201 F 
HETATM   18  C14 UNL     1     -85.569  -5.101  -0.254  1.00  0.00     0.111 C 
HETATM   19  C17 UNL     1     -85.513  -6.008  -1.439  1.00  0.00     0.026 C 
HETATM   20  C18 UNL     1     -86.257  -5.653  -2.654  1.00  0.00     0.028 C 
HETATM   21  C19 UNL     1     -87.160  -4.452  -2.538  1.00  0.00     0.171 C 
HETATM   22  O5  UNL     1     -86.612  -3.521  -1.695  1.00  0.00    -0.354 OA
ENDROOT
BRANCH  13  23
HETATM   23  O3  UNL     1     -87.659  -9.828   1.533  1.00  0.00    -0.290 OA
ATOM     24  H3  UNL     1     -87.163 -10.631   1.429  1.00  0.00     0.244 HD
ENDBRANCH  13  23
BRANCH  18  25
HETATM   25  C15 UNL     1     -84.161  -4.559  -0.057  1.00  0.00     0.134 C 
HETATM   26  C16 UNL     1     -83.075  -5.386  -0.640  1.00  0.00     0.040 C 
BRANCH  25  27
HETATM   27  O4  UNL     1     -83.942  -4.370   1.304  1.00  0.00    -0.395 OA
ATOM     28  H4  UNL     1     -83.969  -3.440   1.491  1.00  0.00     0.210 HD
ENDBRANCH  25  27
ENDBRANCH  18  25
BRANCH   1  29
HETATM   29  O1  UNL     1     -85.877  -2.810   0.247  1.00  0.00    -0.359 OA
HETATM   30  C1  UNL     1     -86.460  -1.616  -0.135  1.00  0.00     0.205 C 
ENDBRANCH   1  29
TORSDOF 4
ENDMDL
MODEL 2
REMARK VINA RESULT: -9.699995480      3.546      5.919
REMARK  4 active torsions:
REMARK  status: ('A' for Active; 'I' for Inactive)
REMARK    1  A    between atoms: O1_2  and  C2_3 
REMARK    2  A    between atoms: N1_15  and  O3_17 
REMARK    3  A    between atoms: C14_22  and  C15_23 
REMARK    4  A    between atoms: C15_23  and  O4_25 
ROOT
HETATM    1  C2  UNL     1     -90.103  -7.060   2.539  1.00  0.00     0.179 C 
HETATM    2  C3  UNL     1     -91.038  -5.941   2.792  1.00  0.00     0.073 C 
HETATM    3  C4  UNL     1     -90.510  -4.864   3.689  1.00  0.00     0.057 C 
HETATM    4  C5  UNL     1     -89.267  -4.314   3.048  1.00  0.00     0.179 C 
HETATM    5  O2  UNL     1     -89.740  -3.494   1.960  1.00  0.00    -0.327 OA
HETATM    6  C6  UNL     1     -90.246  -2.307   2.506  1.00  0.00     0.083 A 
HETATM    7  C7  UNL     1     -91.161  -1.388   2.036  1.00  0.00     0.038 A 
HETATM    8  C8  UNL     1     -91.517  -0.270   2.757  1.00  0.00     0.003 A 
HETATM    9  C9  UNL     1     -90.918  -0.095   3.995  1.00  0.00     0.001 A 
HETATM   10  C10 UNL     1     -90.012  -0.999   4.469  1.00  0.00     0.016 A 
HETATM   11  C11 UNL     1     -89.659  -2.122   3.733  1.00  0.00     0.025 A 
HETATM   12  C12 UNL     1     -88.755  -3.244   3.945  1.00  0.00     0.086 C 
HETATM   13  N1  UNL     1     -87.757  -3.240   4.747  1.00  0.00    -0.269 N 
ATOM     14  H1  UNL     1     -87.176  -4.074   4.833  1.00  0.00     0.194 HD
HETATM   15  C13 UNL     1     -88.297  -5.298   2.581  1.00  0.00     0.295 C 
HETATM   16  F1  UNL     1     -87.064  -5.058   3.194  1.00  0.00    -0.201 F 
HETATM   17  F2  UNL     1     -88.050  -5.085   1.222  1.00  0.00    -0.201 F 
HETATM   18  C14 UNL     1     -88.663  -6.766   2.847  1.00  0.00     0.111 C 
HETATM   19  C17 UNL     1     -88.179  -7.213   4.186  1.00  0.00     0.026 C 
HETATM   20  C18 UNL     1     -89.081  -7.973   5.062  1.00  0.00     0.028 C 
HETATM   21  C19 UNL     1     -90.503  -8.102   4.579  1.00  0.00     0.171 C 
HETATM   22  O5  UNL     1     -90.538  -8.184   3.211  1.00  0.00    -0.354 OA
ENDROOT
BRANCH  13  23
HETATM   23  O3  UNL     1     -87.461  -2.131   5.488  1.00  0.00    -0.290 OA
ATOM     24  H3  UNL     1     -87.906  -1.307   5.330  1.00  0.00     0.244 HD
ENDBRANCH  13  23
BRANCH  18  25
HETATM   25  C15 UNL     1     -87.826  -7.507   1.815  1.00  0.00     0.134 C 
HETATM   26  C16 UNL     1     -88.161  -8.943   1.638  1.00  0.00     0.040 C 
BRANCH  25  27
HETATM   27  O4  UNL     1     -86.482  -7.366   2.146  1.00  0.00    -0.395 OA
ATOM     28  H4  UNL     1     -85.956  -7.734   1.446  1.00  0.00     0.210 HD
ENDBRANCH  25  27
ENDBRANCH  18  25
BRANCH   1  29
HETATM   29  O1  UNL     1     -90.210  -7.420   1.180  1.00  0.00    -0.359 OA
HETATM   30  C1  UNL     1     -91.292  -6.815   0.569  1.00  0.00     0.205 C 
ENDBRANCH   1  29
TORSDOF 4
ENDMDL
MODEL 3
REMARK VINA RESULT: -9.601436240      2.342      5.791
REMARK  4 active torsions:
REMARK  status: ('A' for Active; 'I' for Inactive)
REMARK    1  A    between atoms: O1_2  and  C2_3 
REMARK    2  A    between atoms: N1_15  and  O3_17 
REMARK    3  A    between atoms: C14_22  and  C15_23 
REMARK    4  A    between atoms: C15_23  and  O4_25 
ROOT
HETATM    1  C2  UNL     1     -86.343  -6.051   1.743  1.00  0.00     0.179 C 
HETATM    2  C3  UNL     1     -85.739  -6.934   0.719  1.00  0.00     0.073 C 
HETATM    3  C4  UNL     1     -86.495  -7.014  -0.572  1.00  0.00     0.057 C 
HETATM    4  C5  UNL     1     -86.580  -5.622  -1.131  1.00  0.00     0.179 C 
HETATM    5  O2  UNL     1     -85.265  -5.347  -1.652  1.00  0.00    -0.327 OA
HETATM    6  C6  UNL     1     -85.123  -6.055  -2.854  1.00  0.00     0.083 A 
HETATM    7  C7  UNL     1     -84.012  -6.499  -3.540  1.00  0.00     0.038 A 
HETATM    8  C8  UNL     1     -84.110  -7.190  -4.728  1.00  0.00     0.003 A 
HETATM    9  C9  UNL     1     -85.383  -7.432  -5.219  1.00  0.00     0.001 A 
HETATM   10  C10 UNL     1     -86.489  -6.996  -4.547  1.00  0.00     0.016 A 
HETATM   11  C11 UNL     1     -86.378  -6.300  -3.351  1.00  0.00     0.025 A 
HETATM   12  C12 UNL     1     -87.328  -5.716  -2.413  1.00  0.00     0.086 C 
HETATM   13  N1  UNL     1     -88.530  -5.382  -2.700  1.00  0.00    -0.269 N 
ATOM     14  H1  UNL     1     -89.127  -4.980  -1.978  1.00  0.00     0.194 HD
HETATM   15  C13 UNL     1     -87.004  -4.582  -0.200  1.00  0.00     0.295 C 
HETATM   16  F1  UNL     1     -88.138  -3.943  -0.707  1.00  0.00    -0.201 F 
HETATM   17  F2  UNL     1     -86.032  -3.579  -0.165  1.00  0.00    -0.201 F 
HETATM   18  C14 UNL     1     -87.344  -5.064   1.219  1.00  0.00     0.111 C 
HETATM   19  C17 UNL     1     -88.777  -5.470   1.326  1.00  0.00     0.026 C 
HETATM   20  C18 UNL     1     -89.120  -6.729   1.999  1.00  0.00     0.028 C 
HETATM   21  C19 UNL     1     -87.953  -7.596   2.396  1.00  0.00     0.171 C 
HETATM   22  O5  UNL     1     -86.881  -6.821   2.754  1.00  0.00    -0.354 OA
ENDROOT
BRANCH  13  23
HETATM   23  O3  UNL     1     -89.022  -5.558  -3.962  1.00  0.00    -0.290 OA
ATOM     24  H3  UNL     1     -88.825  -6.345  -4.456  1.00  0.00     0.244 HD
ENDBRANCH  13  23
BRANCH  18  25
HETATM   25  C15 UNL     1     -87.193  -3.794   2.043  1.00  0.00     0.134 C 
HETATM   26  C16 UNL     1     -87.723  -3.868   3.428  1.00  0.00     0.040 C 
BRANCH  25  27
HETATM   27  O4  UNL     1     -87.791  -2.742   1.357  1.00  0.00    -0.395 OA
ATOM     28  H4  UNL     1     -87.754  -1.964   1.900  1.00  0.00     0.210 HD
ENDBRANCH  25  27
ENDBRANCH  18  25
BRANCH   1  29
HETATM   29  O1  UNL     1     -85.301  -5.345   2.378  1.00  0.00    -0.359 OA
HETATM   30  C1  UNL     1     -84.078  -5.577   1.779  1.00  0.00     0.205 C 
ENDBRANCH   1  29
TORSDOF 4
ENDMDL
MODEL 4
REMARK VINA RESULT: -9.493110069      2.076      3.316
REMARK  4 active torsions:
REMARK  status: ('A' for Active; 'I' for Inactive)
REMARK    1  A    between atoms: O1_2  and  C2_3 
REMARK    2  A    between atoms: N1_15  and  O3_17 
REMARK    3  A    between atoms: C14_22  and  C15_23 
REMARK    4  A    between atoms: C15_23  and  O4_25 
ROOT
HETATM    1  C2  UNL     1     -86.139  -5.242  -1.523  1.00  0.00     0.179 C 
HETATM    2  C3  UNL     1     -86.544  -6.583  -1.042  1.00  0.00     0.073 C 
HETATM    3  C4  UNL     1     -86.575  -6.738   0.447  1.00  0.00     0.057 C 
HETATM    4  C5  UNL     1     -87.545  -5.724   0.984  1.00  0.00     0.179 C 
HETATM    5  O2  UNL     1     -88.850  -6.251   0.672  1.00  0.00    -0.327 OA
HETATM    6  C6  UNL     1     -89.114  -7.299   1.564  1.00  0.00     0.083 A 
HETATM    7  C7  UNL     1     -89.956  -8.389   1.489  1.00  0.00     0.038 A 
HETATM    8  C8  UNL     1     -90.057  -9.311   2.507  1.00  0.00     0.003 A 
HETATM    9  C9  UNL     1     -89.270  -9.108   3.629  1.00  0.00     0.001 A 
HETATM   10  C10 UNL     1     -88.434  -8.032   3.713  1.00  0.00     0.016 A 
HETATM   11  C11 UNL     1     -88.341  -7.108   2.682  1.00  0.00     0.025 A 
HETATM   12  C12 UNL     1     -87.571  -5.891   2.462  1.00  0.00     0.086 C 
HETATM   13  N1  UNL     1     -87.057  -5.172   3.389  1.00  0.00    -0.269 N 
ATOM     14  H1  UNL     1     -86.530  -4.334   3.143  1.00  0.00     0.194 HD
HETATM   15  C13 UNL     1     -87.394  -4.363   0.482  1.00  0.00     0.295 C 
HETATM   16  F1  UNL     1     -87.198  -3.492   1.557  1.00  0.00    -0.201 F 
HETATM   17  F2  UNL     1     -88.606  -3.947  -0.078  1.00  0.00    -0.201 F 
HETATM   18  C14 UNL     1     -86.235  -4.146  -0.502  1.00  0.00     0.111 C 
HETATM   19  C17 UNL     1     -84.969  -3.812   0.215  1.00  0.00     0.026 C 
HETATM   20  C18 UNL     1     -83.722  -4.487  -0.170  1.00  0.00     0.028 C 
HETATM   21  C19 UNL     1     -83.867  -5.597  -1.178  1.00  0.00     0.171 C 
HETATM   22  O5  UNL     1     -84.872  -5.311  -2.066  1.00  0.00    -0.354 OA
ENDROOT
BRANCH  13  23
HETATM   23  O3  UNL     1     -87.204  -5.515   4.703  1.00  0.00    -0.290 OA
ATOM     24  H3  UNL     1     -87.658  -6.312   4.950  1.00  0.00     0.244 HD
ENDBRANCH  13  23
BRANCH  18  25
HETATM   25  C15 UNL     1     -86.659  -2.884  -1.239  1.00  0.00     0.134 C 
HETATM   26  C16 UNL     1     -86.143  -1.613  -0.671  1.00  0.00     0.040 C 
BRANCH  25  27
HETATM   27  O4  UNL     1     -88.048  -2.851  -1.304  1.00  0.00    -0.395 OA
ATOM     28  H4  UNL     1     -88.388  -2.622  -0.447  1.00  0.00     0.210 HD
ENDBRANCH  25  27
ENDBRANCH  18  25
BRANCH   1  29
HETATM   29  O1  UNL     1     -86.956  -4.908  -2.622  1.00  0.00    -0.359 OA
HETATM   30  C1  UNL     1     -87.069  -5.953  -3.519  1.00  0.00     0.205 C 
ENDBRANCH   1  29
TORSDOF 4
ENDMDL
MODEL 5
REMARK VINA RESULT: -9.457327924      2.326      5.758
REMARK  4 active torsions:
REMARK  status: ('A' for Active; 'I' for Inactive)
REMARK    1  A    between atoms: O1_2  and  C2_3 
REMARK    2  A    between atoms: N1_15  and  O3_17 
REMARK    3  A    between atoms: C14_22  and  C15_23 
REMARK    4  A    between atoms: C15_23  and  O4_25 
ROOT
HETATM    1  C2  UNL     1     -88.750  -6.442   3.047  1.00  0.00     0.179 C 
HETATM    2  C3  UNL     1     -88.630  -7.249   1.812  1.00  0.00     0.073 C 
HETATM    3  C4  UNL     1     -88.698  -6.468   0.536  1.00  0.00     0.057 C 
HETATM    4  C5  UNL     1     -87.580  -5.465   0.563  1.00  0.00     0.179 C 
HETATM    5  O2  UNL     1     -86.386  -6.228   0.300  1.00  0.00    -0.327 OA
HETATM    6  C6  UNL     1     -86.367  -6.537  -1.067  1.00  0.00     0.083 A 
HETATM    7  C7  UNL     1     -85.743  -7.541  -1.780  1.00  0.00     0.038 A 
HETATM    8  C8  UNL     1     -85.867  -7.656  -3.146  1.00  0.00     0.003 A 
HETATM    9  C9  UNL     1     -86.653  -6.717  -3.796  1.00  0.00     0.001 A 
HETATM   10  C10 UNL     1     -87.274  -5.721  -3.099  1.00  0.00     0.016 A 
HETATM   11  C11 UNL     1     -87.142  -5.613  -1.722  1.00  0.00     0.025 A 
HETATM   12  C12 UNL     1     -87.656  -4.699  -0.710  1.00  0.00     0.086 C 
HETATM   13  N1  UNL     1     -88.068  -3.509  -0.941  1.00  0.00    -0.269 N 
ATOM     14  H1  UNL     1     -88.414  -2.937  -0.170  1.00  0.00     0.194 HD
HETATM   15  C13 UNL     1     -87.447  -4.685   1.788  1.00  0.00     0.295 C 
HETATM   16  F1  UNL     1     -87.525  -3.325   1.482  1.00  0.00    -0.201 F 
HETATM   17  F2  UNL     1     -86.154  -4.848   2.293  1.00  0.00    -0.201 F 
HETATM   18  C14 UNL     1     -88.497  -4.972   2.872  1.00  0.00     0.111 C 
HETATM   19  C17 UNL     1     -89.709  -4.120   2.694  1.00  0.00     0.026 C 
HETATM   20  C18 UNL     1     -91.041  -4.731   2.789  1.00  0.00     0.028 C 
HETATM   21  C19 UNL     1     -91.062  -6.233   2.909  1.00  0.00     0.171 C 
HETATM   22  O5  UNL     1     -89.981  -6.671   3.628  1.00  0.00    -0.354 OA
ENDROOT
BRANCH  13  23
HETATM   23  O3  UNL     1     -88.049  -2.995  -2.207  1.00  0.00    -0.290 OA
ATOM     24  H3  UNL     1     -88.564  -3.391  -2.900  1.00  0.00     0.244 HD
ENDBRANCH  13  23
BRANCH  18  25
HETATM   25  C15 UNL     1     -87.807  -4.485   4.137  1.00  0.00     0.134 C 
HETATM   26  C16 UNL     1     -88.119  -3.087   4.532  1.00  0.00     0.040 C 
BRANCH  25  27
HETATM   27  O4  UNL     1     -86.434  -4.645   3.987  1.00  0.00    -0.395 OA
ATOM     28  H4  UNL     1     -86.275  -5.382   3.409  1.00  0.00     0.210 HD
ENDBRANCH  25  27
ENDBRANCH  18  25
BRANCH   1  29
HETATM   29  O1  UNL     1     -87.834  -6.949   3.991  1.00  0.00    -0.359 OA
HETATM   30  C1  UNL     1     -88.213  -8.192   4.462  1.00  0.00     0.205 C 
ENDBRANCH   1  29
TORSDOF 4
ENDMDL
