MODEL 1
REMARK VINA RESULT: -9.046927916      0.000      0.000
REMARK  5 active torsions:
REMARK  status: ('A' for Active; 'I' for Inactive)
REMARK    1  A    between atoms: O1_2  and  C2_3 
REMARK    2  A    between atoms: C4_6  and  O2_7 
REMARK    3  A    between atoms: C5_9  and  O3_10 
REMARK    4  A    between atoms: C10_17  and  C11_18 
REMARK    5  A    between atoms: C12_19  and  C14_21 
ROOT
HETATM    1  C2  UNL     1     -90.190   0.832   4.818  1.00  0.00     0.102 A 
HETATM    2  C3  UNL     1     -89.555   1.573   5.826  1.00  0.00     0.103 A 
HETATM    3 CL1  UNL     1     -90.285   3.085   6.278  1.00  0.00    -0.078 Cl
HETATM    4  C4  UNL     1     -88.402   1.098   6.417  1.00  0.00     0.124 A 
HETATM    5  C5  UNL     1     -87.848  -0.105   6.037  1.00  0.00     0.107 A 
HETATM    6  C6  UNL     1     -88.467  -0.838   5.046  1.00  0.00    -0.009 A 
HETATM    7  C7  UNL     1     -89.652  -0.357   4.432  1.00  0.00     0.022 A 
HETATM    8  C8  UNL     1     -90.136  -1.241   3.375  1.00  0.00     0.105 C 
HETATM    9  C9  UNL     1     -91.393  -0.949   2.670  1.00  0.00     0.053 C 
HETATM   10  O4  UNL     1     -89.137  -1.182   2.373  1.00  0.00    -0.364 OA
HETATM   11  C10 UNL     1     -88.406  -2.322   2.378  1.00  0.00     0.152 C 
HETATM   12  C15 UNL     1     -88.634  -2.970   3.735  1.00  0.00     0.044 C 
HETATM   13  C16 UNL     1     -87.825  -2.114   4.708  1.00  0.00     0.051 C 
HETATM   14  C17 UNL     1     -90.094  -2.646   3.951  1.00  0.00     0.128 C 
HETATM   15 CL2  UNL     1     -91.225  -3.761   3.236  1.00  0.00    -0.121 Cl
ENDROOT
BRANCH  11  16
HETATM   16  C11 UNL     1     -88.746  -3.193   1.260  1.00  0.00     0.019 C 
HETATM   17  C12 UNL     1     -87.874  -3.860   0.557  1.00  0.00     0.013 C 
HETATM   18  C13 UNL     1     -88.362  -4.732  -0.583  1.00  0.00     0.055 C 
BRANCH  17  19
HETATM   19  C14 UNL     1     -86.455  -3.834   0.793  1.00  0.00     0.204 C 
HETATM   20  O5  UNL     1     -85.597  -3.179   0.158  1.00  0.00    -0.644 OA
HETATM   21  O6  UNL     1     -85.933  -4.619   1.846  1.00  0.00    -0.644 OA
ENDBRANCH  17  19
ENDBRANCH  11  16
BRANCH   1  22
HETATM   22  O1  UNL     1     -91.317   1.358   4.285  1.00  0.00    -0.353 OA
HETATM   23  C1  UNL     1     -92.545   1.535   4.980  1.00  0.00     0.210 C 
ENDBRANCH   1  22
BRANCH   5  24
HETATM   24  O3  UNL     1     -86.675  -0.551   6.664  1.00  0.00    -0.357 OA
ATOM     25  H3  UNL     1     -86.663  -0.658   7.608  1.00  0.00     0.217 HD
ENDBRANCH   5  24
BRANCH   4  26
HETATM   26  O2  UNL     1     -87.807   1.871   7.415  1.00  0.00    -0.356 OA
ATOM     27  H2  UNL     1     -87.027   2.365   7.192  1.00  0.00     0.218 HD
ENDBRANCH   4  26
TORSDOF 5
ENDMDL
MODEL 2
REMARK VINA RESULT: -8.824072885      2.726      3.623
REMARK  5 active torsions:
REMARK  status: ('A' for Active; 'I' for Inactive)
REMARK    1  A    between atoms: O1_2  and  C2_3 
REMARK    2  A    between atoms: C4_6  and  O2_7 
REMARK    3  A    between atoms: C5_9  and  O3_10 
REMARK    4  A    between atoms: C10_17  and  C11_18 
REMARK    5  A    between atoms: C12_19  and  C14_21 
ROOT
HETATM    1  C2  UNL     1     -89.922   0.349   4.797  1.00  0.00     0.102 A 
HETATM    2  C3  UNL     1     -88.688   0.159   5.438  1.00  0.00     0.103 A 
HETATM    3 CL1  UNL     1     -88.036   1.511   6.317  1.00  0.00    -0.078 Cl
HETATM    4  C4  UNL     1     -88.043  -1.058   5.358  1.00  0.00     0.124 A 
HETATM    5  C5  UNL     1     -88.587  -2.109   4.653  1.00  0.00     0.107 A 
HETATM    6  C6  UNL     1     -89.800  -1.929   4.021  1.00  0.00    -0.009 A 
HETATM    7  C7  UNL     1     -90.469  -0.681   4.097  1.00  0.00     0.022 A 
HETATM    8  C8  UNL     1     -91.711  -0.663   3.328  1.00  0.00     0.105 C 
HETATM    9  C9  UNL     1     -92.584   0.520   3.342  1.00  0.00     0.053 C 
HETATM   10  O4  UNL     1     -91.300  -0.793   1.978  1.00  0.00    -0.364 OA
HETATM   11  C10 UNL     1     -91.563  -2.043   1.531  1.00  0.00     0.152 C 
HETATM   12  C15 UNL     1     -91.737  -2.912   2.767  1.00  0.00     0.044 C 
HETATM   13  C16 UNL     1     -90.319  -3.100   3.303  1.00  0.00     0.051 C 
HETATM   14  C17 UNL     1     -92.445  -1.944   3.685  1.00  0.00     0.128 C 
HETATM   15 CL2  UNL     1     -94.176  -1.865   3.505  1.00  0.00    -0.121 Cl
ENDROOT
BRANCH  11  16
HETATM   16  C11 UNL     1     -92.717  -2.072   0.641  1.00  0.00     0.019 C 
HETATM   17  C12 UNL     1     -93.100  -3.120  -0.032  1.00  0.00     0.013 C 
HETATM   18  C13 UNL     1     -94.320  -3.015  -0.925  1.00  0.00     0.055 C 
BRANCH  17  19
HETATM   19  C14 UNL     1     -92.440  -4.398   0.017  1.00  0.00     0.204 C 
HETATM   20  O5  UNL     1     -91.350  -4.704  -0.519  1.00  0.00    -0.644 OA
HETATM   21  O6  UNL     1     -93.054  -5.446   0.738  1.00  0.00    -0.644 OA
ENDBRANCH  17  19
ENDBRANCH  11  16
BRANCH   1  22
HETATM   22  O1  UNL     1     -90.498   1.567   4.920  1.00  0.00    -0.353 OA
HETATM   23  C1  UNL     1     -91.259   2.003   6.040  1.00  0.00     0.210 C 
ENDBRANCH   1  22
BRANCH   5  24
HETATM   24  O3  UNL     1     -87.898  -3.330   4.598  1.00  0.00    -0.357 OA
ATOM     25  H3  UNL     1     -87.776  -3.758   3.759  1.00  0.00     0.217 HD
ENDBRANCH   5  24
BRANCH   4  26
HETATM   26  O2  UNL     1     -86.818  -1.197   6.012  1.00  0.00    -0.356 OA
ATOM     27  H2  UNL     1     -86.709  -0.770   6.853  1.00  0.00     0.218 HD
ENDBRANCH   4  26
TORSDOF 5
ENDMDL
MODEL 3
REMARK VINA RESULT: -8.729411548      4.619      8.107
REMARK  5 active torsions:
REMARK  status: ('A' for Active; 'I' for Inactive)
REMARK    1  A    between atoms: O1_2  and  C2_3 
REMARK    2  A    between atoms: C4_6  and  O2_7 
REMARK    3  A    between atoms: C5_9  and  O3_10 
REMARK    4  A    between atoms: C10_17  and  C11_18 
REMARK    5  A    between atoms: C12_19  and  C14_21 
ROOT
HETATM    1  C2  UNL     1     -86.507  -5.991  -1.498  1.00  0.00     0.102 A 
HETATM    2  C3  UNL     1     -86.109  -7.308  -1.226  1.00  0.00     0.103 A 
HETATM    3 CL1  UNL     1     -85.489  -8.239  -2.558  1.00  0.00    -0.078 Cl
HETATM    4  C4  UNL     1     -86.215  -7.817   0.052  1.00  0.00     0.124 A 
HETATM    5  C5  UNL     1     -86.710  -7.053   1.086  1.00  0.00     0.107 A 
HETATM    6  C6  UNL     1     -87.104  -5.757   0.825  1.00  0.00    -0.009 A 
HETATM    7  C7  UNL     1     -87.000  -5.227  -0.486  1.00  0.00     0.022 A 
HETATM    8  C8  UNL     1     -87.508  -3.860  -0.580  1.00  0.00     0.105 C 
HETATM    9  C9  UNL     1     -87.419  -3.113  -1.843  1.00  0.00     0.053 C 
HETATM   10  O4  UNL     1     -88.897  -3.976  -0.325  1.00  0.00    -0.364 OA
HETATM   11  C10 UNL     1     -89.179  -3.520   0.918  1.00  0.00     0.152 C 
HETATM   12  C15 UNL     1     -87.866  -3.529   1.686  1.00  0.00     0.044 C 
HETATM   13  C16 UNL     1     -87.607  -5.005   1.981  1.00  0.00     0.051 C 
HETATM   14  C17 UNL     1     -86.910  -3.107   0.596  1.00  0.00     0.128 C 
HETATM   15 CL2  UNL     1     -86.751  -1.390   0.356  1.00  0.00    -0.121 Cl
ENDROOT
BRANCH  11  16
HETATM   16  C11 UNL     1     -89.820  -2.211   0.887  1.00  0.00     0.019 C 
HETATM   17  C12 UNL     1     -91.104  -2.019   0.992  1.00  0.00     0.013 C 
HETATM   18  C13 UNL     1     -91.642  -0.602   0.945  1.00  0.00     0.055 C 
BRANCH  17  19
HETATM   19  C14 UNL     1     -92.069  -3.073   1.162  1.00  0.00     0.204 C 
HETATM   20  O5  UNL     1     -92.495  -3.538   2.244  1.00  0.00    -0.644 OA
HETATM   21  O6  UNL     1     -92.619  -3.675   0.008  1.00  0.00    -0.644 OA
ENDBRANCH  17  19
ENDBRANCH  11  16
BRANCH   1  22
HETATM   22  O1  UNL     1     -86.374  -5.558  -2.773  1.00  0.00    -0.353 OA
HETATM   23  C1  UNL     1     -87.188  -5.967  -3.865  1.00  0.00     0.210 C 
ENDBRANCH   1  22
BRANCH   5  24
HETATM   24  O3  UNL     1     -86.800  -7.610   2.370  1.00  0.00    -0.357 OA
ATOM     25  H3  UNL     1     -86.558  -7.084   3.124  1.00  0.00     0.217 HD
ENDBRANCH   5  24
BRANCH   4  26
HETATM   26  O2  UNL     1     -85.805  -9.134   0.272  1.00  0.00    -0.356 OA
ATOM     27  H2  UNL     1     -86.300  -9.831  -0.142  1.00  0.00     0.218 HD
ENDBRANCH   4  26
TORSDOF 5
ENDMDL
MODEL 4
REMARK VINA RESULT: -8.595688538      5.809      8.399
REMARK  5 active torsions:
REMARK  status: ('A' for Active; 'I' for Inactive)
REMARK    1  A    between atoms: O1_2  and  C2_3 
REMARK    2  A    between atoms: C4_6  and  O2_7 
REMARK    3  A    between atoms: C5_9  and  O3_10 
REMARK    4  A    between atoms: C10_17  and  C11_18 
REMARK    5  A    between atoms: C12_19  and  C14_21 
ROOT
HETATM    1  C2  UNL     1     -87.388  -5.636  -1.480  1.00  0.00     0.102 A 
HETATM    2  C3  UNL     1     -86.420  -6.375  -2.176  1.00  0.00     0.103 A 
HETATM    3 CL1  UNL     1     -85.964  -5.796  -3.752  1.00  0.00    -0.078 Cl
HETATM    4  C4  UNL     1     -85.869  -7.506  -1.610  1.00  0.00     0.124 A 
HETATM    5  C5  UNL     1     -86.252  -7.938  -0.359  1.00  0.00     0.107 A 
HETATM    6  C6  UNL     1     -87.204  -7.216   0.330  1.00  0.00    -0.009 A 
HETATM    7  C7  UNL     1     -87.776  -6.052  -0.244  1.00  0.00     0.022 A 
HETATM    8  C8  UNL     1     -88.797  -5.450   0.609  1.00  0.00     0.105 C 
HETATM    9  C9  UNL     1     -89.455  -4.194   0.218  1.00  0.00     0.053 C 
HETATM   10  O4  UNL     1     -89.841  -6.407   0.650  1.00  0.00    -0.364 OA
HETATM   11  C10 UNL     1     -89.847  -7.036   1.848  1.00  0.00     0.152 C 
HETATM   12  C15 UNL     1     -88.471  -6.811   2.456  1.00  0.00     0.044 C 
HETATM   13  C16 UNL     1     -87.547  -7.732   1.661  1.00  0.00     0.051 C 
HETATM   14  C17 UNL     1     -88.201  -5.396   2.005  1.00  0.00     0.128 C 
HETATM   15 CL2  UNL     1     -88.850  -4.143   3.026  1.00  0.00    -0.121 Cl
ENDROOT
BRANCH  11  16
HETATM   16  C11 UNL     1     -90.936  -6.576   2.701  1.00  0.00     0.019 C 
HETATM   17  C12 UNL     1     -91.339  -7.194   3.775  1.00  0.00     0.013 C 
HETATM   18  C13 UNL     1     -92.485  -6.607   4.574  1.00  0.00     0.055 C 
BRANCH  17  19
HETATM   19  C14 UNL     1     -90.760  -8.414   4.272  1.00  0.00     0.204 C 
HETATM   20  O5  UNL     1     -91.048  -9.582   3.925  1.00  0.00    -0.644 OA
HETATM   21  O6  UNL     1     -89.752  -8.327   5.259  1.00  0.00    -0.644 OA
ENDBRANCH  17  19
ENDBRANCH  11  16
BRANCH   1  22
HETATM   22  O1  UNL     1     -87.883  -4.537  -2.094  1.00  0.00    -0.353 OA
HETATM   23  C1  UNL     1     -87.237  -3.271  -2.151  1.00  0.00     0.210 C 
ENDBRANCH   1  22
BRANCH   5  24
HETATM   24  O3  UNL     1     -85.666  -9.094   0.179  1.00  0.00    -0.357 OA
ATOM     25  H3  UNL     1     -86.161  -9.623   0.793  1.00  0.00     0.217 HD
ENDBRANCH   5  24
BRANCH   4  26
HETATM   26  O2  UNL     1     -84.910  -8.207  -2.343  1.00  0.00    -0.356 OA
ATOM     27  H2  UNL     1     -84.629  -9.054  -2.017  1.00  0.00     0.218 HD
ENDBRANCH   4  26
TORSDOF 5
ENDMDL
MODEL 5
REMARK VINA RESULT: -8.529595713      1.362      1.565
REMARK  5 active torsions:
REMARK  status: ('A' for Active; 'I' for Inactive)
REMARK    1  A    between atoms: O1_2  and  C2_3 
REMARK    2  A    between atoms: C4_6  and  O2_7 
REMARK    3  A    between atoms: C5_9  and  O3_10 
REMARK    4  A    between atoms: C10_17  and  C11_18 
REMARK    5  A    between atoms: C12_19  and  C14_21 
ROOT
HETATM    1  C2  UNL     1     -90.964  -0.414   4.057  1.00  0.00     0.102 A 
HETATM    2  C3  UNL     1     -90.612   0.720   4.803  1.00  0.00     0.103 A 
HETATM    3 CL1  UNL     1     -91.812   1.970   4.960  1.00  0.00    -0.078 Cl
HETATM    4  C4  UNL     1     -89.361   0.814   5.378  1.00  0.00     0.124 A 
HETATM    5  C5  UNL     1     -88.433  -0.194   5.236  1.00  0.00     0.107 A 
HETATM    6  C6  UNL     1     -88.773  -1.312   4.503  1.00  0.00    -0.009 A 
HETATM    7  C7  UNL     1     -90.056  -1.416   3.908  1.00  0.00     0.022 A 
HETATM    8  C8  UNL     1     -90.218  -2.644   3.133  1.00  0.00     0.105 C 
HETATM    9  C9  UNL     1     -91.504  -2.966   2.499  1.00  0.00     0.053 C 
HETATM   10  O4  UNL     1     -89.307  -2.510   2.055  1.00  0.00    -0.364 OA
HETATM   11  C10 UNL     1     -88.231  -3.306   2.255  1.00  0.00     0.152 C 
HETATM   12  C15 UNL     1     -88.212  -3.635   3.741  1.00  0.00     0.044 C 
HETATM   13  C16 UNL     1     -87.735  -2.346   4.410  1.00  0.00     0.051 C 
HETATM   14  C17 UNL     1     -89.692  -3.767   4.010  1.00  0.00     0.128 C 
HETATM   15 CL2  UNL     1     -90.381  -5.332   3.679  1.00  0.00    -0.121 Cl
ENDROOT
BRANCH  11  16
HETATM   16  C11 UNL     1     -88.262  -4.490   1.405  1.00  0.00     0.019 C 
HETATM   17  C12 UNL     1     -87.202  -5.131   1.000  1.00  0.00     0.013 C 
HETATM   18  C13 UNL     1     -87.375  -6.351   0.116  1.00  0.00     0.055 C 
BRANCH  17  19
HETATM   19  C14 UNL     1     -85.854  -4.764   1.344  1.00  0.00     0.204 C 
HETATM   20  O5  UNL     1     -85.117  -3.951   0.740  1.00  0.00    -0.644 OA
HETATM   21  O6  UNL     1     -85.261  -5.363   2.478  1.00  0.00    -0.644 OA
ENDBRANCH  17  19
ENDBRANCH  11  16
BRANCH   1  22
HETATM   22  O1  UNL     1     -92.207  -0.438   3.524  1.00  0.00    -0.353 OA
HETATM   23  C1  UNL     1     -92.586   0.183   2.302  1.00  0.00     0.210 C 
ENDBRANCH   1  22
BRANCH   5  24
HETATM   24  O3  UNL     1     -87.173  -0.059   5.838  1.00  0.00    -0.357 OA
ATOM     25  H3  UNL     1     -86.594  -0.811   5.880  1.00  0.00     0.217 HD
ENDBRANCH   5  24
BRANCH   4  26
HETATM   26  O2  UNL     1     -89.058   1.962   6.111  1.00  0.00    -0.356 OA
ATOM     27  H2  UNL     1     -89.680   2.680   6.095  1.00  0.00     0.218 HD
ENDBRANCH   4  26
TORSDOF 5
ENDMDL
