MODEL 1
REMARK VINA RESULT: -6.853023424      0.000      0.000
REMARK  11 active torsions:
REMARK  status: ('A' for Active; 'I' for Inactive)
REMARK    1  A    between atoms: C2_2  and  O1_3 
REMARK    2  A    between atoms: O1_3  and  C3_4 
REMARK    3  A    between atoms: C3_4  and  C4_6 
REMARK    4  A    between atoms: C4_6  and  C5_7 
REMARK    5  A    between atoms: C5_7  and  C6_8 
REMARK    6  A    between atoms: C6_8  and  N1_9 
REMARK    7  A    between atoms: C6_8  and  C7_13 
REMARK    8  A    between atoms: C6_8  and  C9_17 
REMARK    9  A    between atoms: C7_13  and  O4_15 
REMARK   10  A    between atoms: C9_17  and  C11_19 
REMARK   11  A    between atoms: C24_38  and  C25_39 
ROOT
HETATM    1  C11 UNL     1      34.594 -31.469 -18.162  1.00  0.00     0.183 C 
HETATM    2  O5  UNL     1      34.957 -31.671 -16.843  1.00  0.00    -0.309 OA
HETATM    3  C12 UNL     1      36.064 -31.399 -16.128  1.00  0.00     0.262 C 
HETATM    4  O6  UNL     1      36.039 -30.580 -15.154  1.00  0.00    -0.265 OA
HETATM    5  C13 UNL     1      37.384 -32.018 -16.404  1.00  0.00     0.138 C 
HETATM    6  C14 UNL     1      38.424 -31.569 -15.434  1.00  0.00    -0.019 C 
HETATM    7  C15 UNL     1      39.706 -31.413 -15.702  1.00  0.00     0.001 C 
HETATM    8  C16 UNL     1      40.340 -31.659 -17.027  1.00  0.00     0.150 C 
HETATM    9  C17 UNL     1      41.554 -32.551 -16.716  1.00  0.00     0.044 C 
HETATM   10  O7  UNL     1      40.894 -30.470 -17.562  1.00  0.00    -0.312 OA
HETATM   11  C18 UNL     1      40.786 -30.056 -18.874  1.00  0.00     0.262 C 
HETATM   12  O8  UNL     1      41.758 -29.679 -19.583  1.00  0.00    -0.265 OA
HETATM   13  C19 UNL     1      39.439 -30.050 -19.497  1.00  0.00     0.138 C 
HETATM   14  C20 UNL     1      39.287 -31.273 -20.332  1.00  0.00    -0.019 C 
HETATM   15  C21 UNL     1      38.150 -31.821 -20.688  1.00  0.00    -0.006 C 
HETATM   16  C22 UNL     1      36.789 -31.289 -20.300  1.00  0.00     0.100 C 
HETATM   17  C23 UNL     1      36.240 -30.658 -21.563  1.00  0.00     0.036 C 
HETATM   18  N2  UNL     1      36.020 -32.393 -19.927  1.00  0.00    -0.387 N 
ATOM     19  H2  UNL     1      36.236 -33.242 -20.450  1.00  0.00     0.159 HD
HETATM   20  C24 UNL     1      35.116 -32.544 -19.074  1.00  0.00     0.013 C 
ENDROOT
BRANCH   1  21
HETATM   21  C9  UNL     1      33.065 -31.462 -18.322  1.00  0.00     0.063 C 
HETATM   22  C10 UNL     1      32.736 -31.090 -19.737  1.00  0.00     0.016 C 
BRANCH  21  23
HETATM   23  C6  UNL     1      32.390 -30.556 -17.301  1.00  0.00     0.216 C 
BRANCH  23  24
HETATM   24  C5  UNL     1      32.814 -29.135 -17.363  1.00  0.00     0.059 C 
BRANCH  24  25
HETATM   25  C4  UNL     1      33.329 -28.524 -16.098  1.00  0.00     0.114 C 
BRANCH  25  26
HETATM   26  C3  UNL     1      33.008 -27.113 -15.868  1.00  0.00     0.258 C 
HETATM   27  O2  UNL     1      31.944 -26.808 -15.279  1.00  0.00    -0.265 OA
BRANCH  26  28
HETATM   28  O1  UNL     1      33.838 -26.086 -16.279  1.00  0.00    -0.322 OA
BRANCH  28  29
HETATM   29  C2  UNL     1      35.186 -26.249 -16.643  1.00  0.00     0.174 C 
HETATM   30  C1  UNL     1      36.093 -25.142 -16.223  1.00  0.00     0.034 C 
ENDBRANCH  28  29
ENDBRANCH  26  28
ENDBRANCH  25  26
ENDBRANCH  24  25
ENDBRANCH  23  24
BRANCH  23  31
HETATM   31  N1  UNL     1      32.508 -31.198 -16.029  1.00  0.00    -0.060 N 
ATOM     32  H13 UNL     1      33.340 -31.788 -16.018  1.00  0.00     0.275 HD
ATOM     33  H12 UNL     1      32.758 -30.511 -15.319  1.00  0.00     0.275 HD
ATOM     34  H11 UNL     1      31.699 -31.737 -15.718  1.00  0.00     0.275 HD
ENDBRANCH  23  31
BRANCH  23  35
HETATM   35  C7  UNL     1      30.913 -30.669 -17.680  1.00  0.00     0.295 C 
HETATM   36  O3  UNL     1      30.275 -31.732 -17.480  1.00  0.00    -0.262 OA
BRANCH  35  37
HETATM   37  O4  UNL     1      30.220 -29.621 -18.254  1.00  0.00    -0.325 OA
HETATM   38  C8  UNL     1      28.957 -29.752 -18.852  1.00  0.00     0.213 C 
ENDBRANCH  35  37
ENDBRANCH  23  35
ENDBRANCH  21  23
ENDBRANCH   1  21
BRANCH  20  39
HETATM   39  C25 UNL     1      34.497 -33.895 -18.967  1.00  0.00     0.050 C 
HETATM   40  C26 UNL     1      34.246 -34.542 -20.312  1.00  0.00     0.011 C 
ENDBRANCH  20  39
TORSDOF 11
ENDMDL
MODEL 2
REMARK VINA RESULT: -6.711264623     12.987     16.676
REMARK  11 active torsions:
REMARK  status: ('A' for Active; 'I' for Inactive)
REMARK    1  A    between atoms: C2_2  and  O1_3 
REMARK    2  A    between atoms: O1_3  and  C3_4 
REMARK    3  A    between atoms: C3_4  and  C4_6 
REMARK    4  A    between atoms: C4_6  and  C5_7 
REMARK    5  A    between atoms: C5_7  and  C6_8 
REMARK    6  A    between atoms: C6_8  and  N1_9 
REMARK    7  A    between atoms: C6_8  and  C7_13 
REMARK    8  A    between atoms: C6_8  and  C9_17 
REMARK    9  A    between atoms: C7_13  and  O4_15 
REMARK   10  A    between atoms: C9_17  and  C11_19 
REMARK   11  A    between atoms: C24_38  and  C25_39 
ROOT
HETATM    1  C11 UNL     1      27.793 -32.649  -6.033  1.00  0.00     0.183 C 
HETATM    2  O5  UNL     1      28.247 -32.939  -4.759  1.00  0.00    -0.309 OA
HETATM    3  C12 UNL     1      27.668 -33.446  -3.655  1.00  0.00     0.262 C 
HETATM    4  O6  UNL     1      28.035 -34.563  -3.169  1.00  0.00    -0.265 OA
HETATM    5  C13 UNL     1      26.575 -32.761  -2.921  1.00  0.00     0.138 C 
HETATM    6  C14 UNL     1      26.150 -33.527  -1.714  1.00  0.00    -0.019 C 
HETATM    7  C15 UNL     1      24.926 -33.568  -1.224  1.00  0.00     0.001 C 
HETATM    8  C16 UNL     1      23.751 -32.852  -1.795  1.00  0.00     0.150 C 
HETATM    9  C17 UNL     1      23.118 -32.127  -0.594  1.00  0.00     0.044 C 
HETATM   10  O7  UNL     1      22.756 -33.761  -2.232  1.00  0.00    -0.312 OA
HETATM   11  C18 UNL     1      22.053 -33.670  -3.416  1.00  0.00     0.262 C 
HETATM   12  O8  UNL     1      20.799 -33.757  -3.505  1.00  0.00    -0.265 OA
HETATM   13  C19 UNL     1      22.818 -33.456  -4.669  1.00  0.00     0.138 C 
HETATM   14  C20 UNL     1      22.756 -32.014  -5.034  1.00  0.00    -0.019 C 
HETATM   15  C21 UNL     1      23.611 -31.380  -5.800  1.00  0.00    -0.006 C 
HETATM   16  C22 UNL     1      24.816 -32.025  -6.446  1.00  0.00     0.100 C 
HETATM   17  C23 UNL     1      24.452 -32.156  -7.911  1.00  0.00     0.036 C 
HETATM   18  N2  UNL     1      25.881 -31.137  -6.282  1.00  0.00    -0.387 N 
ATOM     19  H2  UNL     1      25.606 -30.155  -6.306  1.00  0.00     0.159 HD
HETATM   20  C24 UNL     1      27.109 -31.313  -6.110  1.00  0.00     0.013 C 
ENDROOT
BRANCH   1  21
HETATM   21  C9  UNL     1      28.954 -32.606  -7.040  1.00  0.00     0.063 C 
HETATM   22  C10 UNL     1      28.399 -32.270  -8.392  1.00  0.00     0.016 C 
BRANCH  21  23
HETATM   23  C6  UNL     1      29.759 -33.899  -7.036  1.00  0.00     0.216 C 
BRANCH  23  24
HETATM   24  C5  UNL     1      30.512 -34.160  -8.288  1.00  0.00     0.059 C 
BRANCH  24  25
HETATM   25  C4  UNL     1      31.921 -34.643  -8.144  1.00  0.00     0.114 C 
BRANCH  25  26
HETATM   26  C3  UNL     1      32.863 -34.254  -9.197  1.00  0.00     0.258 C 
HETATM   27  O2  UNL     1      32.449 -34.091 -10.369  1.00  0.00    -0.265 OA
BRANCH  26  28
HETATM   28  O1  UNL     1      34.210 -34.059  -8.953  1.00  0.00    -0.322 OA
BRANCH  28  29
HETATM   29  C2  UNL     1      35.073 -33.332  -9.791  1.00  0.00     0.174 C 
HETATM   30  C1  UNL     1      36.189 -32.630  -9.094  1.00  0.00     0.034 C 
ENDBRANCH  28  29
ENDBRANCH  26  28
ENDBRANCH  25  26
ENDBRANCH  24  25
ENDBRANCH  23  24
BRANCH  23  31
HETATM   31  N1  UNL     1      28.880 -34.937  -6.596  1.00  0.00    -0.060 N 
ATOM     32  H13 UNL     1      28.317 -35.265  -7.379  1.00  0.00     0.275 HD
ATOM     33  H12 UNL     1      29.418 -35.778  -6.389  1.00  0.00     0.275 HD
ATOM     34  H11 UNL     1      28.275 -34.713  -5.806  1.00  0.00     0.275 HD
ENDBRANCH  23  31
BRANCH  23  35
HETATM   35  C7  UNL     1      30.738 -33.677  -5.883  1.00  0.00     0.295 C 
HETATM   36  O3  UNL     1      31.264 -32.553  -5.690  1.00  0.00    -0.262 OA
BRANCH  35  37
HETATM   37  O4  UNL     1      31.087 -34.689  -5.010  1.00  0.00    -0.325 OA
HETATM   38  C8  UNL     1      32.402 -34.938  -4.586  1.00  0.00     0.213 C 
ENDBRANCH  35  37
ENDBRANCH  23  35
ENDBRANCH  21  23
ENDBRANCH   1  21
BRANCH  20  39
HETATM   39  C25 UNL     1      27.961 -30.097  -5.989  1.00  0.00     0.050 C 
HETATM   40  C26 UNL     1      27.542 -28.981  -6.921  1.00  0.00     0.011 C 
ENDBRANCH  20  39
TORSDOF 11
ENDMDL
MODEL 3
REMARK VINA RESULT: -6.616811763      2.324      7.646
REMARK  11 active torsions:
REMARK  status: ('A' for Active; 'I' for Inactive)
REMARK    1  A    between atoms: C2_2  and  O1_3 
REMARK    2  A    between atoms: O1_3  and  C3_4 
REMARK    3  A    between atoms: C3_4  and  C4_6 
REMARK    4  A    between atoms: C4_6  and  C5_7 
REMARK    5  A    between atoms: C5_7  and  C6_8 
REMARK    6  A    between atoms: C6_8  and  N1_9 
REMARK    7  A    between atoms: C6_8  and  C7_13 
REMARK    8  A    between atoms: C6_8  and  C9_17 
REMARK    9  A    between atoms: C7_13  and  O4_15 
REMARK   10  A    between atoms: C9_17  and  C11_19 
REMARK   11  A    between atoms: C24_38  and  C25_39 
ROOT
HETATM    1  C11 UNL     1      37.685 -31.858 -17.990  1.00  0.00     0.183 C 
HETATM    2  O5  UNL     1      37.256 -30.564 -17.757  1.00  0.00    -0.309 OA
HETATM    3  C12 UNL     1      36.147 -30.032 -17.212  1.00  0.00     0.262 C 
HETATM    4  O6  UNL     1      36.198 -29.350 -16.138  1.00  0.00    -0.265 OA
HETATM    5  C13 UNL     1      34.794 -30.188 -17.802  1.00  0.00     0.138 C 
HETATM    6  C14 UNL     1      33.755 -29.463 -17.014  1.00  0.00    -0.019 C 
HETATM    7  C15 UNL     1      32.501 -29.844 -16.867  1.00  0.00     0.001 C 
HETATM    8  C16 UNL     1      31.902 -31.068 -17.466  1.00  0.00     0.150 C 
HETATM    9  C17 UNL     1      30.611 -30.577 -18.143  1.00  0.00     0.044 C 
HETATM   10  O7  UNL     1      31.463 -31.969 -16.464  1.00  0.00    -0.312 OA
HETATM   11  C18 UNL     1      31.654 -33.336 -16.478  1.00  0.00     0.262 C 
HETATM   12  O8  UNL     1      30.743 -34.183 -16.275  1.00  0.00    -0.265 OA
HETATM   13  C19 UNL     1      33.020 -33.849 -16.746  1.00  0.00     0.138 C 
HETATM   14  C20 UNL     1      33.109 -34.266 -18.173  1.00  0.00    -0.019 C 
HETATM   15  C21 UNL     1      34.212 -34.371 -18.873  1.00  0.00    -0.006 C 
HETATM   16  C22 UNL     1      35.594 -34.079 -18.334  1.00  0.00     0.100 C 
HETATM   17  C23 UNL     1      36.239 -35.438 -18.154  1.00  0.00     0.036 C 
HETATM   18  N2  UNL     1      36.261 -33.345 -19.318  1.00  0.00    -0.387 N 
ATOM     19  H2  UNL     1      35.999 -33.600 -20.270  1.00  0.00     0.159 HD
HETATM   20  C24 UNL     1      37.116 -32.433 -19.257  1.00  0.00     0.013 C 
ENDROOT
BRANCH   1  21
HETATM   21  C9  UNL     1      39.215 -31.920 -18.129  1.00  0.00     0.063 C 
HETATM   22  C10 UNL     1      39.618 -33.352 -18.316  1.00  0.00     0.016 C 
BRANCH  21  23
HETATM   23  C6  UNL     1      39.919 -31.257 -16.952  1.00  0.00     0.216 C 
BRANCH  23  24
HETATM   24  C5  UNL     1      39.506 -31.766 -15.620  1.00  0.00     0.059 C 
BRANCH  24  25
HETATM   25  C4  UNL     1      39.166 -30.747 -14.579  1.00  0.00     0.114 C 
BRANCH  25  26
HETATM   26  C3  UNL     1      38.213 -31.154 -13.543  1.00  0.00     0.258 C 
HETATM   27  O2  UNL     1      36.991 -31.220 -13.817  1.00  0.00    -0.265 OA
BRANCH  26  28
HETATM   28  O1  UNL     1      38.606 -31.470 -12.256  1.00  0.00    -0.322 OA
BRANCH  28  29
HETATM   29  C2  UNL     1      39.929 -31.748 -11.873  1.00  0.00     0.174 C 
HETATM   30  C1  UNL     1      40.586 -30.690 -11.052  1.00  0.00     0.034 C 
ENDBRANCH  28  29
ENDBRANCH  26  28
ENDBRANCH  25  26
ENDBRANCH  24  25
ENDBRANCH  23  24
BRANCH  23  31
HETATM   31  N1  UNL     1      39.823 -29.845 -17.149  1.00  0.00    -0.060 N 
ATOM     32  H13 UNL     1      38.881 -29.603 -17.454  1.00  0.00     0.275 HD
ATOM     33  H12 UNL     1      39.853 -29.369 -16.247  1.00  0.00     0.275 HD
ATOM     34  H11 UNL     1      40.508 -29.428 -17.780  1.00  0.00     0.275 HD
ENDBRANCH  23  31
BRANCH  23  35
HETATM   35  C7  UNL     1      41.386 -31.606 -17.203  1.00  0.00     0.295 C 
HETATM   36  O3  UNL     1      41.966 -32.485 -16.519  1.00  0.00    -0.262 OA
BRANCH  35  37
HETATM   37  O4  UNL     1      42.134 -30.979 -18.182  1.00  0.00    -0.325 OA
HETATM   38  C8  UNL     1      43.318 -30.271 -17.927  1.00  0.00     0.213 C 
ENDBRANCH  35  37
ENDBRANCH  23  35
ENDBRANCH  21  23
ENDBRANCH   1  21
BRANCH  20  39
HETATM   39  C25 UNL     1      37.624 -31.887 -20.547  1.00  0.00     0.050 C 
HETATM   40  C26 UNL     1      36.588 -31.907 -21.651  1.00  0.00     0.011 C 
ENDBRANCH  20  39
TORSDOF 11
ENDMDL
MODEL 4
REMARK VINA RESULT: -6.570646542     15.143     18.566
REMARK  11 active torsions:
REMARK  status: ('A' for Active; 'I' for Inactive)
REMARK    1  A    between atoms: C2_2  and  O1_3 
REMARK    2  A    between atoms: O1_3  and  C3_4 
REMARK    3  A    between atoms: C3_4  and  C4_6 
REMARK    4  A    between atoms: C4_6  and  C5_7 
REMARK    5  A    between atoms: C5_7  and  C6_8 
REMARK    6  A    between atoms: C6_8  and  N1_9 
REMARK    7  A    between atoms: C6_8  and  C7_13 
REMARK    8  A    between atoms: C6_8  and  C9_17 
REMARK    9  A    between atoms: C7_13  and  O4_15 
REMARK   10  A    between atoms: C9_17  and  C11_19 
REMARK   11  A    between atoms: C24_38  and  C25_39 
ROOT
HETATM    1  C11 UNL     1      26.845 -33.076  -4.250  1.00  0.00     0.183 C 
HETATM    2  O5  UNL     1      26.400 -32.163  -3.311  1.00  0.00    -0.309 OA
HETATM    3  C12 UNL     1      25.259 -31.469  -3.151  1.00  0.00     0.262 C 
HETATM    4  O6  UNL     1      24.504 -31.658  -2.143  1.00  0.00    -0.265 OA
HETATM    5  C13 UNL     1      24.788 -30.443  -4.115  1.00  0.00     0.138 C 
HETATM    6  C14 UNL     1      23.516 -29.803  -3.670  1.00  0.00    -0.019 C 
HETATM    7  C15 UNL     1      22.562 -29.361  -4.466  1.00  0.00     0.001 C 
HETATM    8  C16 UNL     1      22.590 -29.424  -5.954  1.00  0.00     0.150 C 
HETATM    9  C17 UNL     1      22.233 -27.999  -6.409  1.00  0.00     0.044 C 
HETATM   10  O7  UNL     1      21.542 -30.235  -6.455  1.00  0.00    -0.312 OA
HETATM   11  C18 UNL     1      21.663 -31.166  -7.467  1.00  0.00     0.262 C 
HETATM   12  O8  UNL     1      20.892 -31.239  -8.461  1.00  0.00    -0.265 OA
HETATM   13  C19 UNL     1      22.773 -32.148  -7.384  1.00  0.00     0.138 C 
HETATM   14  C20 UNL     1      23.886 -31.697  -8.264  1.00  0.00    -0.019 C 
HETATM   15  C21 UNL     1      25.143 -32.048  -8.149  1.00  0.00    -0.006 C 
HETATM   16  C22 UNL     1      25.673 -32.983  -7.086  1.00  0.00     0.100 C 
HETATM   17  C23 UNL     1      25.956 -34.282  -7.812  1.00  0.00     0.036 C 
HETATM   18  N2  UNL     1      26.858 -32.418  -6.610  1.00  0.00    -0.387 N 
ATOM     19  H2  UNL     1      27.387 -31.911  -7.321  1.00  0.00     0.159 HD
HETATM   20  C24 UNL     1      27.398 -32.412  -5.481  1.00  0.00     0.013 C 
ENDROOT
BRANCH   1  21
HETATM   21  C9  UNL     1      27.973 -33.953  -3.682  1.00  0.00     0.063 C 
HETATM   22  C10 UNL     1      28.060 -35.205  -4.502  1.00  0.00     0.016 C 
BRANCH  21  23
HETATM   23  C6  UNL     1      27.782 -34.232  -2.197  1.00  0.00     0.216 C 
BRANCH  23  24
HETATM   24  C5  UNL     1      26.458 -34.804  -1.843  1.00  0.00     0.059 C 
BRANCH  24  25
HETATM   25  C4  UNL     1      25.953 -34.541  -0.459  1.00  0.00     0.114 C 
BRANCH  25  26
HETATM   26  C3  UNL     1      24.559 -34.898  -0.186  1.00  0.00     0.258 C 
HETATM   27  O2  UNL     1      24.266 -36.085   0.089  1.00  0.00    -0.265 OA
BRANCH  26  28
HETATM   28  O1  UNL     1      23.535 -33.969  -0.219  1.00  0.00    -0.322 OA
BRANCH  28  29
HETATM   29  C2  UNL     1      22.935 -33.403   0.919  1.00  0.00     0.174 C 
HETATM   30  C1  UNL     1      23.216 -31.954   1.128  1.00  0.00     0.034 C 
ENDBRANCH  28  29
ENDBRANCH  26  28
ENDBRANCH  25  26
ENDBRANCH  24  25
ENDBRANCH  23  24
BRANCH  23  31
HETATM   31  N1  UNL     1      28.170 -33.049  -1.496  1.00  0.00    -0.060 N 
ATOM     32  H13 UNL     1      29.032 -32.679  -1.896  1.00  0.00     0.275 HD
ATOM     33  H12 UNL     1      27.524 -32.291  -1.715  1.00  0.00     0.275 HD
ATOM     34  H11 UNL     1      28.269 -33.135  -0.484  1.00  0.00     0.275 HD
ENDBRANCH  23  31
BRANCH  23  35
HETATM   35  C7  UNL     1      28.878 -35.258  -1.908  1.00  0.00     0.295 C 
HETATM   36  O3  UNL     1      28.610 -36.481  -1.820  1.00  0.00    -0.262 OA
BRANCH  35  37
HETATM   37  O4  UNL     1      30.199 -34.891  -1.731  1.00  0.00    -0.325 OA
HETATM   38  C8  UNL     1      31.163 -34.927  -2.749  1.00  0.00     0.213 C 
ENDBRANCH  35  37
ENDBRANCH  23  35
ENDBRANCH  21  23
ENDBRANCH   1  21
BRANCH  20  39
HETATM   39  C25 UNL     1      28.702 -31.703  -5.351  1.00  0.00     0.050 C 
HETATM   40  C26 UNL     1      29.796 -32.309  -6.203  1.00  0.00     0.011 C 
ENDBRANCH  20  39
TORSDOF 11
ENDMDL
MODEL 5
REMARK VINA RESULT: -6.510409576      2.085      5.143
REMARK  11 active torsions:
REMARK  status: ('A' for Active; 'I' for Inactive)
REMARK    1  A    between atoms: C2_2  and  O1_3 
REMARK    2  A    between atoms: O1_3  and  C3_4 
REMARK    3  A    between atoms: C3_4  and  C4_6 
REMARK    4  A    between atoms: C4_6  and  C5_7 
REMARK    5  A    between atoms: C5_7  and  C6_8 
REMARK    6  A    between atoms: C6_8  and  N1_9 
REMARK    7  A    between atoms: C6_8  and  C7_13 
REMARK    8  A    between atoms: C6_8  and  C9_17 
REMARK    9  A    between atoms: C7_13  and  O4_15 
REMARK   10  A    between atoms: C9_17  and  C11_19 
REMARK   11  A    between atoms: C24_38  and  C25_39 
ROOT
HETATM    1  C11 UNL     1      35.000 -30.197 -17.728  1.00  0.00     0.183 C 
HETATM    2  O5  UNL     1      35.345 -29.969 -19.048  1.00  0.00    -0.309 OA
HETATM    3  C12 UNL     1      36.385 -30.339 -19.817  1.00  0.00     0.262 C 
HETATM    4  O6  UNL     1      36.224 -31.093 -20.830  1.00  0.00    -0.265 OA
HETATM    5  C13 UNL     1      37.782 -29.909 -19.560  1.00  0.00     0.138 C 
HETATM    6  C14 UNL     1      38.724 -30.432 -20.591  1.00  0.00    -0.019 C 
HETATM    7  C15 UNL     1      39.983 -30.764 -20.380  1.00  0.00     0.001 C 
HETATM    8  C16 UNL     1      40.685 -30.674 -19.069  1.00  0.00     0.150 C 
HETATM    9  C17 UNL     1      41.993 -29.927 -19.380  1.00  0.00     0.044 C 
HETATM   10  O7  UNL     1      41.098 -31.952 -18.617  1.00  0.00    -0.312 OA
HETATM   11  C18 UNL     1      40.977 -32.421 -17.324  1.00  0.00     0.262 C 
HETATM   12  O8  UNL     1      41.914 -32.956 -16.673  1.00  0.00    -0.265 OA
HETATM   13  C19 UNL     1      39.661 -32.290 -16.652  1.00  0.00     0.138 C 
HETATM   14  C20 UNL     1      39.694 -31.106 -15.750  1.00  0.00    -0.019 C 
HETATM   15  C21 UNL     1      38.649 -30.438 -15.324  1.00  0.00    -0.006 C 
HETATM   16  C22 UNL     1      37.219 -30.771 -15.687  1.00  0.00     0.100 C 
HETATM   17  C23 UNL     1      36.633 -31.397 -14.438  1.00  0.00     0.036 C 
HETATM   18  N2  UNL     1      36.587 -29.559 -15.974  1.00  0.00    -0.387 N 
ATOM     19  H2  UNL     1      36.927 -28.776 -15.416  1.00  0.00     0.159 HD
HETATM   20  C24 UNL     1      35.684 -29.249 -16.783  1.00  0.00     0.013 C 
ENDROOT
BRANCH   1  21
HETATM   21  C9  UNL     1      33.488 -30.018 -17.510  1.00  0.00     0.063 C 
HETATM   22  C10 UNL     1      33.175 -30.320 -16.075  1.00  0.00     0.016 C 
BRANCH  21  23
HETATM   23  C6  UNL     1      32.671 -30.858 -18.483  1.00  0.00     0.216 C 
BRANCH  23  24
HETATM   24  C5  UNL     1      33.069 -32.286 -18.549  1.00  0.00     0.059 C 
BRANCH  24  25
HETATM   25  C4  UNL     1      33.441 -32.826 -19.895  1.00  0.00     0.114 C 
BRANCH  25  26
HETATM   26  C3  UNL     1      34.096 -34.135 -19.923  1.00  0.00     0.258 C 
HETATM   27  O2  UNL     1      34.280 -34.713 -21.021  1.00  0.00    -0.265 OA
BRANCH  26  28
HETATM   28  O1  UNL     1      34.527 -34.775 -18.775  1.00  0.00    -0.322 OA
BRANCH  28  29
HETATM   29  C2  UNL     1      35.876 -34.962 -18.427  1.00  0.00     0.174 C 
HETATM   30  C1  UNL     1      36.669 -33.709 -18.272  1.00  0.00     0.034 C 
ENDBRANCH  28  29
ENDBRANCH  26  28
ENDBRANCH  25  26
ENDBRANCH  24  25
ENDBRANCH  23  24
BRANCH  23  31
HETATM   31  N1  UNL     1      32.640 -30.149 -19.724  1.00  0.00    -0.060 N 
ATOM     32  H13 UNL     1      33.588 -29.891 -19.996  1.00  0.00     0.275 HD
ATOM     33  H12 UNL     1      32.398 -30.790 -20.480  1.00  0.00     0.275 HD
ATOM     34  H11 UNL     1      32.035 -29.328 -19.761  1.00  0.00     0.275 HD
ENDBRANCH  23  31
BRANCH  23  35
HETATM   35  C7  UNL     1      31.257 -30.745 -17.913  1.00  0.00     0.295 C 
HETATM   36  O3  UNL     1      30.747 -31.689 -17.261  1.00  0.00    -0.262 OA
BRANCH  35  37
HETATM   37  O4  UNL     1      30.483 -29.613 -18.086  1.00  0.00    -0.325 OA
HETATM   38  C8  UNL     1      29.255 -29.602 -18.765  1.00  0.00     0.213 C 
ENDBRANCH  35  37
ENDBRANCH  23  35
ENDBRANCH  21  23
ENDBRANCH   1  21
BRANCH  20  39
HETATM   39  C25 UNL     1      35.241 -27.827 -16.797  1.00  0.00     0.050 C 
HETATM   40  C26 UNL     1      36.339 -26.864 -17.195  1.00  0.00     0.011 C 
ENDBRANCH  20  39
TORSDOF 11
ENDMDL
