MODEL 1
REMARK VINA RESULT: -10.015586359      0.000      0.000
REMARK  10 active torsions:
REMARK  status: ('A' for Active; 'I' for Inactive)
REMARK    1  A    between atoms: O1_2  and  C2_3 
REMARK    2  A    between atoms: C2_3  and  C3_4 
REMARK    3  A    between atoms: C3_4  and  O2_5 
REMARK    4  A    between atoms: O2_5  and  C4_6 
REMARK    5  A    between atoms: C4_6  and  C5_8 
REMARK    6  A    between atoms: C5_8  and  C6_9 
REMARK    7  A    between atoms: C7_10  and  C8_11 
REMARK    8  A    between atoms: N1_28  and  C22_29 
REMARK    9  A    between atoms: C22_29  and  C23_30 
REMARK   10  A    between atoms: C23_30  and  C24_31 
ROOT
HETATM    1  C8  UNL     1      27.992 -32.607  -4.991  1.00  0.00     0.007 C 
HETATM    2  C9  UNL     1      28.552 -33.704  -4.454  1.00  0.00    -0.046 C 
HETATM    3  C10 UNL     1      27.806 -34.487  -3.452  1.00  0.00     0.040 C 
HETATM    4  C11 UNL     1      28.730 -35.388  -2.692  1.00  0.00     0.010 C 
HETATM    5  C12 UNL     1      30.029 -34.645  -2.420  1.00  0.00     0.047 C 
HETATM    6  C13 UNL     1      30.695 -34.588  -3.780  1.00  0.00    -0.005 A 
HETATM    7  S1  UNL     1      32.170 -34.958  -4.461  1.00  0.00    -0.093 SA
HETATM    8  C14 UNL     1      31.840 -34.557  -6.099  1.00  0.00     0.018 A 
HETATM    9  C15 UNL     1      32.619 -34.620  -7.260  1.00  0.00     0.052 A 
HETATM   10  C16 UNL     1      32.099 -34.244  -8.474  1.00  0.00     0.075 A 
HETATM   11  C17 UNL     1      30.792 -33.815  -8.452  1.00  0.00     0.071 A 
HETATM   12  C18 UNL     1      30.014 -33.745  -7.322  1.00  0.00     0.033 A 
HETATM   13  C19 UNL     1      30.542 -34.130  -6.062  1.00  0.00    -0.006 A 
HETATM   14  C20 UNL     1      29.923 -34.137  -4.853  1.00  0.00    -0.005 A 
HETATM   15  C21 UNL     1      30.516 -33.502  -9.775  1.00  0.00     0.317 A 
HETATM   16  O4  UNL     1      29.414 -33.064 -10.204  1.00  0.00    -0.257 OA
HETATM   17  O5  UNL     1      31.601 -33.743 -10.479  1.00  0.00    -0.192 OA
HETATM   18  N1  UNL     1      32.558 -34.184  -9.737  1.00  0.00    -0.248 N 
ENDROOT
BRANCH   1  19
HETATM   19  C7  UNL     1      26.680 -32.156  -4.638  1.00  0.00    -0.003 C 
HETATM   20  C6  UNL     1      25.622 -32.492  -5.326  1.00  0.00    -0.017 C 
BRANCH  20  21
HETATM   21  C5  UNL     1      25.567 -33.347  -6.524  1.00  0.00     0.138 C 
BRANCH  21  22
HETATM   22  C4  UNL     1      24.642 -32.664  -7.495  1.00  0.00     0.262 C 
HETATM   23  O3  UNL     1      23.414 -32.563  -7.196  1.00  0.00    -0.265 OA
BRANCH  22  24
HETATM   24  O2  UNL     1      25.066 -32.146  -8.687  1.00  0.00    -0.316 OA
BRANCH  24  25
HETATM   25  C3  UNL     1      25.219 -30.797  -9.020  1.00  0.00     0.249 C 
BRANCH  25  26
HETATM   26  C2  UNL     1      26.360 -30.187  -8.277  1.00  0.00     0.208 A 
HETATM   27  C25 UNL     1      27.707 -30.635  -8.169  1.00  0.00     0.242 A 
HETATM   28  O8  UNL     1      27.375 -29.720  -9.201  1.00  0.00    -0.346 OA
BRANCH  26  29
HETATM   29  O1  UNL     1      25.961 -29.088  -7.473  1.00  0.00    -0.356 OA
HETATM   30  C1  UNL     1      24.701 -29.275  -6.929  1.00  0.00     0.205 C 
ENDBRANCH  26  29
ENDBRANCH  25  26
ENDBRANCH  24  25
ENDBRANCH  22  24
ENDBRANCH  21  22
ENDBRANCH  20  21
ENDBRANCH   1  19
BRANCH  18  31
HETATM   31  C22 UNL     1      33.922 -34.571 -10.128  1.00  0.00     0.167 C 
BRANCH  31  32
HETATM   32  C23 UNL     1      34.692 -33.416 -10.670  1.00  0.00     0.135 C 
BRANCH  32  33
HETATM   33  C24 UNL     1      35.780 -33.070  -9.728  1.00  0.00     0.174 C 
HETATM   34  O6  UNL     1      35.544 -33.084  -8.499  1.00  0.00    -0.648 OA
HETATM   35  O7  UNL     1      37.059 -32.729 -10.144  1.00  0.00    -0.648 OA
ENDBRANCH  32  33
ENDBRANCH  31  32
ENDBRANCH  18  31
TORSDOF 10
ENDMDL
MODEL 2
REMARK VINA RESULT: -9.637966278      0.820      2.071
REMARK  10 active torsions:
REMARK  status: ('A' for Active; 'I' for Inactive)
REMARK    1  A    between atoms: O1_2  and  C2_3 
REMARK    2  A    between atoms: C2_3  and  C3_4 
REMARK    3  A    between atoms: C3_4  and  O2_5 
REMARK    4  A    between atoms: O2_5  and  C4_6 
REMARK    5  A    between atoms: C4_6  and  C5_8 
REMARK    6  A    between atoms: C5_8  and  C6_9 
REMARK    7  A    between atoms: C7_10  and  C8_11 
REMARK    8  A    between atoms: N1_28  and  C22_29 
REMARK    9  A    between atoms: C22_29  and  C23_30 
REMARK   10  A    between atoms: C23_30  and  C24_31 
ROOT
HETATM    1  C8  UNL     1      28.061 -32.563  -5.103  1.00  0.00     0.007 C 
HETATM    2  C9  UNL     1      28.601 -33.666  -4.556  1.00  0.00    -0.046 C 
HETATM    3  C10 UNL     1      27.834 -34.435  -3.560  1.00  0.00     0.040 C 
HETATM    4  C11 UNL     1      28.737 -35.346  -2.786  1.00  0.00     0.010 C 
HETATM    5  C12 UNL     1      30.043 -34.619  -2.503  1.00  0.00     0.047 C 
HETATM    6  C13 UNL     1      30.724 -34.577  -3.856  1.00  0.00    -0.005 A 
HETATM    7  S1  UNL     1      32.201 -34.968  -4.520  1.00  0.00    -0.093 SA
HETATM    8  C14 UNL     1      31.894 -34.569  -6.163  1.00  0.00     0.018 A 
HETATM    9  C15 UNL     1      32.685 -34.647  -7.315  1.00  0.00     0.052 A 
HETATM   10  C16 UNL     1      32.183 -34.269  -8.536  1.00  0.00     0.075 A 
HETATM   11  C17 UNL     1      30.882 -33.822  -8.530  1.00  0.00     0.071 A 
HETATM   12  C18 UNL     1      30.092 -33.738  -7.408  1.00  0.00     0.033 A 
HETATM   13  C19 UNL     1      30.602 -34.125  -6.141  1.00  0.00    -0.006 A 
HETATM   14  C20 UNL     1      29.970 -34.119  -4.939  1.00  0.00    -0.005 A 
HETATM   15  C21 UNL     1      30.624 -33.510  -9.857  1.00  0.00     0.317 A 
HETATM   16  O4  UNL     1      29.532 -33.059 -10.299  1.00  0.00    -0.257 OA
HETATM   17  O5  UNL     1      31.713 -33.768 -10.548  1.00  0.00    -0.192 OA
HETATM   18  N1  UNL     1      32.655 -34.220  -9.795  1.00  0.00    -0.248 N 
ENDROOT
BRANCH   1  19
HETATM   19  C7  UNL     1      26.752 -32.094  -4.765  1.00  0.00    -0.003 C 
HETATM   20  C6  UNL     1      26.355 -30.882  -5.049  1.00  0.00    -0.017 C 
BRANCH  20  21
HETATM   21  C5  UNL     1      27.122 -29.825  -5.731  1.00  0.00     0.138 C 
BRANCH  21  22
HETATM   22  C4  UNL     1      26.886 -30.009  -7.206  1.00  0.00     0.262 C 
HETATM   23  O3  UNL     1      27.849 -30.405  -7.931  1.00  0.00    -0.265 OA
BRANCH  22  24
HETATM   24  O2  UNL     1      25.679 -29.769  -7.802  1.00  0.00    -0.316 OA
BRANCH  24  25
HETATM   25  C3  UNL     1      25.098 -30.476  -8.859  1.00  0.00     0.249 C 
BRANCH  25  26
HETATM   26  C2  UNL     1      24.555 -31.786  -8.395  1.00  0.00     0.208 A 
HETATM   27  C25 UNL     1      23.685 -32.063  -7.303  1.00  0.00     0.242 A 
HETATM   28  O8  UNL     1      23.119 -31.834  -8.584  1.00  0.00    -0.346 OA
BRANCH  26  29
HETATM   29  O1  UNL     1      25.125 -32.887  -9.084  1.00  0.00    -0.356 OA
HETATM   30  C1  UNL     1      26.191 -33.436  -8.391  1.00  0.00     0.205 C 
ENDBRANCH  26  29
ENDBRANCH  25  26
ENDBRANCH  24  25
ENDBRANCH  22  24
ENDBRANCH  21  22
ENDBRANCH  20  21
ENDBRANCH   1  19
BRANCH  18  31
HETATM   31  C22 UNL     1      34.018 -34.627 -10.169  1.00  0.00     0.167 C 
BRANCH  31  32
HETATM   32  C23 UNL     1      34.806 -33.486 -10.717  1.00  0.00     0.135 C 
BRANCH  32  33
HETATM   33  C24 UNL     1      35.845 -33.096  -9.738  1.00  0.00     0.174 C 
HETATM   34  O6  UNL     1      35.554 -33.080  -8.521  1.00  0.00    -0.648 OA
HETATM   35  O7  UNL     1      37.135 -32.744 -10.105  1.00  0.00    -0.648 OA
ENDBRANCH  32  33
ENDBRANCH  31  32
ENDBRANCH  18  31
TORSDOF 10
ENDMDL
MODEL 3
REMARK VINA RESULT: -9.580746638      4.289      8.076
REMARK  10 active torsions:
REMARK  status: ('A' for Active; 'I' for Inactive)
REMARK    1  A    between atoms: O1_2  and  C2_3 
REMARK    2  A    between atoms: C2_3  and  C3_4 
REMARK    3  A    between atoms: C3_4  and  O2_5 
REMARK    4  A    between atoms: O2_5  and  C4_6 
REMARK    5  A    between atoms: C4_6  and  C5_8 
REMARK    6  A    between atoms: C5_8  and  C6_9 
REMARK    7  A    between atoms: C7_10  and  C8_11 
REMARK    8  A    between atoms: N1_28  and  C22_29 
REMARK    9  A    between atoms: C22_29  and  C23_30 
REMARK   10  A    between atoms: C23_30  and  C24_31 
ROOT
HETATM    1  C8  UNL     1      27.086 -33.817  -6.789  1.00  0.00     0.007 C 
HETATM    2  C9  UNL     1      28.178 -33.523  -6.063  1.00  0.00    -0.046 C 
HETATM    3  C10 UNL     1      29.281 -32.764  -6.680  1.00  0.00     0.040 C 
HETATM    4  C11 UNL     1      30.534 -32.902  -5.871  1.00  0.00     0.010 C 
HETATM    5  C12 UNL     1      30.641 -34.334  -5.370  1.00  0.00     0.047 C 
HETATM    6  C13 UNL     1      29.567 -34.415  -4.302  1.00  0.00    -0.005 A 
HETATM    7  S1  UNL     1      29.428 -34.885  -2.710  1.00  0.00    -0.093 SA
HETATM    8  C14 UNL     1      27.771 -34.511  -2.444  1.00  0.00     0.018 A 
HETATM    9  C15 UNL     1      26.948 -34.632  -1.318  1.00  0.00     0.052 A 
HETATM   10  C16 UNL     1      25.632 -34.239  -1.368  1.00  0.00     0.075 A 
HETATM   11  C17 UNL     1      25.209 -33.736  -2.576  1.00  0.00     0.071 A 
HETATM   12  C18 UNL     1      26.004 -33.611  -3.690  1.00  0.00     0.033 A 
HETATM   13  C19 UNL     1      27.364 -34.016  -3.650  1.00  0.00    -0.006 A 
HETATM   14  C20 UNL     1      28.292 -33.959  -4.641  1.00  0.00    -0.005 A 
HETATM   15  C21 UNL     1      23.875 -33.421  -2.363  1.00  0.00     0.317 A 
HETATM   16  O4  UNL     1      23.099 -32.926  -3.225  1.00  0.00    -0.257 OA
HETATM   17  O5  UNL     1      23.584 -33.732  -1.119  1.00  0.00    -0.192 OA
HETATM   18  N1  UNL     1      24.604 -34.219  -0.502  1.00  0.00    -0.248 N 
ENDROOT
BRANCH   1  19
HETATM   19  C7  UNL     1      26.936 -33.418  -8.156  1.00  0.00    -0.003 C 
HETATM   20  C6  UNL     1      25.815 -32.928  -8.616  1.00  0.00    -0.017 C 
BRANCH  20  21
HETATM   21  C5  UNL     1      24.565 -32.700  -7.872  1.00  0.00     0.138 C 
BRANCH  21  22
HETATM   22  C4  UNL     1      23.935 -31.466  -8.461  1.00  0.00     0.262 C 
HETATM   23  O3  UNL     1      22.738 -31.533  -8.874  1.00  0.00    -0.265 OA
BRANCH  22  24
HETATM   24  O2  UNL     1      24.596 -30.274  -8.570  1.00  0.00    -0.316 OA
BRANCH  24  25
HETATM   25  C3  UNL     1      25.157 -29.516  -7.538  1.00  0.00     0.249 C 
BRANCH  25  26
HETATM   26  C2  UNL     1      26.646 -29.613  -7.549  1.00  0.00     0.208 A 
HETATM   27  C25 UNL     1      27.534 -29.694  -8.658  1.00  0.00     0.242 A 
HETATM   28  O8  UNL     1      27.227 -28.416  -8.125  1.00  0.00    -0.346 OA
BRANCH  26  29
HETATM   29  O1  UNL     1      27.191 -29.783  -6.250  1.00  0.00    -0.356 OA
HETATM   30  C1  UNL     1      26.315 -30.441  -5.403  1.00  0.00     0.205 C 
ENDBRANCH  26  29
ENDBRANCH  25  26
ENDBRANCH  24  25
ENDBRANCH  22  24
ENDBRANCH  21  22
ENDBRANCH  20  21
ENDBRANCH   1  19
BRANCH  18  31
HETATM   31  C22 UNL     1      24.701 -34.687   0.890  1.00  0.00     0.167 C 
BRANCH  31  32
HETATM   32  C23 UNL     1      23.399 -35.214   1.390  1.00  0.00     0.135 C 
BRANCH  32  33
HETATM   33  C24 UNL     1      23.423 -36.693   1.347  1.00  0.00     0.174 C 
HETATM   34  O6  UNL     1      23.398 -37.331   2.423  1.00  0.00    -0.648 OA
HETATM   35  O7  UNL     1      23.472 -37.414   0.162  1.00  0.00    -0.648 OA
ENDBRANCH  32  33
ENDBRANCH  31  32
ENDBRANCH  18  31
TORSDOF 10
ENDMDL
MODEL 4
REMARK VINA RESULT: -9.507655933      1.638      2.355
REMARK  10 active torsions:
REMARK  status: ('A' for Active; 'I' for Inactive)
REMARK    1  A    between atoms: O1_2  and  C2_3 
REMARK    2  A    between atoms: C2_3  and  C3_4 
REMARK    3  A    between atoms: C3_4  and  O2_5 
REMARK    4  A    between atoms: O2_5  and  C4_6 
REMARK    5  A    between atoms: C4_6  and  C5_8 
REMARK    6  A    between atoms: C5_8  and  C6_9 
REMARK    7  A    between atoms: C7_10  and  C8_11 
REMARK    8  A    between atoms: N1_28  and  C22_29 
REMARK    9  A    between atoms: C22_29  and  C23_30 
REMARK   10  A    between atoms: C23_30  and  C24_31 
ROOT
HETATM    1  C8  UNL     1      26.151 -32.231  -3.577  1.00  0.00     0.007 C 
HETATM    2  C9  UNL     1      26.527 -33.384  -2.997  1.00  0.00    -0.046 C 
HETATM    3  C10 UNL     1      25.571 -34.119  -2.150  1.00  0.00     0.040 C 
HETATM    4  C11 UNL     1      26.285 -35.114  -1.288  1.00  0.00     0.010 C 
HETATM    5  C12 UNL     1      27.583 -34.493  -0.793  1.00  0.00     0.047 C 
HETATM    6  C13 UNL     1      28.456 -34.467  -2.032  1.00  0.00    -0.005 A 
HETATM    7  S1  UNL     1      29.983 -34.950  -2.489  1.00  0.00    -0.093 SA
HETATM    8  C14 UNL     1      29.948 -34.488  -4.145  1.00  0.00     0.018 A 
HETATM    9  C15 UNL     1      30.892 -34.596  -5.172  1.00  0.00     0.052 A 
HETATM   10  C16 UNL     1      30.602 -34.150  -6.439  1.00  0.00     0.075 A 
HETATM   11  C17 UNL     1      29.348 -33.609  -6.604  1.00  0.00     0.071 A 
HETATM   12  C18 UNL     1      28.411 -33.494  -5.606  1.00  0.00     0.033 A 
HETATM   13  C19 UNL     1      28.701 -33.950  -4.293  1.00  0.00    -0.006 A 
HETATM   14  C20 UNL     1      27.902 -33.927  -3.195  1.00  0.00    -0.005 A 
HETATM   15  C21 UNL     1      29.310 -33.245  -7.942  1.00  0.00     0.317 A 
HETATM   16  O4  UNL     1      28.329 -32.703  -8.521  1.00  0.00    -0.257 OA
HETATM   17  O5  UNL     1      30.467 -33.566  -8.478  1.00  0.00    -0.192 OA
HETATM   18  N1  UNL     1      31.256 -34.105  -7.613  1.00  0.00    -0.248 N 
ENDROOT
BRANCH   1  19
HETATM   19  C7  UNL     1      24.843 -31.674  -3.415  1.00  0.00    -0.003 C 
HETATM   20  C6  UNL     1      23.914 -31.806  -4.325  1.00  0.00    -0.017 C 
BRANCH  20  21
HETATM   21  C5  UNL     1      24.019 -32.510  -5.614  1.00  0.00     0.138 C 
BRANCH  21  22
HETATM   22  C4  UNL     1      23.218 -31.708  -6.605  1.00  0.00     0.262 C 
HETATM   23  O3  UNL     1      21.960 -31.870  -6.642  1.00  0.00    -0.265 OA
BRANCH  22  24
HETATM   24  O2  UNL     1      23.784 -30.812  -7.467  1.00  0.00    -0.316 OA
BRANCH  24  25
HETATM   25  C3  UNL     1      24.854 -31.032  -8.340  1.00  0.00     0.249 C 
BRANCH  25  26
HETATM   26  C2  UNL     1      25.987 -30.106  -8.046  1.00  0.00     0.208 A 
HETATM   27  C25 UNL     1      27.043 -29.677  -8.899  1.00  0.00     0.242 A 
HETATM   28  O8  UNL     1      25.863 -28.892  -8.827  1.00  0.00    -0.346 OA
BRANCH  26  29
HETATM   29  O1  UNL     1      26.053 -29.742  -6.676  1.00  0.00    -0.356 OA
HETATM   30  C1  UNL     1      27.270 -30.078  -6.109  1.00  0.00     0.205 C 
ENDBRANCH  26  29
ENDBRANCH  25  26
ENDBRANCH  24  25
ENDBRANCH  22  24
ENDBRANCH  21  22
ENDBRANCH  20  21
ENDBRANCH   1  19
BRANCH  18  31
HETATM   31  C22 UNL     1      32.627 -34.602  -7.802  1.00  0.00     0.167 C 
BRANCH  31  32
HETATM   32  C23 UNL     1      32.897 -34.960  -9.224  1.00  0.00     0.135 C 
BRANCH  32  33
HETATM   33  C24 UNL     1      33.779 -33.935  -9.826  1.00  0.00     0.174 C 
HETATM   34  O6  UNL     1      33.492 -33.477 -10.954  1.00  0.00    -0.648 OA
HETATM   35  O7  UNL     1      34.916 -33.454  -9.195  1.00  0.00    -0.648 OA
ENDBRANCH  32  33
ENDBRANCH  31  32
ENDBRANCH  18  31
TORSDOF 10
ENDMDL
MODEL 5
REMARK VINA RESULT: -9.392425312      1.030      2.098
REMARK  10 active torsions:
REMARK  status: ('A' for Active; 'I' for Inactive)
REMARK    1  A    between atoms: O1_2  and  C2_3 
REMARK    2  A    between atoms: C2_3  and  C3_4 
REMARK    3  A    between atoms: C3_4  and  O2_5 
REMARK    4  A    between atoms: O2_5  and  C4_6 
REMARK    5  A    between atoms: C4_6  and  C5_8 
REMARK    6  A    between atoms: C5_8  and  C6_9 
REMARK    7  A    between atoms: C7_10  and  C8_11 
REMARK    8  A    between atoms: N1_28  and  C22_29 
REMARK    9  A    between atoms: C22_29  and  C23_30 
REMARK   10  A    between atoms: C23_30  and  C24_31 
ROOT
HETATM    1  C8  UNL     1      28.011 -32.545  -4.973  1.00  0.00     0.007 C 
HETATM    2  C9  UNL     1      28.546 -33.656  -4.438  1.00  0.00    -0.046 C 
HETATM    3  C10 UNL     1      27.781 -34.425  -3.439  1.00  0.00     0.040 C 
HETATM    4  C11 UNL     1      28.683 -35.349  -2.681  1.00  0.00     0.010 C 
HETATM    5  C12 UNL     1      29.999 -34.637  -2.406  1.00  0.00     0.047 C 
HETATM    6  C13 UNL     1      30.666 -34.592  -3.767  1.00  0.00    -0.005 A 
HETATM    7  S1  UNL     1      32.133 -34.993  -4.448  1.00  0.00    -0.093 SA
HETATM    8  C14 UNL     1      31.813 -34.580  -6.085  1.00  0.00     0.018 A 
HETATM    9  C15 UNL     1      32.591 -34.659  -7.246  1.00  0.00     0.052 A 
HETATM   10  C16 UNL     1      32.080 -34.268  -8.459  1.00  0.00     0.075 A 
HETATM   11  C17 UNL     1      30.783 -33.808  -8.436  1.00  0.00     0.071 A 
HETATM   12  C18 UNL     1      30.006 -33.724  -7.307  1.00  0.00     0.033 A 
HETATM   13  C19 UNL     1      30.525 -34.124  -6.047  1.00  0.00    -0.006 A 
HETATM   14  C20 UNL     1      29.905 -34.119  -4.838  1.00  0.00    -0.005 A 
HETATM   15  C21 UNL     1      30.515 -33.485  -9.758  1.00  0.00     0.317 A 
HETATM   16  O4  UNL     1      29.424 -33.021 -10.186  1.00  0.00    -0.257 OA
HETATM   17  O5  UNL     1      31.594 -33.749 -10.462  1.00  0.00    -0.192 OA
HETATM   18  N1  UNL     1      32.540 -34.215  -9.722  1.00  0.00    -0.248 N 
ENDROOT
BRANCH   1  19
HETATM   19  C7  UNL     1      26.710 -32.065  -4.619  1.00  0.00    -0.003 C 
HETATM   20  C6  UNL     1      26.203 -30.981  -5.145  1.00  0.00    -0.017 C 
BRANCH  20  21
HETATM   21  C5  UNL     1      26.825 -30.095  -6.143  1.00  0.00     0.138 C 
BRANCH  21  22
HETATM   22  C4  UNL     1      26.831 -30.854  -7.444  1.00  0.00     0.262 C 
HETATM   23  O3  UNL     1      27.911 -30.918  -8.105  1.00  0.00    -0.265 OA
BRANCH  22  24
HETATM   24  O2  UNL     1      25.723 -31.479  -7.945  1.00  0.00    -0.316 OA
BRANCH  24  25
HETATM   25  C3  UNL     1      24.627 -30.885  -8.577  1.00  0.00     0.249 C 
BRANCH  25  26
HETATM   26  C2  UNL     1      23.344 -31.481  -8.101  1.00  0.00     0.208 A 
HETATM   27  C25 UNL     1      23.021 -32.018  -6.822  1.00  0.00     0.242 A 
HETATM   28  O8  UNL     1      22.749 -30.648  -7.075  1.00  0.00    -0.346 OA
BRANCH  26  29
HETATM   29  O1  UNL     1      22.395 -31.638  -9.144  1.00  0.00    -0.356 OA
HETATM   30  C1  UNL     1      22.975 -31.509 -10.395  1.00  0.00     0.205 C 
ENDBRANCH  26  29
ENDBRANCH  25  26
ENDBRANCH  24  25
ENDBRANCH  22  24
ENDBRANCH  21  22
ENDBRANCH  20  21
ENDBRANCH   1  19
BRANCH  18  31
HETATM   31  C22 UNL     1      33.895 -34.632 -10.113  1.00  0.00     0.167 C 
BRANCH  31  32
HETATM   32  C23 UNL     1      34.681 -33.500 -10.683  1.00  0.00     0.135 C 
BRANCH  32  33
HETATM   33  C24 UNL     1      35.748 -33.120  -9.731  1.00  0.00     0.174 C 
HETATM   34  O6  UNL     1      35.499 -33.133  -8.505  1.00  0.00    -0.648 OA
HETATM   35  O7  UNL     1      37.022 -32.746 -10.134  1.00  0.00    -0.648 OA
ENDBRANCH  32  33
ENDBRANCH  31  32
ENDBRANCH  18  31
TORSDOF 10
ENDMDL
