MODEL 1
REMARK VINA RESULT: -8.617283822      0.000      0.000
REMARK  10 active torsions:
REMARK  status: ('A' for Active; 'I' for Inactive)
REMARK    1  A    between atoms: O1_2  and  C2_3 
REMARK    2  A    between atoms: C2_3  and  C3_4 
REMARK    3  A    between atoms: C5_6  and  C6_7 
REMARK    4  A    between atoms: C6_7  and  C7_8 
REMARK    5  A    between atoms: C7_8  and  C8_9 
REMARK    6  A    between atoms: C18_21  and  O4_23 
REMARK    7  A    between atoms: C20_25  and  C21_26 
REMARK    8  A    between atoms: C21_26  and  O5_27 
REMARK    9  A    between atoms: O5_27  and  C22_28 
REMARK   10  A    between atoms: C22_28  and  C23_30 
ROOT
HETATM    1  C8  UNL     1      26.104 -33.028  -4.599  1.00  0.00     0.125 C 
HETATM    2  C9  UNL     1      26.772 -32.340  -3.516  1.00  0.00     0.266 C 
HETATM    3  O2  UNL     1      27.588 -32.920  -2.735  1.00  0.00    -0.265 OA
HETATM    4  O3  UNL     1      26.512 -31.004  -3.326  1.00  0.00    -0.320 OA
HETATM    5  C10 UNL     1      25.584 -30.426  -4.173  1.00  0.00     0.191 C 
HETATM    6  C11 UNL     1      25.841 -30.763  -5.673  1.00  0.00     0.014 C 
HETATM    7  C12 UNL     1      27.078 -29.942  -5.890  1.00  0.00     0.020 C 
HETATM    8  C13 UNL     1      24.591 -30.105  -6.230  1.00  0.00     0.017 C 
HETATM    9  C14 UNL     1      24.256 -30.258  -7.624  1.00  0.00     0.042 C 
HETATM   10  C15 UNL     1      24.435 -31.550  -8.290  1.00  0.00     0.095 C 
HETATM   11  C16 UNL     1      23.395 -31.716  -9.381  1.00  0.00     0.049 C 
HETATM   12  C17 UNL     1      25.820 -31.549  -8.886  1.00  0.00     0.078 C 
HETATM   13  C18 UNL     1      26.720 -32.578  -8.336  1.00  0.00     0.066 C 
HETATM   14  C19 UNL     1      26.343 -33.878  -9.081  1.00  0.00     0.046 C 
HETATM   15  C20 UNL     1      26.829 -32.824  -6.891  1.00  0.00     0.083 C 
HETATM   16  C27 UNL     1      25.921 -32.212  -5.886  1.00  0.00     0.126 C 
HETATM   17  O8  UNL     1      24.606 -32.580  -6.276  1.00  0.00    -0.226 OA
HETATM   18  O9  UNL     1      24.384 -32.679  -7.506  1.00  0.00    -0.229 OA
ENDROOT
BRANCH  15  19
HETATM   19  C21 UNL     1      28.300 -32.756  -6.528  1.00  0.00     0.190 C 
BRANCH  19  20
HETATM   20  O5  UNL     1      28.896 -33.995  -6.717  1.00  0.00    -0.315 OA
BRANCH  20  21
HETATM   21  C22 UNL     1      30.173 -34.408  -6.760  1.00  0.00     0.317 C 
HETATM   22  O6  UNL     1      30.686 -34.891  -5.722  1.00  0.00    -0.257 OA
BRANCH  21  23
HETATM   23  C23 UNL     1      31.012 -34.321  -7.983  1.00  0.00     0.149 A 
HETATM   24  C24 UNL     1      32.253 -34.894  -8.164  1.00  0.00     0.045 A 
HETATM   25  C25 UNL     1      32.677 -34.568  -9.434  1.00  0.00     0.027 A 
HETATM   26  C26 UNL     1      31.679 -33.803  -9.988  1.00  0.00     0.143 A 
HETATM   27  O7  UNL     1      30.737 -33.695  -9.093  1.00  0.00    -0.317 OA
ENDBRANCH  21  23
ENDBRANCH  20  21
ENDBRANCH  19  20
ENDBRANCH  15  19
BRANCH  13  28
HETATM   28  O4  UNL     1      27.996 -32.259  -8.881  1.00  0.00    -0.390 OA
ATOM     29  H4  UNL     1      28.059 -32.795  -9.662  1.00  0.00     0.210 HD
ENDBRANCH  13  28
BRANCH   1  30
HETATM   30  C7  UNL     1      24.792 -33.614  -4.102  1.00  0.00     0.021 C 
BRANCH  30  31
HETATM   31  C6  UNL     1      24.336 -32.979  -2.833  1.00  0.00     0.028 C 
BRANCH  31  32
HETATM   32  C5  UNL     1      23.809 -33.808  -1.773  1.00  0.00    -0.022 C 
HETATM   33  C3  UNL     1      24.313 -34.348  -0.690  1.00  0.00    -0.064 C 
HETATM   34  C4  UNL     1      25.689 -34.216  -0.169  1.00  0.00     0.045 C 
BRANCH  33  35
HETATM   35  C2  UNL     1      23.348 -35.162   0.145  1.00  0.00     0.200 C 
BRANCH  35  36
HETATM   36  O1  UNL     1      23.817 -36.240   0.725  1.00  0.00    -0.392 OA
HETATM   37  C1  UNL     1      23.451 -37.505   0.540  1.00  0.00     0.201 C 
ENDBRANCH  35  36
ENDBRANCH  33  35
ENDBRANCH  31  32
ENDBRANCH  30  31
ENDBRANCH   1  30
TORSDOF 10
ENDMDL
MODEL 2
REMARK VINA RESULT: -8.565680540      1.185      1.463
REMARK  10 active torsions:
REMARK  status: ('A' for Active; 'I' for Inactive)
REMARK    1  A    between atoms: O1_2  and  C2_3 
REMARK    2  A    between atoms: C2_3  and  C3_4 
REMARK    3  A    between atoms: C5_6  and  C6_7 
REMARK    4  A    between atoms: C6_7  and  C7_8 
REMARK    5  A    between atoms: C7_8  and  C8_9 
REMARK    6  A    between atoms: C18_21  and  O4_23 
REMARK    7  A    between atoms: C20_25  and  C21_26 
REMARK    8  A    between atoms: C21_26  and  O5_27 
REMARK    9  A    between atoms: O5_27  and  C22_28 
REMARK   10  A    between atoms: C22_28  and  C23_30 
ROOT
HETATM    1  C8  UNL     1      26.262 -33.012  -4.610  1.00  0.00     0.125 C 
HETATM    2  C9  UNL     1      26.976 -32.318  -3.561  1.00  0.00     0.266 C 
HETATM    3  O2  UNL     1      27.839 -32.889  -2.825  1.00  0.00    -0.265 OA
HETATM    4  O3  UNL     1      26.709 -30.986  -3.355  1.00  0.00    -0.320 OA
HETATM    5  C10 UNL     1      25.731 -30.419  -4.151  1.00  0.00     0.191 C 
HETATM    6  C11 UNL     1      25.914 -30.749  -5.664  1.00  0.00     0.014 C 
HETATM    7  C12 UNL     1      27.128 -29.911  -5.941  1.00  0.00     0.020 C 
HETATM    8  C13 UNL     1      24.629 -30.107  -6.154  1.00  0.00     0.017 C 
HETATM    9  C14 UNL     1      24.225 -30.261  -7.528  1.00  0.00     0.042 C 
HETATM   10  C15 UNL     1      24.387 -31.549  -8.207  1.00  0.00     0.095 C 
HETATM   11  C16 UNL     1      23.293 -31.727  -9.243  1.00  0.00     0.049 C 
HETATM   12  C17 UNL     1      25.739 -31.528  -8.873  1.00  0.00     0.078 C 
HETATM   13  C18 UNL     1      26.679 -32.546  -8.373  1.00  0.00     0.066 C 
HETATM   14  C19 UNL     1      26.281 -33.850  -9.101  1.00  0.00     0.046 C 
HETATM   15  C20 UNL     1      26.865 -32.794  -6.936  1.00  0.00     0.083 C 
HETATM   16  C27 UNL     1      26.003 -32.196  -5.884  1.00  0.00     0.126 C 
HETATM   17  O8  UNL     1      24.674 -32.581  -6.206  1.00  0.00    -0.226 OA
HETATM   18  O9  UNL     1      24.390 -32.680  -7.424  1.00  0.00    -0.229 OA
ENDROOT
BRANCH  15  19
HETATM   19  C21 UNL     1      28.352 -32.708  -6.649  1.00  0.00     0.190 C 
BRANCH  19  20
HETATM   20  O5  UNL     1      28.913 -33.977  -6.650  1.00  0.00    -0.315 OA
BRANCH  20  21
HETATM   21  C22 UNL     1      30.176 -34.427  -6.716  1.00  0.00     0.317 C 
HETATM   22  O6  UNL     1      30.680 -34.962  -5.698  1.00  0.00    -0.257 OA
BRANCH  21  23
HETATM   23  C23 UNL     1      31.012 -34.323  -7.940  1.00  0.00     0.149 A 
HETATM   24  C24 UNL     1      32.267 -34.864  -8.120  1.00  0.00     0.045 A 
HETATM   25  C25 UNL     1      32.681 -34.533  -9.392  1.00  0.00     0.027 A 
HETATM   26  C26 UNL     1      31.663 -33.797  -9.948  1.00  0.00     0.143 A 
HETATM   27  O7  UNL     1      30.719 -33.709  -9.053  1.00  0.00    -0.317 OA
ENDBRANCH  21  23
ENDBRANCH  20  21
ENDBRANCH  19  20
ENDBRANCH  15  19
BRANCH  13  28
HETATM   28  O4  UNL     1      27.921 -32.210  -8.982  1.00  0.00    -0.390 OA
ATOM     29  H4  UNL     1      27.865 -31.273  -9.129  1.00  0.00     0.210 HD
ENDBRANCH  13  28
BRANCH   1  30
HETATM   30  C7  UNL     1      24.985 -33.617  -4.048  1.00  0.00     0.021 C 
BRANCH  30  31
HETATM   31  C6  UNL     1      25.146 -34.056  -2.632  1.00  0.00     0.028 C 
BRANCH  31  32
HETATM   32  C5  UNL     1      24.335 -33.445  -1.603  1.00  0.00    -0.022 C 
HETATM   33  C3  UNL     1      24.193 -33.627  -0.313  1.00  0.00    -0.064 C 
HETATM   34  C4  UNL     1      24.926 -34.574   0.552  1.00  0.00     0.045 C 
BRANCH  33  35
HETATM   35  C2  UNL     1      23.193 -32.720   0.369  1.00  0.00     0.200 C 
BRANCH  35  36
HETATM   36  O1  UNL     1      23.668 -31.700   1.042  1.00  0.00    -0.392 OA
HETATM   37  C1  UNL     1      23.028 -30.899   1.890  1.00  0.00     0.201 C 
ENDBRANCH  35  36
ENDBRANCH  33  35
ENDBRANCH  31  32
ENDBRANCH  30  31
ENDBRANCH   1  30
TORSDOF 10
ENDMDL
MODEL 3
REMARK VINA RESULT: -8.434897519      2.363      3.681
REMARK  10 active torsions:
REMARK  status: ('A' for Active; 'I' for Inactive)
REMARK    1  A    between atoms: O1_2  and  C2_3 
REMARK    2  A    between atoms: C2_3  and  C3_4 
REMARK    3  A    between atoms: C5_6  and  C6_7 
REMARK    4  A    between atoms: C6_7  and  C7_8 
REMARK    5  A    between atoms: C7_8  and  C8_9 
REMARK    6  A    between atoms: C18_21  and  O4_23 
REMARK    7  A    between atoms: C20_25  and  C21_26 
REMARK    8  A    between atoms: C21_26  and  O5_27 
REMARK    9  A    between atoms: O5_27  and  C22_28 
REMARK   10  A    between atoms: C22_28  and  C23_30 
ROOT
HETATM    1  C8  UNL     1      24.086 -31.418  -4.708  1.00  0.00     0.125 C 
HETATM    2  C9  UNL     1      24.069 -30.377  -3.703  1.00  0.00     0.266 C 
HETATM    3  O2  UNL     1      25.024 -30.198  -2.886  1.00  0.00    -0.265 OA
HETATM    4  O3  UNL     1      22.974 -29.550  -3.633  1.00  0.00    -0.320 OA
HETATM    5  C10 UNL     1      21.941 -29.811  -4.514  1.00  0.00     0.191 C 
HETATM    6  C11 UNL     1      22.431 -30.007  -5.981  1.00  0.00     0.014 C 
HETATM    7  C12 UNL     1      22.812 -28.588  -6.292  1.00  0.00     0.020 C 
HETATM    8  C13 UNL     1      21.092 -30.401  -6.576  1.00  0.00     0.017 C 
HETATM    9  C14 UNL     1      21.014 -30.849  -7.944  1.00  0.00     0.042 C 
HETATM   10  C15 UNL     1      22.044 -31.734  -8.492  1.00  0.00     0.095 C 
HETATM   11  C16 UNL     1      21.437 -32.640  -9.547  1.00  0.00     0.049 C 
HETATM   12  C17 UNL     1      23.101 -30.853  -9.107  1.00  0.00     0.078 C 
HETATM   13  C18 UNL     1      24.429 -30.967  -8.480  1.00  0.00     0.066 C 
HETATM   14  C19 UNL     1      25.055 -32.239  -9.096  1.00  0.00     0.046 C 
HETATM   15  C20 UNL     1      24.602 -30.962  -7.020  1.00  0.00     0.083 C 
HETATM   16  C27 UNL     1      23.470 -31.039  -6.061  1.00  0.00     0.126 C 
HETATM   17  O8  UNL     1      22.759 -32.223  -6.395  1.00  0.00    -0.226 OA
HETATM   18  O9  UNL     1      22.721 -32.541  -7.607  1.00  0.00    -0.229 OA
ENDROOT
BRANCH  15  19
HETATM   19  C21 UNL     1      25.631 -29.898  -6.688  1.00  0.00     0.190 C 
BRANCH  19  20
HETATM   20  O5  UNL     1      26.912 -30.418  -6.809  1.00  0.00    -0.315 OA
BRANCH  20  21
HETATM   21  C22 UNL     1      27.711 -31.107  -5.979  1.00  0.00     0.317 C 
HETATM   22  O6  UNL     1      27.560 -30.966  -4.741  1.00  0.00    -0.257 OA
BRANCH  21  23
HETATM   23  C23 UNL     1      28.772 -32.032  -6.455  1.00  0.00     0.149 A 
HETATM   24  C24 UNL     1      28.812 -32.667  -7.677  1.00  0.00     0.045 A 
HETATM   25  C25 UNL     1      29.962 -33.427  -7.709  1.00  0.00     0.027 A 
HETATM   26  C26 UNL     1      30.586 -33.232  -6.502  1.00  0.00     0.143 A 
HETATM   27  O7  UNL     1      29.844 -32.409  -5.815  1.00  0.00    -0.317 OA
ENDBRANCH  21  23
ENDBRANCH  20  21
ENDBRANCH  19  20
ENDBRANCH  15  19
BRANCH  13  28
HETATM   28  O4  UNL     1      25.191 -29.920  -9.071  1.00  0.00    -0.390 OA
ATOM     29  H4  UNL     1      25.741 -29.600  -8.366  1.00  0.00     0.210 HD
ENDBRANCH  13  28
BRANCH   1  30
HETATM   30  C7  UNL     1      23.479 -32.691  -4.139  1.00  0.00     0.021 C 
BRANCH  30  31
HETATM   31  C6  UNL     1      24.320 -33.281  -3.058  1.00  0.00     0.028 C 
BRANCH  31  32
HETATM   32  C5  UNL     1      25.709 -33.580  -3.322  1.00  0.00    -0.022 C 
HETATM   33  C3  UNL     1      26.686 -34.107  -2.624  1.00  0.00    -0.064 C 
HETATM   34  C4  UNL     1      26.631 -34.638  -1.247  1.00  0.00     0.045 C 
BRANCH  33  35
HETATM   35  C2  UNL     1      28.013 -34.225  -3.343  1.00  0.00     0.200 C 
BRANCH  35  36
HETATM   36  O1  UNL     1      29.093 -33.931  -2.662  1.00  0.00    -0.392 OA
HETATM   37  C1  UNL     1      30.149 -34.701  -2.415  1.00  0.00     0.201 C 
ENDBRANCH  35  36
ENDBRANCH  33  35
ENDBRANCH  31  32
ENDBRANCH  30  31
ENDBRANCH   1  30
TORSDOF 10
ENDMDL
MODEL 4
REMARK VINA RESULT: -8.143879497      2.174      5.496
REMARK  10 active torsions:
REMARK  status: ('A' for Active; 'I' for Inactive)
REMARK    1  A    between atoms: O1_2  and  C2_3 
REMARK    2  A    between atoms: C2_3  and  C3_4 
REMARK    3  A    between atoms: C5_6  and  C6_7 
REMARK    4  A    between atoms: C6_7  and  C7_8 
REMARK    5  A    between atoms: C7_8  and  C8_9 
REMARK    6  A    between atoms: C18_21  and  O4_23 
REMARK    7  A    between atoms: C20_25  and  C21_26 
REMARK    8  A    between atoms: C21_26  and  O5_27 
REMARK    9  A    between atoms: O5_27  and  C22_28 
REMARK   10  A    between atoms: C22_28  and  C23_30 
ROOT
HETATM    1  C8  UNL     1      28.668 -32.215  -6.059  1.00  0.00     0.125 C 
HETATM    2  C9  UNL     1      28.736 -32.679  -7.428  1.00  0.00     0.266 C 
HETATM    3  O2  UNL     1      29.820 -32.714  -8.087  1.00  0.00    -0.265 OA
HETATM    4  O3  UNL     1      27.578 -33.099  -8.037  1.00  0.00    -0.320 OA
HETATM    5  C10 UNL     1      26.416 -33.002  -7.294  1.00  0.00     0.191 C 
HETATM    6  C11 UNL     1      26.564 -33.587  -5.857  1.00  0.00     0.014 C 
HETATM    7  C12 UNL     1      26.642 -35.045  -6.205  1.00  0.00     0.020 C 
HETATM    8  C13 UNL     1      25.196 -33.175  -5.344  1.00  0.00     0.017 C 
HETATM    9  C14 UNL     1      24.861 -33.361  -3.955  1.00  0.00     0.042 C 
HETATM   10  C15 UNL     1      25.851 -33.081  -2.912  1.00  0.00     0.095 C 
HETATM   11  C16 UNL     1      25.152 -32.603  -1.653  1.00  0.00     0.049 C 
HETATM   12  C17 UNL     1      26.585 -34.370  -2.644  1.00  0.00     0.078 C 
HETATM   13  C18 UNL     1      28.026 -34.323  -2.946  1.00  0.00     0.066 C 
HETATM   14  C19 UNL     1      28.670 -33.639  -1.719  1.00  0.00     0.046 C 
HETATM   15  C20 UNL     1      28.541 -33.738  -4.192  1.00  0.00     0.083 C 
HETATM   16  C27 UNL     1      27.696 -32.979  -5.151  1.00  0.00     0.126 C 
HETATM   17  O8  UNL     1      27.112 -31.923  -4.402  1.00  0.00    -0.226 OA
HETATM   18  O9  UNL     1      26.834 -32.163  -3.202  1.00  0.00    -0.229 OA
ENDROOT
BRANCH  15  19
HETATM   19  C21 UNL     1      29.447 -34.768  -4.838  1.00  0.00     0.190 C 
BRANCH  19  20
HETATM   20  O5  UNL     1      30.773 -34.502  -4.525  1.00  0.00    -0.315 OA
BRANCH  20  21
HETATM   21  C22 UNL     1      31.943 -34.888  -5.058  1.00  0.00     0.317 C 
HETATM   22  O6  UNL     1      32.878 -35.215  -4.288  1.00  0.00    -0.257 OA
BRANCH  21  23
HETATM   23  C23 UNL     1      32.187 -34.945  -6.522  1.00  0.00     0.149 A 
HETATM   24  C24 UNL     1      33.197 -34.304  -7.207  1.00  0.00     0.045 A 
HETATM   25  C25 UNL     1      33.059 -34.626  -8.541  1.00  0.00     0.027 A 
HETATM   26  C26 UNL     1      31.967 -35.454  -8.626  1.00  0.00     0.143 A 
HETATM   27  O7  UNL     1      31.502 -35.602  -7.417  1.00  0.00    -0.317 OA
ENDBRANCH  21  23
ENDBRANCH  20  21
ENDBRANCH  19  20
ENDBRANCH  15  19
BRANCH  13  28
HETATM   28  O4  UNL     1      28.457 -35.674  -2.820  1.00  0.00    -0.390 OA
ATOM     29  H4  UNL     1      29.367 -35.658  -3.092  1.00  0.00     0.210 HD
ENDBRANCH  13  28
BRANCH   1  30
HETATM   30  C7  UNL     1      28.414 -30.716  -6.037  1.00  0.00     0.021 C 
BRANCH  30  31
HETATM   31  C6  UNL     1      27.557 -30.274  -7.175  1.00  0.00     0.028 C 
BRANCH  31  32
HETATM   32  C5  UNL     1      26.204 -29.837  -6.917  1.00  0.00    -0.022 C 
HETATM   33  C3  UNL     1      25.088 -29.837  -7.605  1.00  0.00    -0.064 C 
HETATM   34  C4  UNL     1      24.864 -30.377  -8.962  1.00  0.00     0.045 C 
BRANCH  33  35
HETATM   35  C2  UNL     1      23.883 -29.258  -6.898  1.00  0.00     0.200 C 
BRANCH  35  36
HETATM   36  O1  UNL     1      23.238 -30.042  -6.070  1.00  0.00    -0.392 OA
HETATM   37  C1  UNL     1      23.150 -29.952  -4.746  1.00  0.00     0.201 C 
ENDBRANCH  35  36
ENDBRANCH  33  35
ENDBRANCH  31  32
ENDBRANCH  30  31
ENDBRANCH   1  30
TORSDOF 10
ENDMDL
MODEL 5
REMARK VINA RESULT: -8.075132195      1.870      2.901
REMARK  10 active torsions:
REMARK  status: ('A' for Active; 'I' for Inactive)
REMARK    1  A    between atoms: O1_2  and  C2_3 
REMARK    2  A    between atoms: C2_3  and  C3_4 
REMARK    3  A    between atoms: C5_6  and  C6_7 
REMARK    4  A    between atoms: C6_7  and  C7_8 
REMARK    5  A    between atoms: C7_8  and  C8_9 
REMARK    6  A    between atoms: C18_21  and  O4_23 
REMARK    7  A    between atoms: C20_25  and  C21_26 
REMARK    8  A    between atoms: C21_26  and  O5_27 
REMARK    9  A    between atoms: O5_27  and  C22_28 
REMARK   10  A    between atoms: C22_28  and  C23_30 
ROOT
HETATM    1  C8  UNL     1      25.730 -32.670  -4.654  1.00  0.00     0.125 C 
HETATM    2  C9  UNL     1      26.366 -31.875  -3.627  1.00  0.00     0.266 C 
HETATM    3  O2  UNL     1      27.166 -32.369  -2.774  1.00  0.00    -0.265 OA
HETATM    4  O3  UNL     1      26.094 -30.529  -3.576  1.00  0.00    -0.320 OA
HETATM    5  C10 UNL     1      25.185 -30.044  -4.498  1.00  0.00     0.191 C 
HETATM    6  C11 UNL     1      25.481 -30.524  -5.951  1.00  0.00     0.014 C 
HETATM    7  C12 UNL     1      26.719 -29.718  -6.216  1.00  0.00     0.020 C 
HETATM    8  C13 UNL     1      24.242 -29.934  -6.601  1.00  0.00     0.017 C 
HETATM    9  C14 UNL     1      23.943 -30.225  -7.980  1.00  0.00     0.042 C 
HETATM   10  C15 UNL     1      24.147 -31.574  -8.513  1.00  0.00     0.095 C 
HETATM   11  C16 UNL     1      23.136 -31.855  -9.607  1.00  0.00     0.049 C 
HETATM   12  C17 UNL     1      25.547 -31.620  -9.071  1.00  0.00     0.078 C 
HETATM   13  C18 UNL     1      26.438 -32.583  -8.401  1.00  0.00     0.066 C 
HETATM   14  C19 UNL     1      26.087 -33.953  -9.024  1.00  0.00     0.046 C 
HETATM   15  C20 UNL     1      26.511 -32.685  -6.936  1.00  0.00     0.083 C 
HETATM   16  C27 UNL     1      25.575 -31.986  -6.019  1.00  0.00     0.126 C 
HETATM   17  O8  UNL     1      24.272 -32.401  -6.403  1.00  0.00    -0.226 OA
HETATM   18  O9  UNL     1      24.082 -32.622  -7.623  1.00  0.00    -0.229 OA
ENDROOT
BRANCH  15  19
HETATM   19  C21 UNL     1      27.972 -32.571  -6.545  1.00  0.00     0.190 C 
BRANCH  19  20
HETATM   20  O5  UNL     1      28.514 -33.832  -6.346  1.00  0.00    -0.315 OA
BRANCH  20  21
HETATM   21  C22 UNL     1      29.574 -34.284  -5.656  1.00  0.00     0.317 C 
HETATM   22  O6  UNL     1      30.671 -34.414  -6.251  1.00  0.00    -0.257 OA
BRANCH  21  23
HETATM   23  C23 UNL     1      29.512 -34.639  -4.214  1.00  0.00     0.149 A 
HETATM   24  C24 UNL     1      28.421 -35.152  -3.547  1.00  0.00     0.045 A 
HETATM   25  C25 UNL     1      28.791 -35.337  -2.232  1.00  0.00     0.027 A 
HETATM   26  C26 UNL     1      30.099 -34.929  -2.140  1.00  0.00     0.143 A 
HETATM   27  O7  UNL     1      30.462 -34.533  -3.328  1.00  0.00    -0.317 OA
ENDBRANCH  21  23
ENDBRANCH  20  21
ENDBRANCH  19  20
ENDBRANCH  15  19
BRANCH  13  28
HETATM   28  O4  UNL     1      27.726 -32.308  -8.942  1.00  0.00    -0.390 OA
ATOM     29  H4  UNL     1      27.850 -32.976  -9.606  1.00  0.00     0.210 HD
ENDBRANCH  13  28
BRANCH   1  30
HETATM   30  C7  UNL     1      24.409 -33.216  -4.135  1.00  0.00     0.021 C 
BRANCH  30  31
HETATM   31  C6  UNL     1      24.581 -34.015  -2.888  1.00  0.00     0.028 C 
BRANCH  31  32
HETATM   32  C5  UNL     1      24.027 -33.523  -1.647  1.00  0.00    -0.022 C 
HETATM   33  C3  UNL     1      24.365 -33.622  -0.384  1.00  0.00    -0.064 C 
HETATM   34  C4  UNL     1      25.550 -34.294   0.185  1.00  0.00     0.045 C 
BRANCH  33  35
HETATM   35  C2  UNL     1      23.450 -32.917   0.594  1.00  0.00     0.200 C 
BRANCH  35  36
HETATM   36  O1  UNL     1      23.756 -31.685   0.922  1.00  0.00    -0.392 OA
HETATM   37  C1  UNL     1      23.077 -30.570   0.668  1.00  0.00     0.201 C 
ENDBRANCH  35  36
ENDBRANCH  33  35
ENDBRANCH  31  32
ENDBRANCH  30  31
ENDBRANCH   1  30
TORSDOF 10
ENDMDL
