MODEL 1
REMARK VINA RESULT: -8.521151693      0.000      0.000
REMARK  9 active torsions:
REMARK  status: ('A' for Active; 'I' for Inactive)
REMARK    1  A    between atoms: O1_2  and  C2_3 
REMARK    2  A    between atoms: C6_7  and  O2_8 
REMARK    3  A    between atoms: C8_10  and  O3_11 
REMARK    4  A    between atoms: C9_13  and  O4_14 
REMARK    5  A    between atoms: O4_14  and  C10_15 
REMARK    6  A    between atoms: C14_19  and  C15_20 
REMARK    7  A    between atoms: C19_27  and  O5_28 
REMARK    8  A    between atoms: C21_30  and  O6_31 
REMARK    9  A    between atoms: C23_33  and  O7_34 
ROOT
HETATM    1  C15 UNL     1      27.605 -31.622  -8.151  1.00  0.00     0.082 C 
HETATM    2  N1  UNL     1      27.530 -30.616  -8.922  1.00  0.00    -0.308 N 
ATOM      3  H1  UNL     1      27.648 -30.810  -9.916  1.00  0.00     0.177 HD
HETATM    4  C16 UNL     1      27.311 -29.298  -8.594  1.00  0.00     0.181 C 
HETATM    5  N2  UNL     1      27.134 -28.201  -8.342  1.00  0.00    -0.172 NA
ENDROOT
BRANCH   1   6
HETATM    6  C14 UNL     1      27.475 -31.633  -6.698  1.00  0.00     0.066 C 
HETATM    7  C13 UNL     1      26.142 -31.855  -6.114  1.00  0.00     0.041 C 
HETATM    8  C9  UNL     1      25.235 -30.606  -6.059  1.00  0.00     0.164 C 
HETATM    9  C27 UNL     1      26.422 -32.025  -4.600  1.00  0.00     0.032 C 
HETATM   10  C5  UNL     1      24.411 -30.926  -4.874  1.00  0.00     0.014 A 
HETATM   11  C4  UNL     1      25.146 -31.711  -4.002  1.00  0.00    -0.039 A 
HETATM   12  C6  UNL     1      23.119 -30.585  -4.442  1.00  0.00     0.113 A 
HETATM   13  C3  UNL     1      24.620 -32.116  -2.785  1.00  0.00     0.048 A 
HETATM   14  C2  UNL     1      23.361 -31.773  -2.378  1.00  0.00     0.104 A 
HETATM   15  C8  UNL     1      22.597 -30.996  -3.220  1.00  0.00     0.133 A 
HETATM   16  C26 UNL     1      26.799 -33.496  -4.466  1.00  0.00     0.052 C 
HETATM   17  C25 UNL     1      28.131 -33.539  -5.139  1.00  0.00    -0.014 A 
HETATM   18  C17 UNL     1      28.431 -32.673  -6.160  1.00  0.00    -0.037 A 
HETATM   19  C23 UNL     1      29.040 -34.467  -4.701  1.00  0.00     0.111 A 
HETATM   20  C18 UNL     1      29.683 -32.776  -6.722  1.00  0.00     0.048 A 
HETATM   21  C19 UNL     1      30.635 -33.690  -6.320  1.00  0.00     0.104 A 
HETATM   22  C21 UNL     1      30.305 -34.554  -5.287  1.00  0.00     0.135 A 
BRANCH   8  23
HETATM   23  O4  UNL     1      24.523 -30.519  -7.184  1.00  0.00    -0.376 OA
BRANCH  23  24
HETATM   24  C10 UNL     1      24.034 -31.608  -7.815  1.00  0.00     0.114 C 
HETATM   25  C11 UNL     1      24.232 -31.408  -9.352  1.00  0.00     0.039 C 
HETATM   26  C12 UNL     1      22.596 -31.939  -7.683  1.00  0.00     0.039 C 
ENDBRANCH  23  24
ENDBRANCH   8  23
BRANCH  14  27
HETATM   27  O1  UNL     1      22.793 -32.155  -1.170  1.00  0.00    -0.353 OA
HETATM   28  C1  UNL     1      23.367 -31.786   0.067  1.00  0.00     0.210 C 
ENDBRANCH  14  27
BRANCH  15  29
HETATM   29  O3  UNL     1      21.313 -30.625  -2.847  1.00  0.00    -0.356 OA
ATOM     30  H3  UNL     1      20.684 -30.362  -3.508  1.00  0.00     0.218 HD
ENDBRANCH  15  29
BRANCH  12  31
HETATM   31  O2  UNL     1      22.247 -29.820  -5.195  1.00  0.00    -0.352 OA
HETATM   32  C7  UNL     1      22.668 -28.452  -5.380  1.00  0.00     0.210 C 
ENDBRANCH  12  31
BRANCH  21  33
HETATM   33  O5  UNL     1      31.895 -33.765  -6.915  1.00  0.00    -0.353 OA
HETATM   34  C20 UNL     1      32.029 -34.554  -8.081  1.00  0.00     0.210 C 
ENDBRANCH  21  33
BRANCH  22  35
HETATM   35  O6  UNL     1      31.225 -35.491  -4.847  1.00  0.00    -0.351 OA
HETATM   36  C22 UNL     1      32.398 -35.063  -4.183  1.00  0.00     0.210 C 
ENDBRANCH  22  35
BRANCH  19  37
HETATM   37  O7  UNL     1      28.774 -35.359  -3.674  1.00  0.00    -0.352 OA
HETATM   38  C24 UNL     1      29.081 -35.116  -2.324  1.00  0.00     0.210 C 
ENDBRANCH  19  37
ENDBRANCH   1   6
TORSDOF 9
ENDMDL
MODEL 2
REMARK VINA RESULT: -8.386468466      1.479      1.828
REMARK  9 active torsions:
REMARK  status: ('A' for Active; 'I' for Inactive)
REMARK    1  A    between atoms: O1_2  and  C2_3 
REMARK    2  A    between atoms: C6_7  and  O2_8 
REMARK    3  A    between atoms: C8_10  and  O3_11 
REMARK    4  A    between atoms: C9_13  and  O4_14 
REMARK    5  A    between atoms: O4_14  and  C10_15 
REMARK    6  A    between atoms: C14_19  and  C15_20 
REMARK    7  A    between atoms: C19_27  and  O5_28 
REMARK    8  A    between atoms: C21_30  and  O6_31 
REMARK    9  A    between atoms: C23_33  and  O7_34 
ROOT
HETATM    1  C15 UNL     1      26.553 -32.680  -8.159  1.00  0.00     0.082 C 
HETATM    2  N1  UNL     1      26.558 -31.759  -9.034  1.00  0.00    -0.308 N 
ATOM      3  H1  UNL     1      26.284 -32.042  -9.974  1.00  0.00     0.177 HD
HETATM    4  C16 UNL     1      26.883 -30.432  -8.881  1.00  0.00     0.181 C 
HETATM    5  N2  UNL     1      27.152 -29.329  -8.775  1.00  0.00    -0.172 NA
ENDROOT
BRANCH   1   6
HETATM    6  C14 UNL     1      26.898 -32.558  -6.747  1.00  0.00     0.066 C 
HETATM    7  C13 UNL     1      25.938 -33.049  -5.745  1.00  0.00     0.041 C 
HETATM    8  C9  UNL     1      24.781 -32.080  -5.415  1.00  0.00     0.164 C 
HETATM    9  C27 UNL     1      26.719 -32.966  -4.409  1.00  0.00     0.032 C 
HETATM   10  C5  UNL     1      24.501 -32.465  -4.016  1.00  0.00     0.014 A 
HETATM   11  C4  UNL     1      25.664 -32.927  -3.424  1.00  0.00    -0.039 A 
HETATM   12  C6  UNL     1      23.371 -32.424  -3.183  1.00  0.00     0.113 A 
HETATM   13  C3  UNL     1      25.686 -33.312  -2.093  1.00  0.00     0.048 A 
HETATM   14  C2  UNL     1      24.579 -33.264  -1.295  1.00  0.00     0.104 A 
HETATM   15  C8  UNL     1      23.401 -32.813  -1.848  1.00  0.00     0.133 A 
HETATM   16  C26 UNL     1      27.518 -34.262  -4.377  1.00  0.00     0.052 C 
HETATM   17  C25 UNL     1      28.524 -34.035  -5.457  1.00  0.00    -0.014 A 
HETATM   18  C17 UNL     1      28.228 -33.244  -6.538  1.00  0.00    -0.037 A 
HETATM   19  C23 UNL     1      29.749 -34.639  -5.329  1.00  0.00     0.111 A 
HETATM   20  C18 UNL     1      29.214 -33.083  -7.486  1.00  0.00     0.048 A 
HETATM   21  C19 UNL     1      30.461 -33.666  -7.406  1.00  0.00     0.104 A 
HETATM   22  C21 UNL     1      30.734 -34.461  -6.304  1.00  0.00     0.135 A 
BRANCH   8  23
HETATM   23  O4  UNL     1      23.757 -32.311  -6.237  1.00  0.00    -0.376 OA
BRANCH  23  24
HETATM   24  C10 UNL     1      23.325 -31.395  -7.129  1.00  0.00     0.114 C 
HETATM   25  C11 UNL     1      23.905 -30.003  -6.716  1.00  0.00     0.039 C 
HETATM   26  C12 UNL     1      21.871 -31.145  -7.268  1.00  0.00     0.039 C 
ENDBRANCH  23  24
ENDBRANCH   8  23
BRANCH  14  27
HETATM   27  O1  UNL     1      24.555 -33.638   0.042  1.00  0.00    -0.353 OA
HETATM   28  C1  UNL     1      24.486 -34.996   0.429  1.00  0.00     0.210 C 
ENDBRANCH  14  27
BRANCH  15  29
HETATM   29  O3  UNL     1      22.251 -32.748  -1.073  1.00  0.00    -0.356 OA
ATOM     30  H3  UNL     1      22.043 -33.453  -0.472  1.00  0.00     0.218 HD
ENDBRANCH  15  29
BRANCH  12  31
HETATM   31  O2  UNL     1      22.126 -32.003  -3.616  1.00  0.00    -0.352 OA
HETATM   32  C7  UNL     1      21.941 -30.572  -3.586  1.00  0.00     0.210 C 
ENDBRANCH  12  31
BRANCH  21  33
HETATM   33  O5  UNL     1      31.435 -33.479  -8.388  1.00  0.00    -0.353 OA
HETATM   34  C20 UNL     1      31.118 -33.855  -9.713  1.00  0.00     0.210 C 
ENDBRANCH  21  33
BRANCH  22  35
HETATM   35  O6  UNL     1      31.972 -35.070  -6.178  1.00  0.00    -0.351 OA
HETATM   36  C22 UNL     1      33.098 -34.297  -5.814  1.00  0.00     0.210 C 
ENDBRANCH  22  35
BRANCH  19  37
HETATM   37  O7  UNL     1      30.085 -35.445  -4.253  1.00  0.00    -0.352 OA
HETATM   38  C24 UNL     1      30.496 -34.953  -3.002  1.00  0.00     0.210 C 
ENDBRANCH  19  37
ENDBRANCH   1   6
TORSDOF 9
ENDMDL
MODEL 3
REMARK VINA RESULT: -8.148432818      1.231      1.744
REMARK  9 active torsions:
REMARK  status: ('A' for Active; 'I' for Inactive)
REMARK    1  A    between atoms: O1_2  and  C2_3 
REMARK    2  A    between atoms: C6_7  and  O2_8 
REMARK    3  A    between atoms: C8_10  and  O3_11 
REMARK    4  A    between atoms: C9_13  and  O4_14 
REMARK    5  A    between atoms: O4_14  and  C10_15 
REMARK    6  A    between atoms: C14_19  and  C15_20 
REMARK    7  A    between atoms: C19_27  and  O5_28 
REMARK    8  A    between atoms: C21_30  and  O6_31 
REMARK    9  A    between atoms: C23_33  and  O7_34 
ROOT
HETATM    1  C15 UNL     1      28.171 -31.561  -7.859  1.00  0.00     0.082 C 
HETATM    2  N1  UNL     1      27.549 -32.298  -8.684  1.00  0.00    -0.308 N 
ATOM      3  H1  UNL     1      27.788 -32.161  -9.666  1.00  0.00     0.177 HD
HETATM    4  C16 UNL     1      26.597 -33.257  -8.430  1.00  0.00     0.181 C 
HETATM    5  N2  UNL     1      25.803 -34.053  -8.241  1.00  0.00    -0.172 NA
ENDROOT
BRANCH   1   6
HETATM    6  C14 UNL     1      28.029 -31.546  -6.406  1.00  0.00     0.066 C 
HETATM    7  C13 UNL     1      26.680 -31.683  -5.832  1.00  0.00     0.041 C 
HETATM    8  C9  UNL     1      25.846 -30.383  -5.800  1.00  0.00     0.164 C 
HETATM    9  C27 UNL     1      26.937 -31.849  -4.313  1.00  0.00     0.032 C 
HETATM   10  C5  UNL     1      24.996 -30.640  -4.619  1.00  0.00     0.014 A 
HETATM   11  C4  UNL     1      25.677 -31.454  -3.730  1.00  0.00    -0.039 A 
HETATM   12  C6  UNL     1      23.722 -30.220  -4.203  1.00  0.00     0.113 A 
HETATM   13  C3  UNL     1      25.118 -31.812  -2.514  1.00  0.00     0.048 A 
HETATM   14  C2  UNL     1      23.878 -31.393  -2.122  1.00  0.00     0.104 A 
HETATM   15  C8  UNL     1      23.167 -30.584  -2.981  1.00  0.00     0.133 A 
HETATM   16  C26 UNL     1      27.228 -33.337  -4.157  1.00  0.00     0.052 C 
HETATM   17  C25 UNL     1      28.561 -33.465  -4.817  1.00  0.00    -0.014 A 
HETATM   18  C17 UNL     1      28.919 -32.631  -5.847  1.00  0.00    -0.037 A 
HETATM   19  C23 UNL     1      29.412 -34.438  -4.359  1.00  0.00     0.111 A 
HETATM   20  C18 UNL     1      30.168 -32.814  -6.396  1.00  0.00     0.048 A 
HETATM   21  C19 UNL     1      31.062 -33.776  -5.974  1.00  0.00     0.104 A 
HETATM   22  C21 UNL     1      30.675 -34.605  -4.933  1.00  0.00     0.135 A 
BRANCH   8  23
HETATM   23  O4  UNL     1      25.150 -30.271  -6.933  1.00  0.00    -0.376 OA
BRANCH  23  24
HETATM   24  C10 UNL     1      25.331 -29.248  -7.794  1.00  0.00     0.114 C 
HETATM   25  C11 UNL     1      25.248 -29.815  -9.248  1.00  0.00     0.039 C 
HETATM   26  C12 UNL     1      26.612 -28.503  -7.779  1.00  0.00     0.039 C 
ENDBRANCH  23  24
ENDBRANCH   8  23
BRANCH  14  27
HETATM   27  O1  UNL     1      23.279 -31.725  -0.915  1.00  0.00    -0.353 OA
HETATM   28  C1  UNL     1      23.749 -32.800  -0.127  1.00  0.00     0.210 C 
ENDBRANCH  14  27
BRANCH  15  29
HETATM   29  O3  UNL     1      21.903 -30.135  -2.624  1.00  0.00    -0.356 OA
ATOM     30  H3  UNL     1      21.462 -29.486  -3.159  1.00  0.00     0.218 HD
ENDBRANCH  15  29
BRANCH  12  31
HETATM   31  O2  UNL     1      22.902 -29.415  -4.974  1.00  0.00    -0.352 OA
HETATM   32  C7  UNL     1      22.028 -30.141  -5.865  1.00  0.00     0.210 C 
ENDBRANCH  12  31
BRANCH  21  33
HETATM   33  O5  UNL     1      32.320 -33.931  -6.556  1.00  0.00    -0.353 OA
HETATM   34  C20 UNL     1      32.401 -34.644  -7.774  1.00  0.00     0.210 C 
ENDBRANCH  21  33
BRANCH  22  35
HETATM   35  O6  UNL     1      31.536 -35.587  -4.472  1.00  0.00    -0.351 OA
HETATM   36  C22 UNL     1      32.775 -35.220  -3.898  1.00  0.00     0.210 C 
ENDBRANCH  22  35
BRANCH  19  37
HETATM   37  O7  UNL     1      29.086 -35.299  -3.323  1.00  0.00    -0.352 OA
HETATM   38  C24 UNL     1      29.382 -35.049  -1.972  1.00  0.00     0.210 C 
ENDBRANCH  19  37
ENDBRANCH   1   6
TORSDOF 9
ENDMDL
MODEL 4
REMARK VINA RESULT: -7.757867736      1.858      6.824
REMARK  9 active torsions:
REMARK  status: ('A' for Active; 'I' for Inactive)
REMARK    1  A    between atoms: O1_2  and  C2_3 
REMARK    2  A    between atoms: C6_7  and  O2_8 
REMARK    3  A    between atoms: C8_10  and  O3_11 
REMARK    4  A    between atoms: C9_13  and  O4_14 
REMARK    5  A    between atoms: O4_14  and  C10_15 
REMARK    6  A    between atoms: C14_19  and  C15_20 
REMARK    7  A    between atoms: C19_27  and  O5_28 
REMARK    8  A    between atoms: C21_30  and  O6_31 
REMARK    9  A    between atoms: C23_33  and  O7_34 
ROOT
HETATM    1  C15 UNL     1      27.261 -31.916  -8.908  1.00  0.00     0.082 C 
HETATM    2  N1  UNL     1      27.488 -30.667  -8.883  1.00  0.00    -0.308 N 
ATOM      3  H1  UNL     1      27.793 -30.255  -9.765  1.00  0.00     0.177 HD
HETATM    4  C16 UNL     1      27.378 -29.797  -7.825  1.00  0.00     0.181 C 
HETATM    5  N2  UNL     1      27.295 -29.059  -6.959  1.00  0.00    -0.172 NA
ENDROOT
BRANCH   1   6
HETATM    6  C14 UNL     1      26.818 -32.756  -7.801  1.00  0.00     0.066 C 
HETATM    7  C13 UNL     1      27.600 -32.744  -6.554  1.00  0.00     0.041 C 
HETATM    8  C9  UNL     1      28.859 -33.639  -6.562  1.00  0.00     0.164 C 
HETATM    9  C27 UNL     1      26.729 -33.552  -5.559  1.00  0.00     0.032 C 
HETATM   10  C5  UNL     1      28.955 -33.978  -5.126  1.00  0.00     0.014 A 
HETATM   11  C4  UNL     1      27.688 -33.980  -4.569  1.00  0.00    -0.039 A 
HETATM   12  C6  UNL     1      30.002 -34.326  -4.256  1.00  0.00     0.113 A 
HETATM   13  C3  UNL     1      27.491 -34.312  -3.238  1.00  0.00     0.048 A 
HETATM   14  C2  UNL     1      28.520 -34.651  -2.405  1.00  0.00     0.104 A 
HETATM   15  C8  UNL     1      29.796 -34.657  -2.921  1.00  0.00     0.133 A 
HETATM   16  C26 UNL     1      25.740 -32.521  -5.028  1.00  0.00     0.052 C 
HETATM   17  C25 UNL     1      24.878 -32.271  -6.221  1.00  0.00    -0.014 A 
HETATM   18  C17 UNL     1      25.385 -32.388  -7.491  1.00  0.00    -0.037 A 
HETATM   19  C23 UNL     1      23.569 -31.925  -6.005  1.00  0.00     0.111 A 
HETATM   20  C18 UNL     1      24.522 -32.145  -8.535  1.00  0.00     0.048 A 
HETATM   21  C19 UNL     1      23.198 -31.795  -8.374  1.00  0.00     0.104 A 
HETATM   22  C21 UNL     1      22.712 -31.683  -7.081  1.00  0.00     0.135 A 
BRANCH   8  23
HETATM   23  O4  UNL     1      29.904 -32.937  -7.005  1.00  0.00    -0.376 OA
BRANCH  23  24
HETATM   24  C10 UNL     1      30.741 -33.408  -7.954  1.00  0.00     0.114 C 
HETATM   25  C11 UNL     1      30.030 -33.272  -9.339  1.00  0.00     0.039 C 
HETATM   26  C12 UNL     1      31.163 -34.827  -7.911  1.00  0.00     0.039 C 
ENDBRANCH  23  24
ENDBRANCH   8  23
BRANCH  14  27
HETATM   27  O1  UNL     1      28.370 -34.991  -1.067  1.00  0.00    -0.353 OA
HETATM   28  C1  UNL     1      27.107 -34.970  -0.435  1.00  0.00     0.210 C 
ENDBRANCH  14  27
BRANCH  15  29
HETATM   29  O3  UNL     1      30.871 -34.995  -2.110  1.00  0.00    -0.356 OA
ATOM     30  H3  UNL     1      30.796 -35.718  -1.499  1.00  0.00     0.218 HD
ENDBRANCH  15  29
BRANCH  12  31
HETATM   31  O2  UNL     1      31.329 -34.360  -4.645  1.00  0.00    -0.352 OA
HETATM   32  C7  UNL     1      31.803 -35.671  -5.018  1.00  0.00     0.210 C 
ENDBRANCH  12  31
BRANCH  21  33
HETATM   33  O5  UNL     1      22.353 -31.556  -9.459  1.00  0.00    -0.353 OA
HETATM   34  C20 UNL     1      22.922 -31.553 -10.752  1.00  0.00     0.210 C 
ENDBRANCH  21  33
BRANCH  22  35
HETATM   35  O6  UNL     1      21.389 -31.333  -6.865  1.00  0.00    -0.351 OA
HETATM   36  C22 UNL     1      21.058 -29.989  -6.576  1.00  0.00     0.210 C 
ENDBRANCH  22  35
BRANCH  19  37
HETATM   37  O7  UNL     1      23.021 -31.796  -4.738  1.00  0.00    -0.352 OA
HETATM   38  C24 UNL     1      22.342 -32.828  -4.068  1.00  0.00     0.210 C 
ENDBRANCH  19  37
ENDBRANCH   1   6
TORSDOF 9
ENDMDL
MODEL 5
REMARK VINA RESULT: -7.702074630      2.015      6.962
REMARK  9 active torsions:
REMARK  status: ('A' for Active; 'I' for Inactive)
REMARK    1  A    between atoms: O1_2  and  C2_3 
REMARK    2  A    between atoms: C6_7  and  O2_8 
REMARK    3  A    between atoms: C8_10  and  O3_11 
REMARK    4  A    between atoms: C9_13  and  O4_14 
REMARK    5  A    between atoms: O4_14  and  C10_15 
REMARK    6  A    between atoms: C14_19  and  C15_20 
REMARK    7  A    between atoms: C19_27  and  O5_28 
REMARK    8  A    between atoms: C21_30  and  O6_31 
REMARK    9  A    between atoms: C23_33  and  O7_34 
ROOT
HETATM    1  C15 UNL     1      24.060 -30.612  -5.428  1.00  0.00     0.082 C 
HETATM    2  N1  UNL     1      23.123 -30.356  -6.245  1.00  0.00    -0.308 N 
ATOM      3  H1  UNL     1      22.806 -29.387  -6.264  1.00  0.00     0.177 HD
HETATM    4  C16 UNL     1      22.480 -31.211  -7.108  1.00  0.00     0.181 C 
HETATM    5  N2  UNL     1      21.932 -31.905  -7.828  1.00  0.00    -0.172 NA
ENDROOT
BRANCH   1   6
HETATM    6  C14 UNL     1      24.701 -31.902  -5.195  1.00  0.00     0.066 C 
HETATM    7  C13 UNL     1      26.161 -32.000  -5.358  1.00  0.00     0.041 C 
HETATM    8  C9  UNL     1      26.648 -32.164  -6.814  1.00  0.00     0.164 C 
HETATM    9  C27 UNL     1      26.502 -33.413  -4.822  1.00  0.00     0.032 C 
HETATM   10  C5  UNL     1      27.896 -32.924  -6.594  1.00  0.00     0.014 A 
HETATM   11  C4  UNL     1      27.768 -33.697  -5.453  1.00  0.00    -0.039 A 
HETATM   12  C6  UNL     1      29.111 -33.060  -7.286  1.00  0.00     0.113 A 
HETATM   13  C3  UNL     1      28.786 -34.545  -5.044  1.00  0.00     0.048 A 
HETATM   14  C2  UNL     1      29.962 -34.667  -5.729  1.00  0.00     0.104 A 
HETATM   15  C8  UNL     1      30.128 -33.912  -6.869  1.00  0.00     0.133 A 
HETATM   16  C26 UNL     1      26.616 -33.210  -3.316  1.00  0.00     0.052 C 
HETATM   17  C25 UNL     1      25.197 -32.953  -2.927  1.00  0.00    -0.014 A 
HETATM   18  C17 UNL     1      24.326 -32.356  -3.803  1.00  0.00    -0.037 A 
HETATM   19  C23 UNL     1      24.797 -33.336  -1.673  1.00  0.00     0.111 A 
HETATM   20  C18 UNL     1      23.035 -32.160  -3.367  1.00  0.00     0.048 A 
HETATM   21  C19 UNL     1      22.580 -32.526  -2.118  1.00  0.00     0.104 A 
HETATM   22  C21 UNL     1      23.481 -33.126  -1.253  1.00  0.00     0.135 A 
BRANCH   8  23
HETATM   23  O4  UNL     1      26.856 -30.962  -7.354  1.00  0.00    -0.376 OA
BRANCH  23  24
HETATM   24  C10 UNL     1      26.387 -30.627  -8.575  1.00  0.00     0.114 C 
HETATM   25  C11 UNL     1      25.842 -29.164  -8.502  1.00  0.00     0.039 C 
HETATM   26  C12 UNL     1      25.261 -31.395  -9.156  1.00  0.00     0.039 C 
ENDBRANCH  23  24
ENDBRANCH   8  23
BRANCH  14  27
HETATM   27  O1  UNL     1      31.006 -35.502  -5.358  1.00  0.00    -0.353 OA
HETATM   28  C1  UNL     1      32.047 -35.055  -4.514  1.00  0.00     0.210 C 
ENDBRANCH  14  27
BRANCH  15  29
HETATM   29  O3  UNL     1      31.307 -34.004  -7.596  1.00  0.00    -0.356 OA
ATOM     30  H3  UNL     1      31.569 -34.836  -7.971  1.00  0.00     0.218 HD
ENDBRANCH  15  29
BRANCH  12  31
HETATM   31  O2  UNL     1      29.409 -32.352  -8.436  1.00  0.00    -0.352 OA
HETATM   32  C7  UNL     1      29.018 -33.013  -9.658  1.00  0.00     0.210 C 
ENDBRANCH  12  31
BRANCH  21  33
HETATM   33  O5  UNL     1      21.263 -32.310  -1.711  1.00  0.00    -0.353 OA
HETATM   34  C20 UNL     1      20.829 -30.974  -1.558  1.00  0.00     0.210 C 
ENDBRANCH  21  33
BRANCH  22  35
HETATM   35  O6  UNL     1      23.075 -33.511   0.015  1.00  0.00    -0.351 OA
HETATM   36  C22 UNL     1      23.095 -32.573   1.072  1.00  0.00     0.210 C 
ENDBRANCH  22  35
BRANCH  19  37
HETATM   37  O7  UNL     1      25.647 -33.940  -0.761  1.00  0.00    -0.352 OA
HETATM   38  C24 UNL     1      25.844 -35.329  -0.672  1.00  0.00     0.210 C 
ENDBRANCH  19  37
ENDBRANCH   1   6
TORSDOF 9
ENDMDL
