MODEL 1
REMARK VINA RESULT: -7.526422681      0.000      0.000
REMARK  8 active torsions:
REMARK  status: ('A' for Active; 'I' for Inactive)
REMARK    1  A    between atoms: C5_5  and  C6_6 
REMARK    2  A    between atoms: C6_6  and  N1_7 
REMARK       I    between atoms: N1_7  and  C7_9 
REMARK    3  A    between atoms: C7_9  and  C8_11 
REMARK    4  A    between atoms: C8_11  and  C9_12 
REMARK    5  A    between atoms: C12_15  and  O2_16 
REMARK    6  A    between atoms: O2_16  and  C13_17 
REMARK       I    between atoms: C13_17  and  N2_19 
REMARK    7  A    between atoms: C17_28  and  N5_29 
REMARK       I    between atoms: N5_29  and  C18_31 
REMARK    8  A    between atoms: C18_31  and  C19_33 
ROOT
HETATM    1  C13 UNL     1      10.365  -2.450 -18.314  1.00  0.00     0.366 C 
HETATM    2  O3  UNL     1      10.789  -1.650 -19.215  1.00  0.00    -0.238 OA
HETATM    3  N2  UNL     1       9.200  -2.181 -17.578  1.00  0.00    -0.278 N 
HETATM    4  C14 UNL     1       8.627  -3.033 -16.533  1.00  0.00     0.317 C 
HETATM    5  F1  UNL     1       7.618  -3.802 -17.050  1.00  0.00    -0.221 F 
HETATM    6  C15 UNL     1       8.127  -2.033 -15.559  1.00  0.00     0.067 A 
HETATM    7  C16 UNL     1       7.952  -0.850 -16.221  1.00  0.00     0.068 A 
HETATM    8  N3  UNL     1       7.509   0.038 -15.330  1.00  0.00    -0.300 N 
ATOM      9  H3  UNL     1       7.286   1.014 -15.526  1.00  0.00     0.186 HD
HETATM   10  N4  UNL     1       7.405  -0.560 -14.133  1.00  0.00    -0.285 N 
ATOM     11  H4  UNL     1       7.087  -0.099 -13.280  1.00  0.00     0.188 HD
HETATM   12  C17 UNL     1       7.774  -1.846 -14.213  1.00  0.00     0.135 A 
HETATM   13  C23 UNL     1       8.339  -1.053 -17.676  1.00  0.00     0.078 C 
HETATM   14  C24 UNL     1       9.090   0.151 -18.132  1.00  0.00     0.045 C 
HETATM   15  C25 UNL     1       7.088  -1.316 -18.473  1.00  0.00     0.045 C 
ENDROOT
BRANCH   1  16
HETATM   16  O2  UNL     1      11.170  -3.572 -18.158  1.00  0.00    -0.298 OA
BRANCH  16  17
HETATM   17  C12 UNL     1      12.338  -3.619 -17.399  1.00  0.00     0.134 C 
HETATM   18  C11 UNL     1      13.441  -4.468 -17.902  1.00  0.00     0.033 C 
HETATM   19  C10 UNL     1      14.432  -4.293 -16.725  1.00  0.00     0.007 C 
HETATM   20  C9  UNL     1      13.490  -4.552 -15.555  1.00  0.00    -0.003 C 
HETATM   21  C26 UNL     1      12.160  -4.003 -15.981  1.00  0.00     0.037 C 
BRANCH  20  22
HETATM   22  C8  UNL     1      13.998  -4.090 -14.248  1.00  0.00     0.107 C 
BRANCH  22  23
HETATM   23  C7  UNL     1      14.097  -5.045 -13.167  1.00  0.00     0.217 C 
HETATM   24  N1  UNL     1      12.915  -5.552 -12.561  1.00  0.00    -0.361 N 
ATOM     25  H1  UNL     1      12.013  -5.230 -12.911  1.00  0.00     0.162 HD
HETATM   26  O1  UNL     1      15.184  -5.463 -12.718  1.00  0.00    -0.274 OA
BRANCH  24  27
HETATM   27  C6  UNL     1      12.933  -6.499 -11.477  1.00  0.00     0.128 C 
BRANCH  27  28
HETATM   28  C5  UNL     1      11.862  -6.314 -10.459  1.00  0.00     0.012 A 
HETATM   29  C2  UNL     1      11.938  -6.871  -9.098  1.00  0.00    -0.042 A 
HETATM   30  C1  UNL     1      13.008  -7.826  -8.666  1.00  0.00     0.015 C 
HETATM   31  C3  UNL     1      11.312  -6.033  -7.984  1.00  0.00     0.015 C 
HETATM   32  C4  UNL     1      10.965  -7.488 -10.105  1.00  0.00     0.016 A 
ENDBRANCH  27  28
ENDBRANCH  24  27
ENDBRANCH  22  23
ENDBRANCH  20  22
ENDBRANCH  16  17
ENDBRANCH   1  16
BRANCH  12  33
HETATM   33  N5  UNL     1       7.823  -2.771 -13.317  1.00  0.00    -0.311 N 
HETATM   34  C18 UNL     1       7.465  -2.581 -11.982  1.00  0.00     0.227 C 
HETATM   35  O4  UNL     1       6.699  -1.671 -11.600  1.00  0.00    -0.273 OA
ATOM     36  H5  UNL     1       8.142  -3.697 -13.601  1.00  0.00     0.170 HD
BRANCH  34  37
HETATM   37  C19 UNL     1       7.982  -3.472 -10.883  1.00  0.00     0.078 A 
HETATM   38  C20 UNL     1       8.330  -2.794  -9.603  1.00  0.00     0.014 A 
HETATM   39  C21 UNL     1       9.768  -3.254  -9.716  1.00  0.00     0.002 A 
HETATM   40  C22 UNL     1       9.423  -3.884 -11.040  1.00  0.00     0.014 A 
ENDBRANCH  34  37
ENDBRANCH  12  33
TORSDOF 8
ENDMDL
MODEL 2
REMARK VINA RESULT: -7.291059382      3.325      8.761
REMARK  8 active torsions:
REMARK  status: ('A' for Active; 'I' for Inactive)
REMARK    1  A    between atoms: C5_5  and  C6_6 
REMARK    2  A    between atoms: C6_6  and  N1_7 
REMARK       I    between atoms: N1_7  and  C7_9 
REMARK    3  A    between atoms: C7_9  and  C8_11 
REMARK    4  A    between atoms: C8_11  and  C9_12 
REMARK    5  A    between atoms: C12_15  and  O2_16 
REMARK    6  A    between atoms: O2_16  and  C13_17 
REMARK       I    between atoms: C13_17  and  N2_19 
REMARK    7  A    between atoms: C17_28  and  N5_29 
REMARK       I    between atoms: N5_29  and  C18_31 
REMARK    8  A    between atoms: C18_31  and  C19_33 
ROOT
HETATM    1  C13 UNL     1      15.443  -8.120 -10.618  1.00  0.00     0.366 C 
HETATM    2  O3  UNL     1      16.260  -8.523  -9.723  1.00  0.00    -0.238 OA
HETATM    3  N2  UNL     1      15.889  -7.539 -11.816  1.00  0.00    -0.278 N 
HETATM    4  C14 UNL     1      15.037  -7.053 -12.905  1.00  0.00     0.317 C 
HETATM    5  F1  UNL     1      14.944  -8.000 -13.891  1.00  0.00    -0.221 F 
HETATM    6  C15 UNL     1      15.772  -5.846 -13.355  1.00  0.00     0.067 A 
HETATM    7  C16 UNL     1      17.074  -5.973 -12.961  1.00  0.00     0.068 A 
HETATM    8  N3  UNL     1      17.717  -4.877 -13.367  1.00  0.00    -0.300 N 
ATOM      9  H3  UNL     1      18.707  -4.681 -13.219  1.00  0.00     0.186 HD
HETATM   10  N4  UNL     1      16.851  -4.073 -14.003  1.00  0.00    -0.285 N 
ATOM     11  H4  UNL     1      17.090  -3.170 -14.412  1.00  0.00     0.188 HD
HETATM   12  C17 UNL     1      15.628  -4.622 -14.028  1.00  0.00     0.135 A 
HETATM   13  C23 UNL     1      17.227  -7.295 -12.230  1.00  0.00     0.078 C 
HETATM   14  C24 UNL     1      18.117  -7.078 -11.053  1.00  0.00     0.045 C 
HETATM   15  C25 UNL     1      17.756  -8.321 -13.198  1.00  0.00     0.045 C 
ENDROOT
BRANCH   1  16
HETATM   16  O2  UNL     1      14.112  -8.318 -10.270  1.00  0.00    -0.298 OA
BRANCH  16  17
HETATM   17  C12 UNL     1      13.330  -7.417  -9.551  1.00  0.00     0.134 C 
HETATM   18  C11 UNL     1      12.333  -7.979  -8.613  1.00  0.00     0.033 C 
HETATM   19  C10 UNL     1      11.667  -6.659  -8.153  1.00  0.00     0.007 C 
HETATM   20  C9  UNL     1      11.435  -6.002  -9.509  1.00  0.00    -0.003 C 
HETATM   21  C26 UNL     1      12.592  -6.425 -10.365  1.00  0.00     0.037 C 
BRANCH  20  22
HETATM   22  C8  UNL     1      11.165  -4.551  -9.446  1.00  0.00     0.107 C 
BRANCH  22  23
HETATM   23  C7  UNL     1       9.935  -4.050 -10.017  1.00  0.00     0.217 C 
HETATM   24  N1  UNL     1       9.792  -3.969 -11.429  1.00  0.00    -0.361 N 
ATOM     25  H1  UNL     1      10.569  -4.276 -12.014  1.00  0.00     0.162 HD
HETATM   26  O1  UNL     1       8.964  -3.672  -9.329  1.00  0.00    -0.274 OA
BRANCH  24  27
HETATM   27  C6  UNL     1       8.602  -3.476 -12.071  1.00  0.00     0.128 C 
BRANCH  27  28
HETATM   28  C5  UNL     1       8.704  -3.307 -13.547  1.00  0.00     0.012 A 
HETATM   29  C2  UNL     1       8.200  -2.120 -14.259  1.00  0.00    -0.042 A 
HETATM   30  C1  UNL     1       7.379  -1.058 -13.595  1.00  0.00     0.015 C 
HETATM   31  C3  UNL     1       9.001  -1.669 -15.480  1.00  0.00     0.015 C 
HETATM   32  C4  UNL     1       7.452  -3.448 -14.396  1.00  0.00     0.016 A 
ENDBRANCH  27  28
ENDBRANCH  24  27
ENDBRANCH  22  23
ENDBRANCH  20  22
ENDBRANCH  16  17
ENDBRANCH   1  16
BRANCH  12  33
HETATM   33  N5  UNL     1      14.519  -4.199 -14.530  1.00  0.00    -0.311 N 
HETATM   34  C18 UNL     1      13.374  -3.934 -13.778  1.00  0.00     0.227 C 
HETATM   35  O4  UNL     1      13.401  -3.680 -12.556  1.00  0.00    -0.273 OA
ATOM     36  H5  UNL     1      14.476  -4.049 -15.538  1.00  0.00     0.170 HD
BRANCH  34  37
HETATM   37  C19 UNL     1      11.999  -3.933 -14.393  1.00  0.00     0.078 A 
HETATM   38  C20 UNL     1      11.381  -5.270 -14.610  1.00  0.00     0.014 A 
HETATM   39  C21 UNL     1      11.299  -5.024 -16.101  1.00  0.00     0.002 A 
HETATM   40  C22 UNL     1      11.980  -3.699 -15.881  1.00  0.00     0.014 A 
ENDBRANCH  34  37
ENDBRANCH  12  33
TORSDOF 8
ENDMDL
MODEL 3
REMARK VINA RESULT: -7.284793815      5.445      9.417
REMARK  8 active torsions:
REMARK  status: ('A' for Active; 'I' for Inactive)
REMARK    1  A    between atoms: C5_5  and  C6_6 
REMARK    2  A    between atoms: C6_6  and  N1_7 
REMARK       I    between atoms: N1_7  and  C7_9 
REMARK    3  A    between atoms: C7_9  and  C8_11 
REMARK    4  A    between atoms: C8_11  and  C9_12 
REMARK    5  A    between atoms: C12_15  and  O2_16 
REMARK    6  A    between atoms: O2_16  and  C13_17 
REMARK       I    between atoms: C13_17  and  N2_19 
REMARK    7  A    between atoms: C17_28  and  N5_29 
REMARK       I    between atoms: N5_29  and  C18_31 
REMARK    8  A    between atoms: C18_31  and  C19_33 
ROOT
HETATM    1  C13 UNL     1       9.901  -8.684 -11.366  1.00  0.00     0.366 C 
HETATM    2  O3  UNL     1      10.451  -9.733 -10.889  1.00  0.00    -0.238 OA
HETATM    3  N2  UNL     1      10.465  -7.411 -11.190  1.00  0.00    -0.278 N 
HETATM    4  C14 UNL     1       9.920  -6.151 -11.701  1.00  0.00     0.317 C 
HETATM    5  F1  UNL     1      10.547  -5.804 -12.869  1.00  0.00    -0.221 F 
HETATM    6  C15 UNL     1      10.230  -5.210 -10.598  1.00  0.00     0.067 A 
HETATM    7  C16 UNL     1      11.259  -5.739  -9.869  1.00  0.00     0.068 A 
HETATM    8  N3  UNL     1      11.519  -4.884  -8.878  1.00  0.00    -0.300 N 
ATOM      9  H3  UNL     1      12.238  -5.005  -8.165  1.00  0.00     0.186 HD
HETATM   10  N4  UNL     1      10.682  -3.839  -8.972  1.00  0.00    -0.285 N 
ATOM     11  H4  UNL     1      10.674  -3.043  -8.333  1.00  0.00     0.188 HD
HETATM   12  C17 UNL     1       9.859  -3.985 -10.020  1.00  0.00     0.135 A 
HETATM   13  C23 UNL     1      11.655  -7.065 -10.493  1.00  0.00     0.078 C 
HETATM   14  C24 UNL     1      11.929  -8.035  -9.394  1.00  0.00     0.045 C 
HETATM   15  C25 UNL     1      12.838  -6.836 -11.397  1.00  0.00     0.045 C 
ENDROOT
BRANCH   1  16
HETATM   16  O2  UNL     1       8.721  -8.950 -12.052  1.00  0.00    -0.298 OA
BRANCH  16  17
HETATM   17  C12 UNL     1       7.441  -8.664 -11.582  1.00  0.00     0.134 C 
HETATM   18  C11 UNL     1       6.558  -9.811 -11.274  1.00  0.00     0.033 C 
HETATM   19  C10 UNL     1       5.271  -9.030 -10.910  1.00  0.00     0.007 C 
HETATM   20  C9  UNL     1       5.208  -8.072 -12.093  1.00  0.00    -0.003 C 
HETATM   21  C26 UNL     1       6.635  -7.765 -12.439  1.00  0.00     0.037 C 
BRANCH  20  22
HETATM   22  C8  UNL     1       4.322  -6.908 -11.891  1.00  0.00     0.107 C 
BRANCH  22  23
HETATM   23  C7  UNL     1       2.894  -7.130 -11.819  1.00  0.00     0.217 C 
HETATM   24  N1  UNL     1       2.132  -6.502 -10.797  1.00  0.00    -0.361 N 
ATOM     25  H1  UNL     1       2.615  -5.898 -10.132  1.00  0.00     0.162 HD
HETATM   26  O1  UNL     1       2.272  -7.859 -12.619  1.00  0.00    -0.274 OA
BRANCH  24  27
HETATM   27  C6  UNL     1       0.710  -6.679 -10.656  1.00  0.00     0.128 C 
BRANCH  27  28
HETATM   28  C5  UNL     1       0.107  -6.023  -9.463  1.00  0.00     0.012 A 
HETATM   29  C2  UNL     1      -1.346  -5.862  -9.280  1.00  0.00    -0.042 A 
HETATM   30  C1  UNL     1      -2.343  -6.177 -10.353  1.00  0.00     0.015 C 
HETATM   31  C3  UNL     1      -1.865  -5.960  -7.846  1.00  0.00     0.015 C 
HETATM   32  C4  UNL     1      -0.493  -4.635  -9.607  1.00  0.00     0.016 A 
ENDBRANCH  27  28
ENDBRANCH  24  27
ENDBRANCH  22  23
ENDBRANCH  20  22
ENDBRANCH  16  17
ENDBRANCH   1  16
BRANCH  12  33
HETATM   33  N5  UNL     1       8.918  -3.228 -10.470  1.00  0.00    -0.311 N 
HETATM   34  C18 UNL     1       7.769  -2.903  -9.749  1.00  0.00     0.227 C 
HETATM   35  O4  UNL     1       7.705  -2.950  -8.503  1.00  0.00    -0.273 OA
ATOM     36  H5  UNL     1       9.020  -2.844 -11.409  1.00  0.00     0.170 HD
BRANCH  34  37
HETATM   37  C19 UNL     1       6.499  -2.463 -10.429  1.00  0.00     0.078 A 
HETATM   38  C20 UNL     1       6.629  -2.064 -11.858  1.00  0.00     0.014 A 
HETATM   39  C21 UNL     1       6.134  -0.668 -11.546  1.00  0.00     0.002 A 
HETATM   40  C22 UNL     1       6.064  -1.060 -10.093  1.00  0.00     0.014 A 
ENDBRANCH  34  37
ENDBRANCH  12  33
TORSDOF 8
ENDMDL
MODEL 4
REMARK VINA RESULT: -7.194521766      2.857      9.014
REMARK  8 active torsions:
REMARK  status: ('A' for Active; 'I' for Inactive)
REMARK    1  A    between atoms: C5_5  and  C6_6 
REMARK    2  A    between atoms: C6_6  and  N1_7 
REMARK       I    between atoms: N1_7  and  C7_9 
REMARK    3  A    between atoms: C7_9  and  C8_11 
REMARK    4  A    between atoms: C8_11  and  C9_12 
REMARK    5  A    between atoms: C12_15  and  O2_16 
REMARK    6  A    between atoms: O2_16  and  C13_17 
REMARK       I    between atoms: C13_17  and  N2_19 
REMARK    7  A    between atoms: C17_28  and  N5_29 
REMARK       I    between atoms: N5_29  and  C18_31 
REMARK    8  A    between atoms: C18_31  and  C19_33 
ROOT
HETATM    1  C13 UNL     1      11.467  -5.452  -9.407  1.00  0.00     0.366 C 
HETATM    2  O3  UNL     1      10.927  -5.691  -8.274  1.00  0.00    -0.238 OA
HETATM    3  N2  UNL     1      12.188  -6.437 -10.102  1.00  0.00    -0.278 N 
HETATM    4  C14 UNL     1      12.836  -6.267 -11.405  1.00  0.00     0.317 C 
HETATM    5  F1  UNL     1      12.031  -6.753 -12.401  1.00  0.00    -0.221 F 
HETATM    6  C15 UNL     1      14.072  -7.071 -11.242  1.00  0.00     0.067 A 
HETATM    7  C16 UNL     1      13.858  -7.973 -10.237  1.00  0.00     0.068 A 
HETATM    8  N3  UNL     1      14.981  -8.681 -10.099  1.00  0.00    -0.300 N 
ATOM      9  H3  UNL     1      15.128  -9.433  -9.426  1.00  0.00     0.186 HD
HETATM   10  N4  UNL     1      15.884  -8.245 -10.990  1.00  0.00    -0.285 N 
ATOM     11  H4  UNL     1      16.827  -8.622 -11.092  1.00  0.00     0.188 HD
HETATM   12  C17 UNL     1      15.378  -7.247 -11.727  1.00  0.00     0.135 A 
HETATM   13  C23 UNL     1      12.448  -7.778  -9.710  1.00  0.00     0.078 C 
HETATM   14  C24 UNL     1      12.483  -7.900  -8.224  1.00  0.00     0.045 C 
HETATM   15  C25 UNL     1      11.544  -8.786 -10.371  1.00  0.00     0.045 C 
ENDROOT
BRANCH   1  16
HETATM   16  O2  UNL     1      11.262  -4.150  -9.846  1.00  0.00    -0.298 OA
BRANCH  16  17
HETATM   17  C12 UNL     1      10.127  -3.702 -10.520  1.00  0.00     0.134 C 
HETATM   18  C11 UNL     1       8.895  -3.509  -9.724  1.00  0.00     0.033 C 
HETATM   19  C10 UNL     1       7.927  -3.130 -10.872  1.00  0.00     0.007 C 
HETATM   20  C9  UNL     1       8.256  -4.240 -11.863  1.00  0.00    -0.003 C 
HETATM   21  C26 UNL     1       9.720  -4.515 -11.688  1.00  0.00     0.037 C 
BRANCH  20  22
HETATM   22  C8  UNL     1       7.801  -3.980 -13.244  1.00  0.00     0.107 C 
BRANCH  22  23
HETATM   23  C7  UNL     1       8.719  -3.351 -14.168  1.00  0.00     0.217 C 
HETATM   24  N1  UNL     1       9.328  -4.123 -15.194  1.00  0.00    -0.361 N 
ATOM     25  H1  UNL     1       9.096  -5.114 -15.259  1.00  0.00     0.162 HD
HETATM   26  O1  UNL     1       9.020  -2.141 -14.119  1.00  0.00    -0.274 OA
BRANCH  24  27
HETATM   27  C6  UNL     1      10.256  -3.572 -16.146  1.00  0.00     0.128 C 
BRANCH  27  28
HETATM   28  C5  UNL     1      11.498  -4.367 -16.352  1.00  0.00     0.012 A 
HETATM   29  C2  UNL     1      12.567  -4.469 -15.344  1.00  0.00    -0.042 A 
HETATM   30  C1  UNL     1      12.592  -3.641 -14.096  1.00  0.00     0.015 C 
HETATM   31  C3  UNL     1      13.301  -5.806 -15.264  1.00  0.00     0.015 C 
HETATM   32  C4  UNL     1      12.807  -3.641 -16.608  1.00  0.00     0.016 A 
ENDBRANCH  27  28
ENDBRANCH  24  27
ENDBRANCH  22  23
ENDBRANCH  20  22
ENDBRANCH  16  17
ENDBRANCH   1  16
BRANCH  12  33
HETATM   33  N5  UNL     1      15.894  -6.553 -12.683  1.00  0.00    -0.311 N 
HETATM   34  C18 UNL     1      17.133  -5.917 -12.602  1.00  0.00     0.227 C 
HETATM   35  O4  UNL     1      18.032  -6.266 -11.808  1.00  0.00    -0.273 OA
ATOM     36  H5  UNL     1      15.364  -6.464 -13.550  1.00  0.00     0.170 HD
BRANCH  34  37
HETATM   37  C19 UNL     1      17.486  -4.745 -13.479  1.00  0.00     0.078 A 
HETATM   38  C20 UNL     1      16.338  -4.017 -14.088  1.00  0.00     0.014 A 
HETATM   39  C21 UNL     1      16.839  -4.332 -15.482  1.00  0.00     0.002 A 
HETATM   40  C22 UNL     1      17.962  -5.119 -14.859  1.00  0.00     0.014 A 
ENDBRANCH  34  37
ENDBRANCH  12  33
TORSDOF 8
ENDMDL
MODEL 5
REMARK VINA RESULT: -7.052877367      3.493      8.652
REMARK  8 active torsions:
REMARK  status: ('A' for Active; 'I' for Inactive)
REMARK    1  A    between atoms: C5_5  and  C6_6 
REMARK    2  A    between atoms: C6_6  and  N1_7 
REMARK       I    between atoms: N1_7  and  C7_9 
REMARK    3  A    between atoms: C7_9  and  C8_11 
REMARK    4  A    between atoms: C8_11  and  C9_12 
REMARK    5  A    between atoms: C12_15  and  O2_16 
REMARK    6  A    between atoms: O2_16  and  C13_17 
REMARK       I    between atoms: C13_17  and  N2_19 
REMARK    7  A    between atoms: C17_28  and  N5_29 
REMARK       I    between atoms: N5_29  and  C18_31 
REMARK    8  A    between atoms: C18_31  and  C19_33 
ROOT
HETATM    1  C13 UNL     1      15.470  -8.140 -10.600  1.00  0.00     0.366 C 
HETATM    2  O3  UNL     1      16.324  -8.508  -9.724  1.00  0.00    -0.238 OA
HETATM    3  N2  UNL     1      15.864  -7.556 -11.814  1.00  0.00    -0.278 N 
HETATM    4  C14 UNL     1      14.967  -7.109 -12.883  1.00  0.00     0.317 C 
HETATM    5  F1  UNL     1      14.878  -8.068 -13.858  1.00  0.00    -0.221 F 
HETATM    6  C15 UNL     1      15.649  -5.882 -13.364  1.00  0.00     0.067 A 
HETATM    7  C16 UNL     1      16.965  -5.963 -13.005  1.00  0.00     0.068 A 
HETATM    8  N3  UNL     1      17.560  -4.850 -13.439  1.00  0.00    -0.300 N 
ATOM      9  H3  UNL     1      18.547  -4.621 -13.320  1.00  0.00     0.186 HD
HETATM   10  N4  UNL     1      16.650  -4.081 -14.057  1.00  0.00    -0.285 N 
ATOM     11  H4  UNL     1      16.848  -3.174 -14.480  1.00  0.00     0.188 HD
HETATM   12  C17 UNL     1      15.446  -4.670 -14.043  1.00  0.00     0.135 A 
HETATM   13  C23 UNL     1      17.181  -7.273 -12.268  1.00  0.00     0.078 C 
HETATM   14  C24 UNL     1      18.095  -7.016 -11.118  1.00  0.00     0.045 C 
HETATM   15  C25 UNL     1      17.716  -8.290 -13.241  1.00  0.00     0.045 C 
ENDROOT
BRANCH   1  16
HETATM   16  O2  UNL     1      14.156  -8.378 -10.214  1.00  0.00    -0.298 OA
BRANCH  16  17
HETATM   17  C12 UNL     1      13.388  -7.527  -9.421  1.00  0.00     0.134 C 
HETATM   18  C11 UNL     1      12.472  -8.153  -8.442  1.00  0.00     0.033 C 
HETATM   19  C10 UNL     1      11.789  -6.872  -7.903  1.00  0.00     0.007 C 
HETATM   20  C9  UNL     1      11.449  -6.187  -9.221  1.00  0.00    -0.003 C 
HETATM   21  C26 UNL     1      12.566  -6.542 -10.158  1.00  0.00     0.037 C 
BRANCH  20  22
HETATM   22  C8  UNL     1      11.133  -4.750  -9.098  1.00  0.00     0.107 C 
BRANCH  22  23
HETATM   23  C7  UNL     1      10.029  -4.216  -9.866  1.00  0.00     0.217 C 
HETATM   24  N1  UNL     1      10.030  -4.335 -11.282  1.00  0.00    -0.361 N 
ATOM     25  H1  UNL     1      10.817  -4.805 -11.730  1.00  0.00     0.162 HD
HETATM   26  O1  UNL     1       9.049  -3.641  -9.349  1.00  0.00    -0.274 OA
BRANCH  24  27
HETATM   27  C6  UNL     1       8.973  -3.824 -12.114  1.00  0.00     0.128 C 
BRANCH  27  28
HETATM   28  C5  UNL     1       8.390  -4.806 -13.070  1.00  0.00     0.012 A 
HETATM   29  C2  UNL     1       7.873  -4.431 -14.397  1.00  0.00    -0.042 A 
HETATM   30  C1  UNL     1       7.717  -3.009 -14.839  1.00  0.00     0.015 C 
HETATM   31  C3  UNL     1       8.067  -5.453 -15.516  1.00  0.00     0.015 C 
HETATM   32  C4  UNL     1       6.887  -4.820 -13.293  1.00  0.00     0.016 A 
ENDBRANCH  27  28
ENDBRANCH  24  27
ENDBRANCH  22  23
ENDBRANCH  20  22
ENDBRANCH  16  17
ENDBRANCH   1  16
BRANCH  12  33
HETATM   33  N5  UNL     1      14.310  -4.288 -14.518  1.00  0.00    -0.311 N 
HETATM   34  C18 UNL     1      13.147  -4.172 -13.757  1.00  0.00     0.227 C 
HETATM   35  O4  UNL     1      13.151  -4.022 -12.517  1.00  0.00    -0.273 OA
ATOM     36  H5  UNL     1      14.259  -4.057 -15.510  1.00  0.00     0.170 HD
BRANCH  34  37
HETATM   37  C19 UNL     1      11.777  -4.220 -14.382  1.00  0.00     0.078 A 
HETATM   38  C20 UNL     1      11.712  -4.754 -15.771  1.00  0.00     0.014 A 
HETATM   39  C21 UNL     1      11.147  -3.445 -16.280  1.00  0.00     0.002 A 
HETATM   40  C22 UNL     1      11.274  -2.892 -14.885  1.00  0.00     0.014 A 
ENDBRANCH  34  37
ENDBRANCH  12  33
TORSDOF 8
ENDMDL
