MODEL 1
REMARK VINA RESULT: -9.200933890      0.000      0.000
REMARK  5 active torsions:
REMARK  status: ('A' for Active; 'I' for Inactive)
REMARK    1  A    between atoms: C2_2  and  C3_3 
REMARK    2  A    between atoms: C2_2  and  C7_7 
REMARK    3  A    between atoms: C3_3  and  C4_4 
REMARK    4  A    between atoms: C4_4  and  C5_5 
REMARK    5  A    between atoms: C11_11  and  C12_12 
ROOT
HETATM    1  C7  UNL     1      64.561  47.411  29.059  1.00  0.00    -0.009 C 
HETATM    2  C8  UNL     1      65.485  48.554  28.576  1.00  0.00     0.020 C 
HETATM    3  C9  UNL     1      66.423  47.424  28.107  1.00  0.00    -0.004 C 
HETATM    4  C10 UNL     1      67.258  47.025  29.274  1.00  0.00     0.017 C 
HETATM    5  C11 UNL     1      66.406  46.267  30.271  1.00  0.00    -0.018 C 
HETATM    6  C16 UNL     1      66.067  44.943  29.676  1.00  0.00     0.012 C 
HETATM    7  C17 UNL     1      65.404  45.149  28.358  1.00  0.00     0.011 C 
HETATM    8  C18 UNL     1      65.151  46.574  27.991  1.00  0.00    -0.029 C 
HETATM    9  C19 UNL     1      64.608  46.704  26.613  1.00  0.00     0.016 C 
HETATM   10  C20 UNL     1      65.118  47.056  30.415  1.00  0.00     0.026 C 
ENDROOT
BRANCH   5  11
HETATM   11  C12 UNL     1      67.144  46.122  31.556  1.00  0.00     0.091 C 
HETATM   12  C13 UNL     1      67.065  44.746  32.152  1.00  0.00     0.033 C 
HETATM   13  C14 UNL     1      67.216  45.014  33.631  1.00  0.00     0.075 C 
HETATM   14  C15 UNL     1      66.722  46.404  33.766  1.00  0.00     0.089 C 
HETATM   15  N1  UNL     1      66.327  47.020  35.017  1.00  0.00    -0.088 NA
HETATM   16  N2  UNL     1      66.707  46.949  32.611  1.00  0.00    -0.377 N 
ATOM     17  H2  UNL     1      66.402  47.911  32.463  1.00  0.00     0.160 HD
ENDBRANCH   5  11
BRANCH   1  18
HETATM   18  C2  UNL     1      63.130  47.763  28.980  1.00  0.00    -0.080 C 
HETATM   19  C1  UNL     1      62.830  49.010  28.556  1.00  0.00     0.015 C 
BRANCH  18  20
HETATM   20  C3  UNL     1      61.983  46.914  29.298  1.00  0.00     0.034 C 
BRANCH  20  21
HETATM   21  C4  UNL     1      60.680  47.198  28.671  1.00  0.00     0.004 C 
BRANCH  21  22
HETATM   22  C5  UNL     1      59.511  46.488  29.318  1.00  0.00    -0.004 C 
HETATM   23  C6  UNL     1      59.834  46.090  30.741  1.00  0.00     0.005 C 
ENDBRANCH  21  22
ENDBRANCH  20  21
ENDBRANCH  18  20
ENDBRANCH   1  18
TORSDOF 5
ENDMDL
MODEL 2
REMARK VINA RESULT: -9.045500990      1.019      1.176
REMARK  5 active torsions:
REMARK  status: ('A' for Active; 'I' for Inactive)
REMARK    1  A    between atoms: C2_2  and  C3_3 
REMARK    2  A    between atoms: C2_2  and  C7_7 
REMARK    3  A    between atoms: C3_3  and  C4_4 
REMARK    4  A    between atoms: C4_4  and  C5_5 
REMARK    5  A    between atoms: C11_11  and  C12_12 
ROOT
HETATM    1  C7  UNL     1      64.124  47.799  28.670  1.00  0.00    -0.009 C 
HETATM    2  C8  UNL     1      64.980  48.916  28.030  1.00  0.00     0.020 C 
HETATM    3  C9  UNL     1      65.990  47.791  27.725  1.00  0.00    -0.004 C 
HETATM    4  C10 UNL     1      66.838  47.614  28.935  1.00  0.00     0.017 C 
HETATM    5  C11 UNL     1      66.026  46.953  30.030  1.00  0.00    -0.018 C 
HETATM    6  C16 UNL     1      65.774  45.539  29.629  1.00  0.00     0.012 C 
HETATM    7  C17 UNL     1      65.110  45.517  28.295  1.00  0.00     0.011 C 
HETATM    8  C18 UNL     1      64.772  46.857  27.731  1.00  0.00    -0.029 C 
HETATM    9  C19 UNL     1      64.234  46.758  26.348  1.00  0.00     0.016 C 
HETATM   10  C20 UNL     1      64.691  47.673  30.062  1.00  0.00     0.026 C 
ENDROOT
BRANCH   5  11
HETATM   11  C12 UNL     1      66.761  47.037  31.322  1.00  0.00     0.091 C 
HETATM   12  C13 UNL     1      68.249  46.887  31.187  1.00  0.00     0.033 C 
HETATM   13  C14 UNL     1      68.649  46.309  32.525  1.00  0.00     0.075 C 
HETATM   14  C15 UNL     1      67.415  45.620  32.968  1.00  0.00     0.089 C 
HETATM   15  N1  UNL     1      67.361  44.618  34.013  1.00  0.00    -0.088 NA
HETATM   16  N2  UNL     1      66.431  46.057  32.281  1.00  0.00    -0.377 N 
ATOM     17  H2  UNL     1      65.476  45.722  32.416  1.00  0.00     0.160 HD
ENDBRANCH   5  11
BRANCH   1  18
HETATM   18  C2  UNL     1      62.675  48.047  28.543  1.00  0.00    -0.080 C 
HETATM   19  C1  UNL     1      62.303  49.202  27.950  1.00  0.00     0.015 C 
BRANCH  18  20
HETATM   20  C3  UNL     1      61.580  47.180  28.976  1.00  0.00     0.034 C 
BRANCH  20  21
HETATM   21  C4  UNL     1      60.244  47.354  28.378  1.00  0.00     0.004 C 
BRANCH  21  22
HETATM   22  C5  UNL     1      59.144  46.590  29.082  1.00  0.00    -0.004 C 
HETATM   23  C6  UNL     1      59.560  46.200  30.482  1.00  0.00     0.005 C 
ENDBRANCH  21  22
ENDBRANCH  20  21
ENDBRANCH  18  20
ENDBRANCH   1  18
TORSDOF 5
ENDMDL
MODEL 3
REMARK VINA RESULT: -8.770571304      2.793      5.990
REMARK  5 active torsions:
REMARK  status: ('A' for Active; 'I' for Inactive)
REMARK    1  A    between atoms: C2_2  and  C3_3 
REMARK    2  A    between atoms: C2_2  and  C7_7 
REMARK    3  A    between atoms: C3_3  and  C4_4 
REMARK    4  A    between atoms: C4_4  and  C5_5 
REMARK    5  A    between atoms: C11_11  and  C12_12 
ROOT
HETATM    1  C7  UNL     1      65.319  46.879  28.705  1.00  0.00    -0.009 C 
HETATM    2  C8  UNL     1      65.042  46.071  27.415  1.00  0.00     0.020 C 
HETATM    3  C9  UNL     1      64.538  47.410  26.839  1.00  0.00    -0.004 C 
HETATM    4  C10 UNL     1      63.113  47.561  27.243  1.00  0.00     0.017 C 
HETATM    5  C11 UNL     1      63.036  47.865  28.725  1.00  0.00    -0.018 C 
HETATM    6  C16 UNL     1      63.560  49.244  28.942  1.00  0.00     0.012 C 
HETATM    7  C17 UNL     1      64.936  49.343  28.382  1.00  0.00     0.011 C 
HETATM    8  C18 UNL     1      65.495  48.068  27.841  1.00  0.00    -0.029 C 
HETATM    9  C19 UNL     1      66.814  48.273  27.186  1.00  0.00     0.016 C 
HETATM   10  C20 UNL     1      63.984  46.895  29.406  1.00  0.00     0.026 C 
ENDROOT
BRANCH   5  11
HETATM   11  C12 UNL     1      61.630  47.728  29.194  1.00  0.00     0.091 C 
HETATM   12  C13 UNL     1      61.263  46.335  29.621  1.00  0.00     0.033 C 
HETATM   13  C14 UNL     1      59.776  46.287  29.357  1.00  0.00     0.075 C 
HETATM   14  C15 UNL     1      59.599  47.292  28.285  1.00  0.00     0.089 C 
HETATM   15  N1  UNL     1      58.432  47.389  27.431  1.00  0.00    -0.088 NA
HETATM   16  N2  UNL     1      60.634  48.040  28.248  1.00  0.00    -0.377 N 
ATOM     17  H2  UNL     1      60.731  48.808  27.582  1.00  0.00     0.160 HD
ENDBRANCH   5  11
BRANCH   1  18
HETATM   18  C2  UNL     1      66.480  46.368  29.459  1.00  0.00    -0.080 C 
HETATM   19  C1  UNL     1      66.919  45.131  29.140  1.00  0.00     0.015 C 
BRANCH  18  20
HETATM   20  C3  UNL     1      67.229  47.049  30.514  1.00  0.00     0.034 C 
BRANCH  20  21
HETATM   21  C4  UNL     1      66.890  46.785  31.923  1.00  0.00     0.004 C 
BRANCH  21  22
HETATM   22  C5  UNL     1      67.870  45.881  32.639  1.00  0.00    -0.004 C 
HETATM   23  C6  UNL     1      67.212  44.586  33.058  1.00  0.00     0.005 C 
ENDBRANCH  21  22
ENDBRANCH  20  21
ENDBRANCH  18  20
ENDBRANCH   1  18
TORSDOF 5
ENDMDL
MODEL 4
REMARK VINA RESULT: -8.601693583      1.461      2.412
REMARK  5 active torsions:
REMARK  status: ('A' for Active; 'I' for Inactive)
REMARK    1  A    between atoms: C2_2  and  C3_3 
REMARK    2  A    between atoms: C2_2  and  C7_7 
REMARK    3  A    between atoms: C3_3  and  C4_4 
REMARK    4  A    between atoms: C4_4  and  C5_5 
REMARK    5  A    between atoms: C11_11  and  C12_12 
ROOT
HETATM    1  C7  UNL     1      62.508  47.887  28.786  1.00  0.00    -0.009 C 
HETATM    2  C8  UNL     1      62.573  49.409  28.520  1.00  0.00     0.020 C 
HETATM    3  C9  UNL     1      63.944  49.109  27.882  1.00  0.00    -0.004 C 
HETATM    4  C10 UNL     1      64.952  49.094  28.977  1.00  0.00     0.017 C 
HETATM    5  C11 UNL     1      64.771  47.846  29.816  1.00  0.00    -0.018 C 
HETATM    6  C16 UNL     1      65.197  46.675  28.998  1.00  0.00     0.012 C 
HETATM    7  C17 UNL     1      64.426  46.656  27.723  1.00  0.00     0.011 C 
HETATM    8  C18 UNL     1      63.377  47.712  27.600  1.00  0.00    -0.029 C 
HETATM    9  C19 UNL     1      62.742  47.710  26.256  1.00  0.00     0.016 C 
HETATM   10  C20 UNL     1      63.280  47.719  30.070  1.00  0.00     0.026 C 
ENDROOT
BRANCH   5  11
HETATM   11  C12 UNL     1      65.565  47.962  31.069  1.00  0.00     0.091 C 
HETATM   12  C13 UNL     1      66.364  46.735  31.400  1.00  0.00     0.033 C 
HETATM   13  C14 UNL     1      66.462  46.795  32.907  1.00  0.00     0.075 C 
HETATM   14  C15 UNL     1      65.260  47.574  33.283  1.00  0.00     0.089 C 
HETATM   15  N1  UNL     1      64.693  47.622  34.616  1.00  0.00    -0.088 NA
HETATM   16  N2  UNL     1      64.823  48.182  32.248  1.00  0.00    -0.377 N 
ATOM     17  H2  UNL     1      63.998  48.782  32.272  1.00  0.00     0.160 HD
ENDBRANCH   5  11
BRANCH   1  18
HETATM   18  C2  UNL     1      61.131  47.359  28.743  1.00  0.00    -0.080 C 
HETATM   19  C1  UNL     1      60.890  46.221  29.429  1.00  0.00     0.015 C 
BRANCH  18  20
HETATM   20  C3  UNL     1      59.977  47.930  28.049  1.00  0.00     0.034 C 
BRANCH  20  21
HETATM   21  C4  UNL     1      58.746  47.130  27.918  1.00  0.00     0.004 C 
BRANCH  21  22
HETATM   22  C5  UNL     1      57.589  47.628  28.758  1.00  0.00    -0.004 C 
HETATM   23  C6  UNL     1      57.082  46.547  29.685  1.00  0.00     0.005 C 
ENDBRANCH  21  22
ENDBRANCH  20  21
ENDBRANCH  18  20
ENDBRANCH   1  18
TORSDOF 5
ENDMDL
MODEL 5
REMARK VINA RESULT: -8.381416656      2.732      5.710
REMARK  5 active torsions:
REMARK  status: ('A' for Active; 'I' for Inactive)
REMARK    1  A    between atoms: C2_2  and  C3_3 
REMARK    2  A    between atoms: C2_2  and  C7_7 
REMARK    3  A    between atoms: C3_3  and  C4_4 
REMARK    4  A    between atoms: C4_4  and  C5_5 
REMARK    5  A    between atoms: C11_11  and  C12_12 
ROOT
HETATM    1  C7  UNL     1      66.602  46.616  32.767  1.00  0.00    -0.009 C 
HETATM    2  C8  UNL     1      66.458  45.083  32.912  1.00  0.00     0.020 C 
HETATM    3  C9  UNL     1      67.408  45.008  31.700  1.00  0.00    -0.004 C 
HETATM    4  C10 UNL     1      66.576  45.134  30.472  1.00  0.00     0.017 C 
HETATM    5  C11 UNL     1      66.083  46.559  30.336  1.00  0.00    -0.018 C 
HETATM    6  C16 UNL     1      67.251  47.421  29.997  1.00  0.00     0.012 C 
HETATM    7  C17 UNL     1      68.308  47.249  31.033  1.00  0.00     0.011 C 
HETATM    8  C18 UNL     1      67.937  46.367  32.179  1.00  0.00    -0.029 C 
HETATM    9  C19 UNL     1      69.082  46.141  33.100  1.00  0.00     0.016 C 
HETATM   10  C20 UNL     1      65.586  46.969  31.710  1.00  0.00     0.026 C 
ENDROOT
BRANCH   5  11
HETATM   11  C12 UNL     1      65.024  46.629  29.293  1.00  0.00     0.091 C 
HETATM   12  C13 UNL     1      65.417  46.007  27.983  1.00  0.00     0.033 C 
HETATM   13  C14 UNL     1      64.589  46.782  26.984  1.00  0.00     0.075 C 
HETATM   14  C15 UNL     1      64.366  48.074  27.673  1.00  0.00     0.089 C 
HETATM   15  N1  UNL     1      63.934  49.292  27.019  1.00  0.00    -0.088 NA
HETATM   16  N2  UNL     1      64.617  47.925  28.917  1.00  0.00    -0.377 N 
ATOM     17  H2  UNL     1      64.530  48.689  29.588  1.00  0.00     0.160 HD
ENDBRANCH   5  11
BRANCH   1  18
HETATM   18  C2  UNL     1      66.515  47.320  34.061  1.00  0.00    -0.080 C 
HETATM   19  C1  UNL     1      66.417  46.554  35.169  1.00  0.00     0.015 C 
BRANCH  18  20
HETATM   20  C3  UNL     1      66.531  48.764  34.294  1.00  0.00     0.034 C 
BRANCH  20  21
HETATM   21  C4  UNL     1      65.381  49.399  34.962  1.00  0.00     0.004 C 
BRANCH  21  22
HETATM   22  C5  UNL     1      64.121  49.440  34.124  1.00  0.00    -0.004 C 
HETATM   23  C6  UNL     1      63.169  48.333  34.515  1.00  0.00     0.005 C 
ENDBRANCH  21  22
ENDBRANCH  20  21
ENDBRANCH  18  20
ENDBRANCH   1  18
TORSDOF 5
ENDMDL
