MODEL 1
REMARK VINA RESULT: -10.330190323      0.000      0.000
REMARK  4 active torsions:
REMARK  status: ('A' for Active; 'I' for Inactive)
REMARK    1  A    between atoms: C2_2  and  C4_4 
REMARK    2  A    between atoms: C10_10  and  C11_11 
REMARK    3  A    between atoms: C11_11  and  C12_12 
REMARK    4  A    between atoms: C12_12  and  C13_13 
ROOT
HETATM    1  C4  UNL     1      66.258  47.309  32.851  1.00  0.00    -0.017 C 
HETATM    2  C5  UNL     1      66.317  46.017  33.636  1.00  0.00     0.018 C 
HETATM    3  C6  UNL     1      67.323  45.135  32.936  1.00  0.00    -0.012 C 
HETATM    4  C7  UNL     1      68.661  45.767  33.113  1.00  0.00     0.009 C 
HETATM    5  C8  UNL     1      68.642  47.112  32.373  1.00  0.00    -0.012 C 
HETATM    6  C9  UNL     1      68.373  46.742  30.916  1.00  0.00     0.014 C 
HETATM    7  C10 UNL     1      67.002  46.179  30.732  1.00  0.00    -0.039 C 
HETATM    8  C20 UNL     1      66.906  44.886  31.520  1.00  0.00     0.014 C 
HETATM    9  C21 UNL     1      65.943  47.087  31.423  1.00  0.00     0.023 C 
HETATM   10  C22 UNL     1      67.599  48.004  32.925  1.00  0.00     0.018 C 
ENDROOT
BRANCH   7  11
HETATM   11  C11 UNL     1      66.562  46.082  29.342  1.00  0.00     0.011 C 
BRANCH  11  12
HETATM   12  C12 UNL     1      65.181  45.997  28.895  1.00  0.00     0.034 C 
BRANCH  12  13
HETATM   13  C13 UNL     1      64.682  46.907  27.815  1.00  0.00     0.190 C 
HETATM   14  N1  UNL     1      65.502  48.104  27.689  1.00  0.00    -0.066 N 
HETATM   15  C14 UNL     1      64.777  49.323  27.971  1.00  0.00     0.186 C 
ATOM     16  H12 UNL     1      66.336  48.035  28.272  1.00  0.00     0.278 HD
ATOM     17  H11 UNL     1      65.941  48.148  26.770  1.00  0.00     0.278 HD
HETATM   18  C15 UNL     1      64.286  49.252  29.406  1.00  0.00     0.033 C 
HETATM   19  C19 UNL     1      63.623  49.516  26.996  1.00  0.00     0.033 C 
HETATM   20  C16 UNL     1      63.250  48.149  29.440  1.00  0.00     0.009 C 
HETATM   21  C17 UNL     1      63.268  47.415  28.157  1.00  0.00     0.016 C 
HETATM   22  C18 UNL     1      62.813  48.240  26.976  1.00  0.00     0.009 C 
ENDBRANCH  12  13
ENDBRANCH  11  12
ENDBRANCH   7  11
BRANCH   1  23
HETATM   23  C2  UNL     1      65.189  48.118  33.469  1.00  0.00    -0.084 C 
HETATM   24  C1  UNL     1      63.925  47.875  33.183  1.00  0.00     0.015 C 
HETATM   25  C3  UNL     1      65.502  49.212  34.418  1.00  0.00     0.043 C 
ENDBRANCH   1  23
TORSDOF 4
ENDMDL
MODEL 2
REMARK VINA RESULT: -10.101297466      0.663      1.192
REMARK  4 active torsions:
REMARK  status: ('A' for Active; 'I' for Inactive)
REMARK    1  A    between atoms: C2_2  and  C4_4 
REMARK    2  A    between atoms: C10_10  and  C11_11 
REMARK    3  A    between atoms: C11_11  and  C12_12 
REMARK    4  A    between atoms: C12_12  and  C13_13 
ROOT
HETATM    1  C4  UNL     1      66.269  47.302  33.098  1.00  0.00    -0.017 C 
HETATM    2  C5  UNL     1      66.687  46.197  34.042  1.00  0.00     0.018 C 
HETATM    3  C6  UNL     1      67.715  45.371  33.307  1.00  0.00    -0.012 C 
HETATM    4  C7  UNL     1      68.926  46.225  33.137  1.00  0.00     0.009 C 
HETATM    5  C8  UNL     1      68.543  47.396  32.222  1.00  0.00    -0.012 C 
HETATM    6  C9  UNL     1      68.123  46.735  30.911  1.00  0.00     0.014 C 
HETATM    7  C10 UNL     1      66.867  45.942  31.070  1.00  0.00    -0.039 C 
HETATM    8  C20 UNL     1      67.136  44.811  32.045  1.00  0.00     0.014 C 
HETATM    9  C21 UNL     1      65.781  46.783  31.802  1.00  0.00     0.023 C 
HETATM   10  C22 UNL     1      67.454  48.199  32.819  1.00  0.00     0.018 C 
ENDROOT
BRANCH   7  11
HETATM   11  C11 UNL     1      66.240  45.531  29.816  1.00  0.00     0.011 C 
BRANCH  11  12
HETATM   12  C12 UNL     1      65.952  46.403  28.689  1.00  0.00     0.034 C 
BRANCH  12  13
HETATM   13  C13 UNL     1      64.538  46.606  28.236  1.00  0.00     0.190 C 
HETATM   14  N1  UNL     1      64.470  47.283  26.949  1.00  0.00    -0.066 N 
HETATM   15  C14 UNL     1      63.809  48.567  27.014  1.00  0.00     0.186 C 
ATOM     16  H12 UNL     1      65.399  47.374  26.537  1.00  0.00     0.278 HD
ATOM     17  H11 UNL     1      64.033  46.686  26.247  1.00  0.00     0.278 HD
HETATM   18  C15 UNL     1      64.605  49.453  27.957  1.00  0.00     0.033 C 
HETATM   19  C19 UNL     1      62.364  48.421  27.473  1.00  0.00     0.033 C 
HETATM   20  C16 UNL     1      64.446  48.846  29.334  1.00  0.00     0.009 C 
HETATM   21  C17 UNL     1      63.791  47.527  29.221  1.00  0.00     0.016 C 
HETATM   22  C18 UNL     1      62.361  47.596  28.740  1.00  0.00     0.009 C 
ENDBRANCH  12  13
ENDBRANCH  11  12
ENDBRANCH   7  11
BRANCH   1  23
HETATM   23  C2  UNL     1      65.179  48.032  33.776  1.00  0.00    -0.084 C 
HETATM   24  C1  UNL     1      65.446  49.105  34.493  1.00  0.00     0.015 C 
HETATM   25  C3  UNL     1      63.770  47.586  33.668  1.00  0.00     0.043 C 
ENDBRANCH   1  23
TORSDOF 4
ENDMDL
MODEL 3
REMARK VINA RESULT: -9.536766698      0.918      1.551
REMARK  4 active torsions:
REMARK  status: ('A' for Active; 'I' for Inactive)
REMARK    1  A    between atoms: C2_2  and  C4_4 
REMARK    2  A    between atoms: C10_10  and  C11_11 
REMARK    3  A    between atoms: C11_11  and  C12_12 
REMARK    4  A    between atoms: C12_12  and  C13_13 
ROOT
HETATM    1  C4  UNL     1      66.379  47.388  33.402  1.00  0.00    -0.017 C 
HETATM    2  C5  UNL     1      66.650  46.049  34.053  1.00  0.00     0.018 C 
HETATM    3  C6  UNL     1      67.553  45.290  33.111  1.00  0.00    -0.012 C 
HETATM    4  C7  UNL     1      68.867  45.996  33.096  1.00  0.00     0.009 C 
HETATM    5  C8  UNL     1      68.640  47.387  32.488  1.00  0.00    -0.012 C 
HETATM    6  C9  UNL     1      68.127  47.106  31.077  1.00  0.00     0.014 C 
HETATM    7  C10 UNL     1      66.777  46.468  31.096  1.00  0.00    -0.039 C 
HETATM    8  C20 UNL     1      66.896  45.117  31.777  1.00  0.00     0.014 C 
HETATM    9  C21 UNL     1      65.817  47.250  32.041  1.00  0.00     0.023 C 
HETATM   10  C22 UNL     1      67.672  48.164  33.292  1.00  0.00     0.018 C 
ENDROOT
BRANCH   7  11
HETATM   11  C11 UNL     1      66.093  46.443  29.805  1.00  0.00     0.011 C 
BRANCH  11  12
HETATM   12  C12 UNL     1      66.370  47.326  28.683  1.00  0.00     0.034 C 
BRANCH  12  13
HETATM   13  C13 UNL     1      65.467  48.486  28.396  1.00  0.00     0.190 C 
HETATM   14  N1  UNL     1      64.411  48.613  29.391  1.00  0.00    -0.066 N 
HETATM   15  C14 UNL     1      63.085  48.449  28.840  1.00  0.00     0.186 C 
ATOM     16  H12 UNL     1      64.564  47.968  30.167  1.00  0.00     0.278 HD
ATOM     17  H11 UNL     1      64.488  49.499  29.891  1.00  0.00     0.278 HD
HETATM   18  C15 UNL     1      62.995  47.052  28.251  1.00  0.00     0.033 C 
HETATM   19  C19 UNL     1      62.788  49.515  27.792  1.00  0.00     0.033 C 
HETATM   20  C16 UNL     1      63.932  47.037  27.063  1.00  0.00     0.009 C 
HETATM   21  C17 UNL     1      64.739  48.275  27.054  1.00  0.00     0.016 C 
HETATM   22  C18 UNL     1      63.932  49.527  26.805  1.00  0.00     0.009 C 
ENDBRANCH  12  13
ENDBRANCH  11  12
ENDBRANCH   7  11
BRANCH   1  23
HETATM   23  C2  UNL     1      65.401  48.076  34.268  1.00  0.00    -0.084 C 
HETATM   24  C1  UNL     1      65.777  49.100  35.008  1.00  0.00     0.015 C 
HETATM   25  C3  UNL     1      63.985  47.642  34.328  1.00  0.00     0.043 C 
ENDBRANCH   1  23
TORSDOF 4
ENDMDL
MODEL 4
REMARK VINA RESULT: -9.303106984      1.592      6.029
REMARK  4 active torsions:
REMARK  status: ('A' for Active; 'I' for Inactive)
REMARK    1  A    between atoms: C2_2  and  C4_4 
REMARK    2  A    between atoms: C10_10  and  C11_11 
REMARK    3  A    between atoms: C11_11  and  C12_12 
REMARK    4  A    between atoms: C12_12  and  C13_13 
ROOT
HETATM    1  C4  UNL     1      62.562  47.673  28.455  1.00  0.00    -0.017 C 
HETATM    2  C5  UNL     1      62.817  49.009  29.116  1.00  0.00     0.018 C 
HETATM    3  C6  UNL     1      64.258  49.359  28.834  1.00  0.00    -0.012 C 
HETATM    4  C7  UNL     1      64.369  49.615  27.369  1.00  0.00     0.009 C 
HETATM    5  C8  UNL     1      64.070  48.296  26.643  1.00  0.00    -0.012 C 
HETATM    6  C9  UNL     1      65.149  47.335  27.138  1.00  0.00     0.014 C 
HETATM    7  C10 UNL     1      64.987  47.023  28.589  1.00  0.00    -0.039 C 
HETATM    8  C20 UNL     1      65.172  48.306  29.378  1.00  0.00     0.014 C 
HETATM    9  C21 UNL     1      63.513  46.631  28.902  1.00  0.00     0.023 C 
HETATM   10  C22 UNL     1      62.706  47.818  26.957  1.00  0.00     0.018 C 
ENDROOT
BRANCH   7  11
HETATM   11  C11 UNL     1      65.783  45.893  29.064  1.00  0.00     0.011 C 
BRANCH  11  12
HETATM   12  C12 UNL     1      66.813  45.955  30.088  1.00  0.00     0.034 C 
BRANCH  12  13
HETATM   13  C13 UNL     1      66.465  45.697  31.522  1.00  0.00     0.190 C 
HETATM   14  N1  UNL     1      65.965  46.894  32.185  1.00  0.00    -0.066 N 
HETATM   15  C14 UNL     1      66.801  47.331  33.279  1.00  0.00     0.186 C 
ATOM     16  H12 UNL     1      65.822  47.648  31.513  1.00  0.00     0.278 HD
ATOM     17  H11 UNL     1      65.002  46.761  32.496  1.00  0.00     0.278 HD
HETATM   18  C15 UNL     1      68.173  47.659  32.715  1.00  0.00     0.033 C 
HETATM   19  C19 UNL     1      66.886  46.269  34.368  1.00  0.00     0.033 C 
HETATM   20  C16 UNL     1      68.762  46.343  32.257  1.00  0.00     0.009 C 
HETATM   21  C17 UNL     1      67.725  45.291  32.312  1.00  0.00     0.016 C 
HETATM   22  C18 UNL     1      67.265  44.961  33.712  1.00  0.00     0.009 C 
ENDBRANCH  12  13
ENDBRANCH  11  12
ENDBRANCH   7  11
BRANCH   1  23
HETATM   23  C2  UNL     1      61.191  47.280  28.836  1.00  0.00    -0.084 C 
HETATM   24  C1  UNL     1      60.169  47.617  28.075  1.00  0.00     0.015 C 
HETATM   25  C3  UNL     1      60.927  46.502  30.071  1.00  0.00     0.043 C 
ENDBRANCH   1  23
TORSDOF 4
ENDMDL
MODEL 5
REMARK VINA RESULT: -9.093049371      1.650      6.041
REMARK  4 active torsions:
REMARK  status: ('A' for Active; 'I' for Inactive)
REMARK    1  A    between atoms: C2_2  and  C4_4 
REMARK    2  A    between atoms: C10_10  and  C11_11 
REMARK    3  A    between atoms: C11_11  and  C12_12 
REMARK    4  A    between atoms: C12_12  and  C13_13 
ROOT
HETATM    1  C4  UNL     1      62.417  47.643  28.443  1.00  0.00    -0.017 C 
HETATM    2  C5  UNL     1      62.584  49.024  29.036  1.00  0.00     0.018 C 
HETATM    3  C6  UNL     1      63.978  49.480  28.677  1.00  0.00    -0.012 C 
HETATM    4  C7  UNL     1      64.008  49.678  27.199  1.00  0.00     0.009 C 
HETATM    5  C8  UNL     1      63.793  48.307  26.542  1.00  0.00    -0.012 C 
HETATM    6  C9  UNL     1      64.968  47.462  27.029  1.00  0.00     0.014 C 
HETATM    7  C10 UNL     1      64.892  47.203  28.498  1.00  0.00    -0.039 C 
HETATM    8  C20 UNL     1      64.999  48.531  29.224  1.00  0.00     0.014 C 
HETATM    9  C21 UNL     1      63.470  46.705  28.890  1.00  0.00     0.023 C 
HETATM   10  C22 UNL     1      62.488  47.732  26.935  1.00  0.00     0.018 C 
ENDROOT
BRANCH   7  11
HETATM   11  C11 UNL     1      65.799  46.166  28.984  1.00  0.00     0.011 C 
BRANCH  11  12
HETATM   12  C12 UNL     1      67.197  46.360  29.333  1.00  0.00     0.034 C 
BRANCH  12  13
HETATM   13  C13 UNL     1      67.760  45.724  30.567  1.00  0.00     0.190 C 
HETATM   14  N1  UNL     1      66.756  44.957  31.292  1.00  0.00    -0.066 N 
HETATM   15  C14 UNL     1      66.497  45.468  32.618  1.00  0.00     0.186 C 
ATOM     16  H12 UNL     1      65.892  44.891  30.753  1.00  0.00     0.278 HD
ATOM     17  H11 UNL     1      67.009  43.970  31.327  1.00  0.00     0.278 HD
HETATM   18  C15 UNL     1      65.977  46.888  32.477  1.00  0.00     0.033 C 
HETATM   19  C19 UNL     1      67.750  45.418  33.484  1.00  0.00     0.033 C 
HETATM   20  C16 UNL     1      67.133  47.707  31.948  1.00  0.00     0.009 C 
HETATM   21  C17 UNL     1      68.238  46.807  31.554  1.00  0.00     0.016 C 
HETATM   22  C18 UNL     1      68.872  46.078  32.715  1.00  0.00     0.009 C 
ENDBRANCH  12  13
ENDBRANCH  11  12
ENDBRANCH   7  11
BRANCH   1  23
HETATM   23  C2  UNL     1      61.100  47.155  28.899  1.00  0.00    -0.084 C 
HETATM   24  C1  UNL     1      61.002  46.450  30.007  1.00  0.00     0.015 C 
HETATM   25  C3  UNL     1      59.864  47.444  28.132  1.00  0.00     0.043 C 
ENDBRANCH   1  23
TORSDOF 4
ENDMDL
