MODEL 1
REMARK VINA RESULT: -8.277918018      0.000      0.000
REMARK  3 active torsions:
REMARK  status: ('A' for Active; 'I' for Inactive)
REMARK    1  A    between atoms: C3_3  and  N1_4 
REMARK    2  A    between atoms: N1_4  and  C4_6 
REMARK    3  A    between atoms: C4_6  and  C5_7 
ROOT
HETATM    1  C1  UNL     1      65.734  50.098  27.051  1.00  0.00     0.015 C 
HETATM    2  C2  UNL     1      64.951  49.339  27.580  1.00  0.00    -0.086 C 
HETATM    3  C3  UNL     1      64.005  48.396  28.251  1.00  0.00     0.090 C 
HETATM    4  C7  UNL     1      64.533  47.028  28.057  1.00  0.00     0.044 C 
HETATM    5  C8  UNL     1      64.957  46.284  29.285  1.00  0.00     0.009 C 
HETATM    6  C9  UNL     1      65.493  47.296  30.270  1.00  0.00     0.002 C 
HETATM    7  C10 UNL     1      64.331  48.089  30.764  1.00  0.00    -0.036 C 
HETATM    8  C11 UNL     1      63.239  47.337  31.423  1.00  0.00     0.015 C 
HETATM    9  C12 UNL     1      64.907  49.065  31.800  1.00  0.00     0.010 C 
HETATM   10  C13 UNL     1      65.496  48.372  32.967  1.00  0.00     0.006 C 
HETATM   11  C14 UNL     1      66.046  47.007  32.706  1.00  0.00    -0.006 C 
HETATM   12  C15 UNL     1      67.086  46.639  33.698  1.00  0.00     0.005 C 
HETATM   13  C16 UNL     1      68.497  46.701  33.259  1.00  0.00     0.000 C 
HETATM   14  C17 UNL     1      68.620  47.687  32.130  1.00  0.00     0.001 C 
HETATM   15  C18 UNL     1      67.864  47.175  30.967  1.00  0.00     0.010 C 
HETATM   16  C19 UNL     1      66.436  46.758  31.271  1.00  0.00    -0.036 C 
HETATM   17  C20 UNL     1      66.433  45.225  31.118  1.00  0.00     0.016 C 
HETATM   18  C21 UNL     1      63.760  48.869  29.615  1.00  0.00     0.053 C 
ENDROOT
BRANCH   3  19
HETATM   19  N1  UNL     1      62.807  48.525  27.439  1.00  0.00    -0.403 N 
ATOM     20  H1  UNL     1      62.837  48.446  26.422  1.00  0.00     0.154 HD
BRANCH  19  21
HETATM   21  C4  UNL     1      61.601  48.767  28.127  1.00  0.00     0.115 C 
BRANCH  21  22
HETATM   22  C5  UNL     1      60.691  47.545  27.909  1.00  0.00     0.015 C 
HETATM   23  C6  UNL     1      60.518  46.780  29.206  1.00  0.00     0.006 C 
ENDBRANCH  21  22
ENDBRANCH  19  21
ENDBRANCH   3  19
TORSDOF 3
ENDMDL
MODEL 2
REMARK VINA RESULT: -7.401846789      1.324      3.422
REMARK  3 active torsions:
REMARK  status: ('A' for Active; 'I' for Inactive)
REMARK    1  A    between atoms: C3_3  and  N1_4 
REMARK    2  A    between atoms: N1_4  and  C4_6 
REMARK    3  A    between atoms: C4_6  and  C5_7 
ROOT
HETATM    1  C1  UNL     1      61.085  46.189  30.505  1.00  0.00     0.015 C 
HETATM    2  C2  UNL     1      61.926  46.835  29.918  1.00  0.00    -0.086 C 
HETATM    3  C3  UNL     1      62.983  47.621  29.211  1.00  0.00     0.090 C 
HETATM    4  C7  UNL     1      63.437  48.682  30.136  1.00  0.00     0.044 C 
HETATM    5  C8  UNL     1      64.860  48.615  30.598  1.00  0.00     0.009 C 
HETATM    6  C9  UNL     1      65.245  47.157  30.683  1.00  0.00     0.002 C 
HETATM    7  C10 UNL     1      65.339  46.644  29.286  1.00  0.00    -0.036 C 
HETATM    8  C11 UNL     1      66.299  47.323  28.386  1.00  0.00     0.015 C 
HETATM    9  C12 UNL     1      65.785  45.179  29.412  1.00  0.00     0.010 C 
HETATM   10  C13 UNL     1      67.126  45.046  30.024  1.00  0.00     0.006 C 
HETATM   11  C14 UNL     1      67.520  46.126  30.977  1.00  0.00    -0.006 C 
HETATM   12  C15 UNL     1      68.543  45.656  31.944  1.00  0.00     0.005 C 
HETATM   13  C16 UNL     1      68.091  45.352  33.319  1.00  0.00     0.000 C 
HETATM   14  C17 UNL     1      66.630  44.998  33.292  1.00  0.00     0.001 C 
HETATM   15  C18 UNL     1      65.860  46.189  32.875  1.00  0.00     0.010 C 
HETATM   16  C19 UNL     1      66.357  46.855  31.605  1.00  0.00    -0.036 C 
HETATM   17  C20 UNL     1      66.938  48.204  32.070  1.00  0.00     0.016 C 
HETATM   18  C21 UNL     1      63.972  46.691  28.665  1.00  0.00     0.053 C 
ENDROOT
BRANCH   3  19
HETATM   19  N1  UNL     1      62.233  48.260  28.142  1.00  0.00    -0.403 N 
ATOM     20  H1  UNL     1      61.315  48.674  28.304  1.00  0.00     0.154 HD
BRANCH  19  21
HETATM   21  C4  UNL     1      62.839  48.279  26.870  1.00  0.00     0.115 C 
BRANCH  21  22
HETATM   22  C5  UNL     1      63.327  49.715  26.611  1.00  0.00     0.015 C 
HETATM   23  C6  UNL     1      64.813  49.825  26.888  1.00  0.00     0.006 C 
ENDBRANCH  21  22
ENDBRANCH  19  21
ENDBRANCH   3  19
TORSDOF 3
ENDMDL
MODEL 3
REMARK VINA RESULT: -7.089938873      1.282      3.699
REMARK  3 active torsions:
REMARK  status: ('A' for Active; 'I' for Inactive)
REMARK    1  A    between atoms: C3_3  and  N1_4 
REMARK    2  A    between atoms: N1_4  and  C4_6 
REMARK    3  A    between atoms: C4_6  and  C5_7 
ROOT
HETATM    1  C1  UNL     1      61.408  46.485  29.536  1.00  0.00     0.015 C 
HETATM    2  C2  UNL     1      62.460  47.035  29.292  1.00  0.00    -0.086 C 
HETATM    3  C3  UNL     1      63.765  47.711  29.017  1.00  0.00     0.090 C 
HETATM    4  C7  UNL     1      63.751  49.006  29.733  1.00  0.00     0.044 C 
HETATM    5  C8  UNL     1      64.752  49.184  30.832  1.00  0.00     0.009 C 
HETATM    6  C9  UNL     1      64.973  47.834  31.472  1.00  0.00     0.002 C 
HETATM    7  C10 UNL     1      65.723  46.998  30.491  1.00  0.00    -0.036 C 
HETATM    8  C11 UNL     1      67.035  47.514  30.036  1.00  0.00     0.015 C 
HETATM    9  C12 UNL     1      65.976  45.658  31.197  1.00  0.00     0.010 C 
HETATM   10  C13 UNL     1      66.829  45.801  32.398  1.00  0.00     0.006 C 
HETATM   11  C14 UNL     1      66.749  47.117  33.101  1.00  0.00    -0.006 C 
HETATM   12  C15 UNL     1      67.134  46.996  34.529  1.00  0.00     0.005 C 
HETATM   13  C16 UNL     1      66.045  47.006  35.531  1.00  0.00     0.000 C 
HETATM   14  C17 UNL     1      64.775  46.528  34.884  1.00  0.00     0.001 C 
HETATM   15  C18 UNL     1      64.372  47.503  33.849  1.00  0.00     0.010 C 
HETATM   16  C19 UNL     1      65.465  47.872  32.863  1.00  0.00    -0.036 C 
HETATM   17  C20 UNL     1      65.803  49.341  33.183  1.00  0.00     0.016 C 
HETATM   18  C21 UNL     1      64.849  46.766  29.291  1.00  0.00     0.053 C 
ENDROOT
BRANCH   3  19
HETATM   19  N1  UNL     1      63.677  47.994  27.594  1.00  0.00    -0.403 N 
ATOM     20  H1  UNL     1      62.792  48.246  27.152  1.00  0.00     0.154 HD
BRANCH  19  21
HETATM   21  C4  UNL     1      64.873  47.900  26.856  1.00  0.00     0.115 C 
BRANCH  21  22
HETATM   22  C5  UNL     1      65.491  49.308  26.798  1.00  0.00     0.015 C 
HETATM   23  C6  UNL     1      66.942  49.229  26.366  1.00  0.00     0.006 C 
ENDBRANCH  21  22
ENDBRANCH  19  21
ENDBRANCH   3  19
TORSDOF 3
ENDMDL
MODEL 4
REMARK VINA RESULT: -6.570186403      1.777      3.604
REMARK  3 active torsions:
REMARK  status: ('A' for Active; 'I' for Inactive)
REMARK    1  A    between atoms: C3_3  and  N1_4 
REMARK    2  A    between atoms: N1_4  and  C4_6 
REMARK    3  A    between atoms: C4_6  and  C5_7 
ROOT
HETATM    1  C1  UNL     1      60.664  46.347  31.111  1.00  0.00     0.015 C 
HETATM    2  C2  UNL     1      61.234  46.864  30.175  1.00  0.00    -0.086 C 
HETATM    3  C3  UNL     1      61.963  47.493  29.031  1.00  0.00     0.090 C 
HETATM    4  C7  UNL     1      62.720  48.644  29.568  1.00  0.00     0.044 C 
HETATM    5  C8  UNL     1      64.213  48.567  29.494  1.00  0.00     0.009 C 
HETATM    6  C9  UNL     1      64.605  47.116  29.644  1.00  0.00     0.002 C 
HETATM    7  C10 UNL     1      64.187  46.415  28.396  1.00  0.00    -0.036 C 
HETATM    8  C11 UNL     1      64.756  46.917  27.124  1.00  0.00     0.015 C 
HETATM    9  C12 UNL     1      64.650  44.960  28.563  1.00  0.00     0.010 C 
HETATM   10  C13 UNL     1      66.122  44.842  28.666  1.00  0.00     0.006 C 
HETATM   11  C14 UNL     1      66.833  46.019  29.249  1.00  0.00    -0.006 C 
HETATM   12  C15 UNL     1      68.137  45.632  29.841  1.00  0.00     0.005 C 
HETATM   13  C16 UNL     1      68.214  45.539  31.315  1.00  0.00     0.000 C 
HETATM   14  C17 UNL     1      66.843  45.260  31.865  1.00  0.00     0.001 C 
HETATM   15  C18 UNL     1      65.973  46.421  31.585  1.00  0.00     0.010 C 
HETATM   16  C19 UNL     1      65.976  46.884  30.140  1.00  0.00    -0.036 C 
HETATM   17  C20 UNL     1      66.685  48.252  30.166  1.00  0.00     0.016 C 
HETATM   18  C21 UNL     1      62.688  46.448  28.306  1.00  0.00     0.053 C 
ENDROOT
BRANCH   3  19
HETATM   19  N1  UNL     1      60.876  48.020  28.221  1.00  0.00    -0.403 N 
ATOM     20  H1  UNL     1      60.883  48.980  27.875  1.00  0.00     0.154 HD
BRANCH  19  21
HETATM   21  C4  UNL     1      59.814  47.139  27.939  1.00  0.00     0.115 C 
BRANCH  21  22
HETATM   22  C5  UNL     1      58.501  47.913  28.150  1.00  0.00     0.015 C 
HETATM   23  C6  UNL     1      57.594  47.162  29.104  1.00  0.00     0.006 C 
ENDBRANCH  21  22
ENDBRANCH  19  21
ENDBRANCH   3  19
TORSDOF 3
ENDMDL
MODEL 5
REMARK VINA RESULT: -6.523739901      1.396      3.142
REMARK  3 active torsions:
REMARK  status: ('A' for Active; 'I' for Inactive)
REMARK    1  A    between atoms: C3_3  and  N1_4 
REMARK    2  A    between atoms: N1_4  and  C4_6 
REMARK    3  A    between atoms: C4_6  and  C5_7 
ROOT
HETATM    1  C1  UNL     1      61.107  46.134  30.531  1.00  0.00     0.015 C 
HETATM    2  C2  UNL     1      61.900  46.856  29.969  1.00  0.00    -0.086 C 
HETATM    3  C3  UNL     1      62.901  47.738  29.291  1.00  0.00     0.090 C 
HETATM    4  C7  UNL     1      63.347  48.742  30.281  1.00  0.00     0.044 C 
HETATM    5  C8  UNL     1      64.786  48.698  30.689  1.00  0.00     0.009 C 
HETATM    6  C9  UNL     1      65.230  47.255  30.647  1.00  0.00     0.002 C 
HETATM    7  C10 UNL     1      65.294  46.855  29.213  1.00  0.00    -0.036 C 
HETATM    8  C11 UNL     1      66.195  47.640  28.338  1.00  0.00     0.015 C 
HETATM    9  C12 UNL     1      65.800  45.405  29.210  1.00  0.00     0.010 C 
HETATM   10  C13 UNL     1      67.166  45.280  29.765  1.00  0.00     0.006 C 
HETATM   11  C14 UNL     1      67.552  46.299  30.786  1.00  0.00    -0.006 C 
HETATM   12  C15 UNL     1      68.626  45.799  31.679  1.00  0.00     0.005 C 
HETATM   13  C16 UNL     1      68.236  45.372  33.040  1.00  0.00     0.000 C 
HETATM   14  C17 UNL     1      66.790  44.962  33.034  1.00  0.00     0.001 C 
HETATM   15  C18 UNL     1      65.960  46.148  32.737  1.00  0.00     0.010 C 
HETATM   16  C19 UNL     1      66.385  46.929  31.507  1.00  0.00    -0.036 C 
HETATM   17  C20 UNL     1      66.931  48.261  32.057  1.00  0.00     0.016 C 
HETATM   18  C21 UNL     1      63.905  46.893  28.642  1.00  0.00     0.053 C 
ENDROOT
BRANCH   3  19
HETATM   19  N1  UNL     1      62.089  48.425  28.300  1.00  0.00    -0.403 N 
ATOM     20  H1  UNL     1      62.221  49.416  28.094  1.00  0.00     0.154 HD
BRANCH  19  21
HETATM   21  C4  UNL     1      61.112  47.655  27.639  1.00  0.00     0.115 C 
BRANCH  21  22
HETATM   22  C5  UNL     1      59.736  48.223  28.026  1.00  0.00     0.015 C 
HETATM   23  C6  UNL     1      58.665  47.162  27.867  1.00  0.00     0.006 C 
ENDBRANCH  21  22
ENDBRANCH  19  21
ENDBRANCH   3  19
TORSDOF 3
ENDMDL
