MODEL 1
REMARK VINA RESULT: -9.595459903      0.000      0.000
REMARK  5 active torsions:
REMARK  status: ('A' for Active; 'I' for Inactive)
REMARK    1  A    between atoms: C2_2  and  C3_3 
REMARK    2  A    between atoms: C8_8  and  C9_9 
REMARK    3  A    between atoms: C9_9  and  C10_10 
REMARK    4  A    between atoms: C10_10  and  C11_11 
REMARK    5  A    between atoms: C11_11  and  N1_12 
ROOT
HETATM    1  C3  UNL     1      64.814  48.221  32.703  1.00  0.00    -0.022 C 
HETATM    2  C4  UNL     1      64.630  49.705  33.057  1.00  0.00     0.020 C 
HETATM    3  C5  UNL     1      64.099  47.953  31.392  1.00  0.00     0.019 C 
HETATM    4  C6  UNL     1      64.990  48.332  30.278  1.00  0.00    -0.004 C 
HETATM    5  C7  UNL     1      64.482  48.438  28.924  1.00  0.00    -0.001 A 
HETATM    6  C8  UNL     1      63.269  48.106  28.229  1.00  0.00    -0.005 A 
HETATM    7  C12 UNL     1      64.052  46.963  28.597  1.00  0.00    -0.005 A 
HETATM    8  C13 UNL     1      65.316  46.389  28.121  1.00  0.00     0.006 C 
HETATM    9  C14 UNL     1      66.181  46.256  29.386  1.00  0.00     0.006 C 
HETATM   10  C15 UNL     1      66.262  47.485  30.213  1.00  0.00    -0.001 C 
HETATM   11  C16 UNL     1      66.783  47.141  31.563  1.00  0.00    -0.029 C 
HETATM   12  C17 UNL     1      68.312  47.286  31.538  1.00  0.00     0.016 C 
HETATM   13  C18 UNL     1      66.523  45.719  31.989  1.00  0.00     0.088 C 
HETATM   14  C19 UNL     1      66.884  45.803  33.450  1.00  0.00     0.128 C 
HETATM   15  O1  UNL     1      67.219  44.833  34.095  1.00  0.00    -0.298 OA
HETATM   16  C20 UNL     1      66.754  47.223  33.909  1.00  0.00     0.084 C 
HETATM   17  C21 UNL     1      66.277  47.967  32.680  1.00  0.00     0.013 C 
ENDROOT
BRANCH   6  18
HETATM   18  C9  UNL     1      61.903  48.242  28.847  1.00  0.00     0.007 C 
BRANCH  18  19
HETATM   19  C10 UNL     1      60.776  47.556  28.201  1.00  0.00     0.027 C 
BRANCH  19  20
HETATM   20  C11 UNL     1      59.844  46.724  28.978  1.00  0.00     0.229 C 
BRANCH  20  21
HETATM   21  N1  UNL     1      60.408  45.686  29.785  1.00  0.00    -0.079 N 
ATOM     22  H13 UNL     1      61.395  45.576  29.554  1.00  0.00     0.274 HD
ATOM     23  H12 UNL     1      60.474  46.007  30.751  1.00  0.00     0.274 HD
ATOM     24  H11 UNL     1      59.952  44.774  29.761  1.00  0.00     0.274 HD
ENDBRANCH  20  21
ENDBRANCH  19  20
ENDBRANCH  18  19
ENDBRANCH   6  18
BRANCH   1  25
HETATM   25  C2  UNL     1      64.077  47.453  33.739  1.00  0.00    -0.027 C 
HETATM   26  C1  UNL     1      63.164  48.077  34.466  1.00  0.00     0.007 C 
ENDBRANCH   1  25
TORSDOF 5
ENDMDL
MODEL 2
REMARK VINA RESULT: -8.658856394      1.827      2.164
REMARK  5 active torsions:
REMARK  status: ('A' for Active; 'I' for Inactive)
REMARK    1  A    between atoms: C2_2  and  C3_3 
REMARK    2  A    between atoms: C8_8  and  C9_9 
REMARK    3  A    between atoms: C9_9  and  C10_10 
REMARK    4  A    between atoms: C10_10  and  C11_11 
REMARK    5  A    between atoms: C11_11  and  N1_12 
ROOT
HETATM    1  C3  UNL     1      64.667  48.608  32.786  1.00  0.00    -0.022 C 
HETATM    2  C4  UNL     1      64.431  50.104  32.530  1.00  0.00     0.020 C 
HETATM    3  C5  UNL     1      64.396  47.856  31.497  1.00  0.00     0.019 C 
HETATM    4  C6  UNL     1      65.607  47.904  30.654  1.00  0.00    -0.004 C 
HETATM    5  C7  UNL     1      65.558  47.505  29.260  1.00  0.00    -0.001 A 
HETATM    6  C8  UNL     1      64.617  46.863  28.385  1.00  0.00    -0.005 A 
HETATM    7  C12 UNL     1      65.202  45.978  29.349  1.00  0.00    -0.005 A 
HETATM    8  C13 UNL     1      66.532  45.378  29.517  1.00  0.00     0.006 C 
HETATM    9  C14 UNL     1      66.946  45.750  30.950  1.00  0.00     0.006 C 
HETATM   10  C15 UNL     1      66.803  47.189  31.283  1.00  0.00    -0.001 C 
HETATM   11  C16 UNL     1      66.856  47.364  32.759  1.00  0.00    -0.029 C 
HETATM   12  C17 UNL     1      68.319  47.612  33.159  1.00  0.00     0.016 C 
HETATM   13  C18 UNL     1      66.426  46.154  33.548  1.00  0.00     0.088 C 
HETATM   14  C19 UNL     1      66.307  46.756  34.925  1.00  0.00     0.128 C 
HETATM   15  O1  UNL     1      66.387  46.092  35.935  1.00  0.00    -0.298 OA
HETATM   16  C20 UNL     1      66.089  48.233  34.800  1.00  0.00     0.084 C 
HETATM   17  C21 UNL     1      66.051  48.477  33.306  1.00  0.00     0.013 C 
ENDROOT
BRANCH   6  18
HETATM   18  C9  UNL     1      63.131  47.093  28.464  1.00  0.00     0.007 C 
BRANCH  18  19
HETATM   19  C10 UNL     1      62.624  48.451  28.222  1.00  0.00     0.027 C 
BRANCH  19  20
HETATM   20  C11 UNL     1      62.942  49.173  26.980  1.00  0.00     0.229 C 
BRANCH  20  21
HETATM   21  N1  UNL     1      64.112  49.996  26.982  1.00  0.00    -0.079 N 
ATOM     22  H13 UNL     1      64.551  49.960  27.902  1.00  0.00     0.274 HD
ATOM     23  H12 UNL     1      64.834  49.559  26.411  1.00  0.00     0.274 HD
ATOM     24  H11 UNL     1      63.999  50.970  26.700  1.00  0.00     0.274 HD
ENDBRANCH  20  21
ENDBRANCH  19  20
ENDBRANCH  18  19
ENDBRANCH   6  18
BRANCH   1  25
HETATM   25  C2  UNL     1      63.613  48.180  33.743  1.00  0.00    -0.027 C 
HETATM   26  C1  UNL     1      62.640  47.395  33.308  1.00  0.00     0.007 C 
ENDBRANCH   1  25
TORSDOF 5
ENDMDL
MODEL 3
REMARK VINA RESULT: -8.318635629      1.224      1.774
REMARK  5 active torsions:
REMARK  status: ('A' for Active; 'I' for Inactive)
REMARK    1  A    between atoms: C2_2  and  C3_3 
REMARK    2  A    between atoms: C8_8  and  C9_9 
REMARK    3  A    between atoms: C9_9  and  C10_10 
REMARK    4  A    between atoms: C10_10  and  C11_11 
REMARK    5  A    between atoms: C11_11  and  N1_12 
ROOT
HETATM    1  C3  UNL     1      64.771  48.472  32.700  1.00  0.00    -0.022 C 
HETATM    2  C4  UNL     1      64.522  49.962  32.422  1.00  0.00     0.020 C 
HETATM    3  C5  UNL     1      64.601  47.711  31.398  1.00  0.00     0.019 C 
HETATM    4  C6  UNL     1      65.864  47.783  30.636  1.00  0.00    -0.004 C 
HETATM    5  C7  UNL     1      65.915  47.380  29.244  1.00  0.00    -0.001 A 
HETATM    6  C8  UNL     1      65.048  46.715  28.312  1.00  0.00    -0.005 A 
HETATM    7  C12 UNL     1      65.587  45.845  29.315  1.00  0.00    -0.005 A 
HETATM    8  C13 UNL     1      66.915  45.274  29.572  1.00  0.00     0.006 C 
HETATM    9  C14 UNL     1      67.226  45.659  31.028  1.00  0.00     0.006 C 
HETATM   10  C15 UNL     1      67.032  47.095  31.346  1.00  0.00    -0.001 C 
HETATM   11  C16 UNL     1      66.984  47.275  32.821  1.00  0.00    -0.029 C 
HETATM   12  C17 UNL     1      68.411  47.555  33.315  1.00  0.00     0.016 C 
HETATM   13  C18 UNL     1      66.528  46.058  33.585  1.00  0.00     0.088 C 
HETATM   14  C19 UNL     1      66.307  46.661  34.948  1.00  0.00     0.128 C 
HETATM   15  O1  UNL     1      66.333  46.002  35.964  1.00  0.00    -0.298 OA
HETATM   16  C20 UNL     1      66.065  48.132  34.803  1.00  0.00     0.084 C 
HETATM   17  C21 UNL     1      66.121  48.372  33.310  1.00  0.00     0.013 C 
ENDROOT
BRANCH   6  18
HETATM   18  C9  UNL     1      63.556  46.913  28.291  1.00  0.00     0.007 C 
BRANCH  18  19
HETATM   19  C10 UNL     1      63.036  48.253  27.984  1.00  0.00     0.027 C 
BRANCH  19  20
HETATM   20  C11 UNL     1      61.608  48.571  28.141  1.00  0.00     0.229 C 
BRANCH  20  21
HETATM   21  N1  UNL     1      60.699  47.470  28.245  1.00  0.00    -0.079 N 
ATOM     22  H13 UNL     1      59.741  47.815  28.184  1.00  0.00     0.274 HD
ATOM     23  H12 UNL     1      60.752  46.906  27.397  1.00  0.00     0.274 HD
ATOM     24  H11 UNL     1      60.790  46.865  29.061  1.00  0.00     0.274 HD
ENDBRANCH  20  21
ENDBRANCH  19  20
ENDBRANCH  18  19
ENDBRANCH   6  18
BRANCH   1  25
HETATM   25  C2  UNL     1      63.666  48.024  33.586  1.00  0.00    -0.027 C 
HETATM   26  C1  UNL     1      62.625  47.412  33.045  1.00  0.00     0.007 C 
ENDBRANCH   1  25
TORSDOF 5
ENDMDL
MODEL 4
REMARK VINA RESULT: -8.097699334      3.018      5.481
REMARK  5 active torsions:
REMARK  status: ('A' for Active; 'I' for Inactive)
REMARK    1  A    between atoms: C2_2  and  C3_3 
REMARK    2  A    between atoms: C8_8  and  C9_9 
REMARK    3  A    between atoms: C9_9  and  C10_10 
REMARK    4  A    between atoms: C10_10  and  C11_11 
REMARK    5  A    between atoms: C11_11  and  N1_12 
ROOT
HETATM    1  C3  UNL     1      64.277  48.071  30.762  1.00  0.00    -0.022 C 
HETATM    2  C4  UNL     1      63.135  47.581  31.664  1.00  0.00     0.020 C 
HETATM    3  C5  UNL     1      65.594  47.680  31.407  1.00  0.00     0.019 C 
HETATM    4  C6  UNL     1      65.905  46.283  31.045  1.00  0.00    -0.004 C 
HETATM    5  C7  UNL     1      66.957  45.556  31.729  1.00  0.00    -0.001 A 
HETATM    6  C8  UNL     1      68.010  45.860  32.658  1.00  0.00    -0.005 A 
HETATM    7  C12 UNL     1      68.248  46.360  31.336  1.00  0.00    -0.005 A 
HETATM    8  C13 UNL     1      68.597  45.740  30.052  1.00  0.00     0.006 C 
HETATM    9  C14 UNL     1      67.526  46.248  29.072  1.00  0.00     0.006 C 
HETATM   10  C15 UNL     1      66.129  46.089  29.545  1.00  0.00    -0.001 C 
HETATM   11  C16 UNL     1      65.227  46.940  28.723  1.00  0.00    -0.029 C 
HETATM   12  C17 UNL     1      64.723  46.098  27.540  1.00  0.00     0.016 C 
HETATM   13  C18 UNL     1      65.895  48.140  28.102  1.00  0.00     0.088 C 
HETATM   14  C19 UNL     1      64.687  48.907  27.627  1.00  0.00     0.128 C 
HETATM   15  O1  UNL     1      64.742  49.716  26.727  1.00  0.00    -0.298 OA
HETATM   16  C20 UNL     1      63.494  48.495  28.433  1.00  0.00     0.084 C 
HETATM   17  C21 UNL     1      64.042  47.485  29.418  1.00  0.00     0.013 C 
ENDROOT
BRANCH   6  18
HETATM   18  C9  UNL     1      67.863  46.867  33.767  1.00  0.00     0.007 C 
BRANCH  18  19
HETATM   19  C10 UNL     1      66.771  46.684  34.733  1.00  0.00     0.027 C 
BRANCH  19  20
HETATM   20  C11 UNL     1      65.640  47.623  34.792  1.00  0.00     0.229 C 
BRANCH  20  21
HETATM   21  N1  UNL     1      65.945  49.003  35.017  1.00  0.00    -0.079 N 
ATOM     22  H13 UNL     1      66.294  49.122  35.968  1.00  0.00     0.274 HD
ATOM     23  H12 UNL     1      66.772  49.259  34.478  1.00  0.00     0.274 HD
ATOM     24  H11 UNL     1      65.203  49.680  34.843  1.00  0.00     0.274 HD
ENDBRANCH  20  21
ENDBRANCH  19  20
ENDBRANCH  18  19
ENDBRANCH   6  18
BRANCH   1  25
HETATM   25  C2  UNL     1      64.225  49.556  30.797  1.00  0.00    -0.027 C 
HETATM   26  C1  UNL     1      64.288  50.167  31.969  1.00  0.00     0.007 C 
ENDBRANCH   1  25
TORSDOF 5
ENDMDL
MODEL 5
REMARK VINA RESULT: -7.501400601      2.737      4.422
REMARK  5 active torsions:
REMARK  status: ('A' for Active; 'I' for Inactive)
REMARK    1  A    between atoms: C2_2  and  C3_3 
REMARK    2  A    between atoms: C8_8  and  C9_9 
REMARK    3  A    between atoms: C9_9  and  C10_10 
REMARK    4  A    between atoms: C10_10  and  C11_11 
REMARK    5  A    between atoms: C11_11  and  N1_12 
ROOT
HETATM    1  C3  UNL     1      66.664  46.651  32.474  1.00  0.00    -0.022 C 
HETATM    2  C4  UNL     1      66.856  45.131  32.368  1.00  0.00     0.020 C 
HETATM    3  C5  UNL     1      66.479  47.206  31.075  1.00  0.00     0.019 C 
HETATM    4  C6  UNL     1      65.063  47.052  30.685  1.00  0.00    -0.004 C 
HETATM    5  C7  UNL     1      64.646  47.246  29.310  1.00  0.00    -0.001 A 
HETATM    6  C8  UNL     1      65.231  47.744  28.096  1.00  0.00    -0.005 A 
HETATM    7  C12 UNL     1      64.958  48.766  29.063  1.00  0.00    -0.005 A 
HETATM    8  C13 UNL     1      63.733  49.400  29.567  1.00  0.00     0.006 C 
HETATM    9  C14 UNL     1      63.817  49.244  31.095  1.00  0.00     0.006 C 
HETATM   10  C15 UNL     1      64.109  47.866  31.561  1.00  0.00    -0.001 C 
HETATM   11  C16 UNL     1      64.541  47.905  32.984  1.00  0.00    -0.029 C 
HETATM   12  C17 UNL     1      63.294  47.736  33.867  1.00  0.00     0.016 C 
HETATM   13  C18 UNL     1      65.160  49.210  33.413  1.00  0.00     0.088 C 
HETATM   14  C19 UNL     1      65.737  48.811  34.747  1.00  0.00     0.128 C 
HETATM   15  O1  UNL     1      65.965  49.614  35.625  1.00  0.00    -0.298 OA
HETATM   16  C20 UNL     1      65.955  47.330  34.766  1.00  0.00     0.084 C 
HETATM   17  C21 UNL     1      65.517  46.873  33.391  1.00  0.00     0.013 C 
ENDROOT
BRANCH   6  18
HETATM   18  C9  UNL     1      66.670  47.509  27.720  1.00  0.00     0.007 C 
BRANCH  18  19
HETATM   19  C10 UNL     1      67.296  48.429  26.760  1.00  0.00     0.027 C 
BRANCH  19  20
HETATM   20  C11 UNL     1      66.563  49.587  26.225  1.00  0.00     0.229 C 
BRANCH  20  21
HETATM   21  N1  UNL     1      67.075  50.887  26.535  1.00  0.00    -0.079 N 
ATOM     22  H13 UNL     1      68.032  50.802  26.875  1.00  0.00     0.274 HD
ATOM     23  H12 UNL     1      67.226  51.406  25.670  1.00  0.00     0.274 HD
ATOM     24  H11 UNL     1      66.535  51.459  27.184  1.00  0.00     0.274 HD
ENDBRANCH  20  21
ENDBRANCH  19  20
ENDBRANCH  18  19
ENDBRANCH   6  18
BRANCH   1  25
HETATM   25  C2  UNL     1      67.954  47.198  32.968  1.00  0.00    -0.027 C 
HETATM   26  C1  UNL     1      68.712  47.891  32.133  1.00  0.00     0.007 C 
ENDBRANCH   1  25
TORSDOF 5
ENDMDL
