MODEL 1
REMARK VINA RESULT: -10.114858709      0.000      0.000
REMARK  5 active torsions:
REMARK  status: ('A' for Active; 'I' for Inactive)
REMARK       I    between atoms: C1_2  and  N1_3 
REMARK    1  A    between atoms: C1_2  and  C9_12 
REMARK    2  A    between atoms: N1_3  and  C2_5 
REMARK    3  A    between atoms: C2_5  and  C3_6 
REMARK    4  A    between atoms: C11_14  and  C12_15 
REMARK    5  A    between atoms: C12_15  and  C13_16 
ROOT
HETATM    1  C9  UNL     1      64.164  47.113  28.239  1.00  0.00     0.082 A 
HETATM    2  C10 UNL     1      65.119  48.268  27.943  1.00  0.00     0.020 A 
HETATM    3  C11 UNL     1      64.901  47.709  29.363  1.00  0.00    -0.000 A 
ENDROOT
BRANCH   1   4
HETATM    4  C1  UNL     1      62.736  47.479  28.057  1.00  0.00     0.222 C 
HETATM    5  O1  UNL     1      62.324  48.011  26.974  1.00  0.00    -0.273 OA
HETATM    6  N1  UNL     1      61.756  47.261  29.068  1.00  0.00    -0.360 N 
ATOM      7  H1  UNL     1      62.053  46.837  29.947  1.00  0.00     0.162 HD
BRANCH   6   8
HETATM    8  C2  UNL     1      60.374  47.606  28.912  1.00  0.00     0.127 C 
BRANCH   8   9
HETATM    9  C3  UNL     1      59.548  46.356  28.815  1.00  0.00     0.003 C 
HETATM   10  C4  UNL     1      59.512  45.575  30.092  1.00  0.00     0.006 C 
HETATM   11  C5  UNL     1      58.594  46.211  31.121  1.00  0.00     0.000 C 
HETATM   12  C6  UNL     1      57.182  46.121  30.525  1.00  0.00     0.000 C 
HETATM   13  C7  UNL     1      57.196  47.079  29.328  1.00  0.00     0.000 C 
HETATM   14  C8  UNL     1      58.163  46.598  28.293  1.00  0.00     0.006 C 
ENDBRANCH   8   9
ENDBRANCH   6   8
ENDBRANCH   1   4
BRANCH   3  15
HETATM   15  C12 UNL     1      66.122  47.092  29.955  1.00  0.00     0.010 C 
BRANCH  15  16
HETATM   16  C13 UNL     1      66.173  47.178  31.460  1.00  0.00    -0.014 C 
HETATM   17  C14 UNL     1      67.553  47.341  31.995  1.00  0.00     0.005 C 
HETATM   18  C15 UNL     1      67.740  46.843  33.395  1.00  0.00     0.000 C 
HETATM   19  C16 UNL     1      68.338  45.445  33.431  1.00  0.00     0.000 C 
HETATM   20  C17 UNL     1      67.364  44.414  33.918  1.00  0.00     0.000 C 
HETATM   21  C18 UNL     1      66.486  43.843  32.870  1.00  0.00     0.000 C 
HETATM   22  C19 UNL     1      66.341  44.696  31.641  1.00  0.00     0.000 C 
HETATM   23  C20 UNL     1      65.489  45.908  31.973  1.00  0.00     0.005 C 
ENDBRANCH  15  16
ENDBRANCH   3  15
TORSDOF 5
ENDMDL
MODEL 2
REMARK VINA RESULT: -9.758908841      2.201      3.019
REMARK  5 active torsions:
REMARK  status: ('A' for Active; 'I' for Inactive)
REMARK       I    between atoms: C1_2  and  N1_3 
REMARK    1  A    between atoms: C1_2  and  C9_12 
REMARK    2  A    between atoms: N1_3  and  C2_5 
REMARK    3  A    between atoms: C2_5  and  C3_6 
REMARK    4  A    between atoms: C11_14  and  C12_15 
REMARK    5  A    between atoms: C12_15  and  C13_16 
ROOT
HETATM    1  C9  UNL     1      64.036  46.866  29.438  1.00  0.00     0.082 A 
HETATM    2  C10 UNL     1      65.160  47.816  29.027  1.00  0.00     0.020 A 
HETATM    3  C11 UNL     1      64.545  47.814  30.440  1.00  0.00    -0.000 A 
ENDROOT
BRANCH   1   4
HETATM    4  C1  UNL     1      62.745  47.169  28.770  1.00  0.00     0.222 C 
HETATM    5  O1  UNL     1      62.691  47.420  27.521  1.00  0.00    -0.273 OA
HETATM    6  N1  UNL     1      61.508  47.196  29.475  1.00  0.00    -0.360 N 
ATOM      7  H1  UNL     1      61.516  47.000  30.476  1.00  0.00     0.162 HD
BRANCH   6   8
HETATM    8  C2  UNL     1      60.251  47.486  28.849  1.00  0.00     0.127 C 
BRANCH   8   9
HETATM    9  C3  UNL     1      59.397  46.251  28.834  1.00  0.00     0.003 C 
HETATM   10  C4  UNL     1      59.408  45.514  30.137  1.00  0.00     0.006 C 
HETATM   11  C5  UNL     1      58.554  46.203  31.187  1.00  0.00     0.000 C 
HETATM   12  C6  UNL     1      57.113  46.124  30.664  1.00  0.00     0.000 C 
HETATM   13  C7  UNL     1      57.088  47.042  29.435  1.00  0.00     0.000 C 
HETATM   14  C8  UNL     1      57.993  46.507  28.372  1.00  0.00     0.006 C 
ENDBRANCH   8   9
ENDBRANCH   6   8
ENDBRANCH   1   4
BRANCH   3  15
HETATM   15  C12 UNL     1      65.510  47.430  31.509  1.00  0.00     0.010 C 
BRANCH  15  16
HETATM   16  C13 UNL     1      64.848  46.944  32.774  1.00  0.00    -0.014 C 
HETATM   17  C14 UNL     1      63.442  47.410  32.920  1.00  0.00     0.005 C 
HETATM   18  C15 UNL     1      62.956  47.488  34.335  1.00  0.00     0.000 C 
HETATM   19  C16 UNL     1      63.043  48.898  34.895  1.00  0.00     0.000 C 
HETATM   20  C17 UNL     1      64.088  49.031  35.963  1.00  0.00     0.000 C 
HETATM   21  C18 UNL     1      65.455  49.311  35.464  1.00  0.00     0.000 C 
HETATM   22  C19 UNL     1      65.690  48.927  34.030  1.00  0.00     0.000 C 
HETATM   23  C20 UNL     1      65.746  47.415  33.922  1.00  0.00     0.005 C 
ENDBRANCH  15  16
ENDBRANCH   3  15
TORSDOF 5
ENDMDL
MODEL 3
REMARK VINA RESULT: -9.736130040      0.940      1.301
REMARK  5 active torsions:
REMARK  status: ('A' for Active; 'I' for Inactive)
REMARK       I    between atoms: C1_2  and  N1_3 
REMARK    1  A    between atoms: C1_2  and  C9_12 
REMARK    2  A    between atoms: N1_3  and  C2_5 
REMARK    3  A    between atoms: C2_5  and  C3_6 
REMARK    4  A    between atoms: C11_14  and  C12_15 
REMARK    5  A    between atoms: C12_15  and  C13_16 
ROOT
HETATM    1  C9  UNL     1      64.170  46.937  28.292  1.00  0.00     0.082 A 
HETATM    2  C10 UNL     1      65.238  48.029  28.334  1.00  0.00     0.020 A 
HETATM    3  C11 UNL     1      64.901  47.146  29.551  1.00  0.00    -0.000 A 
ENDROOT
BRANCH   1   4
HETATM    4  C1  UNL     1      62.792  47.476  28.178  1.00  0.00     0.222 C 
HETATM    5  O1  UNL     1      62.498  48.358  27.304  1.00  0.00    -0.273 OA
HETATM    6  N1  UNL     1      61.730  47.048  29.026  1.00  0.00    -0.360 N 
ATOM      7  H1  UNL     1      61.931  46.345  29.736  1.00  0.00     0.162 HD
BRANCH   6   8
HETATM    8  C2  UNL     1      60.393  47.556  28.931  1.00  0.00     0.127 C 
BRANCH   8   9
HETATM    9  C3  UNL     1      59.436  46.422  28.700  1.00  0.00     0.003 C 
HETATM   10  C4  UNL     1      59.245  45.559  29.908  1.00  0.00     0.006 C 
HETATM   11  C5  UNL     1      58.353  46.221  30.943  1.00  0.00     0.000 C 
HETATM   12  C6  UNL     1      56.973  46.342  30.283  1.00  0.00     0.000 C 
HETATM   13  C7  UNL     1      57.159  47.378  29.167  1.00  0.00     0.000 C 
HETATM   14  C8  UNL     1      58.117  46.864  28.140  1.00  0.00     0.006 C 
ENDBRANCH   8   9
ENDBRANCH   6   8
ENDBRANCH   1   4
BRANCH   3  15
HETATM   15  C12 UNL     1      66.031  46.278  29.990  1.00  0.00     0.010 C 
BRANCH  15  16
HETATM   16  C13 UNL     1      66.893  46.904  31.058  1.00  0.00    -0.014 C 
HETATM   17  C14 UNL     1      67.762  45.924  31.765  1.00  0.00     0.005 C 
HETATM   18  C15 UNL     1      68.155  46.328  33.152  1.00  0.00     0.000 C 
HETATM   19  C16 UNL     1      67.275  45.680  34.210  1.00  0.00     0.000 C 
HETATM   20  C17 UNL     1      66.386  46.669  34.904  1.00  0.00     0.000 C 
HETATM   21  C18 UNL     1      65.099  46.938  34.219  1.00  0.00     0.000 C 
HETATM   22  C19 UNL     1      65.088  46.604  32.753  1.00  0.00     0.000 C 
HETATM   23  C20 UNL     1      65.927  47.623  32.004  1.00  0.00     0.005 C 
ENDBRANCH  15  16
ENDBRANCH   3  15
TORSDOF 5
ENDMDL
MODEL 4
REMARK VINA RESULT: -9.711515233      0.919      1.508
REMARK  5 active torsions:
REMARK  status: ('A' for Active; 'I' for Inactive)
REMARK       I    between atoms: C1_2  and  N1_3 
REMARK    1  A    between atoms: C1_2  and  C9_12 
REMARK    2  A    between atoms: N1_3  and  C2_5 
REMARK    3  A    between atoms: C2_5  and  C3_6 
REMARK    4  A    between atoms: C11_14  and  C12_15 
REMARK    5  A    between atoms: C12_15  and  C13_16 
ROOT
HETATM    1  C9  UNL     1      63.995  47.276  28.118  1.00  0.00     0.082 A 
HETATM    2  C10 UNL     1      65.016  48.327  27.685  1.00  0.00     0.020 A 
HETATM    3  C11 UNL     1      64.826  47.906  29.155  1.00  0.00    -0.000 A 
ENDROOT
BRANCH   1   4
HETATM    4  C1  UNL     1      62.591  47.733  27.965  1.00  0.00     0.222 C 
HETATM    5  O1  UNL     1      62.268  48.588  27.074  1.00  0.00    -0.273 OA
HETATM    6  N1  UNL     1      61.535  47.251  28.791  1.00  0.00    -0.360 N 
ATOM      7  H1  UNL     1      61.760  46.568  29.514  1.00  0.00     0.162 HD
BRANCH   6   8
HETATM    8  C2  UNL     1      60.174  47.679  28.659  1.00  0.00     0.127 C 
BRANCH   8   9
HETATM    9  C3  UNL     1      59.273  46.480  28.569  1.00  0.00     0.003 C 
HETATM   10  C4  UNL     1      59.338  45.605  29.783  1.00  0.00     0.006 C 
HETATM   11  C5  UNL     1      58.579  46.202  30.954  1.00  0.00     0.000 C 
HETATM   12  C6  UNL     1      57.106  46.226  30.523  1.00  0.00     0.000 C 
HETATM   13  C7  UNL     1      57.039  47.272  29.404  1.00  0.00     0.000 C 
HETATM   14  C8  UNL     1      57.854  46.828  28.232  1.00  0.00     0.006 C 
ENDBRANCH   8   9
ENDBRANCH   6   8
ENDBRANCH   1   4
BRANCH   3  15
HETATM   15  C12 UNL     1      66.026  47.250  29.747  1.00  0.00     0.010 C 
BRANCH  15  16
HETATM   16  C13 UNL     1      65.712  46.378  30.938  1.00  0.00    -0.014 C 
HETATM   17  C14 UNL     1      64.986  47.097  32.020  1.00  0.00     0.005 C 
HETATM   18  C15 UNL     1      65.176  46.518  33.388  1.00  0.00     0.000 C 
HETATM   19  C16 UNL     1      66.241  47.258  34.182  1.00  0.00     0.000 C 
HETATM   20  C17 UNL     1      67.473  46.432  34.401  1.00  0.00     0.000 C 
HETATM   21  C18 UNL     1      68.468  46.494  33.304  1.00  0.00     0.000 C 
HETATM   22  C19 UNL     1      67.911  46.929  31.978  1.00  0.00     0.000 C 
HETATM   23  C20 UNL     1      67.056  45.813  31.406  1.00  0.00     0.005 C 
ENDBRANCH  15  16
ENDBRANCH   3  15
TORSDOF 5
ENDMDL
MODEL 5
REMARK VINA RESULT: -9.686843226      1.870      2.259
REMARK  5 active torsions:
REMARK  status: ('A' for Active; 'I' for Inactive)
REMARK       I    between atoms: C1_2  and  N1_3 
REMARK    1  A    between atoms: C1_2  and  C9_12 
REMARK    2  A    between atoms: N1_3  and  C2_5 
REMARK    3  A    between atoms: C2_5  and  C3_6 
REMARK    4  A    between atoms: C11_14  and  C12_15 
REMARK    5  A    between atoms: C12_15  and  C13_16 
ROOT
HETATM    1  C9  UNL     1      63.503  47.502  29.210  1.00  0.00     0.082 A 
HETATM    2  C10 UNL     1      64.392  48.705  28.899  1.00  0.00     0.020 A 
HETATM    3  C11 UNL     1      63.765  48.469  30.287  1.00  0.00    -0.000 A 
ENDROOT
BRANCH   1   4
HETATM    4  C1  UNL     1      62.191  47.556  28.517  1.00  0.00     0.222 C 
HETATM    5  O1  UNL     1      62.117  47.723  27.254  1.00  0.00    -0.273 OA
HETATM    6  N1  UNL     1      60.953  47.427  29.211  1.00  0.00    -0.360 N 
ATOM      7  H1  UNL     1      60.977  47.293  30.222  1.00  0.00     0.162 HD
BRANCH   6   8
HETATM    8  C2  UNL     1      59.677  47.475  28.561  1.00  0.00     0.127 C 
BRANCH   8   9
HETATM    9  C3  UNL     1      58.947  46.182  28.783  1.00  0.00     0.003 C 
HETATM   10  C4  UNL     1      59.309  45.517  30.074  1.00  0.00     0.006 C 
HETATM   11  C5  UNL     1      58.656  46.196  31.265  1.00  0.00     0.000 C 
HETATM   12  C6  UNL     1      57.147  45.983  31.085  1.00  0.00     0.000 C 
HETATM   13  C7  UNL     1      56.772  46.831  29.863  1.00  0.00     0.000 C 
HETATM   14  C8  UNL     1      57.459  46.309  28.641  1.00  0.00     0.006 C 
ENDBRANCH   8   9
ENDBRANCH   6   8
ENDBRANCH   1   4
BRANCH   3  15
HETATM   15  C12 UNL     1      64.770  48.236  31.363  1.00  0.00     0.010 C 
BRANCH  15  16
HETATM   16  C13 UNL     1      64.169  47.725  32.649  1.00  0.00    -0.014 C 
HETATM   17  C14 UNL     1      64.060  48.769  33.704  1.00  0.00     0.005 C 
HETATM   18  C15 UNL     1      64.057  48.240  35.105  1.00  0.00     0.000 C 
HETATM   19  C16 UNL     1      65.430  48.321  35.752  1.00  0.00     0.000 C 
HETATM   20  C17 UNL     1      66.047  46.970  35.966  1.00  0.00     0.000 C 
HETATM   21  C18 UNL     1      66.797  46.437  34.804  1.00  0.00     0.000 C 
HETATM   22  C19 UNL     1      66.419  47.046  33.483  1.00  0.00     0.000 C 
HETATM   23  C20 UNL     1      65.045  46.545  33.078  1.00  0.00     0.005 C 
ENDBRANCH  15  16
ENDBRANCH   3  15
TORSDOF 5
ENDMDL
