MODEL 1
REMARK VINA RESULT: -8.403791132      0.000      0.000
REMARK  6 active torsions:
REMARK  status: ('A' for Active; 'I' for Inactive)
REMARK    1  A    between atoms: C2_2  and  C3_3 
REMARK    2  A    between atoms: C3_3  and  C4_4 
REMARK    3  A    between atoms: C4_4  and  C5_5 
REMARK    4  A    between atoms: C5_5  and  C6_6 
REMARK    5  A    between atoms: C12_12  and  N1_13 
REMARK    6  A    between atoms: C18_19  and  O1_20 
ROOT
HETATM    1  C6  UNL     1      63.032  47.114  29.513  1.00  0.00    -0.030 C 
HETATM    2  C7  UNL     1      62.950  47.566  28.027  1.00  0.00     0.015 C 
HETATM    3  C8  UNL     1      64.489  47.675  27.923  1.00  0.00    -0.006 C 
HETATM    4  C9  UNL     1      64.557  48.808  28.955  1.00  0.00     0.017 C 
HETATM    5  C10 UNL     1      64.024  48.000  30.166  1.00  0.00    -0.003 C 
HETATM    6  C11 UNL     1      63.395  48.928  31.173  1.00  0.00     0.018 C 
HETATM    7  C12 UNL     1      65.291  47.381  30.685  1.00  0.00     0.260 C 
HETATM    8  C18 UNL     1      65.871  46.458  29.656  1.00  0.00     0.156 C 
HETATM    9  C19 UNL     1      64.898  46.348  28.469  1.00  0.00     0.021 C 
HETATM   10  C20 UNL     1      63.647  45.756  29.162  1.00  0.00     0.018 C 
ENDROOT
BRANCH   7  11
HETATM   11  N1  UNL     1      65.281  46.880  32.014  1.00  0.00     0.096 N 
HETATM   12  C13 UNL     1      66.004  45.598  32.136  1.00  0.00     0.273 C 
HETATM   13  C14 UNL     1      66.484  45.392  33.554  1.00  0.00     0.030 C 
HETATM   14  C15 UNL     1      67.742  46.252  33.712  1.00  0.00     0.003 C 
HETATM   15  C16 UNL     1      67.486  47.505  32.918  1.00  0.00     0.030 C 
HETATM   16  C17 UNL     1      65.967  47.738  32.978  1.00  0.00     0.273 C 
ENDBRANCH   7  11
BRANCH   8  17
HETATM   17  O1  UNL     1      67.134  46.830  29.210  1.00  0.00    -0.393 OA
ATOM     18  H1  UNL     1      67.448  46.323  28.471  1.00  0.00     0.210 HD
ENDBRANCH   8  17
BRANCH   1  19
HETATM   19  C5  UNL     1      61.659  47.078  30.040  1.00  0.00     0.010 C 
BRANCH  19  20
HETATM   20  C4  UNL     1      60.678  47.119  28.900  1.00  0.00     0.001 C 
BRANCH  20  21
HETATM   21  C3  UNL     1      59.367  46.446  29.238  1.00  0.00    -0.000 C 
BRANCH  21  22
HETATM   22  C2  UNL     1      58.339  46.763  28.167  1.00  0.00    -0.005 C 
HETATM   23  C1  UNL     1      57.384  47.829  28.610  1.00  0.00     0.005 C 
ENDBRANCH  21  22
ENDBRANCH  20  21
ENDBRANCH  19  20
ENDBRANCH   1  19
TORSDOF 6
ENDMDL
MODEL 2
REMARK VINA RESULT: -8.250663856      1.422      1.806
REMARK  6 active torsions:
REMARK  status: ('A' for Active; 'I' for Inactive)
REMARK    1  A    between atoms: C2_2  and  C3_3 
REMARK    2  A    between atoms: C3_3  and  C4_4 
REMARK    3  A    between atoms: C4_4  and  C5_5 
REMARK    4  A    between atoms: C5_5  and  C6_6 
REMARK    5  A    between atoms: C12_12  and  N1_13 
REMARK    6  A    between atoms: C18_19  and  O1_20 
ROOT
HETATM    1  C6  UNL     1      62.403  47.301  28.932  1.00  0.00    -0.030 C 
HETATM    2  C7  UNL     1      61.934  48.468  28.018  1.00  0.00     0.015 C 
HETATM    3  C8  UNL     1      63.374  49.018  27.898  1.00  0.00    -0.006 C 
HETATM    4  C9  UNL     1      63.459  49.345  29.395  1.00  0.00     0.017 C 
HETATM    5  C10 UNL     1      63.340  47.890  29.918  1.00  0.00    -0.003 C 
HETATM    6  C11 UNL     1      62.784  47.885  31.318  1.00  0.00     0.018 C 
HETATM    7  C12 UNL     1      64.776  47.448  29.880  1.00  0.00     0.260 C 
HETATM    8  C18 UNL     1      65.279  47.457  28.468  1.00  0.00     0.156 C 
HETATM    9  C19 UNL     1      64.113  47.780  27.517  1.00  0.00     0.021 C 
HETATM   10  C20 UNL     1      63.158  46.596  27.801  1.00  0.00     0.018 C 
ENDROOT
BRANCH   7  11
HETATM   11  N1  UNL     1      65.132  46.306  30.645  1.00  0.00     0.096 N 
HETATM   12  C13 UNL     1      65.862  45.301  29.847  1.00  0.00     0.273 C 
HETATM   13  C14 UNL     1      66.714  44.429  30.740  1.00  0.00     0.030 C 
HETATM   14  C15 UNL     1      67.966  45.247  31.071  1.00  0.00     0.003 C 
HETATM   15  C16 UNL     1      67.501  46.670  31.218  1.00  0.00     0.030 C 
HETATM   16  C17 UNL     1      66.057  46.590  31.741  1.00  0.00     0.273 C 
ENDBRANCH   7  11
BRANCH   8  17
HETATM   17  O1  UNL     1      66.336  48.333  28.248  1.00  0.00    -0.393 OA
ATOM     18  H1  UNL     1      67.015  47.986  27.681  1.00  0.00     0.210 HD
ENDBRANCH   8  17
BRANCH   1  19
HETATM   19  C5  UNL     1      61.199  46.612  29.424  1.00  0.00     0.010 C 
BRANCH  19  20
HETATM   20  C4  UNL     1      59.992  47.111  28.678  1.00  0.00     0.001 C 
BRANCH  20  21
HETATM   21  C3  UNL     1      58.738  46.340  29.022  1.00  0.00    -0.000 C 
BRANCH  21  22
HETATM   22  C2  UNL     1      58.754  45.971  30.495  1.00  0.00    -0.005 C 
HETATM   23  C1  UNL     1      57.377  45.975  31.085  1.00  0.00     0.005 C 
ENDBRANCH  21  22
ENDBRANCH  20  21
ENDBRANCH  19  20
ENDBRANCH   1  19
TORSDOF 6
ENDMDL
MODEL 3
REMARK VINA RESULT: -8.090295882      0.913      1.090
REMARK  6 active torsions:
REMARK  status: ('A' for Active; 'I' for Inactive)
REMARK    1  A    between atoms: C2_2  and  C3_3 
REMARK    2  A    between atoms: C3_3  and  C4_4 
REMARK    3  A    between atoms: C4_4  and  C5_5 
REMARK    4  A    between atoms: C5_5  and  C6_6 
REMARK    5  A    between atoms: C12_12  and  N1_13 
REMARK    6  A    between atoms: C18_19  and  O1_20 
ROOT
HETATM    1  C6  UNL     1      62.863  47.076  29.669  1.00  0.00    -0.030 C 
HETATM    2  C7  UNL     1      62.687  47.992  28.424  1.00  0.00     0.015 C 
HETATM    3  C8  UNL     1      64.209  48.242  28.331  1.00  0.00    -0.006 C 
HETATM    4  C9  UNL     1      64.252  48.967  29.682  1.00  0.00     0.017 C 
HETATM    5  C10 UNL     1      63.825  47.764  30.561  1.00  0.00    -0.003 C 
HETATM    6  C11 UNL     1      63.185  48.253  31.834  1.00  0.00     0.018 C 
HETATM    7  C12 UNL     1      65.151  47.103  30.815  1.00  0.00     0.260 C 
HETATM    8  C18 UNL     1      65.741  46.623  29.524  1.00  0.00     0.156 C 
HETATM    9  C19 UNL     1      64.725  46.843  28.390  1.00  0.00     0.021 C 
HETATM   10  C20 UNL     1      63.546  45.963  28.869  1.00  0.00     0.018 C 
ENDROOT
BRANCH   7  11
HETATM   11  N1  UNL     1      65.231  46.188  31.898  1.00  0.00     0.096 N 
HETATM   12  C13 UNL     1      66.143  45.061  31.614  1.00  0.00     0.273 C 
HETATM   13  C14 UNL     1      66.664  44.462  32.899  1.00  0.00     0.030 C 
HETATM   14  C15 UNL     1      67.778  45.393  33.388  1.00  0.00     0.003 C 
HETATM   15  C16 UNL     1      67.325  46.788  33.049  1.00  0.00     0.030 C 
HETATM   16  C17 UNL     1      65.789  46.762  33.121  1.00  0.00     0.273 C 
ENDBRANCH   7  11
BRANCH   8  17
HETATM   17  O1  UNL     1      66.957  47.214  29.202  1.00  0.00    -0.393 OA
ATOM     18  H1  UNL     1      67.365  46.861  28.421  1.00  0.00     0.210 HD
ENDBRANCH   8  17
BRANCH   1  19
HETATM   19  C5  UNL     1      61.520  46.764  30.182  1.00  0.00     0.010 C 
BRANCH  19  20
HETATM   20  C4  UNL     1      60.501  46.979  29.096  1.00  0.00     0.001 C 
BRANCH  20  21
HETATM   21  C3  UNL     1      59.281  46.103  29.264  1.00  0.00    -0.000 C 
BRANCH  21  22
HETATM   22  C2  UNL     1      59.021  45.866  30.741  1.00  0.00    -0.005 C 
HETATM   23  C1  UNL     1      57.569  46.009  31.081  1.00  0.00     0.005 C 
ENDBRANCH  21  22
ENDBRANCH  20  21
ENDBRANCH  19  20
ENDBRANCH   1  19
TORSDOF 6
ENDMDL
MODEL 4
REMARK VINA RESULT: -7.548697008      2.498      5.889
REMARK  6 active torsions:
REMARK  status: ('A' for Active; 'I' for Inactive)
REMARK    1  A    between atoms: C2_2  and  C3_3 
REMARK    2  A    between atoms: C3_3  and  C4_4 
REMARK    3  A    between atoms: C4_4  and  C5_5 
REMARK    4  A    between atoms: C5_5  and  C6_6 
REMARK    5  A    between atoms: C12_12  and  N1_13 
REMARK    6  A    between atoms: C18_19  and  O1_20 
ROOT
HETATM    1  C6  UNL     1      66.586  47.433  33.360  1.00  0.00    -0.030 C 
HETATM    2  C7  UNL     1      67.275  46.436  34.335  1.00  0.00     0.015 C 
HETATM    3  C8  UNL     1      67.356  45.346  33.242  1.00  0.00    -0.006 C 
HETATM    4  C9  UNL     1      65.830  45.222  33.141  1.00  0.00     0.017 C 
HETATM    5  C10 UNL     1      65.553  46.661  32.632  1.00  0.00    -0.003 C 
HETATM    6  C11 UNL     1      64.153  47.080  32.998  1.00  0.00     0.018 C 
HETATM    7  C12 UNL     1      65.717  46.482  31.149  1.00  0.00     0.260 C 
HETATM    8  C18 UNL     1      67.126  46.079  30.833  1.00  0.00     0.156 C 
HETATM    9  C19 UNL     1      67.965  46.121  32.122  1.00  0.00     0.021 C 
HETATM   10  C20 UNL     1      67.847  47.614  32.509  1.00  0.00     0.018 C 
ENDROOT
BRANCH   7  11
HETATM   11  N1  UNL     1      65.167  47.480  30.302  1.00  0.00     0.096 N 
HETATM   12  C13 UNL     1      65.925  47.629  29.043  1.00  0.00     0.273 C 
HETATM   13  C14 UNL     1      65.047  48.212  27.960  1.00  0.00     0.030 C 
HETATM   14  C15 UNL     1      64.182  47.060  27.440  1.00  0.00     0.003 C 
HETATM   15  C16 UNL     1      63.855  46.217  28.643  1.00  0.00     0.030 C 
HETATM   16  C17 UNL     1      63.813  47.185  29.838  1.00  0.00     0.273 C 
ENDBRANCH   7  11
BRANCH   8  17
HETATM   17  O1  UNL     1      67.236  44.833  30.228  1.00  0.00    -0.393 OA
ATOM     18  H1  UNL     1      66.940  44.813  29.325  1.00  0.00     0.210 HD
ENDBRANCH   8  17
BRANCH   1  19
HETATM   19  C5  UNL     1      66.171  48.606  34.146  1.00  0.00     0.010 C 
BRANCH  19  20
HETATM   20  C4  UNL     1      65.657  48.159  35.487  1.00  0.00     0.001 C 
BRANCH  20  21
HETATM   21  C3  UNL     1      64.718  49.165  36.113  1.00  0.00    -0.000 C 
BRANCH  21  22
HETATM   22  C2  UNL     1      63.386  49.143  35.386  1.00  0.00    -0.005 C 
HETATM   23  C1  UNL     1      62.252  49.519  36.289  1.00  0.00     0.005 C 
ENDBRANCH  21  22
ENDBRANCH  20  21
ENDBRANCH  19  20
ENDBRANCH   1  19
TORSDOF 6
ENDMDL
MODEL 5
REMARK VINA RESULT: -7.157945898      1.452      1.605
REMARK  6 active torsions:
REMARK  status: ('A' for Active; 'I' for Inactive)
REMARK    1  A    between atoms: C2_2  and  C3_3 
REMARK    2  A    between atoms: C3_3  and  C4_4 
REMARK    3  A    between atoms: C4_4  and  C5_5 
REMARK    4  A    between atoms: C5_5  and  C6_6 
REMARK    5  A    between atoms: C12_12  and  N1_13 
REMARK    6  A    between atoms: C18_19  and  O1_20 
ROOT
HETATM    1  C6  UNL     1      62.882  47.121  28.831  1.00  0.00    -0.030 C 
HETATM    2  C7  UNL     1      63.499  46.931  27.416  1.00  0.00     0.015 C 
HETATM    3  C8  UNL     1      64.931  47.148  27.956  1.00  0.00    -0.006 C 
HETATM    4  C9  UNL     1      64.643  48.600  28.361  1.00  0.00     0.017 C 
HETATM    5  C10 UNL     1      63.564  48.292  29.431  1.00  0.00    -0.003 C 
HETATM    6  C11 UNL     1      62.644  49.473  29.596  1.00  0.00     0.018 C 
HETATM    7  C12 UNL     1      64.416  48.066  30.649  1.00  0.00     0.260 C 
HETATM    8  C18 UNL     1      65.302  46.875  30.442  1.00  0.00     0.156 C 
HETATM    9  C19 UNL     1      64.940  46.200  29.108  1.00  0.00     0.021 C 
HETATM   10  C20 UNL     1      63.465  45.807  29.362  1.00  0.00     0.018 C 
ENDROOT
BRANCH   7  11
HETATM   11  N1  UNL     1      63.781  48.139  31.917  1.00  0.00     0.096 N 
HETATM   12  C13 UNL     1      64.006  46.925  32.728  1.00  0.00     0.273 C 
HETATM   13  C14 UNL     1      63.860  47.234  34.200  1.00  0.00     0.030 C 
HETATM   14  C15 UNL     1      65.167  47.906  34.630  1.00  0.00     0.003 C 
HETATM   15  C16 UNL     1      65.590  48.764  33.469  1.00  0.00     0.030 C 
HETATM   16  C17 UNL     1      64.290  49.207  32.776  1.00  0.00     0.273 C 
ENDBRANCH   7  11
BRANCH   8  17
HETATM   17  O1  UNL     1      66.660  47.167  30.481  1.00  0.00    -0.393 OA
ATOM     18  H1  UNL     1      67.170  46.727  29.810  1.00  0.00     0.210 HD
ENDBRANCH   8  17
BRANCH   1  19
HETATM   19  C5  UNL     1      61.419  47.156  28.676  1.00  0.00     0.010 C 
BRANCH  19  20
HETATM   20  C4  UNL     1      60.781  46.272  29.712  1.00  0.00     0.001 C 
BRANCH  20  21
HETATM   21  C3  UNL     1      59.280  46.183  29.553  1.00  0.00    -0.000 C 
BRANCH  21  22
HETATM   22  C2  UNL     1      58.844  47.004  28.353  1.00  0.00    -0.005 C 
HETATM   23  C1  UNL     1      57.524  47.673  28.585  1.00  0.00     0.005 C 
ENDBRANCH  21  22
ENDBRANCH  20  21
ENDBRANCH  19  20
ENDBRANCH   1  19
TORSDOF 6
ENDMDL
