MODEL 1
REMARK VINA RESULT: -7.816699435      0.000      0.000
REMARK  5 active torsions:
REMARK  status: ('A' for Active; 'I' for Inactive)
REMARK    1  A    between atoms: C2_2  and  C4_4 
REMARK    2  A    between atoms: C4_4  and  C5_5 
REMARK    3  A    between atoms: C5_5  and  N1_6 
REMARK    4  A    between atoms: C14_15  and  N2_17 
REMARK    5  A    between atoms: N2_17  and  C16_19 
ROOT
HETATM    1  N1  UNL     1      65.250  46.930  32.027  1.00  0.00     0.093 N 
HETATM    2  C6  UNL     1      64.399  47.432  33.070  1.00  0.00     0.273 C 
HETATM    3  C7  UNL     1      64.337  48.948  33.090  1.00  0.00     0.031 C 
HETATM    4  C8  UNL     1      63.971  49.518  31.752  1.00  0.00     0.009 C 
HETATM    5  C9  UNL     1      63.717  48.361  30.812  1.00  0.00     0.025 C 
HETATM    6  C10 UNL     1      64.914  47.462  30.723  1.00  0.00     0.228 C 
HETATM    7  C11 UNL     1      64.717  46.419  29.681  1.00  0.00     0.043 C 
HETATM    8  C12 UNL     1      63.454  46.397  28.943  1.00  0.00     0.011 C 
HETATM    9  C13 UNL     1      63.712  45.729  27.593  1.00  0.00     0.012 C 
HETATM   10  C14 UNL     1      62.769  47.716  28.668  1.00  0.00     0.029 C 
HETATM   11  C15 UNL     1      62.846  48.057  27.189  1.00  0.00     0.039 C 
HETATM   12  C19 UNL     1      63.440  48.847  29.399  1.00  0.00     0.015 C 
HETATM   13  C20 UNL     1      64.671  49.363  28.703  1.00  0.00     0.013 C 
ENDROOT
BRANCH  10  14
HETATM   14  N2  UNL     1      61.399  47.546  28.951  1.00  0.00    -0.409 N 
ATOM     15  H2  UNL     1      60.765  48.319  28.745  1.00  0.00     0.154 HD
BRANCH  14  16
HETATM   16  C16 UNL     1      60.863  46.386  29.494  1.00  0.00     0.069 C 
HETATM   17  C17 UNL     1      60.716  46.327  30.999  1.00  0.00     0.031 C 
HETATM   18  C18 UNL     1      59.406  46.320  28.975  1.00  0.00     0.031 C 
ENDBRANCH  14  16
ENDBRANCH  10  14
BRANCH   1  19
HETATM   19  C5  UNL     1      66.643  47.123  32.314  1.00  0.00     0.273 C 
BRANCH  19  20
HETATM   20  C4  UNL     1      67.474  45.882  32.251  1.00  0.00     0.034 C 
BRANCH  20  21
HETATM   21  C2  UNL     1      66.554  44.720  32.653  1.00  0.00    -0.021 C 
HETATM   22  C1  UNL     1      66.484  43.679  31.574  1.00  0.00     0.009 C 
HETATM   23  C3  UNL     1      67.072  44.099  33.919  1.00  0.00     0.009 C 
ENDBRANCH  20  21
ENDBRANCH  19  20
ENDBRANCH   1  19
TORSDOF 5
ENDMDL
MODEL 2
REMARK VINA RESULT: -7.733770689      0.674      1.014
REMARK  5 active torsions:
REMARK  status: ('A' for Active; 'I' for Inactive)
REMARK    1  A    between atoms: C2_2  and  C4_4 
REMARK    2  A    between atoms: C4_4  and  C5_5 
REMARK    3  A    between atoms: C5_5  and  N1_6 
REMARK    4  A    between atoms: C14_15  and  N2_17 
REMARK    5  A    between atoms: N2_17  and  C16_19 
ROOT
HETATM    1  N1  UNL     1      65.319  46.747  31.563  1.00  0.00     0.093 N 
HETATM    2  C6  UNL     1      64.531  47.126  32.702  1.00  0.00     0.273 C 
HETATM    3  C7  UNL     1      64.499  48.629  32.912  1.00  0.00     0.031 C 
HETATM    4  C8  UNL     1      64.077  49.365  31.676  1.00  0.00     0.009 C 
HETATM    5  C9  UNL     1      63.755  48.336  30.614  1.00  0.00     0.025 C 
HETATM    6  C10 UNL     1      64.928  47.440  30.353  1.00  0.00     0.228 C 
HETATM    7  C11 UNL     1      64.660  46.537  29.203  1.00  0.00     0.043 C 
HETATM    8  C12 UNL     1      63.361  46.622  28.535  1.00  0.00     0.011 C 
HETATM    9  C13 UNL     1      63.538  46.123  27.101  1.00  0.00     0.012 C 
HETATM   10  C14 UNL     1      62.688  47.974  28.459  1.00  0.00     0.029 C 
HETATM   11  C15 UNL     1      62.698  48.495  27.032  1.00  0.00     0.039 C 
HETATM   12  C19 UNL     1      63.416  48.998  29.289  1.00  0.00     0.015 C 
HETATM   13  C20 UNL     1      64.620  49.579  28.598  1.00  0.00     0.013 C 
ENDROOT
BRANCH  10  14
HETATM   14  N2  UNL     1      61.331  47.787  28.790  1.00  0.00    -0.409 N 
ATOM     15  H2  UNL     1      60.712  48.598  28.760  1.00  0.00     0.154 HD
BRANCH  14  16
HETATM   16  C16 UNL     1      60.789  46.562  29.155  1.00  0.00     0.069 C 
HETATM   17  C17 UNL     1      60.663  46.272  30.636  1.00  0.00     0.031 C 
HETATM   18  C18 UNL     1      59.323  46.592  28.656  1.00  0.00     0.031 C 
ENDBRANCH  14  16
ENDBRANCH  10  14
BRANCH   1  19
HETATM   19  C5  UNL     1      66.728  46.885  31.798  1.00  0.00     0.273 C 
BRANCH  19  20
HETATM   20  C4  UNL     1      67.500  45.606  31.749  1.00  0.00     0.034 C 
BRANCH  20  21
HETATM   21  C2  UNL     1      67.955  45.315  33.187  1.00  0.00    -0.021 C 
HETATM   22  C1  UNL     1      67.977  46.564  34.018  1.00  0.00     0.009 C 
HETATM   23  C3  UNL     1      67.020  44.315  33.805  1.00  0.00     0.009 C 
ENDBRANCH  20  21
ENDBRANCH  19  20
ENDBRANCH   1  19
TORSDOF 5
ENDMDL
MODEL 3
REMARK VINA RESULT: -7.712478004      2.068      4.377
REMARK  5 active torsions:
REMARK  status: ('A' for Active; 'I' for Inactive)
REMARK    1  A    between atoms: C2_2  and  C4_4 
REMARK    2  A    between atoms: C4_4  and  C5_5 
REMARK    3  A    between atoms: C5_5  and  N1_6 
REMARK    4  A    between atoms: C14_15  and  N2_17 
REMARK    5  A    between atoms: N2_17  and  C16_19 
ROOT
HETATM    1  N1  UNL     1      66.262  47.288  33.356  1.00  0.00     0.093 N 
HETATM    2  C6  UNL     1      67.611  47.762  33.218  1.00  0.00     0.273 C 
HETATM    3  C7  UNL     1      68.555  46.688  32.712  1.00  0.00     0.031 C 
HETATM    4  C8  UNL     1      68.060  46.047  31.450  1.00  0.00     0.009 C 
HETATM    5  C9  UNL     1      66.777  46.743  31.052  1.00  0.00     0.025 C 
HETATM    6  C10 UNL     1      65.757  46.669  32.149  1.00  0.00     0.228 C 
HETATM    7  C11 UNL     1      64.450  47.213  31.695  1.00  0.00     0.043 C 
HETATM    8  C12 UNL     1      64.345  47.735  30.333  1.00  0.00     0.011 C 
HETATM    9  C13 UNL     1      62.881  47.634  29.904  1.00  0.00     0.012 C 
HETATM   10  C14 UNL     1      65.175  47.078  29.254  1.00  0.00     0.029 C 
HETATM   11  C15 UNL     1      64.287  46.297  28.300  1.00  0.00     0.039 C 
HETATM   12  C19 UNL     1      66.146  46.086  29.835  1.00  0.00     0.015 C 
HETATM   13  C20 UNL     1      65.525  44.751  30.144  1.00  0.00     0.013 C 
ENDROOT
BRANCH  10  14
HETATM   14  N2  UNL     1      65.755  48.106  28.483  1.00  0.00    -0.409 N 
ATOM     15  H2  UNL     1      66.637  48.508  28.802  1.00  0.00     0.154 HD
BRANCH  14  16
HETATM   16  C16 UNL     1      65.192  48.602  27.315  1.00  0.00     0.069 C 
HETATM   17  C17 UNL     1      64.074  49.613  27.457  1.00  0.00     0.031 C 
HETATM   18  C18 UNL     1      66.323  49.396  26.615  1.00  0.00     0.031 C 
ENDBRANCH  14  16
ENDBRANCH  10  14
BRANCH   1  19
HETATM   19  C5  UNL     1      66.099  46.416  34.485  1.00  0.00     0.273 C 
BRANCH  19  20
HETATM   20  C4  UNL     1      65.389  47.025  35.651  1.00  0.00     0.034 C 
BRANCH  20  21
HETATM   21  C2  UNL     1      64.547  48.183  35.093  1.00  0.00    -0.021 C 
HETATM   22  C1  UNL     1      63.079  47.898  35.211  1.00  0.00     0.009 C 
HETATM   23  C3  UNL     1      64.879  49.438  35.848  1.00  0.00     0.009 C 
ENDBRANCH  20  21
ENDBRANCH  19  20
ENDBRANCH   1  19
TORSDOF 5
ENDMDL
MODEL 4
REMARK VINA RESULT: -7.564531228      0.916      1.351
REMARK  5 active torsions:
REMARK  status: ('A' for Active; 'I' for Inactive)
REMARK    1  A    between atoms: C2_2  and  C4_4 
REMARK    2  A    between atoms: C4_4  and  C5_5 
REMARK    3  A    between atoms: C5_5  and  N1_6 
REMARK    4  A    between atoms: C14_15  and  N2_17 
REMARK    5  A    between atoms: N2_17  and  C16_19 
ROOT
HETATM    1  N1  UNL     1      65.663  46.843  32.042  1.00  0.00     0.093 N 
HETATM    2  C6  UNL     1      64.731  46.993  33.125  1.00  0.00     0.273 C 
HETATM    3  C7  UNL     1      64.176  48.402  33.223  1.00  0.00     0.031 C 
HETATM    4  C8  UNL     1      63.597  48.875  31.924  1.00  0.00     0.009 C 
HETATM    5  C9  UNL     1      63.704  47.738  30.931  1.00  0.00     0.025 C 
HETATM    6  C10 UNL     1      65.125  47.288  30.773  1.00  0.00     0.228 C 
HETATM    7  C11 UNL     1      65.246  46.282  29.684  1.00  0.00     0.043 C 
HETATM    8  C12 UNL     1      64.035  45.876  28.971  1.00  0.00     0.011 C 
HETATM    9  C13 UNL     1      64.450  45.387  27.584  1.00  0.00     0.012 C 
HETATM   10  C14 UNL     1      62.946  46.906  28.776  1.00  0.00     0.029 C 
HETATM   11  C15 UNL     1      62.855  47.315  27.315  1.00  0.00     0.039 C 
HETATM   12  C19 UNL     1      63.234  48.165  29.550  1.00  0.00     0.015 C 
HETATM   13  C20 UNL     1      64.202  49.085  28.857  1.00  0.00     0.013 C 
ENDROOT
BRANCH  10  14
HETATM   14  N2  UNL     1      61.718  46.283  29.076  1.00  0.00    -0.409 N 
ATOM     15  H2  UNL     1      61.657  45.269  28.984  1.00  0.00     0.154 HD
BRANCH  14  16
HETATM   16  C16 UNL     1      60.586  46.973  29.490  1.00  0.00     0.069 C 
HETATM   17  C17 UNL     1      59.453  47.110  28.496  1.00  0.00     0.031 C 
HETATM   18  C18 UNL     1      59.978  46.123  30.633  1.00  0.00     0.031 C 
ENDBRANCH  14  16
ENDBRANCH  10  14
BRANCH   1  19
HETATM   19  C5  UNL     1      66.925  47.472  32.312  1.00  0.00     0.273 C 
BRANCH  19  20
HETATM   20  C4  UNL     1      67.622  46.978  33.538  1.00  0.00     0.034 C 
BRANCH  20  21
HETATM   21  C2  UNL     1      68.150  45.574  33.206  1.00  0.00    -0.021 C 
HETATM   22  C1  UNL     1      67.299  44.507  33.829  1.00  0.00     0.009 C 
HETATM   23  C3  UNL     1      68.167  45.398  31.714  1.00  0.00     0.009 C 
ENDBRANCH  20  21
ENDBRANCH  19  20
ENDBRANCH   1  19
TORSDOF 5
ENDMDL
MODEL 5
REMARK VINA RESULT: -6.694883702      1.224      1.774
REMARK  5 active torsions:
REMARK  status: ('A' for Active; 'I' for Inactive)
REMARK    1  A    between atoms: C2_2  and  C4_4 
REMARK    2  A    between atoms: C4_4  and  C5_5 
REMARK    3  A    between atoms: C5_5  and  N1_6 
REMARK    4  A    between atoms: C14_15  and  N2_17 
REMARK    5  A    between atoms: N2_17  and  C16_19 
ROOT
HETATM    1  N1  UNL     1      65.857  46.146  31.106  1.00  0.00     0.093 N 
HETATM    2  C6  UNL     1      65.099  45.996  32.317  1.00  0.00     0.273 C 
HETATM    3  C7  UNL     1      64.625  47.325  32.874  1.00  0.00     0.031 C 
HETATM    4  C8  UNL     1      63.884  48.135  31.852  1.00  0.00     0.009 C 
HETATM    5  C9  UNL     1      63.798  47.312  30.586  1.00  0.00     0.025 C 
HETATM    6  C10 UNL     1      65.161  46.921  30.100  1.00  0.00     0.228 C 
HETATM    7  C11 UNL     1      65.080  46.250  28.775  1.00  0.00     0.043 C 
HETATM    8  C12 UNL     1      63.762  46.056  28.170  1.00  0.00     0.011 C 
HETATM    9  C13 UNL     1      63.952  45.962  26.656  1.00  0.00     0.012 C 
HETATM   10  C14 UNL     1      62.701  47.101  28.426  1.00  0.00     0.029 C 
HETATM   11  C15 UNL     1      62.418  47.893  27.160  1.00  0.00     0.039 C 
HETATM   12  C19 UNL     1      63.151  48.100  29.458  1.00  0.00     0.015 C 
HETATM   13  C20 UNL     1      64.047  49.173  28.901  1.00  0.00     0.013 C 
ENDROOT
BRANCH  10  14
HETATM   14  N2  UNL     1      61.504  46.421  28.729  1.00  0.00    -0.409 N 
ATOM     15  H2  UNL     1      61.430  45.438  28.467  1.00  0.00     0.154 HD
BRANCH  14  16
HETATM   16  C16 UNL     1      60.422  47.015  29.363  1.00  0.00     0.069 C 
HETATM   17  C17 UNL     1      59.134  47.133  28.576  1.00  0.00     0.031 C 
HETATM   18  C18 UNL     1      60.057  46.068  30.533  1.00  0.00     0.031 C 
ENDBRANCH  14  16
ENDBRANCH  10  14
BRANCH   1  19
HETATM   19  C5  UNL     1      67.170  46.676  31.342  1.00  0.00     0.273 C 
BRANCH  19  20
HETATM   20  C4  UNL     1      68.068  45.792  32.146  1.00  0.00     0.034 C 
BRANCH  20  21
HETATM   21  C2  UNL     1      68.451  46.585  33.404  1.00  0.00    -0.021 C 
HETATM   22  C1  UNL     1      68.283  48.061  33.193  1.00  0.00     0.009 C 
HETATM   23  C3  UNL     1      67.586  46.138  34.548  1.00  0.00     0.009 C 
ENDBRANCH  20  21
ENDBRANCH  19  20
ENDBRANCH   1  19
TORSDOF 5
ENDMDL
