MODEL 1
REMARK VINA RESULT: -6.473518278      0.000      0.000
REMARK  4 active torsions:
REMARK  status: ('A' for Active; 'I' for Inactive)
REMARK    1  A    between atoms: C9_11  and  N2_12 
REMARK    2  A    between atoms: N2_12  and  C10_14 
REMARK    3  A    between atoms: C10_14  and  C11_15 
REMARK    4  A    between atoms: N3_17  and  O1_19 
ROOT
HETATM    1  C1  UNL     1      22.238   6.724  48.616  1.00  0.00     0.013 C 
HETATM    2  C2  UNL     1      23.378   6.481  48.934  1.00  0.00    -0.105 C 
HETATM    3  C3  UNL     1      24.754   6.160  49.295  1.00  0.00     0.042 C 
HETATM    4  C4  UNL     1      25.616   6.138  48.011  1.00  0.00     0.031 C 
HETATM    5  C5  UNL     1      24.900   4.755  49.818  1.00  0.00     0.034 C 
HETATM    6  C6  UNL     1      23.766   4.424  50.761  1.00  0.00     0.077 C 
HETATM    7  S1  UNL     1      23.953   5.627  52.082  1.00  0.00    -0.147 SA
HETATM    8  C7  UNL     1      24.957   7.028  51.660  1.00  0.00     0.178 C 
HETATM    9  C8  UNL     1      26.140   7.044  52.523  1.00  0.00     0.076 C 
HETATM   10  N1  UNL     1      27.080   7.043  53.227  1.00  0.00    -0.196 NA
HETATM   11  C9  UNL     1      25.329   7.191  50.196  1.00  0.00     0.128 C 
ENDROOT
BRANCH  11  12
HETATM   12  N2  UNL     1      25.040   8.537  49.901  1.00  0.00    -0.389 N 
ATOM     13  H2  UNL     1      24.067   8.843  49.864  1.00  0.00     0.159 HD
BRANCH  12  14
HETATM   14  C10 UNL     1      26.059   9.460  49.658  1.00  0.00     0.110 C 
BRANCH  14  15
HETATM   15  C11 UNL     1      25.405  10.694  49.108  1.00  0.00     0.043 C 
HETATM   16  C12 UNL     1      24.358  10.493  48.034  1.00  0.00     0.071 C 
HETATM   17  N3  UNL     1      25.677  11.879  49.454  1.00  0.00    -0.273 N 
ATOM     18  H3  UNL     1      26.396  12.024  50.163  1.00  0.00     0.194 HD
BRANCH  17  19
HETATM   19  O1  UNL     1      25.054  12.979  48.927  1.00  0.00    -0.290 OA
ATOM     20  H1  UNL     1      25.291  13.871  49.151  1.00  0.00     0.244 HD
ENDBRANCH  17  19
ENDBRANCH  14  15
ENDBRANCH  12  14
ENDBRANCH  11  12
TORSDOF 4
ENDMDL
MODEL 2
REMARK VINA RESULT: -6.395250618      3.546      5.252
REMARK  4 active torsions:
REMARK  status: ('A' for Active; 'I' for Inactive)
REMARK    1  A    between atoms: C9_11  and  N2_12 
REMARK    2  A    between atoms: N2_12  and  C10_14 
REMARK    3  A    between atoms: C10_14  and  C11_15 
REMARK    4  A    between atoms: N3_17  and  O1_19 
ROOT
HETATM    1  C1  UNL     1      23.742   4.439  50.978  1.00  0.00     0.013 C 
HETATM    2  C2  UNL     1      24.413   5.085  50.207  1.00  0.00    -0.105 C 
HETATM    3  C3  UNL     1      25.252   5.849  49.292  1.00  0.00     0.042 C 
HETATM    4  C4  UNL     1      26.147   4.870  48.498  1.00  0.00     0.031 C 
HETATM    5  C5  UNL     1      26.257   6.708  50.014  1.00  0.00     0.034 C 
HETATM    6  C6  UNL     1      25.615   7.383  51.204  1.00  0.00     0.077 C 
HETATM    7  S1  UNL     1      24.317   8.385  50.472  1.00  0.00    -0.147 SA
HETATM    8  C7  UNL     1      23.873   7.914  48.819  1.00  0.00     0.178 C 
HETATM    9  C8  UNL     1      24.178   9.021  47.910  1.00  0.00     0.076 C 
HETATM   10  N1  UNL     1      24.423   9.921  47.197  1.00  0.00    -0.196 NA
HETATM   11  C9  UNL     1      24.431   6.598  48.307  1.00  0.00     0.128 C 
ENDROOT
BRANCH  11  12
HETATM   12  N2  UNL     1      23.321   5.929  47.755  1.00  0.00    -0.389 N 
ATOM     13  H2  UNL     1      23.443   4.994  47.367  1.00  0.00     0.159 HD
BRANCH  12  14
HETATM   14  C10 UNL     1      22.058   6.524  47.728  1.00  0.00     0.110 C 
BRANCH  14  15
HETATM   15  C11 UNL     1      21.074   5.473  48.156  1.00  0.00     0.043 C 
HETATM   16  C12 UNL     1      19.632   5.905  48.305  1.00  0.00     0.071 C 
HETATM   17  N3  UNL     1      21.362   4.271  48.421  1.00  0.00    -0.273 N 
ATOM     18  H3  UNL     1      22.336   3.977  48.342  1.00  0.00     0.194 HD
BRANCH  17  19
HETATM   19  O1  UNL     1      20.433   3.342  48.807  1.00  0.00    -0.290 OA
ATOM     20  H1  UNL     1      20.255   3.127  49.714  1.00  0.00     0.244 HD
ENDBRANCH  17  19
ENDBRANCH  14  15
ENDBRANCH  12  14
ENDBRANCH  11  12
TORSDOF 4
ENDMDL
MODEL 3
REMARK VINA RESULT: -6.321429473      3.336      5.039
REMARK  4 active torsions:
REMARK  status: ('A' for Active; 'I' for Inactive)
REMARK    1  A    between atoms: C9_11  and  N2_12 
REMARK    2  A    between atoms: N2_12  and  C10_14 
REMARK    3  A    between atoms: C10_14  and  C11_15 
REMARK    4  A    between atoms: N3_17  and  O1_19 
ROOT
HETATM    1  C1  UNL     1      23.924   4.345  50.894  1.00  0.00     0.013 C 
HETATM    2  C2  UNL     1      24.561   5.079  50.176  1.00  0.00    -0.105 C 
HETATM    3  C3  UNL     1      25.360   5.949  49.321  1.00  0.00     0.042 C 
HETATM    4  C4  UNL     1      26.272   5.075  48.429  1.00  0.00     0.031 C 
HETATM    5  C5  UNL     1      26.351   6.773  50.103  1.00  0.00     0.034 C 
HETATM    6  C6  UNL     1      25.709   7.317  51.358  1.00  0.00     0.077 C 
HETATM    7  S1  UNL     1      24.367   8.337  50.738  1.00  0.00    -0.147 SA
HETATM    8  C7  UNL     1      23.910   8.002  49.056  1.00  0.00     0.178 C 
HETATM    9  C8  UNL     1      24.164   9.195  48.246  1.00  0.00     0.076 C 
HETATM   10  N1  UNL     1      24.370  10.163  47.613  1.00  0.00    -0.196 NA
HETATM   11  C9  UNL     1      24.500   6.756  48.419  1.00  0.00     0.128 C 
ENDROOT
BRANCH  11  12
HETATM   12  N2  UNL     1      23.402   6.104  47.825  1.00  0.00    -0.389 N 
ATOM     13  H2  UNL     1      23.562   5.456  47.053  1.00  0.00     0.159 HD
BRANCH  12  14
HETATM   14  C10 UNL     1      22.098   6.328  48.272  1.00  0.00     0.110 C 
BRANCH  14  15
HETATM   15  C11 UNL     1      21.181   5.942  47.148  1.00  0.00     0.043 C 
HETATM   16  C12 UNL     1      19.748   6.421  47.237  1.00  0.00     0.071 C 
HETATM   17  N3  UNL     1      21.507   5.234  46.153  1.00  0.00    -0.273 N 
ATOM     18  H3  UNL     1      22.465   4.890  46.096  1.00  0.00     0.194 HD
BRANCH  17  19
HETATM   19  O1  UNL     1      20.639   4.905  45.147  1.00  0.00    -0.290 OA
ATOM     20  H1  UNL     1      20.893   4.409  44.378  1.00  0.00     0.244 HD
ENDBRANCH  17  19
ENDBRANCH  14  15
ENDBRANCH  12  14
ENDBRANCH  11  12
TORSDOF 4
ENDMDL
MODEL 4
REMARK VINA RESULT: -6.280821683      1.349      1.375
REMARK  4 active torsions:
REMARK  status: ('A' for Active; 'I' for Inactive)
REMARK    1  A    between atoms: C9_11  and  N2_12 
REMARK    2  A    between atoms: N2_12  and  C10_14 
REMARK    3  A    between atoms: C10_14  and  C11_15 
REMARK    4  A    between atoms: N3_17  and  O1_19 
ROOT
HETATM    1  C1  UNL     1      22.755   6.677  48.157  1.00  0.00     0.013 C 
HETATM    2  C2  UNL     1      23.803   6.340  48.657  1.00  0.00    -0.105 C 
HETATM    3  C3  UNL     1      25.066   5.904  49.239  1.00  0.00     0.042 C 
HETATM    4  C4  UNL     1      26.069   5.614  48.099  1.00  0.00     0.031 C 
HETATM    5  C5  UNL     1      24.951   4.569  49.928  1.00  0.00     0.034 C 
HETATM    6  C6  UNL     1      23.674   4.501  50.735  1.00  0.00     0.077 C 
HETATM    7  S1  UNL     1      23.858   5.830  51.929  1.00  0.00    -0.147 SA
HETATM    8  C7  UNL     1      25.089   7.034  51.500  1.00  0.00     0.178 C 
HETATM    9  C8  UNL     1      26.147   7.016  52.513  1.00  0.00     0.076 C 
HETATM   10  N1  UNL     1      26.982   6.991  53.338  1.00  0.00    -0.196 NA
HETATM   11  C9  UNL     1      25.660   6.963  50.094  1.00  0.00     0.128 C 
ENDROOT
BRANCH  11  12
HETATM   12  N2  UNL     1      25.596   8.286  49.615  1.00  0.00    -0.389 N 
ATOM     13  H2  UNL     1      24.694   8.679  49.347  1.00  0.00     0.159 HD
BRANCH  12  14
HETATM   14  C10 UNL     1      26.747   9.069  49.500  1.00  0.00     0.110 C 
BRANCH  14  15
HETATM   15  C11 UNL     1      26.479  10.345  50.245  1.00  0.00     0.043 C 
HETATM   16  C12 UNL     1      26.130  11.562  49.416  1.00  0.00     0.071 C 
HETATM   17  N3  UNL     1      26.545  10.483  51.500  1.00  0.00    -0.273 N 
ATOM     18  H3  UNL     1      26.800   9.672  52.064  1.00  0.00     0.194 HD
BRANCH  17  19
HETATM   19  O1  UNL     1      26.292  11.666  52.142  1.00  0.00    -0.290 OA
ATOM     20  H1  UNL     1      26.345  11.771  53.084  1.00  0.00     0.244 HD
ENDBRANCH  17  19
ENDBRANCH  14  15
ENDBRANCH  12  14
ENDBRANCH  11  12
TORSDOF 4
ENDMDL
MODEL 5
REMARK VINA RESULT: -6.268428428      4.018      5.900
REMARK  4 active torsions:
REMARK  status: ('A' for Active; 'I' for Inactive)
REMARK    1  A    between atoms: C9_11  and  N2_12 
REMARK    2  A    between atoms: N2_12  and  C10_14 
REMARK    3  A    between atoms: C10_14  and  C11_15 
REMARK    4  A    between atoms: N3_17  and  O1_19 
ROOT
HETATM    1  C1  UNL     1      22.474   7.825  51.089  1.00  0.00     0.013 C 
HETATM    2  C2  UNL     1      23.553   7.279  51.085  1.00  0.00    -0.105 C 
HETATM    3  C3  UNL     1      24.863   6.639  51.111  1.00  0.00     0.042 C 
HETATM    4  C4  UNL     1      25.058   5.954  52.483  1.00  0.00     0.031 C 
HETATM    5  C5  UNL     1      25.992   7.636  51.073  1.00  0.00     0.034 C 
HETATM    6  C6  UNL     1      25.696   8.729  50.072  1.00  0.00     0.077 C 
HETATM    7  S1  UNL     1      25.560   7.847  48.513  1.00  0.00    -0.147 SA
HETATM    8  C7  UNL     1      25.298   6.100  48.680  1.00  0.00     0.178 C 
HETATM    9  C8  UNL     1      26.439   5.389  48.099  1.00  0.00     0.076 C 
HETATM   10  N1  UNL     1      27.359   4.836  47.622  1.00  0.00    -0.196 NA
HETATM   11  C9  UNL     1      24.967   5.585  50.070  1.00  0.00     0.128 C 
ENDROOT
BRANCH  11  12
HETATM   12  N2  UNL     1      23.848   4.750  49.886  1.00  0.00    -0.389 N 
ATOM     13  H2  UNL     1      23.191   4.953  49.132  1.00  0.00     0.159 HD
BRANCH  12  14
HETATM   14  C10 UNL     1      23.621   3.649  50.715  1.00  0.00     0.110 C 
BRANCH  14  15
HETATM   15  C11 UNL     1      22.352   3.003  50.241  1.00  0.00     0.043 C 
HETATM   16  C12 UNL     1      21.932   1.726  50.936  1.00  0.00     0.071 C 
HETATM   17  N3  UNL     1      21.625   3.429  49.298  1.00  0.00    -0.273 N 
ATOM     18  H3  UNL     1      21.913   4.278  48.811  1.00  0.00     0.194 HD
BRANCH  17  19
HETATM   19  O1  UNL     1      20.472   2.810  48.897  1.00  0.00    -0.290 OA
ATOM     20  H1  UNL     1      20.347   2.451  48.027  1.00  0.00     0.244 HD
ENDBRANCH  17  19
ENDBRANCH  14  15
ENDBRANCH  12  14
ENDBRANCH  11  12
TORSDOF 4
ENDMDL
