MODEL 1
REMARK VINA RESULT: -8.813249518      0.000      0.000
REMARK  5 active torsions:
REMARK  status: ('A' for Active; 'I' for Inactive)
REMARK    1  A    between atoms: C5_10  and  O2_11 
REMARK    2  A    between atoms: C5_10  and  C6_13 
REMARK       I    between atoms: C6_13  and  N3_15 
REMARK    3  A    between atoms: N3_15  and  C7_17 
REMARK    4  A    between atoms: C7_17  and  C8_18 
REMARK    5  A    between atoms: C8_18  and  C9_19 
ROOT
HETATM    1  O1  UNL     1       1.545  17.627  -2.811  1.00  0.00    -0.245 OA
HETATM    2  C1  UNL     1       1.907  18.419  -2.130  1.00  0.00     0.340 A 
HETATM    3  N1  UNL     1       1.474  19.760  -2.279  1.00  0.00    -0.251 N 
ATOM      4  H1  UNL     1       0.819  19.970  -3.033  1.00  0.00     0.191 HD
HETATM    5  N2  UNL     1       1.890  20.825  -1.451  1.00  0.00    -0.293 N 
ATOM      6  H2  UNL     1       1.542  21.771  -1.609  1.00  0.00     0.187 HD
HETATM    7  C2  UNL     1       2.794  20.561  -0.403  1.00  0.00     0.088 A 
HETATM    8  C3  UNL     1       3.207  21.520   0.392  1.00  0.00     0.013 A 
HETATM    9  C4  UNL     1       4.134  21.299   1.484  1.00  0.00     0.101 A 
HETATM   10  C5  UNL     1       4.627  19.927   1.665  1.00  0.00     0.219 A 
HETATM   11  N4  UNL     1       4.099  18.977   0.747  1.00  0.00    -0.335 N 
ATOM     12  H4  UNL     1       4.413  18.013   0.858  1.00  0.00     0.164 HD
HETATM   13  C10 UNL     1       3.287  19.197  -0.188  1.00  0.00     0.136 A 
HETATM   14  N5  UNL     1       2.832  18.164  -1.054  1.00  0.00    -0.292 N 
ATOM     15  H5  UNL     1       3.170  17.212  -0.908  1.00  0.00     0.172 HD
ENDROOT
BRANCH  10  16
HETATM   16  O2  UNL     1       6.041  19.865   1.483  1.00  0.00    -0.363 OA
ATOM     17  H2  UNL     1       6.261  19.380   0.696  1.00  0.00     0.213 HD
ENDBRANCH  10  16
BRANCH  10  18
HETATM   18  C6  UNL     1       4.331  19.489   3.080  1.00  0.00     0.273 C 
HETATM   19  O3  UNL     1       4.220  18.272   3.300  1.00  0.00    -0.268 OA
HETATM   20  N3  UNL     1       4.194  20.493   4.076  1.00  0.00    -0.357 N 
ATOM     21  H3  UNL     1       4.296  21.478   3.830  1.00  0.00     0.162 HD
BRANCH  20  22
HETATM   22  C7  UNL     1       3.915  20.115   5.423  1.00  0.00     0.125 C 
BRANCH  22  23
HETATM   23  C8  UNL     1       3.458  21.258   6.255  1.00  0.00     0.051 C 
BRANCH  23  24
HETATM   24  C9  UNL     1       3.846  21.161   7.681  1.00  0.00     0.224 C 
HETATM   25  F1  UNL     1       3.334  22.118   8.473  1.00  0.00    -0.255 F 
ENDBRANCH  23  24
ENDBRANCH  22  23
ENDBRANCH  20  22
ENDBRANCH  10  18
TORSDOF 5
ENDMDL
MODEL 2
REMARK VINA RESULT: -8.475374445      1.466      1.665
REMARK  5 active torsions:
REMARK  status: ('A' for Active; 'I' for Inactive)
REMARK    1  A    between atoms: C5_10  and  O2_11 
REMARK    2  A    between atoms: C5_10  and  C6_13 
REMARK       I    between atoms: C6_13  and  N3_15 
REMARK    3  A    between atoms: N3_15  and  C7_17 
REMARK    4  A    between atoms: C7_17  and  C8_18 
REMARK    5  A    between atoms: C8_18  and  C9_19 
ROOT
HETATM    1  O1  UNL     1       0.361  17.968  -3.875  1.00  0.00    -0.245 OA
HETATM    2  C1  UNL     1       0.996  18.497  -3.141  1.00  0.00     0.340 A 
HETATM    3  N1  UNL     1       1.433  19.824  -3.379  1.00  0.00    -0.251 N 
ATOM      4  H1  UNL     1       1.143  20.274  -4.247  1.00  0.00     0.191 HD
HETATM    5  N2  UNL     1       2.244  20.564  -2.491  1.00  0.00    -0.293 N 
ATOM      6  H2  UNL     1       2.526  21.517  -2.719  1.00  0.00     0.187 HD
HETATM    7  C2  UNL     1       2.658  19.964  -1.285  1.00  0.00     0.088 A 
HETATM    8  C3  UNL     1       3.411  20.616  -0.429  1.00  0.00     0.013 A 
HETATM    9  C4  UNL     1       3.861  20.044   0.824  1.00  0.00     0.101 A 
HETATM   10  C5  UNL     1       3.449  18.662   1.106  1.00  0.00     0.219 A 
HETATM   11  N4  UNL     1       2.628  18.068   0.107  1.00  0.00    -0.335 N 
ATOM     12  H4  UNL     1       2.316  17.114   0.282  1.00  0.00     0.164 HD
HETATM   13  C10 UNL     1       2.246  18.593  -0.970  1.00  0.00     0.136 A 
HETATM   14  N5  UNL     1       1.427  17.896  -1.902  1.00  0.00    -0.292 N 
ATOM     15  H5  UNL     1       1.136  16.942  -1.688  1.00  0.00     0.172 HD
ENDROOT
BRANCH  10  16
HETATM   16  O2  UNL     1       4.585  17.802   1.204  1.00  0.00    -0.363 OA
ATOM     17  H2  UNL     1       4.319  16.891   1.230  1.00  0.00     0.213 HD
ENDBRANCH  10  16
BRANCH  10  18
HETATM   18  C6  UNL     1       2.737  18.630   2.437  1.00  0.00     0.273 C 
HETATM   19  O3  UNL     1       1.612  18.107   2.482  1.00  0.00    -0.268 OA
HETATM   20  N3  UNL     1       3.395  19.201   3.560  1.00  0.00    -0.357 N 
ATOM     21  H3  UNL     1       4.321  19.616   3.457  1.00  0.00     0.162 HD
BRANCH  20  22
HETATM   22  C7  UNL     1       2.752  19.187   4.834  1.00  0.00     0.125 C 
BRANCH  22  23
HETATM   23  C8  UNL     1       3.645  19.641   5.930  1.00  0.00     0.051 C 
BRANCH  23  24
HETATM   24  C9  UNL     1       3.529  21.083   6.249  1.00  0.00     0.224 C 
HETATM   25  F1  UNL     1       3.871  21.415   7.505  1.00  0.00    -0.255 F 
ENDBRANCH  23  24
ENDBRANCH  22  23
ENDBRANCH  20  22
ENDBRANCH  10  18
TORSDOF 5
ENDMDL
MODEL 3
REMARK VINA RESULT: -7.828977557      1.529      1.825
REMARK  5 active torsions:
REMARK  status: ('A' for Active; 'I' for Inactive)
REMARK    1  A    between atoms: C5_10  and  O2_11 
REMARK    2  A    between atoms: C5_10  and  C6_13 
REMARK       I    between atoms: C6_13  and  N3_15 
REMARK    3  A    between atoms: N3_15  and  C7_17 
REMARK    4  A    between atoms: C7_17  and  C8_18 
REMARK    5  A    between atoms: C8_18  and  C9_19 
ROOT
HETATM    1  O1  UNL     1       0.778  18.323  -2.408  1.00  0.00    -0.245 OA
HETATM    2  C1  UNL     1       1.564  18.598  -1.681  1.00  0.00     0.340 A 
HETATM    3  N1  UNL     1       2.622  19.467  -2.046  1.00  0.00    -0.251 N 
ATOM      4  H1  UNL     1       2.634  19.830  -2.999  1.00  0.00     0.191 HD
HETATM    5  N2  UNL     1       3.659  19.864  -1.175  1.00  0.00    -0.293 N 
ATOM      6  H2  UNL     1       4.394  20.494  -1.498  1.00  0.00     0.187 HD
HETATM    7  C2  UNL     1       3.664  19.377   0.147  1.00  0.00     0.088 A 
HETATM    8  C3  UNL     1       4.608  19.721   0.991  1.00  0.00     0.013 A 
HETATM    9  C4  UNL     1       4.657  19.248   2.360  1.00  0.00     0.101 A 
HETATM   10  C5  UNL     1       3.591  18.326   2.779  1.00  0.00     0.219 A 
HETATM   11  N4  UNL     1       2.623  18.038   1.777  1.00  0.00    -0.335 N 
ATOM     12  H4  UNL     1       1.864  17.413   2.044  1.00  0.00     0.164 HD
HETATM   13  C10 UNL     1       2.603  18.472   0.596  1.00  0.00     0.136 A 
HETATM   14  N5  UNL     1       1.582  18.106  -0.325  1.00  0.00    -0.292 N 
ATOM     15  H5  UNL     1       0.840  17.478  -0.017  1.00  0.00     0.172 HD
ENDROOT
BRANCH  10  16
HETATM   16  O2  UNL     1       4.130  17.056   3.143  1.00  0.00    -0.363 OA
ATOM     17  H2  UNL     1       4.076  16.920   4.081  1.00  0.00     0.213 HD
ENDBRANCH  10  16
BRANCH  10  18
HETATM   18  C6  UNL     1       2.909  18.898   3.999  1.00  0.00     0.273 C 
HETATM   19  O3  UNL     1       1.784  18.463   4.292  1.00  0.00    -0.268 OA
HETATM   20  N3  UNL     1       3.593  19.900   4.739  1.00  0.00    -0.357 N 
ATOM     21  H3  UNL     1       4.517  20.216   4.444  1.00  0.00     0.162 HD
BRANCH  20  22
HETATM   22  C7  UNL     1       2.978  20.462   5.897  1.00  0.00     0.125 C 
BRANCH  22  23
HETATM   23  C8  UNL     1       3.791  20.271   7.126  1.00  0.00     0.051 C 
BRANCH  23  24
HETATM   24  C9  UNL     1       3.817  21.449   8.023  1.00  0.00     0.224 C 
HETATM   25  F1  UNL     1       3.415  22.601   7.460  1.00  0.00    -0.255 F 
ENDBRANCH  23  24
ENDBRANCH  22  23
ENDBRANCH  20  22
ENDBRANCH  10  18
TORSDOF 5
ENDMDL
MODEL 4
REMARK VINA RESULT: -7.619899081      3.503      7.032
REMARK  5 active torsions:
REMARK  status: ('A' for Active; 'I' for Inactive)
REMARK    1  A    between atoms: C5_10  and  O2_11 
REMARK    2  A    between atoms: C5_10  and  C6_13 
REMARK       I    between atoms: C6_13  and  N3_15 
REMARK    3  A    between atoms: N3_15  and  C7_17 
REMARK    4  A    between atoms: C7_17  and  C8_18 
REMARK    5  A    between atoms: C8_18  and  C9_19 
ROOT
HETATM    1  O1  UNL     1       3.692  21.537   7.009  1.00  0.00    -0.245 OA
HETATM    2  C1  UNL     1       3.690  20.822   6.165  1.00  0.00     0.340 A 
HETATM    3  N1  UNL     1       3.301  19.473   6.355  1.00  0.00    -0.251 N 
ATOM      4  H1  UNL     1       3.023  19.184   7.293  1.00  0.00     0.191 HD
HETATM    5  N2  UNL     1       3.272  18.504   5.329  1.00  0.00    -0.293 N 
ATOM      6  H2  UNL     1       2.982  17.546   5.529  1.00  0.00     0.187 HD
HETATM    7  C2  UNL     1       3.651  18.879   4.025  1.00  0.00     0.088 A 
HETATM    8  C3  UNL     1       3.638  18.011   3.041  1.00  0.00     0.013 A 
HETATM    9  C4  UNL     1       4.018  18.348   1.684  1.00  0.00     0.101 A 
HETATM   10  C5  UNL     1       4.449  19.732   1.442  1.00  0.00     0.219 A 
HETATM   11  N4  UNL     1       4.410  20.577   2.586  1.00  0.00    -0.335 N 
ATOM     12  H4  UNL     1       4.690  21.547   2.444  1.00  0.00     0.164 HD
HETATM   13  C10 UNL     1       4.067  20.258   3.753  1.00  0.00     0.136 A 
HETATM   14  N5  UNL     1       4.075  21.192   4.826  1.00  0.00    -0.292 N 
ATOM     15  H5  UNL     1       4.363  22.154   4.642  1.00  0.00     0.172 HD
ENDROOT
BRANCH  10  16
HETATM   16  O2  UNL     1       5.806  19.774   1.002  1.00  0.00    -0.363 OA
ATOM     17  H2  UNL     1       5.919  20.416   0.312  1.00  0.00     0.213 HD
ENDBRANCH  10  16
BRANCH  10  18
HETATM   18  C6  UNL     1       3.596  20.320   0.343  1.00  0.00     0.273 C 
HETATM   19  O3  UNL     1       3.612  21.552   0.192  1.00  0.00    -0.268 OA
HETATM   20  N3  UNL     1       2.825  19.431  -0.453  1.00  0.00    -0.357 N 
ATOM     21  H3  UNL     1       2.855  18.426  -0.278  1.00  0.00     0.162 HD
BRANCH  20  22
HETATM   22  C7  UNL     1       2.008  19.952  -1.500  1.00  0.00     0.125 C 
BRANCH  22  23
HETATM   23  C8  UNL     1       1.521  18.896  -2.425  1.00  0.00     0.051 C 
BRANCH  23  24
HETATM   24  C9  UNL     1       1.489  19.305  -3.848  1.00  0.00     0.224 C 
HETATM   25  F1  UNL     1       1.535  20.631  -4.058  1.00  0.00    -0.255 F 
ENDBRANCH  23  24
ENDBRANCH  22  23
ENDBRANCH  20  22
ENDBRANCH  10  18
TORSDOF 5
ENDMDL
MODEL 5
REMARK VINA RESULT: -7.559397894      3.235      6.982
REMARK  5 active torsions:
REMARK  status: ('A' for Active; 'I' for Inactive)
REMARK    1  A    between atoms: C5_10  and  O2_11 
REMARK    2  A    between atoms: C5_10  and  C6_13 
REMARK       I    between atoms: C6_13  and  N3_15 
REMARK    3  A    between atoms: N3_15  and  C7_17 
REMARK    4  A    between atoms: C7_17  and  C8_18 
REMARK    5  A    between atoms: C8_18  and  C9_19 
ROOT
HETATM    1  O1  UNL     1       3.476  22.233   7.635  1.00  0.00    -0.245 OA
HETATM    2  C1  UNL     1       3.610  21.384   6.940  1.00  0.00     0.340 A 
HETATM    3  N1  UNL     1       3.690  20.054   7.423  1.00  0.00    -0.251 N 
ATOM      4  H1  UNL     1       3.620  19.907   8.430  1.00  0.00     0.191 HD
HETATM    5  N2  UNL     1       3.860  18.920   6.600  1.00  0.00    -0.293 N 
ATOM      6  H2  UNL     1       3.910  17.987   7.008  1.00  0.00     0.187 HD
HETATM    7  C2  UNL     1       3.959  19.098   5.206  1.00  0.00     0.088 A 
HETATM    8  C3  UNL     1       4.116  18.072   4.402  1.00  0.00     0.013 A 
HETATM    9  C4  UNL     1       4.222  18.203   2.963  1.00  0.00     0.101 A 
HETATM   10  C5  UNL     1       4.165  19.566   2.417  1.00  0.00     0.219 A 
HETATM   11  N4  UNL     1       3.983  20.590   3.388  1.00  0.00    -0.335 N 
ATOM     12  H4  UNL     1       3.926  21.545   3.036  1.00  0.00     0.164 HD
HETATM   13  C10 UNL     1       3.886  20.445   4.633  1.00  0.00     0.136 A 
HETATM   14  N5  UNL     1       3.713  21.551   5.511  1.00  0.00    -0.292 N 
ATOM     15  H5  UNL     1       3.660  22.491   5.118  1.00  0.00     0.172 HD
ENDROOT
BRANCH  10  16
HETATM   16  O2  UNL     1       5.384  19.901   1.755  1.00  0.00    -0.363 OA
ATOM     17  H2  UNL     1       5.649  20.790   1.961  1.00  0.00     0.213 HD
ENDBRANCH  10  16
BRANCH  10  18
HETATM   18  C6  UNL     1       3.057  19.631   1.392  1.00  0.00     0.273 C 
HETATM   19  O3  UNL     1       1.944  19.184   1.711  1.00  0.00    -0.268 OA
HETATM   20  N3  UNL     1       3.353  20.200   0.124  1.00  0.00    -0.357 N 
ATOM     21  H3  UNL     1       4.290  20.550  -0.076  1.00  0.00     0.162 HD
BRANCH  20  22
HETATM   22  C7  UNL     1       2.331  20.279  -0.868  1.00  0.00     0.125 C 
BRANCH  22  23
HETATM   23  C8  UNL     1       2.517  19.291  -1.962  1.00  0.00     0.051 C 
BRANCH  23  24
HETATM   24  C9  UNL     1       1.962  17.950  -1.667  1.00  0.00     0.224 C 
HETATM   25  F1  UNL     1       2.784  17.132  -0.989  1.00  0.00    -0.255 F 
ENDBRANCH  23  24
ENDBRANCH  22  23
ENDBRANCH  20  22
ENDBRANCH  10  18
TORSDOF 5
ENDMDL
