MODEL 1
REMARK VINA RESULT: -9.539473046      0.000      0.000
REMARK  3 active torsions:
REMARK  status: ('A' for Active; 'I' for Inactive)
REMARK    1  A    between atoms: C2_5  and  N2_6 
REMARK    2  A    between atoms: N2_6  and  C3_8 
REMARK    3  A    between atoms: C3_8  and  C4_9 
ROOT
HETATM    1  C4  UNL     1       4.004  19.530   1.948  1.00  0.00     0.171 C 
HETATM    2  C5  UNL     1       3.195  18.340   2.285  1.00  0.00     0.210 C 
HETATM    3  O2  UNL     1       3.112  17.535   1.085  1.00  0.00    -0.342 OA
HETATM    4  C6  UNL     1       2.674  18.181  -0.057  1.00  0.00     0.158 A 
HETATM    5  C7  UNL     1       2.819  19.544  -0.186  1.00  0.00     0.108 A 
HETATM    6  C8  UNL     1       2.371  20.186  -1.347  1.00  0.00     0.057 A 
HETATM    7  C9  UNL     1       1.784  19.484  -2.374  1.00  0.00     0.093 A 
HETATM    8  N3  UNL     1       1.657  18.154  -2.221  1.00  0.00    -0.341 N 
ATOM      9  H3  UNL     1       1.226  17.611  -2.969  1.00  0.00     0.167 HD
HETATM   10  C10 UNL     1       2.078  17.514  -1.115  1.00  0.00     0.224 A 
HETATM   11  F1  UNL     1       1.939  16.159  -0.976  1.00  0.00    -0.183 F 
HETATM   12  O3  UNL     1       3.405  20.228   0.846  1.00  0.00    -0.339 OA
ENDROOT
BRANCH   1  13
HETATM   13  C3  UNL     1       4.157  20.477   3.095  1.00  0.00     0.172 C 
BRANCH  13  14
HETATM   14  N2  UNL     1       4.473  19.840   4.338  1.00  0.00    -0.222 N 
ATOM     15  H2  UNL     1       4.960  18.943   4.332  1.00  0.00     0.177 HD
BRANCH  14  16
HETATM   16  C2  UNL     1       4.125  20.428   5.567  1.00  0.00     0.697 A 
HETATM   17  N1  UNL     1       4.363  20.072   6.817  1.00  0.00    -0.139 N 
HETATM   18  C1  UNL     1       3.837  20.940   7.696  1.00  0.00     0.353 A 
ATOM     19  H1  UNL     1       4.885  19.237   7.083  1.00  0.00     0.189 HD
HETATM   20  O1  UNL     1       3.894  20.874   8.878  1.00  0.00    -0.245 OA
HETATM   21  N5  UNL     1       3.244  21.879   6.950  1.00  0.00    -0.237 N 
HETATM   22  N4  UNL     1       3.407  21.589   5.674  1.00  0.00    -0.128 N 
ATOM     23  H5  UNL     1       2.746  22.693   7.311  1.00  0.00     0.192 HD
ATOM     24  H4  UNL     1       3.054  22.141   4.893  1.00  0.00     0.205 HD
ENDBRANCH  14  16
ENDBRANCH  13  14
ENDBRANCH   1  13
TORSDOF 3
ENDMDL
MODEL 2
REMARK VINA RESULT: -9.447099311      0.756      1.047
REMARK  3 active torsions:
REMARK  status: ('A' for Active; 'I' for Inactive)
REMARK    1  A    between atoms: C2_5  and  N2_6 
REMARK    2  A    between atoms: N2_6  and  C3_8 
REMARK    3  A    between atoms: C3_8  and  C4_9 
ROOT
HETATM    1  C4  UNL     1       4.035  19.451   2.273  1.00  0.00     0.171 C 
HETATM    2  C5  UNL     1       3.196  18.255   2.491  1.00  0.00     0.210 C 
HETATM    3  O2  UNL     1       3.151  17.539   1.233  1.00  0.00    -0.342 OA
HETATM    4  C6  UNL     1       2.769  18.273   0.124  1.00  0.00     0.158 A 
HETATM    5  C7  UNL     1       2.939  19.638   0.100  1.00  0.00     0.108 A 
HETATM    6  C8  UNL     1       2.548  20.369  -1.029  1.00  0.00     0.057 A 
HETATM    7  C9  UNL     1       1.994  19.752  -2.127  1.00  0.00     0.093 A 
HETATM    8  N3  UNL     1       1.842  18.417  -2.075  1.00  0.00    -0.341 N 
ATOM      9  H3  UNL     1       1.434  17.937  -2.877  1.00  0.00     0.167 HD
HETATM   10  C10 UNL     1       2.208  17.693  -1.002  1.00  0.00     0.224 A 
HETATM   11  F1  UNL     1       2.045  16.334  -0.967  1.00  0.00    -0.183 F 
HETATM   12  O3  UNL     1       3.492  20.236   1.201  1.00  0.00    -0.339 OA
ENDROOT
BRANCH   1  13
HETATM   13  C3  UNL     1       4.154  20.311   3.490  1.00  0.00     0.172 C 
BRANCH  13  14
HETATM   14  N2  UNL     1       3.491  19.783   4.644  1.00  0.00    -0.222 N 
ATOM     15  H2  UNL     1       2.952  18.920   4.560  1.00  0.00     0.177 HD
BRANCH  14  16
HETATM   16  C2  UNL     1       3.569  20.430   5.889  1.00  0.00     0.697 A 
HETATM   17  N1  UNL     1       3.195  21.634   6.286  1.00  0.00    -0.139 N 
HETATM   18  C1  UNL     1       3.463  21.841   7.586  1.00  0.00     0.353 A 
ATOM     19  H1  UNL     1       2.754  22.324   5.677  1.00  0.00     0.189 HD
HETATM   20  O1  UNL     1       3.237  22.825   8.207  1.00  0.00    -0.245 OA
HETATM   21  N5  UNL     1       4.032  20.708   8.011  1.00  0.00    -0.237 N 
HETATM   22  N4  UNL     1       4.103  19.853   7.010  1.00  0.00    -0.128 N 
ATOM     23  H5  UNL     1       4.358  20.532   8.962  1.00  0.00     0.192 HD
ATOM     24  H4  UNL     1       4.494  18.912   7.063  1.00  0.00     0.205 HD
ENDBRANCH  14  16
ENDBRANCH  13  14
ENDBRANCH   1  13
TORSDOF 3
ENDMDL
MODEL 3
REMARK VINA RESULT: -9.250345038      1.361      1.694
REMARK  3 active torsions:
REMARK  status: ('A' for Active; 'I' for Inactive)
REMARK    1  A    between atoms: C2_5  and  N2_6 
REMARK    2  A    between atoms: N2_6  and  C3_8 
REMARK    3  A    between atoms: C3_8  and  C4_9 
ROOT
HETATM    1  C4  UNL     1       3.606  18.333   3.329  1.00  0.00     0.171 C 
HETATM    2  C5  UNL     1       2.297  17.709   3.050  1.00  0.00     0.210 C 
HETATM    3  O2  UNL     1       2.302  17.329   1.653  1.00  0.00    -0.342 OA
HETATM    4  C6  UNL     1       2.632  18.323   0.748  1.00  0.00     0.158 A 
HETATM    5  C7  UNL     1       3.396  19.398   1.142  1.00  0.00     0.108 A 
HETATM    6  C8  UNL     1       3.722  20.397   0.217  1.00  0.00     0.057 A 
HETATM    7  C9  UNL     1       3.296  20.332  -1.089  1.00  0.00     0.093 A 
HETATM    8  N3  UNL     1       2.552  19.270  -1.445  1.00  0.00    -0.341 N 
ATOM      9  H3  UNL     1       2.225  19.199  -2.409  1.00  0.00     0.167 HD
HETATM   10  C10 UNL     1       2.225  18.297  -0.575  1.00  0.00     0.224 A 
HETATM   11  F1  UNL     1       1.466  17.223  -0.955  1.00  0.00    -0.183 F 
HETATM   12  O3  UNL     1       3.811  19.447   2.446  1.00  0.00    -0.339 OA
ENDROOT
BRANCH   1  13
HETATM   13  C3  UNL     1       3.740  18.805   4.742  1.00  0.00     0.172 C 
BRANCH  13  14
HETATM   14  N2  UNL     1       3.854  20.226   4.873  1.00  0.00    -0.222 N 
ATOM     15  H2  UNL     1       4.011  20.795   4.040  1.00  0.00     0.177 HD
BRANCH  14  16
HETATM   16  C2  UNL     1       3.755  20.853   6.128  1.00  0.00     0.697 A 
HETATM   17  N1  UNL     1       3.211  21.997   6.505  1.00  0.00    -0.139 N 
HETATM   18  C1  UNL     1       3.348  22.207   7.825  1.00  0.00     0.353 A 
ATOM     19  H1  UNL     1       2.744  22.643   5.869  1.00  0.00     0.189 HD
HETATM   20  O1  UNL     1       2.959  23.144   8.436  1.00  0.00    -0.245 OA
HETATM   21  N5  UNL     1       4.009  21.138   8.283  1.00  0.00    -0.237 N 
HETATM   22  N4  UNL     1       4.261  20.318   7.282  1.00  0.00    -0.128 N 
ATOM     23  H5  UNL     1       4.276  20.982   9.256  1.00  0.00     0.192 HD
ATOM     24  H4  UNL     1       4.753  19.429   7.357  1.00  0.00     0.205 HD
ENDBRANCH  14  16
ENDBRANCH  13  14
ENDBRANCH   1  13
TORSDOF 3
ENDMDL
MODEL 4
REMARK VINA RESULT: -9.152111746      3.087      7.606
REMARK  3 active torsions:
REMARK  status: ('A' for Active; 'I' for Inactive)
REMARK    1  A    between atoms: C2_5  and  N2_6 
REMARK    2  A    between atoms: N2_6  and  C3_8 
REMARK    3  A    between atoms: C3_8  and  C4_9 
ROOT
HETATM    1  C4  UNL     1       4.118  19.722   0.376  1.00  0.00     0.171 C 
HETATM    2  C5  UNL     1       4.505  20.840   1.261  1.00  0.00     0.210 C 
HETATM    3  O2  UNL     1       4.938  20.255   2.512  1.00  0.00    -0.342 OA
HETATM    4  C6  UNL     1       4.061  19.369   3.111  1.00  0.00     0.158 A 
HETATM    5  C7  UNL     1       3.127  18.696   2.357  1.00  0.00     0.108 A 
HETATM    6  C8  UNL     1       2.244  17.802   2.976  1.00  0.00     0.057 A 
HETATM    7  C9  UNL     1       2.285  17.576   4.332  1.00  0.00     0.093 A 
HETATM    8  N3  UNL     1       3.209  18.247   5.043  1.00  0.00    -0.341 N 
ATOM      9  H3  UNL     1       3.260  18.097   6.050  1.00  0.00     0.167 HD
HETATM   10  C10 UNL     1       4.068  19.112   4.472  1.00  0.00     0.224 A 
HETATM   11  F1  UNL     1       5.001  19.787   5.212  1.00  0.00    -0.183 F 
HETATM   12  O3  UNL     1       3.099  18.933   1.008  1.00  0.00    -0.339 OA
ENDROOT
BRANCH   1  13
HETATM   13  C3  UNL     1       3.619  20.178  -0.958  1.00  0.00     0.172 C 
BRANCH  13  14
HETATM   14  N2  UNL     1       2.212  19.990  -1.149  1.00  0.00    -0.222 N 
ATOM     15  H2  UNL     1       1.563  20.299  -0.425  1.00  0.00     0.177 HD
BRANCH  14  16
HETATM   16  C2  UNL     1       1.709  19.386  -2.315  1.00  0.00     0.697 A 
HETATM   17  N1  UNL     1       2.047  19.503  -3.588  1.00  0.00    -0.139 N 
HETATM   18  C1  UNL     1       1.290  18.728  -4.381  1.00  0.00     0.353 A 
ATOM     19  H1  UNL     1       2.793  20.110  -3.926  1.00  0.00     0.189 HD
HETATM   20  O1  UNL     1       1.368  18.632  -5.560  1.00  0.00    -0.245 OA
HETATM   21  N5  UNL     1       0.444  18.102  -3.556  1.00  0.00    -0.237 N 
HETATM   22  N4  UNL     1       0.681  18.483  -2.317  1.00  0.00    -0.128 N 
ATOM     23  H5  UNL     1      -0.272  17.433  -3.841  1.00  0.00     0.192 HD
ATOM     24  H4  UNL     1       0.178  18.158  -1.491  1.00  0.00     0.205 HD
ENDBRANCH  14  16
ENDBRANCH  13  14
ENDBRANCH   1  13
TORSDOF 3
ENDMDL
MODEL 5
REMARK VINA RESULT: -9.149814566      1.295      1.991
REMARK  3 active torsions:
REMARK  status: ('A' for Active; 'I' for Inactive)
REMARK    1  A    between atoms: C2_5  and  N2_6 
REMARK    2  A    between atoms: N2_6  and  C3_8 
REMARK    3  A    between atoms: C3_8  and  C4_9 
ROOT
HETATM    1  C4  UNL     1       2.971  18.861   2.558  1.00  0.00     0.171 C 
HETATM    2  C5  UNL     1       3.736  19.981   1.973  1.00  0.00     0.210 C 
HETATM    3  O2  UNL     1       3.017  20.407   0.790  1.00  0.00    -0.342 OA
HETATM    4  C6  UNL     1       2.712  19.421  -0.131  1.00  0.00     0.158 A 
HETATM    5  C7  UNL     1       2.611  18.106   0.264  1.00  0.00     0.108 A 
HETATM    6  C8  UNL     1       2.302  17.117  -0.678  1.00  0.00     0.057 A 
HETATM    7  C9  UNL     1       2.094  17.427  -2.002  1.00  0.00     0.093 A 
HETATM    8  N3  UNL     1       2.199  18.719  -2.358  1.00  0.00    -0.341 N 
ATOM      9  H3  UNL     1       2.048  18.975  -3.334  1.00  0.00     0.167 HD
HETATM   10  C10 UNL     1       2.495  19.688  -1.472  1.00  0.00     0.224 A 
HETATM   11  F1  UNL     1       2.599  20.999  -1.854  1.00  0.00    -0.183 F 
HETATM   12  O3  UNL     1       2.821  17.815   1.586  1.00  0.00    -0.339 OA
ENDROOT
BRANCH   1  13
HETATM   13  C3  UNL     1       3.611  18.293   3.785  1.00  0.00     0.172 C 
BRANCH  13  14
HETATM   14  N2  UNL     1       4.549  19.174   4.412  1.00  0.00    -0.222 N 
ATOM     15  H2  UNL     1       5.502  19.230   4.051  1.00  0.00     0.177 HD
BRANCH  14  16
HETATM   16  C2  UNL     1       4.182  19.963   5.516  1.00  0.00     0.697 A 
HETATM   17  N1  UNL     1       4.353  19.799   6.817  1.00  0.00    -0.139 N 
HETATM   18  C1  UNL     1       3.835  20.817   7.524  1.00  0.00     0.353 A 
ATOM     19  H1  UNL     1       4.823  18.996   7.234  1.00  0.00     0.189 HD
HETATM   20  O1  UNL     1       3.843  20.937   8.703  1.00  0.00    -0.245 OA
HETATM   21  N5  UNL     1       3.319  21.650   6.613  1.00  0.00    -0.237 N 
HETATM   22  N4  UNL     1       3.518  21.155   5.407  1.00  0.00    -0.128 N 
ATOM     23  H5  UNL     1       2.847  22.531   6.819  1.00  0.00     0.192 HD
ATOM     24  H4  UNL     1       3.223  21.590   4.534  1.00  0.00     0.205 HD
ENDBRANCH  14  16
ENDBRANCH  13  14
ENDBRANCH   1  13
TORSDOF 3
ENDMDL
