MODEL 1
REMARK VINA RESULT: 0.699499881      0.000      0.000
REMARK  9 active torsions:
REMARK  status: ('A' for Active; 'I' for Inactive)
REMARK    1  A    between atoms: C5_7  and  C6_8 
REMARK    2  A    between atoms: C6_8  and  C7_9 
REMARK    3  A    between atoms: C7_9  and  C8_10 
REMARK    4  A    between atoms: C8_10  and  C9_11 
REMARK    5  A    between atoms: C9_11  and  C10_12 
REMARK    6  A    between atoms: C10_12  and  N3_13 
REMARK    7  A    between atoms: C14_20  and  C15_21 
REMARK    8  A    between atoms: C16_22  and  C17_23 
REMARK    9  A    between atoms: C17_23  and  C18_24 
ROOT
HETATM    1  C6  UNL     1       2.933  19.455   0.233  1.00  0.00     0.029 C 
HETATM    2  C14 UNL     1       2.405  18.592   1.081  1.00  0.00     0.021 C 
ENDROOT
BRANCH   1   3
HETATM    3  C5  UNL     1       3.842  20.480   0.660  1.00  0.00     0.009 A 
HETATM    4  C4  UNL     1       3.526  21.811   0.738  1.00  0.00     0.058 A 
HETATM    5  C3  UNL     1       4.495  22.720   1.169  1.00  0.00     0.029 A 
HETATM    6  N2  UNL     1       2.243  22.284   0.392  1.00  0.00    -0.102 NA
HETATM    7  C2  UNL     1       5.764  22.326   1.521  1.00  0.00     0.028 A 
HETATM    8  C1  UNL     1       6.079  20.996   1.444  1.00  0.00     0.047 A 
HETATM    9  N1  UNL     1       7.387  20.547   1.800  1.00  0.00    -0.102 NA
HETATM   10  C23 UNL     1       5.139  20.099   1.023  1.00  0.00     0.041 A 
ENDBRANCH   1   3
BRANCH   1  11
HETATM   11  C7  UNL     1       2.541  19.303  -1.133  1.00  0.00    -0.065 C 
BRANCH  11  12
HETATM   12  C8  UNL     1       2.233  19.199  -2.329  1.00  0.00    -0.089 C 
BRANCH  12  13
HETATM   13  C9  UNL     1       1.892  19.092  -3.740  1.00  0.00     0.047 C 
HETATM   14  C11 UNL     1       2.968  18.306  -4.501  1.00  0.00     0.024 C 
HETATM   15  C12 UNL     1       2.196  17.049  -4.080  1.00  0.00     0.004 C 
HETATM   16  C13 UNL     1       0.960  17.958  -4.002  1.00  0.00     0.024 C 
BRANCH  13  17
HETATM   17  C10 UNL     1       1.557  20.415  -4.344  1.00  0.00     0.252 C 
BRANCH  17  18
HETATM   18  N3  UNL     1       1.504  20.412  -5.771  1.00  0.00    -0.078 N 
ATOM     19  H33 UNL     1       1.389  21.361  -6.125  1.00  0.00     0.274 HD
ATOM     20  H32 UNL     1       2.420  20.191  -6.162  1.00  0.00     0.274 HD
ATOM     21  H31 UNL     1       0.791  19.796  -6.162  1.00  0.00     0.274 HD
ENDBRANCH  17  18
ENDBRANCH  13  17
ENDBRANCH  12  13
ENDBRANCH  11  12
ENDBRANCH   1  11
BRANCH   2  22
HETATM   22  C15 UNL     1       1.483  17.558   0.617  1.00  0.00    -0.002 C 
HETATM   23  C16 UNL     1       1.060  16.528   1.282  1.00  0.00    -0.022 C 
BRANCH  23  24
HETATM   24  C17 UNL     1       1.446  16.211   2.659  1.00  0.00     0.067 C 
BRANCH  24  25
HETATM   25  C18 UNL     1       2.135  17.348   3.331  1.00  0.00    -0.039 A 
HETATM   26  C19 UNL     1       3.506  17.271   3.455  1.00  0.00     0.014 A 
HETATM   27  C20 UNL     1       4.193  18.298   4.070  1.00  0.00     0.075 A 
HETATM   28  C21 UNL     1       3.456  19.361   4.534  1.00  0.00     0.245 A 
HETATM   29  O1  UNL     1       4.065  20.301   5.095  1.00  0.00    -0.268 OA
HETATM   30  N4  UNL     1       2.126  19.422   4.407  1.00  0.00    -0.333 N 
HETATM   31  C22 UNL     1       1.441  18.445   3.818  1.00  0.00     0.098 A 
ATOM     32  H4  UNL     1       1.626  20.234   4.769  1.00  0.00     0.168 HD
ENDBRANCH  24  25
ENDBRANCH  23  24
ENDBRANCH   2  22
TORSDOF 9
ENDMDL
MODEL 2
REMARK VINA RESULT: 0.849842745      2.716      7.446
REMARK  9 active torsions:
REMARK  status: ('A' for Active; 'I' for Inactive)
REMARK    1  A    between atoms: C5_7  and  C6_8 
REMARK    2  A    between atoms: C6_8  and  C7_9 
REMARK    3  A    between atoms: C7_9  and  C8_10 
REMARK    4  A    between atoms: C8_10  and  C9_11 
REMARK    5  A    between atoms: C9_11  and  C10_12 
REMARK    6  A    between atoms: C10_12  and  N3_13 
REMARK    7  A    between atoms: C14_20  and  C15_21 
REMARK    8  A    between atoms: C16_22  and  C17_23 
REMARK    9  A    between atoms: C17_23  and  C18_24 
ROOT
HETATM    1  C6  UNL     1       3.647  19.007   1.922  1.00  0.00     0.029 C 
HETATM    2  C14 UNL     1       4.548  19.530   1.111  1.00  0.00     0.021 C 
ENDROOT
BRANCH   1   3
HETATM    3  C5  UNL     1       2.685  18.044   1.468  1.00  0.00     0.009 A 
HETATM    4  C4  UNL     1       1.849  17.338   2.292  1.00  0.00     0.058 A 
HETATM    5  C3  UNL     1       0.951  16.425   1.736  1.00  0.00     0.029 A 
HETATM    6  N2  UNL     1       1.875  17.514   3.692  1.00  0.00    -0.102 NA
HETATM    7  C2  UNL     1       0.874  16.205   0.381  1.00  0.00     0.028 A 
HETATM    8  C1  UNL     1       1.709  16.911  -0.443  1.00  0.00     0.047 A 
HETATM    9  N1  UNL     1       1.660  16.712  -1.856  1.00  0.00    -0.102 NA
HETATM   10  C23 UNL     1       2.591  17.807   0.092  1.00  0.00     0.041 A 
ENDBRANCH   1   3
BRANCH   1  11
HETATM   11  C7  UNL     1       3.691  19.464   3.275  1.00  0.00    -0.065 C 
BRANCH  11  12
HETATM   12  C8  UNL     1       3.771  19.876   4.442  1.00  0.00    -0.089 C 
BRANCH  12  13
HETATM   13  C9  UNL     1       3.888  20.354   5.811  1.00  0.00     0.047 C 
HETATM   14  C11 UNL     1       3.151  19.420   6.779  1.00  0.00     0.024 C 
HETATM   15  C12 UNL     1       4.449  18.602   6.810  1.00  0.00     0.004 C 
HETATM   16  C13 UNL     1       5.163  19.912   6.446  1.00  0.00     0.024 C 
BRANCH  13  17
HETATM   17  C10 UNL     1       3.514  21.793   5.942  1.00  0.00     0.252 C 
BRANCH  17  18
HETATM   18  N3  UNL     1       3.292  22.221   7.287  1.00  0.00    -0.078 N 
ATOM     19  H33 UNL     1       3.939  21.752   7.921  1.00  0.00     0.274 HD
ATOM     20  H32 UNL     1       3.599  23.186   7.410  1.00  0.00     0.274 HD
ATOM     21  H31 UNL     1       2.331  22.107   7.609  1.00  0.00     0.274 HD
ENDBRANCH  17  18
ENDBRANCH  13  17
ENDBRANCH  12  13
ENDBRANCH  11  12
ENDBRANCH   1  11
BRANCH   2  22
HETATM   22  C15 UNL     1       5.516  20.509   1.600  1.00  0.00    -0.002 C 
HETATM   23  C16 UNL     1       5.373  21.797   1.648  1.00  0.00    -0.022 C 
BRANCH  23  24
HETATM   24  C17 UNL     1       4.178  22.519   1.205  1.00  0.00     0.067 C 
BRANCH  24  25
HETATM   25  C18 UNL     1       3.426  21.779   0.153  1.00  0.00    -0.039 A 
HETATM   26  C19 UNL     1       2.095  21.511   0.399  1.00  0.00     0.014 A 
HETATM   27  C20 UNL     1       1.353  20.828  -0.544  1.00  0.00     0.075 A 
HETATM   28  C21 UNL     1       1.995  20.446  -1.696  1.00  0.00     0.245 A 
HETATM   29  O1  UNL     1       1.334  19.825  -2.561  1.00  0.00    -0.268 OA
HETATM   30  N4  UNL     1       3.286  20.713  -1.921  1.00  0.00    -0.333 N 
HETATM   31  C22 UNL     1       4.023  21.369  -1.029  1.00  0.00     0.098 A 
ATOM     32  H4  UNL     1       3.714  20.406  -2.795  1.00  0.00     0.168 HD
ENDBRANCH  24  25
ENDBRANCH  23  24
ENDBRANCH   2  22
TORSDOF 9
ENDMDL
MODEL 3
REMARK VINA RESULT: 1.088940941      2.006      5.287
REMARK  9 active torsions:
REMARK  status: ('A' for Active; 'I' for Inactive)
REMARK    1  A    between atoms: C5_7  and  C6_8 
REMARK    2  A    between atoms: C6_8  and  C7_9 
REMARK    3  A    between atoms: C7_9  and  C8_10 
REMARK    4  A    between atoms: C8_10  and  C9_11 
REMARK    5  A    between atoms: C9_11  and  C10_12 
REMARK    6  A    between atoms: C10_12  and  N3_13 
REMARK    7  A    between atoms: C14_20  and  C15_21 
REMARK    8  A    between atoms: C16_22  and  C17_23 
REMARK    9  A    between atoms: C17_23  and  C18_24 
ROOT
HETATM    1  C6  UNL     1       3.599  19.636  -0.076  1.00  0.00     0.029 C 
HETATM    2  C14 UNL     1       4.852  19.957   0.184  1.00  0.00     0.021 C 
ENDROOT
BRANCH   1   3
HETATM    3  C5  UNL     1       2.915  20.127  -1.239  1.00  0.00     0.009 A 
HETATM    4  C4  UNL     1       2.733  21.453  -1.528  1.00  0.00     0.058 A 
HETATM    5  C3  UNL     1       2.050  21.813  -2.691  1.00  0.00     0.029 A 
HETATM    6  N2  UNL     1       3.220  22.465  -0.674  1.00  0.00    -0.102 NA
HETATM    7  C2  UNL     1       1.550  20.877  -3.566  1.00  0.00     0.028 A 
HETATM    8  C1  UNL     1       1.733  19.552  -3.278  1.00  0.00     0.047 A 
HETATM    9  N1  UNL     1       1.228  18.549  -4.161  1.00  0.00    -0.102 NA
HETATM   10  C23 UNL     1       2.399  19.190  -2.141  1.00  0.00     0.041 A 
ENDBRANCH   1   3
BRANCH   1  11
HETATM   11  C7  UNL     1       2.968  18.773   0.873  1.00  0.00    -0.065 C 
BRANCH  11  12
HETATM   12  C8  UNL     1       2.394  18.058   1.707  1.00  0.00    -0.089 C 
BRANCH  12  13
HETATM   13  C9  UNL     1       1.726  17.235   2.704  1.00  0.00     0.047 C 
HETATM   14  C11 UNL     1       2.735  16.692   3.725  1.00  0.00     0.024 C 
HETATM   15  C12 UNL     1       2.523  18.011   4.477  1.00  0.00     0.004 C 
HETATM   16  C13 UNL     1       1.143  18.056   3.803  1.00  0.00     0.024 C 
BRANCH  13  17
HETATM   17  C10 UNL     1       0.857  16.191   2.085  1.00  0.00     0.252 C 
BRANCH  17  18
HETATM   18  N3  UNL     1       0.807  16.239   0.659  1.00  0.00    -0.078 N 
ATOM     19  H33 UNL     1       1.171  17.128   0.319  1.00  0.00     0.274 HD
ATOM     20  H32 UNL     1       1.496  15.604   0.256  1.00  0.00     0.274 HD
ATOM     21  H31 UNL     1      -0.117  16.059   0.266  1.00  0.00     0.274 HD
ENDBRANCH  17  18
ENDBRANCH  13  17
ENDBRANCH  12  13
ENDBRANCH  11  12
ENDBRANCH   1  11
BRANCH   2  22
HETATM   22  C15 UNL     1       5.523  19.443   1.376  1.00  0.00    -0.002 C 
HETATM   23  C16 UNL     1       5.268  19.744   2.611  1.00  0.00    -0.022 C 
BRANCH  23  24
HETATM   24  C17 UNL     1       4.228  20.682   3.042  1.00  0.00     0.067 C 
BRANCH  24  25
HETATM   25  C18 UNL     1       4.090  20.734   4.524  1.00  0.00    -0.039 A 
HETATM   26  C19 UNL     1       4.665  19.710   5.248  1.00  0.00     0.014 A 
HETATM   27  C20 UNL     1       4.565  19.711   6.625  1.00  0.00     0.075 A 
HETATM   28  C21 UNL     1       3.887  20.753   7.208  1.00  0.00     0.245 A 
HETATM   29  O1  UNL     1       3.789  20.767   8.457  1.00  0.00    -0.268 OA
HETATM   30  N4  UNL     1       3.335  21.740   6.493  1.00  0.00    -0.333 N 
HETATM   31  C22 UNL     1       3.416  21.762   5.165  1.00  0.00     0.098 A 
ATOM     32  H4  UNL     1       2.842  22.491   6.976  1.00  0.00     0.168 HD
ENDBRANCH  24  25
ENDBRANCH  23  24
ENDBRANCH   2  22
TORSDOF 9
ENDMDL
MODEL 4
REMARK VINA RESULT: 1.281302230      0.877      1.359
REMARK  9 active torsions:
REMARK  status: ('A' for Active; 'I' for Inactive)
REMARK    1  A    between atoms: C5_7  and  C6_8 
REMARK    2  A    between atoms: C6_8  and  C7_9 
REMARK    3  A    between atoms: C7_9  and  C8_10 
REMARK    4  A    between atoms: C8_10  and  C9_11 
REMARK    5  A    between atoms: C9_11  and  C10_12 
REMARK    6  A    between atoms: C10_12  and  N3_13 
REMARK    7  A    between atoms: C14_20  and  C15_21 
REMARK    8  A    between atoms: C16_22  and  C17_23 
REMARK    9  A    between atoms: C17_23  and  C18_24 
ROOT
HETATM    1  C6  UNL     1       2.878  19.165   0.307  1.00  0.00     0.029 C 
HETATM    2  C14 UNL     1       2.271  18.417   1.209  1.00  0.00     0.021 C 
ENDROOT
BRANCH   1   3
HETATM    3  C5  UNL     1       3.711  20.274   0.676  1.00  0.00     0.009 A 
HETATM    4  C4  UNL     1       3.294  21.578   0.709  1.00  0.00     0.058 A 
HETATM    5  C3  UNL     1       4.195  22.576   1.085  1.00  0.00     0.029 A 
HETATM    6  N2  UNL     1       1.972  21.936   0.371  1.00  0.00    -0.102 NA
HETATM    7  C2  UNL     1       5.498  22.296   1.425  1.00  0.00     0.028 A 
HETATM    8  C1  UNL     1       5.915  20.993   1.394  1.00  0.00     0.047 A 
HETATM    9  N1  UNL     1       7.259  20.661   1.740  1.00  0.00    -0.102 NA
HETATM   10  C23 UNL     1       5.040  20.009   1.027  1.00  0.00     0.041 A 
ENDBRANCH   1   3
BRANCH   1  11
HETATM   11  C7  UNL     1       2.652  18.800  -1.056  1.00  0.00    -0.065 C 
BRANCH  11  12
HETATM   12  C8  UNL     1       2.476  18.522  -2.251  1.00  0.00    -0.089 C 
BRANCH  12  13
HETATM   13  C9  UNL     1       2.270  18.220  -3.660  1.00  0.00     0.047 C 
HETATM   14  C11 UNL     1       0.783  18.312  -4.025  1.00  0.00     0.024 C 
HETATM   15  C12 UNL     1       1.040  19.808  -4.245  1.00  0.00     0.004 C 
HETATM   16  C13 UNL     1       2.497  19.414  -4.524  1.00  0.00     0.024 C 
BRANCH  13  17
HETATM   17  C10 UNL     1       2.923  16.940  -4.065  1.00  0.00     0.252 C 
BRANCH  17  18
HETATM   18  N3  UNL     1       3.497  16.962  -5.373  1.00  0.00    -0.078 N 
ATOM     19  H33 UNL     1       2.918  17.513  -6.006  1.00  0.00     0.274 HD
ATOM     20  H32 UNL     1       4.347  17.527  -5.380  1.00  0.00     0.274 HD
ATOM     21  H31 UNL     1       3.677  16.039  -5.766  1.00  0.00     0.274 HD
ENDBRANCH  17  18
ENDBRANCH  13  17
ENDBRANCH  12  13
ENDBRANCH  11  12
ENDBRANCH   1  11
BRANCH   2  22
HETATM   22  C15 UNL     1       1.428  17.294   0.804  1.00  0.00    -0.002 C 
HETATM   23  C16 UNL     1       1.063  16.285   1.532  1.00  0.00    -0.022 C 
BRANCH  23  24
HETATM   24  C17 UNL     1       1.443  16.088   2.933  1.00  0.00     0.067 C 
BRANCH  24  25
HETATM   25  C18 UNL     1       2.159  17.267   3.497  1.00  0.00    -0.039 A 
HETATM   26  C19 UNL     1       3.536  17.202   3.549  1.00  0.00     0.014 A 
HETATM   27  C20 UNL     1       4.248  18.267   4.063  1.00  0.00     0.075 A 
HETATM   28  C21 UNL     1       3.530  19.353   4.502  1.00  0.00     0.245 A 
HETATM   29  O1  UNL     1       4.163  20.328   4.971  1.00  0.00    -0.268 OA
HETATM   30  N4  UNL     1       2.195  19.401   4.445  1.00  0.00    -0.333 N 
HETATM   31  C22 UNL     1       1.485  18.388   3.955  1.00  0.00     0.098 A 
ATOM     32  H4  UNL     1       1.710  20.232   4.785  1.00  0.00     0.168 HD
ENDBRANCH  24  25
ENDBRANCH  23  24
ENDBRANCH   2  22
TORSDOF 9
ENDMDL
MODEL 5
REMARK VINA RESULT: 1.423171349      2.577      5.826
REMARK  9 active torsions:
REMARK  status: ('A' for Active; 'I' for Inactive)
REMARK    1  A    between atoms: C5_7  and  C6_8 
REMARK    2  A    between atoms: C6_8  and  C7_9 
REMARK    3  A    between atoms: C7_9  and  C8_10 
REMARK    4  A    between atoms: C8_10  and  C9_11 
REMARK    5  A    between atoms: C9_11  and  C10_12 
REMARK    6  A    between atoms: C10_12  and  N3_13 
REMARK    7  A    between atoms: C14_20  and  C15_21 
REMARK    8  A    between atoms: C16_22  and  C17_23 
REMARK    9  A    between atoms: C17_23  and  C18_24 
ROOT
HETATM    1  C6  UNL     1       3.353  18.132   2.012  1.00  0.00     0.029 C 
HETATM    2  C14 UNL     1       3.912  17.495   3.025  1.00  0.00     0.021 C 
ENDROOT
BRANCH   1   3
HETATM    3  C5  UNL     1       2.339  17.523   1.200  1.00  0.00     0.009 A 
HETATM    4  C4  UNL     1       1.438  16.596   1.652  1.00  0.00     0.058 A 
HETATM    5  C3  UNL     1       0.493  16.071   0.767  1.00  0.00     0.029 A 
HETATM    6  N2  UNL     1       1.444  16.158   2.993  1.00  0.00    -0.102 NA
HETATM    7  C2  UNL     1       0.434  16.455  -0.552  1.00  0.00     0.028 A 
HETATM    8  C1  UNL     1       1.333  17.382  -1.004  1.00  0.00     0.047 A 
HETATM    9  N1  UNL     1       1.304  17.806  -2.367  1.00  0.00    -0.102 NA
HETATM   10  C23 UNL     1       2.262  17.901  -0.146  1.00  0.00     0.041 A 
ENDBRANCH   1   3
BRANCH   1  11
HETATM   11  C7  UNL     1       3.824  19.461   1.779  1.00  0.00    -0.065 C 
BRANCH  11  12
HETATM   12  C8  UNL     1       4.210  20.614   1.538  1.00  0.00    -0.089 C 
BRANCH  12  13
HETATM   13  C9  UNL     1       4.640  21.973   1.246  1.00  0.00     0.047 C 
HETATM   14  C11 UNL     1       4.081  22.443  -0.103  1.00  0.00     0.024 C 
HETATM   15  C12 UNL     1       2.831  22.863   0.681  1.00  0.00     0.004 C 
HETATM   16  C13 UNL     1       3.761  22.986   1.898  1.00  0.00     0.024 C 
BRANCH  13  17
HETATM   17  C10 UNL     1       6.116  22.144   1.391  1.00  0.00     0.252 C 
BRANCH  17  18
HETATM   18  N3  UNL     1       6.548  23.505   1.430  1.00  0.00    -0.078 N 
ATOM     19  H33 UNL     1       6.244  23.950   2.295  1.00  0.00     0.274 HD
ATOM     20  H32 UNL     1       7.559  23.555   1.555  1.00  0.00     0.274 HD
ATOM     21  H31 UNL     1       6.260  24.058   0.623  1.00  0.00     0.274 HD
ENDBRANCH  17  18
ENDBRANCH  13  17
ENDBRANCH  12  13
ENDBRANCH  11  12
ENDBRANCH   1  11
BRANCH   2  22
HETATM   22  C15 UNL     1       4.943  18.139   3.835  1.00  0.00    -0.002 C 
HETATM   23  C16 UNL     1       4.777  18.790   4.944  1.00  0.00    -0.022 C 
BRANCH  23  24
HETATM   24  C17 UNL     1       3.484  18.999   5.600  1.00  0.00     0.067 C 
BRANCH  24  25
HETATM   25  C18 UNL     1       3.444  20.265   6.385  1.00  0.00    -0.039 A 
HETATM   26  C19 UNL     1       3.788  20.191   7.719  1.00  0.00     0.014 A 
HETATM   27  C20 UNL     1       3.768  21.335   8.491  1.00  0.00     0.075 A 
HETATM   28  C21 UNL     1       3.399  22.506   7.875  1.00  0.00     0.245 A 
HETATM   29  O1  UNL     1       3.376  23.553   8.563  1.00  0.00    -0.268 OA
HETATM   30  N4  UNL     1       3.069  22.563   6.580  1.00  0.00    -0.333 N 
HETATM   31  C22 UNL     1       3.080  21.474   5.814  1.00  0.00     0.098 A 
ATOM     32  H4  UNL     1       2.802  23.458   6.171  1.00  0.00     0.168 HD
ENDBRANCH  24  25
ENDBRANCH  23  24
ENDBRANCH   2  22
TORSDOF 9
ENDMDL
