MODEL 1
REMARK VINA RESULT: -6.245695195      0.000      0.000
REMARK  0 active torsions:
REMARK  status: ('A' for Active; 'I' for Inactive)
ROOT
HETATM    1  N1  UNL     1      15.862  -6.508  -2.219  1.00  0.00    -0.098 NA
HETATM    2  C1  UNL     1      17.261  -6.405  -2.044  1.00  0.00     0.093 A 
HETATM    3  C2  UNL     1      18.092  -5.883  -3.030  1.00  0.00     0.136 A 
HETATM    4  N2  UNL     1      19.418  -5.807  -2.814  1.00  0.00    -0.309 N 
ATOM      5  H2  UNL     1      20.016  -5.422  -3.547  1.00  0.00     0.186 HD
HETATM    6  N3  UNL     1      19.974  -6.215  -1.684  1.00  0.00    -0.297 N 
ATOM      7  H3  UNL     1      20.985  -6.135  -1.572  1.00  0.00     0.187 HD
HETATM    8  C3  UNL     1      19.247  -6.732  -0.681  1.00  0.00     0.095 A 
HETATM    9  C4  UNL     1      19.555  -7.225   0.578  1.00  0.00     0.140 A 
HETATM   10  N4  UNL     1      18.384  -7.598   1.110  1.00  0.00    -0.309 N 
ATOM     11  H4  UNL     1      18.270  -8.005   2.038  1.00  0.00     0.186 HD
HETATM   12  N5  UNL     1      17.398  -7.364   0.263  1.00  0.00    -0.297 N 
ATOM     13  H5  UNL     1      16.414  -7.564   0.442  1.00  0.00     0.187 HD
HETATM   14  C5  UNL     1      17.883  -6.820  -0.879  1.00  0.00     0.103 A 
ENDROOT
TORSDOF 0
ENDMDL
MODEL 2
REMARK VINA RESULT: -6.052606152      0.834      2.984
REMARK  0 active torsions:
REMARK  status: ('A' for Active; 'I' for Inactive)
ROOT
HETATM    1  N1  UNL     1      18.548  -8.085   1.573  1.00  0.00    -0.098 NA
HETATM    2  C1  UNL     1      18.957  -7.352   0.435  1.00  0.00     0.093 A 
HETATM    3  C2  UNL     1      20.286  -7.002   0.221  1.00  0.00     0.136 A 
HETATM    4  N2  UNL     1      20.623  -6.303  -0.878  1.00  0.00    -0.309 N 
ATOM      5  H2  UNL     1      21.602  -6.053  -1.022  1.00  0.00     0.186 HD
HETATM    6  N3  UNL     1      19.728  -5.929  -1.779  1.00  0.00    -0.297 N 
ATOM      7  H3  UNL     1      20.038  -5.401  -2.595  1.00  0.00     0.187 HD
HETATM    8  C3  UNL     1      18.425  -6.224  -1.651  1.00  0.00     0.095 A 
HETATM    9  C4  UNL     1      17.299  -5.967  -2.417  1.00  0.00     0.140 A 
HETATM   10  N4  UNL     1      16.280  -6.528  -1.753  1.00  0.00    -0.309 N 
ATOM     11  H4  UNL     1      15.308  -6.514  -2.059  1.00  0.00     0.186 HD
HETATM   12  N5  UNL     1      16.714  -7.101  -0.645  1.00  0.00    -0.297 N 
ATOM     13  H5  UNL     1      16.125  -7.593   0.027  1.00  0.00     0.187 HD
HETATM   14  C5  UNL     1      18.054  -6.941  -0.530  1.00  0.00     0.103 A 
ENDROOT
TORSDOF 0
ENDMDL
MODEL 3
REMARK VINA RESULT: -6.023224588      0.960      1.149
REMARK  0 active torsions:
REMARK  status: ('A' for Active; 'I' for Inactive)
ROOT
HETATM    1  N1  UNL     1      16.329  -7.383  -1.053  1.00  0.00    -0.098 NA
HETATM    2  C1  UNL     1      17.687  -6.992  -1.059  1.00  0.00     0.093 A 
HETATM    3  C2  UNL     1      18.259  -6.327  -2.140  1.00  0.00     0.136 A 
HETATM    4  N2  UNL     1      19.558  -5.976  -2.096  1.00  0.00    -0.309 N 
ATOM      5  H2  UNL     1      19.964  -5.490  -2.896  1.00  0.00     0.186 HD
HETATM    6  N3  UNL     1      20.326  -6.241  -1.051  1.00  0.00    -0.297 N 
ATOM      7  H3  UNL     1      21.304  -5.953  -1.070  1.00  0.00     0.187 HD
HETATM    8  C3  UNL     1      19.856  -6.879   0.033  1.00  0.00     0.095 A 
HETATM    9  C4  UNL     1      20.418  -7.276   1.236  1.00  0.00     0.140 A 
HETATM   10  N4  UNL     1      19.427  -7.872   1.912  1.00  0.00    -0.309 N 
ATOM     11  H4  UNL     1      19.519  -8.277   2.844  1.00  0.00     0.186 HD
HETATM   12  N5  UNL     1      18.314  -7.861   1.201  1.00  0.00    -0.297 N 
ATOM     13  H5  UNL     1      17.424  -8.256   1.504  1.00  0.00     0.187 HD
HETATM   14  C5  UNL     1      18.525  -7.249   0.012  1.00  0.00     0.103 A 
ENDROOT
TORSDOF 0
ENDMDL
MODEL 4
REMARK VINA RESULT: -6.009999854      1.293      4.135
REMARK  0 active torsions:
REMARK  status: ('A' for Active; 'I' for Inactive)
ROOT
HETATM    1  N1  UNL     1      21.666  -7.392   1.232  1.00  0.00    -0.098 NA
HETATM    2  C1  UNL     1      20.283  -7.380   0.939  1.00  0.00     0.093 A 
HETATM    3  C2  UNL     1      19.338  -7.898   1.819  1.00  0.00     0.136 A 
HETATM    4  N2  UNL     1      18.033  -7.864   1.492  1.00  0.00    -0.309 N 
ATOM      5  H2  UNL     1      17.351  -8.247   2.147  1.00  0.00     0.186 HD
HETATM    6  N3  UNL     1      17.604  -7.349   0.350  1.00  0.00    -0.297 N 
ATOM      7  H3  UNL     1      16.604  -7.349   0.152  1.00  0.00     0.187 HD
HETATM    8  C3  UNL     1      18.448  -6.829  -0.556  1.00  0.00     0.095 A 
HETATM    9  C4  UNL     1      18.282  -6.241  -1.800  1.00  0.00     0.140 A 
HETATM   10  N4  UNL     1      19.516  -5.923  -2.210  1.00  0.00    -0.309 N 
ATOM     11  H4  UNL     1      19.736  -5.471  -3.098  1.00  0.00     0.186 HD
HETATM   12  N5  UNL     1      20.408  -6.279  -1.304  1.00  0.00    -0.297 N 
ATOM     13  H5  UNL     1      21.415  -6.141  -1.390  1.00  0.00     0.187 HD
HETATM   14  C5  UNL     1      19.793  -6.853  -0.243  1.00  0.00     0.103 A 
ENDROOT
TORSDOF 0
ENDMDL
MODEL 5
REMARK VINA RESULT: -5.985140373      1.379      2.935
REMARK  0 active torsions:
REMARK  status: ('A' for Active; 'I' for Inactive)
ROOT
HETATM    1  N1  UNL     1      19.616  -5.824  -2.626  1.00  0.00    -0.098 NA
HETATM    2  C1  UNL     1      19.161  -6.435  -1.435  1.00  0.00     0.093 A 
HETATM    3  C2  UNL     1      17.814  -6.702  -1.210  1.00  0.00     0.136 A 
HETATM    4  N2  UNL     1      17.432  -7.284  -0.058  1.00  0.00    -0.309 N 
ATOM      5  H2  UNL     1      16.441  -7.474   0.093  1.00  0.00     0.186 HD
HETATM    6  N3  UNL     1      18.299  -7.620   0.885  1.00  0.00    -0.297 N 
ATOM      7  H3  UNL     1      17.956  -8.060   1.738  1.00  0.00     0.187 HD
HETATM    8  C3  UNL     1      19.616  -7.399   0.750  1.00  0.00     0.095 A 
HETATM    9  C4  UNL     1      20.721  -7.640   1.552  1.00  0.00     0.140 A 
HETATM   10  N4  UNL     1      21.772  -7.190   0.856  1.00  0.00    -0.309 N 
ATOM     11  H4  UNL     1      22.739  -7.223   1.176  1.00  0.00     0.186 HD
HETATM   12  N5  UNL     1      21.377  -6.696  -0.304  1.00  0.00    -0.297 N 
ATOM     13  H5  UNL     1      21.996  -6.293  -1.008  1.00  0.00     0.187 HD
HETATM   14  C5  UNL     1      20.033  -6.801  -0.424  1.00  0.00     0.103 A 
ENDROOT
TORSDOF 0
ENDMDL
