MODEL 1
REMARK VINA RESULT: -6.135069588      0.000      0.000
REMARK  0 active torsions:
REMARK  status: ('A' for Active; 'I' for Inactive)
ROOT
HETATM    1  N1  UNL     1      17.285  -5.468  -1.773  1.00  0.00    -0.079 NA
HETATM    2  C1  UNL     1      17.751  -6.295  -0.732  1.00  0.00     0.160 A 
HETATM    3  N2  UNL     1      16.937  -6.993   0.082  1.00  0.00    -0.286 N 
ATOM      4  H2  UNL     1      15.928  -6.924  -0.056  1.00  0.00     0.188 HD
HETATM    5  N3  UNL     1      17.392  -7.767   1.054  1.00  0.00    -0.310 N 
ATOM      6  H3  UNL     1      16.715  -8.267   1.630  1.00  0.00     0.186 HD
HETATM    7  C2  UNL     1      18.699  -7.930   1.324  1.00  0.00     0.122 A 
HETATM    8  C3  UNL     1      19.599  -7.242   0.529  1.00  0.00     0.029 A 
HETATM    9  C4  UNL     1      20.975  -7.161   0.501  1.00  0.00     0.122 A 
HETATM   10  N4  UNL     1      21.307  -6.329  -0.502  1.00  0.00    -0.310 N 
ATOM     11  H4  UNL     1      22.258  -6.073  -0.766  1.00  0.00     0.186 HD
HETATM   12  N5  UNL     1      20.202  -5.893  -1.096  1.00  0.00    -0.297 N 
ATOM     13  H5  UNL     1      20.180  -5.249  -1.887  1.00  0.00     0.187 HD
HETATM   14  C5  UNL     1      19.110  -6.427  -0.499  1.00  0.00     0.103 A 
ENDROOT
TORSDOF 0
ENDMDL
MODEL 2
REMARK VINA RESULT: -6.006423729      1.105      1.462
REMARK  0 active torsions:
REMARK  status: ('A' for Active; 'I' for Inactive)
ROOT
HETATM    1  N1  UNL     1      19.632  -5.815  -2.613  1.00  0.00    -0.079 NA
HETATM    2  C1  UNL     1      19.164  -6.436  -1.438  1.00  0.00     0.160 A 
HETATM    3  N2  UNL     1      17.866  -6.711  -1.210  1.00  0.00    -0.286 N 
ATOM      4  H2  UNL     1      17.179  -6.458  -1.921  1.00  0.00     0.188 HD
HETATM    5  N3  UNL     1      17.445  -7.296  -0.100  1.00  0.00    -0.310 N 
ATOM      6  H3  UNL     1      16.446  -7.474   0.002  1.00  0.00     0.186 HD
HETATM    7  C2  UNL     1      18.263  -7.669   0.900  1.00  0.00     0.122 A 
HETATM    8  C3  UNL     1      19.614  -7.418   0.738  1.00  0.00     0.029 A 
HETATM    9  C4  UNL     1      20.725  -7.650   1.521  1.00  0.00     0.122 A 
HETATM   10  N4  UNL     1      21.793  -7.191   0.845  1.00  0.00    -0.310 N 
ATOM     11  H4  UNL     1      22.758  -7.225   1.174  1.00  0.00     0.186 HD
HETATM   12  N5  UNL     1      21.396  -6.686  -0.317  1.00  0.00    -0.297 N 
ATOM     13  H5  UNL     1      22.014  -6.273  -1.016  1.00  0.00     0.187 HD
HETATM   14  C5  UNL     1      20.052  -6.800  -0.440  1.00  0.00     0.103 A 
ENDROOT
TORSDOF 0
ENDMDL
MODEL 3
REMARK VINA RESULT: -5.995101098      1.361      2.984
REMARK  0 active torsions:
REMARK  status: ('A' for Active; 'I' for Inactive)
ROOT
HETATM    1  N1  UNL     1      15.900  -6.186  -2.496  1.00  0.00    -0.079 NA
HETATM    2  C1  UNL     1      17.260  -6.253  -2.134  1.00  0.00     0.160 A 
HETATM    3  N2  UNL     1      18.263  -5.853  -2.940  1.00  0.00    -0.286 N 
ATOM      4  H2  UNL     1      18.032  -5.482  -3.862  1.00  0.00     0.188 HD
HETATM    5  N3  UNL     1      19.535  -5.923  -2.583  1.00  0.00    -0.310 N 
ATOM      6  H3  UNL     1      20.240  -5.600  -3.245  1.00  0.00     0.186 HD
HETATM    7  C2  UNL     1      19.949  -6.395  -1.394  1.00  0.00     0.122 A 
HETATM    8  C3  UNL     1      18.974  -6.826  -0.511  1.00  0.00     0.029 A 
HETATM    9  C4  UNL     1      19.011  -7.356   0.762  1.00  0.00     0.122 A 
HETATM   10  N4  UNL     1      17.740  -7.591   1.133  1.00  0.00    -0.310 N 
ATOM     11  H4  UNL     1      17.451  -7.983   2.029  1.00  0.00     0.186 HD
HETATM   12  N5  UNL     1      16.920  -7.231   0.152  1.00  0.00    -0.297 N 
ATOM     13  H5  UNL     1      15.903  -7.308   0.184  1.00  0.00     0.187 HD
HETATM   14  C5  UNL     1      17.630  -6.748  -0.895  1.00  0.00     0.103 A 
ENDROOT
TORSDOF 0
ENDMDL
MODEL 4
REMARK VINA RESULT: -5.989965707      1.319      2.800
REMARK  0 active torsions:
REMARK  status: ('A' for Active; 'I' for Inactive)
ROOT
HETATM    1  N1  UNL     1      21.691  -7.424   1.242  1.00  0.00    -0.079 NA
HETATM    2  C1  UNL     1      20.311  -7.414   0.959  1.00  0.00     0.160 A 
HETATM    3  N2  UNL     1      19.379  -7.916   1.792  1.00  0.00    -0.286 N 
ATOM      4  H2  UNL     1      19.681  -8.328   2.675  1.00  0.00     0.188 HD
HETATM    5  N3  UNL     1      18.086  -7.896   1.511  1.00  0.00    -0.310 N 
ATOM      6  H3  UNL     1      17.438  -8.294   2.190  1.00  0.00     0.186 HD
HETATM    7  C2  UNL     1      17.580  -7.379   0.377  1.00  0.00     0.122 A 
HETATM    8  C3  UNL     1      18.478  -6.844  -0.530  1.00  0.00     0.029 A 
HETATM    9  C4  UNL     1      18.340  -6.242  -1.763  1.00  0.00     0.122 A 
HETATM   10  N4  UNL     1      19.573  -5.915  -2.188  1.00  0.00    -0.310 N 
ATOM     11  H4  UNL     1      19.789  -5.454  -3.072  1.00  0.00     0.186 HD
HETATM   12  N5  UNL     1      20.466  -6.285  -1.278  1.00  0.00    -0.297 N 
ATOM     13  H5  UNL     1      21.474  -6.150  -1.360  1.00  0.00     0.187 HD
HETATM   14  C5  UNL     1      19.844  -6.867  -0.224  1.00  0.00     0.103 A 
ENDROOT
TORSDOF 0
ENDMDL
MODEL 5
REMARK VINA RESULT: -5.989576762      1.304      2.678
REMARK  0 active torsions:
REMARK  status: ('A' for Active; 'I' for Inactive)
ROOT
HETATM    1  N1  UNL     1      16.430  -7.411  -1.008  1.00  0.00    -0.079 NA
HETATM    2  C1  UNL     1      17.813  -7.152  -0.936  1.00  0.00     0.160 A 
HETATM    3  N2  UNL     1      18.530  -6.659  -1.964  1.00  0.00    -0.286 N 
ATOM      4  H2  UNL     1      18.053  -6.461  -2.844  1.00  0.00     0.188 HD
HETATM    5  N3  UNL     1      19.829  -6.421  -1.878  1.00  0.00    -0.310 N 
ATOM      6  H3  UNL     1      20.306  -6.046  -2.698  1.00  0.00     0.186 HD
HETATM    7  C2  UNL     1      20.554  -6.647  -0.768  1.00  0.00     0.122 A 
HETATM    8  C3  UNL     1      19.885  -7.155   0.331  1.00  0.00     0.029 A 
HETATM    9  C4  UNL     1      20.278  -7.503   1.606  1.00  0.00     0.122 A 
HETATM   10  N4  UNL     1      19.186  -7.945   2.255  1.00  0.00    -0.310 N 
ATOM     11  H4  UNL     1      19.167  -8.274   3.220  1.00  0.00     0.186 HD
HETATM   12  N5  UNL     1      18.137  -7.887   1.442  1.00  0.00    -0.297 N 
ATOM     13  H5  UNL     1      17.189  -8.166   1.693  1.00  0.00     0.187 HD
HETATM   14  C5  UNL     1      18.511  -7.402   0.233  1.00  0.00     0.103 A 
ENDROOT
TORSDOF 0
ENDMDL
