MODEL 1
REMARK VINA RESULT: -7.327718923      0.000      0.000
REMARK  15 active torsions:
REMARK  status: ('A' for Active; 'I' for Inactive)
REMARK    1  A    between atoms: C2_2  and  O1_3 
REMARK    2  A    between atoms: C2_2  and  C3_5 
REMARK    3  A    between atoms: C2_2  and  C4_8 
REMARK    4  A    between atoms: C3_5  and  O2_6 
REMARK    5  A    between atoms: C4_8  and  N1_9 
REMARK    6  A    between atoms: C4_8  and  C11_25 
REMARK       I    between atoms: N1_9  and  C5_11 
REMARK    7  A    between atoms: C5_11  and  C6_13 
REMARK    8  A    between atoms: C6_13  and  C7_14 
REMARK    9  A    between atoms: C6_13  and  O5_17 
REMARK   10  A    between atoms: C7_14  and  O4_15 
REMARK   11  A    between atoms: O5_17  and  C8_18 
REMARK   12  A    between atoms: C8_18  and  C9_19 
REMARK   13  A    between atoms: C9_19  and  O6_20 
REMARK   14  A    between atoms: C9_19  and  C10_22 
REMARK   15  A    between atoms: C10_22  and  O7_23 
ROOT
HETATM    1  N1  UNL     1      18.890  -6.943  -1.344  1.00  0.00    -0.342 N 
ATOM      2  H1  UNL     1      19.750  -7.423  -1.610  1.00  0.00     0.163 HD
HETATM    3  C5  UNL     1      18.521  -6.898   0.028  1.00  0.00     0.249 C 
HETATM    4  O3  UNL     1      17.453  -6.294   0.305  1.00  0.00    -0.271 OA
ENDROOT
BRANCH   3   5
HETATM    5  C6  UNL     1      19.364  -7.540   1.080  1.00  0.00     0.236 C 
BRANCH   5   6
HETATM    6  C7  UNL     1      20.708  -7.965   0.509  1.00  0.00     0.205 C 
BRANCH   6   7
HETATM    7  O4  UNL     1      21.734  -7.399   1.265  1.00  0.00    -0.398 OA
ATOM      8  H4  UNL     1      21.970  -7.990   1.970  1.00  0.00     0.209 HD
ENDBRANCH   6   7
ENDBRANCH   5   6
BRANCH   5   9
HETATM    9  O5  UNL     1      18.718  -8.557   1.725  1.00  0.00    -0.372 OA
BRANCH   9  10
HETATM   10  C8  UNL     1      18.780  -8.480   3.110  1.00  0.00     0.202 C 
BRANCH  10  11
HETATM   11  C9  UNL     1      17.399  -8.123   3.640  1.00  0.00     0.165 C 
BRANCH  11  12
HETATM   12  O6  UNL     1      16.504  -9.171   3.423  1.00  0.00    -0.391 OA
ATOM     13  H6  UNL     1      15.835  -9.185   4.097  1.00  0.00     0.210 HD
ENDBRANCH  11  12
BRANCH  11  14
HETATM   14  C10 UNL     1      17.454  -7.934   5.162  1.00  0.00     0.198 C 
BRANCH  14  15
HETATM   15  O7  UNL     1      16.215  -8.266   5.677  1.00  0.00    -0.398 OA
ATOM     16  H7  UNL     1      16.317  -8.412   6.611  1.00  0.00     0.209 HD
ENDBRANCH  14  15
ENDBRANCH  11  14
ENDBRANCH  10  11
ENDBRANCH   9  10
ENDBRANCH   5   9
ENDBRANCH   3   5
BRANCH   1  17
HETATM   17  C4  UNL     1      18.093  -6.334  -2.363  1.00  0.00     0.221 C 
BRANCH  17  18
HETATM   18  C2  UNL     1      18.787  -6.284  -3.704  1.00  0.00     0.105 C 
HETATM   19  C1  UNL     1      19.238  -4.892  -4.059  1.00  0.00     0.051 C 
BRANCH  18  20
HETATM   20  O1  UNL     1      17.935  -6.728  -4.713  1.00  0.00    -0.385 OA
ATOM     21  H1  UNL     1      18.066  -7.663  -4.813  1.00  0.00     0.210 HD
ENDBRANCH  18  20
BRANCH  18  22
HETATM   22  C3  UNL     1      20.009  -7.170  -3.746  1.00  0.00     0.204 C 
BRANCH  22  23
HETATM   23  O2  UNL     1      19.770  -8.154  -4.707  1.00  0.00    -0.398 OA
ATOM     24  H2  UNL     1      20.557  -8.682  -4.769  1.00  0.00     0.209 HD
ENDBRANCH  22  23
ENDBRANCH  18  22
ENDBRANCH  17  18
BRANCH  17  25
HETATM   25  C11 UNL     1      16.788  -7.053  -2.543  1.00  0.00     0.199 C 
HETATM   26  O8  UNL     1      15.687  -6.406  -2.491  1.00  0.00    -0.646 OA
HETATM   27  O9  UNL     1      16.688  -8.406  -2.766  1.00  0.00    -0.646 OA
ENDBRANCH  17  25
ENDBRANCH   1  17
TORSDOF 15
ENDMDL
MODEL 2
REMARK VINA RESULT: -7.244615963      0.935      1.086
REMARK  15 active torsions:
REMARK  status: ('A' for Active; 'I' for Inactive)
REMARK    1  A    between atoms: C2_2  and  O1_3 
REMARK    2  A    between atoms: C2_2  and  C3_5 
REMARK    3  A    between atoms: C2_2  and  C4_8 
REMARK    4  A    between atoms: C3_5  and  O2_6 
REMARK    5  A    between atoms: C4_8  and  N1_9 
REMARK    6  A    between atoms: C4_8  and  C11_25 
REMARK       I    between atoms: N1_9  and  C5_11 
REMARK    7  A    between atoms: C5_11  and  C6_13 
REMARK    8  A    between atoms: C6_13  and  C7_14 
REMARK    9  A    between atoms: C6_13  and  O5_17 
REMARK   10  A    between atoms: C7_14  and  O4_15 
REMARK   11  A    between atoms: O5_17  and  C8_18 
REMARK   12  A    between atoms: C8_18  and  C9_19 
REMARK   13  A    between atoms: C9_19  and  O6_20 
REMARK   14  A    between atoms: C9_19  and  C10_22 
REMARK   15  A    between atoms: C10_22  and  O7_23 
ROOT
HETATM    1  N1  UNL     1      19.089  -6.826  -1.494  1.00  0.00    -0.342 N 
ATOM      2  H1  UNL     1      19.721  -7.580  -1.763  1.00  0.00     0.163 HD
HETATM    3  C5  UNL     1      19.089  -6.374  -0.146  1.00  0.00     0.249 C 
HETATM    4  O3  UNL     1      18.293  -5.443   0.137  1.00  0.00    -0.271 OA
ENDROOT
BRANCH   3   5
HETATM    5  C6  UNL     1      19.993  -6.982   0.877  1.00  0.00     0.236 C 
BRANCH   5   6
HETATM    6  C7  UNL     1      21.197  -7.634   0.214  1.00  0.00     0.205 C 
BRANCH   6   7
HETATM    7  O4  UNL     1      22.066  -6.644  -0.243  1.00  0.00    -0.398 OA
ATOM      8  H4  UNL     1      22.956  -6.869  -0.001  1.00  0.00     0.209 HD
ENDBRANCH   6   7
ENDBRANCH   5   6
BRANCH   5   9
HETATM    9  O5  UNL     1      19.334  -7.828   1.724  1.00  0.00    -0.372 OA
BRANCH   9  10
HETATM   10  C8  UNL     1      19.533  -7.551   3.071  1.00  0.00     0.202 C 
BRANCH  10  11
HETATM   11  C9  UNL     1      18.798  -8.596   3.897  1.00  0.00     0.165 C 
BRANCH  11  12
HETATM   12  O6  UNL     1      18.979  -8.361   5.260  1.00  0.00    -0.391 OA
ATOM     13  H6  UNL     1      18.308  -7.776   5.590  1.00  0.00     0.210 HD
ENDBRANCH  11  12
BRANCH  11  14
HETATM   14  C10 UNL     1      17.286  -8.486   3.655  1.00  0.00     0.198 C 
BRANCH  14  15
HETATM   15  O7  UNL     1      16.659  -8.460   4.886  1.00  0.00    -0.398 OA
ATOM     16  H7  UNL     1      16.673  -7.565   5.203  1.00  0.00     0.209 HD
ENDBRANCH  14  15
ENDBRANCH  11  14
ENDBRANCH  10  11
ENDBRANCH   9  10
ENDBRANCH   5   9
ENDBRANCH   3   5
BRANCH   1  17
HETATM   17  C4  UNL     1      18.230  -6.255  -2.484  1.00  0.00     0.221 C 
BRANCH  17  18
HETATM   18  C2  UNL     1      18.836  -6.263  -3.867  1.00  0.00     0.105 C 
HETATM   19  C1  UNL     1      19.255  -4.888  -4.314  1.00  0.00     0.051 C 
BRANCH  18  20
HETATM   20  O1  UNL     1      17.925  -6.757  -4.797  1.00  0.00    -0.385 OA
ATOM     21  H1  UNL     1      18.171  -7.651  -5.001  1.00  0.00     0.210 HD
ENDBRANCH  18  20
BRANCH  18  22
HETATM   22  C3  UNL     1      20.059  -7.147  -3.947  1.00  0.00     0.204 C 
BRANCH  22  23
HETATM   23  O2  UNL     1      19.750  -8.198  -4.813  1.00  0.00    -0.398 OA
ATOM     24  H2  UNL     1      19.815  -9.001  -4.312  1.00  0.00     0.209 HD
ENDBRANCH  22  23
ENDBRANCH  18  22
ENDBRANCH  17  18
BRANCH  17  25
HETATM   25  C11 UNL     1      16.915  -6.973  -2.549  1.00  0.00     0.199 C 
HETATM   26  O8  UNL     1      15.821  -6.315  -2.479  1.00  0.00    -0.646 OA
HETATM   27  O9  UNL     1      16.795  -8.336  -2.682  1.00  0.00    -0.646 OA
ENDBRANCH  17  25
ENDBRANCH   1  17
TORSDOF 15
ENDMDL
MODEL 3
REMARK VINA RESULT: -7.129824045      1.037      1.378
REMARK  15 active torsions:
REMARK  status: ('A' for Active; 'I' for Inactive)
REMARK    1  A    between atoms: C2_2  and  O1_3 
REMARK    2  A    between atoms: C2_2  and  C3_5 
REMARK    3  A    between atoms: C2_2  and  C4_8 
REMARK    4  A    between atoms: C3_5  and  O2_6 
REMARK    5  A    between atoms: C4_8  and  N1_9 
REMARK    6  A    between atoms: C4_8  and  C11_25 
REMARK       I    between atoms: N1_9  and  C5_11 
REMARK    7  A    between atoms: C5_11  and  C6_13 
REMARK    8  A    between atoms: C6_13  and  C7_14 
REMARK    9  A    between atoms: C6_13  and  O5_17 
REMARK   10  A    between atoms: C7_14  and  O4_15 
REMARK   11  A    between atoms: O5_17  and  C8_18 
REMARK   12  A    between atoms: C8_18  and  C9_19 
REMARK   13  A    between atoms: C9_19  and  O6_20 
REMARK   14  A    between atoms: C9_19  and  C10_22 
REMARK   15  A    between atoms: C10_22  and  O7_23 
ROOT
HETATM    1  N1  UNL     1      18.508  -7.229  -0.794  1.00  0.00    -0.342 N 
ATOM      2  H1  UNL     1      18.299  -8.224  -0.704  1.00  0.00     0.163 HD
HETATM    3  C5  UNL     1      19.180  -6.567   0.270  1.00  0.00     0.249 C 
HETATM    4  O3  UNL     1      19.415  -5.342   0.112  1.00  0.00    -0.271 OA
ENDROOT
BRANCH   3   5
HETATM    5  C6  UNL     1      19.581  -7.298   1.509  1.00  0.00     0.236 C 
BRANCH   5   6
HETATM    6  C7  UNL     1      21.035  -7.738   1.429  1.00  0.00     0.205 C 
BRANCH   6   7
HETATM    7  O4  UNL     1      21.603  -7.250   0.253  1.00  0.00    -0.398 OA
ATOM      8  H4  UNL     1      21.944  -6.377   0.405  1.00  0.00     0.209 HD
ENDBRANCH   6   7
ENDBRANCH   5   6
BRANCH   5   9
HETATM    9  O5  UNL     1      18.733  -8.326   1.811  1.00  0.00    -0.372 OA
BRANCH   9  10
HETATM   10  C8  UNL     1      18.680  -8.639   3.164  1.00  0.00     0.202 C 
BRANCH  10  11
HETATM   11  C9  UNL     1      17.337  -8.182   3.716  1.00  0.00     0.165 C 
BRANCH  11  12
HETATM   12  O6  UNL     1      16.371  -9.171   3.535  1.00  0.00    -0.391 OA
ATOM     13  H6  UNL     1      16.410  -9.520   2.653  1.00  0.00     0.210 HD
ENDBRANCH  11  12
BRANCH  11  14
HETATM   14  C10 UNL     1      17.438  -7.972   5.232  1.00  0.00     0.198 C 
BRANCH  14  15
HETATM   15  O7  UNL     1      16.184  -8.179   5.775  1.00  0.00    -0.398 OA
ATOM     16  H7  UNL     1      15.594  -7.536   5.402  1.00  0.00     0.209 HD
ENDBRANCH  14  15
ENDBRANCH  11  14
ENDBRANCH  10  11
ENDBRANCH   9  10
ENDBRANCH   5   9
ENDBRANCH   3   5
BRANCH   1  17
HETATM   17  C4  UNL     1      18.116  -6.543  -1.986  1.00  0.00     0.221 C 
BRANCH  17  18
HETATM   18  C2  UNL     1      19.186  -6.555  -3.051  1.00  0.00     0.105 C 
HETATM   19  C1  UNL     1      18.958  -7.633  -4.076  1.00  0.00     0.051 C 
BRANCH  18  20
HETATM   20  O1  UNL     1      20.441  -6.764  -2.482  1.00  0.00    -0.385 OA
ATOM     21  H1  UNL     1      20.505  -7.683  -2.249  1.00  0.00     0.210 HD
ENDBRANCH  18  20
BRANCH  18  22
HETATM   22  C3  UNL     1      19.262  -5.243  -3.796  1.00  0.00     0.204 C 
BRANCH  22  23
HETATM   23  O2  UNL     1      19.470  -5.547  -5.143  1.00  0.00    -0.398 OA
ATOM     24  H2  UNL     1      18.623  -5.519  -5.570  1.00  0.00     0.209 HD
ENDBRANCH  22  23
ENDBRANCH  18  22
ENDBRANCH  17  18
BRANCH  17  25
HETATM   25  C11 UNL     1      16.869  -7.133  -2.574  1.00  0.00     0.199 C 
HETATM   26  O8  UNL     1      15.949  -6.369  -3.025  1.00  0.00    -0.646 OA
HETATM   27  O9  UNL     1      16.634  -8.485  -2.666  1.00  0.00    -0.646 OA
ENDBRANCH  17  25
ENDBRANCH   1  17
TORSDOF 15
ENDMDL
MODEL 4
REMARK VINA RESULT: -6.955694213      1.778      7.317
REMARK  15 active torsions:
REMARK  status: ('A' for Active; 'I' for Inactive)
REMARK    1  A    between atoms: C2_2  and  O1_3 
REMARK    2  A    between atoms: C2_2  and  C3_5 
REMARK    3  A    between atoms: C2_2  and  C4_8 
REMARK    4  A    between atoms: C3_5  and  O2_6 
REMARK    5  A    between atoms: C4_8  and  N1_9 
REMARK    6  A    between atoms: C4_8  and  C11_25 
REMARK       I    between atoms: N1_9  and  C5_11 
REMARK    7  A    between atoms: C5_11  and  C6_13 
REMARK    8  A    between atoms: C6_13  and  C7_14 
REMARK    9  A    between atoms: C6_13  and  O5_17 
REMARK   10  A    between atoms: C7_14  and  O4_15 
REMARK   11  A    between atoms: O5_17  and  C8_18 
REMARK   12  A    between atoms: C8_18  and  C9_19 
REMARK   13  A    between atoms: C9_19  and  O6_20 
REMARK   14  A    between atoms: C9_19  and  C10_22 
REMARK   15  A    between atoms: C10_22  and  O7_23 
ROOT
HETATM    1  N1  UNL     1      18.951  -7.272  -0.633  1.00  0.00    -0.342 N 
ATOM      2  H1  UNL     1      18.307  -8.009  -0.924  1.00  0.00     0.163 HD
HETATM    3  C5  UNL     1      19.272  -6.236  -1.552  1.00  0.00     0.249 C 
HETATM    4  O3  UNL     1      20.068  -5.351  -1.148  1.00  0.00    -0.271 OA
ENDROOT
BRANCH   3   5
HETATM    5  C6  UNL     1      18.689  -6.208  -2.927  1.00  0.00     0.236 C 
BRANCH   5   6
HETATM    6  C7  UNL     1      17.195  -5.926  -2.873  1.00  0.00     0.205 C 
BRANCH   6   7
HETATM    7  O4  UNL     1      16.898  -5.221  -1.708  1.00  0.00    -0.398 OA
ATOM      8  H4  UNL     1      17.153  -5.738  -0.952  1.00  0.00     0.209 HD
ENDBRANCH   6   7
ENDBRANCH   5   6
BRANCH   5   9
HETATM    9  O5  UNL     1      18.989  -7.329  -3.648  1.00  0.00    -0.372 OA
BRANCH   9  10
HETATM   10  C8  UNL     1      20.081  -7.184  -4.494  1.00  0.00     0.202 C 
BRANCH  10  11
HETATM   11  C9  UNL     1      19.626  -7.434  -5.924  1.00  0.00     0.165 C 
BRANCH  11  12
HETATM   12  O6  UNL     1      18.953  -6.320  -6.427  1.00  0.00    -0.391 OA
ATOM     13  H6  UNL     1      19.029  -6.282  -7.373  1.00  0.00     0.210 HD
ENDBRANCH  11  12
BRANCH  11  14
HETATM   14  C10 UNL     1      20.845  -7.628  -6.836  1.00  0.00     0.198 C 
BRANCH  14  15
HETATM   15  O7  UNL     1      20.543  -7.088  -8.072  1.00  0.00    -0.398 OA
ATOM     16  H7  UNL     1      20.067  -6.279  -7.929  1.00  0.00     0.209 HD
ENDBRANCH  14  15
ENDBRANCH  11  14
ENDBRANCH  10  11
ENDBRANCH   9  10
ENDBRANCH   5   9
ENDBRANCH   3   5
BRANCH   1  17
HETATM   17  C4  UNL     1      19.501  -7.313   0.685  1.00  0.00     0.221 C 
BRANCH  17  18
HETATM   18  C2  UNL     1      18.675  -8.137   1.644  1.00  0.00     0.105 C 
HETATM   19  C1  UNL     1      19.160  -8.015   3.064  1.00  0.00     0.051 C 
BRANCH  18  20
HETATM   20  O1  UNL     1      18.716  -9.484   1.292  1.00  0.00    -0.385 OA
ATOM     21  H1  UNL     1      19.486  -9.621   0.753  1.00  0.00     0.210 HD
ENDBRANCH  18  20
BRANCH  18  22
HETATM   22  C3  UNL     1      17.220  -7.731   1.636  1.00  0.00     0.204 C 
BRANCH  22  23
HETATM   23  O2  UNL     1      16.686  -8.091   2.875  1.00  0.00    -0.398 OA
ATOM     24  H2  UNL     1      16.957  -8.985   3.046  1.00  0.00     0.209 HD
ENDBRANCH  22  23
ENDBRANCH  18  22
ENDBRANCH  17  18
BRANCH  17  25
HETATM   25  C11 UNL     1      20.896  -7.865   0.681  1.00  0.00     0.199 C 
HETATM   26  O8  UNL     1      21.853  -7.194   1.197  1.00  0.00    -0.646 OA
HETATM   27  O9  UNL     1      21.232  -9.085   0.143  1.00  0.00    -0.646 OA
ENDBRANCH  17  25
ENDBRANCH   1  17
TORSDOF 15
ENDMDL
MODEL 5
REMARK VINA RESULT: -6.920768635      2.203      7.075
REMARK  15 active torsions:
REMARK  status: ('A' for Active; 'I' for Inactive)
REMARK    1  A    between atoms: C2_2  and  O1_3 
REMARK    2  A    between atoms: C2_2  and  C3_5 
REMARK    3  A    between atoms: C2_2  and  C4_8 
REMARK    4  A    between atoms: C3_5  and  O2_6 
REMARK    5  A    between atoms: C4_8  and  N1_9 
REMARK    6  A    between atoms: C4_8  and  C11_25 
REMARK       I    between atoms: N1_9  and  C5_11 
REMARK    7  A    between atoms: C5_11  and  C6_13 
REMARK    8  A    between atoms: C6_13  and  C7_14 
REMARK    9  A    between atoms: C6_13  and  O5_17 
REMARK   10  A    between atoms: C7_14  and  O4_15 
REMARK   11  A    between atoms: O5_17  and  C8_18 
REMARK   12  A    between atoms: C8_18  and  C9_19 
REMARK   13  A    between atoms: C9_19  and  O6_20 
REMARK   14  A    between atoms: C9_19  and  C10_22 
REMARK   15  A    between atoms: C10_22  and  O7_23 
ROOT
HETATM    1  N1  UNL     1      19.296  -6.812  -1.488  1.00  0.00    -0.342 N 
ATOM      2  H1  UNL     1      19.825  -7.512  -2.009  1.00  0.00     0.163 HD
HETATM    3  C5  UNL     1      18.140  -6.236  -2.082  1.00  0.00     0.249 C 
HETATM    4  O3  UNL     1      17.523  -5.379  -1.400  1.00  0.00    -0.271 OA
ENDROOT
BRANCH   3   5
HETATM    5  C6  UNL     1      17.690  -6.635  -3.449  1.00  0.00     0.236 C 
BRANCH   5   6
HETATM    6  C7  UNL     1      17.091  -8.033  -3.433  1.00  0.00     0.205 C 
BRANCH   6   7
HETATM    7  O4  UNL     1      16.790  -8.394  -2.121  1.00  0.00    -0.398 OA
ATOM      8  H4  UNL     1      17.469  -8.967  -1.787  1.00  0.00     0.209 HD
ENDBRANCH   6   7
ENDBRANCH   5   6
BRANCH   5   9
HETATM    9  O5  UNL     1      18.671  -6.490  -4.390  1.00  0.00    -0.372 OA
BRANCH   9  10
HETATM   10  C8  UNL     1      19.340  -7.668  -4.696  1.00  0.00     0.202 C 
BRANCH  10  11
HETATM   11  C9  UNL     1      20.431  -7.358  -5.711  1.00  0.00     0.165 C 
BRANCH  11  12
HETATM   12  O6  UNL     1      21.156  -8.509  -6.020  1.00  0.00    -0.391 OA
ATOM     13  H6  UNL     1      21.418  -8.504  -6.932  1.00  0.00     0.210 HD
ENDBRANCH  11  12
BRANCH  11  14
HETATM   14  C10 UNL     1      19.801  -6.898  -7.032  1.00  0.00     0.198 C 
BRANCH  14  15
HETATM   15  O7  UNL     1      20.776  -6.951  -8.011  1.00  0.00    -0.398 OA
ATOM     16  H7  UNL     1      20.358  -7.197  -8.828  1.00  0.00     0.209 HD
ENDBRANCH  14  15
ENDBRANCH  11  14
ENDBRANCH  10  11
ENDBRANCH   9  10
ENDBRANCH   5   9
ENDBRANCH   3   5
BRANCH   1  17
HETATM   17  C4  UNL     1      19.741  -6.440  -0.181  1.00  0.00     0.221 C 
BRANCH  17  18
HETATM   18  C2  UNL     1      19.972  -7.627   0.723  1.00  0.00     0.105 C 
HETATM   19  C1  UNL     1      20.379  -7.214   2.112  1.00  0.00     0.051 C 
BRANCH  18  20
HETATM   20  O1  UNL     1      20.975  -8.446   0.209  1.00  0.00    -0.385 OA
ATOM     21  H1  UNL     1      21.567  -8.662   0.920  1.00  0.00     0.210 HD
ENDBRANCH  18  20
BRANCH  18  22
HETATM   22  C3  UNL     1      18.737  -8.487   0.860  1.00  0.00     0.204 C 
BRANCH  22  23
HETATM   23  O2  UNL     1      17.633  -7.637   0.776  1.00  0.00    -0.398 OA
ATOM     24  H2  UNL     1      17.646  -7.086   1.549  1.00  0.00     0.209 HD
ENDBRANCH  22  23
ENDBRANCH  18  22
ENDBRANCH  17  18
BRANCH  17  25
HETATM   25  C11 UNL     1      21.012  -5.646  -0.239  1.00  0.00     0.199 C 
HETATM   26  O8  UNL     1      20.973  -4.369  -0.204  1.00  0.00    -0.646 OA
HETATM   27  O9  UNL     1      22.262  -6.212  -0.330  1.00  0.00    -0.646 OA
ENDBRANCH  17  25
ENDBRANCH   1  17
TORSDOF 15
ENDMDL
