MODEL 1
REMARK VINA RESULT: -6.365686799      0.000      0.000
REMARK  0 active torsions:
REMARK  status: ('A' for Active; 'I' for Inactive)
ROOT
HETATM    1  N1  UNL     1      17.231  -5.517  -1.738  1.00  0.00    -0.080 NA
HETATM    2  C1  UNL     1      17.735  -6.338  -0.692  1.00  0.00     0.144 A 
HETATM    3  N2  UNL     1      17.069  -7.110   0.186  1.00  0.00    -0.287 N 
ATOM      4  H2  UNL     1      16.055  -7.211   0.216  1.00  0.00     0.188 HD
HETATM    5  N3  UNL     1      17.909  -7.719   1.005  1.00  0.00    -0.297 N 
ATOM      6  H3  UNL     1      17.635  -8.355   1.753  1.00  0.00     0.187 HD
HETATM    7  C2  UNL     1      19.189  -7.377   0.705  1.00  0.00     0.080 A 
HETATM    8  C3  UNL     1      20.409  -7.729   1.247  1.00  0.00     0.139 A 
HETATM    9  N4  UNL     1      21.497  -7.177   0.676  1.00  0.00    -0.310 N 
ATOM     10  H4  UNL     1      22.420  -7.408   1.042  1.00  0.00     0.186 HD
HETATM   11  N5  UNL     1      21.400  -6.336  -0.356  1.00  0.00    -0.311 N 
ATOM     12  H5  UNL     1      22.259  -5.949  -0.747  1.00  0.00     0.186 HD
HETATM   13  C4  UNL     1      20.239  -5.977  -0.900  1.00  0.00     0.124 A 
HETATM   14  C5  UNL     1      19.073  -6.503  -0.368  1.00  0.00     0.053 A 
ENDROOT
TORSDOF 0
ENDMDL
MODEL 2
REMARK VINA RESULT: -6.196478972      0.974      3.882
REMARK  0 active torsions:
REMARK  status: ('A' for Active; 'I' for Inactive)
ROOT
HETATM    1  N1  UNL     1      21.592  -7.619   1.465  1.00  0.00    -0.080 NA
HETATM    2  C1  UNL     1      20.819  -6.977   0.458  1.00  0.00     0.144 A 
HETATM    3  N2  UNL     1      21.219  -6.183  -0.550  1.00  0.00    -0.287 N 
ATOM      4  H2  UNL     1      22.189  -5.922  -0.733  1.00  0.00     0.188 HD
HETATM    5  N3  UNL     1      20.186  -5.786  -1.272  1.00  0.00    -0.297 N 
ATOM      6  H3  UNL     1      20.245  -5.177  -2.088  1.00  0.00     0.187 HD
HETATM    7  C2  UNL     1      19.036  -6.305  -0.771  1.00  0.00     0.080 A 
HETATM    8  C3  UNL     1      17.712  -6.199  -1.149  1.00  0.00     0.139 A 
HETATM    9  N4  UNL     1      16.820  -6.870  -0.394  1.00  0.00    -0.310 N 
ATOM     10  H4  UNL     1      15.831  -6.822  -0.635  1.00  0.00     0.186 HD
HETATM   11  N5  UNL     1      17.196  -7.597   0.660  1.00  0.00    -0.311 N 
ATOM     12  H5  UNL     1      16.477  -8.084   1.194  1.00  0.00     0.186 HD
HETATM   13  C4  UNL     1      18.464  -7.719   1.049  1.00  0.00     0.124 A 
HETATM   14  C5  UNL     1      19.442  -7.058   0.323  1.00  0.00     0.053 A 
ENDROOT
TORSDOF 0
ENDMDL
MODEL 3
REMARK VINA RESULT: -6.167083920      1.422      1.637
REMARK  0 active torsions:
REMARK  status: ('A' for Active; 'I' for Inactive)
ROOT
HETATM    1  N1  UNL     1      15.628  -6.540  -2.286  1.00  0.00    -0.080 NA
HETATM    2  C1  UNL     1      16.572  -6.824  -1.262  1.00  0.00     0.144 A 
HETATM    3  N2  UNL     1      16.365  -7.201   0.012  1.00  0.00    -0.287 N 
ATOM      4  H2  UNL     1      15.446  -7.339   0.433  1.00  0.00     0.188 HD
HETATM    5  N3  UNL     1      17.513  -7.368   0.644  1.00  0.00    -0.297 N 
ATOM      6  H3  UNL     1      17.606  -7.652   1.619  1.00  0.00     0.187 HD
HETATM    7  C2  UNL     1      18.552  -7.107  -0.191  1.00  0.00     0.080 A 
HETATM    8  C3  UNL     1      19.923  -7.133  -0.026  1.00  0.00     0.139 A 
HETATM    9  N4  UNL     1      20.660  -6.804  -1.105  1.00  0.00    -0.310 N 
ATOM     10  H4  UNL     1      21.677  -6.810  -1.031  1.00  0.00     0.186 HD
HETATM   11  N5  UNL     1      20.096  -6.472  -2.268  1.00  0.00    -0.311 N 
ATOM     12  H5  UNL     1      20.704  -6.233  -3.050  1.00  0.00     0.186 HD
HETATM   13  C4  UNL     1      18.779  -6.438  -2.458  1.00  0.00     0.124 A 
HETATM   14  C5  UNL     1      17.951  -6.764  -1.395  1.00  0.00     0.053 A 
ENDROOT
TORSDOF 0
ENDMDL
MODEL 4
REMARK VINA RESULT: -6.140356974      1.307      2.249
REMARK  0 active torsions:
REMARK  status: ('A' for Active; 'I' for Inactive)
ROOT
HETATM    1  N1  UNL     1      16.759  -6.965  -0.554  1.00  0.00    -0.080 NA
HETATM    2  C1  UNL     1      18.126  -6.867  -0.931  1.00  0.00     0.144 A 
HETATM    3  N2  UNL     1      18.664  -6.552  -2.123  1.00  0.00    -0.287 N 
ATOM      4  H2  UNL     1      18.126  -6.330  -2.961  1.00  0.00     0.188 HD
HETATM    5  N3  UNL     1      19.984  -6.570  -2.061  1.00  0.00    -0.297 N 
ATOM      6  H3  UNL     1      20.607  -6.364  -2.841  1.00  0.00     0.187 HD
HETATM    7  C2  UNL     1      20.391  -6.901  -0.808  1.00  0.00     0.080 A 
HETATM    8  C3  UNL     1      21.636  -7.055  -0.233  1.00  0.00     0.139 A 
HETATM    9  N4  UNL     1      21.654  -7.399   1.069  1.00  0.00    -0.310 N 
ATOM     10  H4  UNL     1      22.551  -7.524   1.537  1.00  0.00     0.186 HD
HETATM   11  N5  UNL     1      20.529  -7.583   1.764  1.00  0.00    -0.311 N 
ATOM     12  H5  UNL     1      20.604  -7.843   2.747  1.00  0.00     0.186 HD
HETATM   13  C4  UNL     1      19.314  -7.442   1.238  1.00  0.00     0.124 A 
HETATM   14  C5  UNL     1      19.212  -7.088  -0.098  1.00  0.00     0.053 A 
ENDROOT
TORSDOF 0
ENDMDL
MODEL 5
REMARK VINA RESULT: -6.122317164      1.492      2.652
REMARK  0 active torsions:
REMARK  status: ('A' for Active; 'I' for Inactive)
ROOT
HETATM    1  N1  UNL     1      15.889  -6.497  -2.244  1.00  0.00    -0.080 NA
HETATM    2  C1  UNL     1      17.300  -6.322  -2.227  1.00  0.00     0.144 A 
HETATM    3  N2  UNL     1      18.111  -5.824  -3.178  1.00  0.00    -0.287 N 
ATOM      4  H2  UNL     1      17.798  -5.488  -4.088  1.00  0.00     0.188 HD
HETATM    5  N3  UNL     1      19.368  -5.830  -2.770  1.00  0.00    -0.297 N 
ATOM      6  H3  UNL     1      20.160  -5.500  -3.321  1.00  0.00     0.187 HD
HETATM    7  C2  UNL     1      19.452  -6.338  -1.514  1.00  0.00     0.080 A 
HETATM    8  C3  UNL     1      20.512  -6.556  -0.655  1.00  0.00     0.139 A 
HETATM    9  N4  UNL     1      20.209  -7.091   0.543  1.00  0.00    -0.310 N 
ATOM     10  H4  UNL     1      20.959  -7.270   1.210  1.00  0.00     0.186 HD
HETATM   11  N5  UNL     1      18.954  -7.394   0.882  1.00  0.00    -0.311 N 
ATOM     12  H5  UNL     1      18.784  -7.797   1.803  1.00  0.00     0.186 HD
HETATM   13  C4  UNL     1      17.912  -7.195   0.077  1.00  0.00     0.124 A 
HETATM   14  C5  UNL     1      18.142  -6.647  -1.175  1.00  0.00     0.053 A 
ENDROOT
TORSDOF 0
ENDMDL
