MODEL 1
REMARK VINA RESULT: -6.237659194      0.000      0.000
REMARK  0 active torsions:
REMARK  status: ('A' for Active; 'I' for Inactive)
ROOT
HETATM    1  N1  UNL     1      17.316  -7.301  -0.187  1.00  0.00    -0.385 N 
ATOM      2  H11 UNL     1      17.335  -6.908  -1.129  1.00  0.00     0.157 HD
ATOM      3  H12 UNL     1      16.336  -7.506   0.009  1.00  0.00     0.157 HD
HETATM    4  C1  UNL     1      18.290  -7.518   0.632  1.00  0.00     0.109 A 
HETATM    5  C2  UNL     1      18.263  -8.076   1.968  1.00  0.00     0.052 A 
HETATM    6  C3  UNL     1      19.489  -8.125   2.458  1.00  0.00     0.054 A 
HETATM    7  C4  UNL     1      20.392  -7.591   1.442  1.00  0.00     0.130 A 
HETATM    8  N2  UNL     1      21.661  -7.292   1.111  1.00  0.00    -0.283 N 
ATOM      9  H2  UNL     1      22.468  -7.442   1.716  1.00  0.00     0.188 HD
HETATM   10  N3  UNL     1      21.720  -6.781  -0.105  1.00  0.00    -0.271 N 
ATOM     11  H3  UNL     1      22.565  -6.475  -0.585  1.00  0.00     0.189 HD
HETATM   12  C5  UNL     1      20.459  -6.733  -0.603  1.00  0.00     0.217 A 
HETATM   13  N4  UNL     1      20.058  -6.254  -1.879  1.00  0.00    -0.061 NA
HETATM   14  N5  UNL     1      19.656  -7.233   0.359  1.00  0.00    -0.254 N 
ENDROOT
TORSDOF 0
ENDMDL
MODEL 2
REMARK VINA RESULT: -6.216415263      2.368      3.708
REMARK  0 active torsions:
REMARK  status: ('A' for Active; 'I' for Inactive)
ROOT
HETATM    1  N1  UNL     1      19.302  -5.810  -3.151  1.00  0.00    -0.385 N 
ATOM      2  H11 UNL     1      18.524  -5.665  -3.795  1.00  0.00     0.157 HD
ATOM      3  H12 UNL     1      20.140  -5.526  -3.659  1.00  0.00     0.157 HD
HETATM    4  C1  UNL     1      19.294  -6.256  -1.939  1.00  0.00     0.109 A 
HETATM    5  C2  UNL     1      20.398  -6.463  -1.026  1.00  0.00     0.052 A 
HETATM    6  C3  UNL     1      19.948  -6.936   0.123  1.00  0.00     0.054 A 
HETATM    7  C4  UNL     1      18.497  -7.063   0.009  1.00  0.00     0.130 A 
HETATM    8  N2  UNL     1      17.349  -7.419   0.613  1.00  0.00    -0.283 N 
ATOM      9  H2  UNL     1      17.282  -7.777   1.565  1.00  0.00     0.188 HD
HETATM   10  N3  UNL     1      16.321  -7.242  -0.196  1.00  0.00    -0.271 N 
ATOM     11  H3  UNL     1      15.345  -7.437   0.026  1.00  0.00     0.189 HD
HETATM   12  C5  UNL     1      16.788  -6.756  -1.373  1.00  0.00     0.217 A 
HETATM   13  N4  UNL     1      16.029  -6.421  -2.526  1.00  0.00    -0.061 NA
HETATM   14  N5  UNL     1      18.127  -6.652  -1.230  1.00  0.00    -0.254 N 
ENDROOT
TORSDOF 0
ENDMDL
MODEL 3
REMARK VINA RESULT: -6.157447830      1.254      2.781
REMARK  0 active torsions:
REMARK  status: ('A' for Active; 'I' for Inactive)
ROOT
HETATM    1  N1  UNL     1      17.020  -7.022   0.259  1.00  0.00    -0.385 N 
ATOM      2  H11 UNL     1      16.843  -7.380   1.198  1.00  0.00     0.157 HD
ATOM      3  H12 UNL     1      16.102  -6.861  -0.155  1.00  0.00     0.157 HD
HETATM    4  C1  UNL     1      18.143  -6.800  -0.338  1.00  0.00     0.109 A 
HETATM    5  C2  UNL     1      18.394  -6.292  -1.671  1.00  0.00     0.052 A 
HETATM    6  C3  UNL     1      19.696  -6.216  -1.885  1.00  0.00     0.054 A 
HETATM    7  C4  UNL     1      20.369  -6.681  -0.674  1.00  0.00     0.130 A 
HETATM    8  N2  UNL     1      21.543  -6.920  -0.062  1.00  0.00    -0.283 N 
ATOM      9  H2  UNL     1      22.458  -6.764  -0.484  1.00  0.00     0.188 HD
HETATM   10  N3  UNL     1      21.348  -7.385   1.158  1.00  0.00    -0.271 N 
ATOM     11  H3  UNL     1      22.076  -7.642   1.823  1.00  0.00     0.189 HD
HETATM   12  C5  UNL     1      20.010  -7.461   1.372  1.00  0.00     0.217 A 
HETATM   13  N4  UNL     1      19.353  -7.907   2.549  1.00  0.00    -0.061 NA
HETATM   14  N5  UNL     1      19.424  -7.025   0.237  1.00  0.00    -0.254 N 
ENDROOT
TORSDOF 0
ENDMDL
MODEL 4
REMARK VINA RESULT: -6.143515427      2.295      3.420
REMARK  0 active torsions:
REMARK  status: ('A' for Active; 'I' for Inactive)
ROOT
HETATM    1  N1  UNL     1      17.322  -7.435   0.708  1.00  0.00    -0.385 N 
ATOM      2  H11 UNL     1      16.332  -7.456   0.461  1.00  0.00     0.157 HD
ATOM      3  H12 UNL     1      17.378  -7.788   1.664  1.00  0.00     0.157 HD
HETATM    4  C1  UNL     1      18.337  -7.054   0.007  1.00  0.00     0.109 A 
HETATM    5  C2  UNL     1      19.741  -7.023   0.358  1.00  0.00     0.052 A 
HETATM    6  C3  UNL     1      20.448  -6.560  -0.659  1.00  0.00     0.054 A 
HETATM    7  C4  UNL     1      19.516  -6.260  -1.743  1.00  0.00     0.130 A 
HETATM    8  N2  UNL     1      19.362  -5.805  -2.999  1.00  0.00    -0.283 N 
ATOM      9  H2  UNL     1      20.125  -5.491  -3.599  1.00  0.00     0.188 HD
HETATM   10  N3  UNL     1      18.090  -5.820  -3.350  1.00  0.00    -0.271 N 
ATOM     11  H3  UNL     1      17.714  -5.525  -4.251  1.00  0.00     0.189 HD
HETATM   12  C5  UNL     1      17.370  -6.297  -2.304  1.00  0.00     0.217 A 
HETATM   13  N4  UNL     1      15.963  -6.482  -2.244  1.00  0.00    -0.061 NA
HETATM   14  N5  UNL     1      18.260  -6.562  -1.325  1.00  0.00    -0.254 N 
ENDROOT
TORSDOF 0
ENDMDL
MODEL 5
REMARK VINA RESULT: -6.104977034      1.271      2.556
REMARK  0 active torsions:
REMARK  status: ('A' for Active; 'I' for Inactive)
ROOT
HETATM    1  N1  UNL     1      18.383  -8.470   1.930  1.00  0.00    -0.385 N 
ATOM      2  H11 UNL     1      19.182  -8.762   2.493  1.00  0.00     0.157 HD
ATOM      3  H12 UNL     1      17.568  -8.918   2.350  1.00  0.00     0.157 HD
HETATM    4  C1  UNL     1      18.345  -7.700   0.894  1.00  0.00     0.109 A 
HETATM    5  C2  UNL     1      17.211  -7.286   0.095  1.00  0.00     0.052 A 
HETATM    6  C3  UNL     1      17.616  -6.489  -0.879  1.00  0.00     0.054 A 
HETATM    7  C4  UNL     1      19.065  -6.344  -0.757  1.00  0.00     0.130 A 
HETATM    8  N2  UNL     1      20.184  -5.790  -1.254  1.00  0.00    -0.283 N 
ATOM      9  H2  UNL     1      20.215  -5.175  -2.067  1.00  0.00     0.188 HD
HETATM   10  N3  UNL     1      21.239  -6.149  -0.545  1.00  0.00    -0.271 N 
ATOM     11  H3  UNL     1      22.202  -5.862  -0.718  1.00  0.00     0.189 HD
HETATM   12  C5  UNL     1      20.818  -6.966   0.453  1.00  0.00     0.217 A 
HETATM   13  N4  UNL     1      21.617  -7.583   1.451  1.00  0.00    -0.061 NA
HETATM   14  N5  UNL     1      19.480  -7.076   0.308  1.00  0.00    -0.254 N 
ENDROOT
TORSDOF 0
ENDMDL
