MODEL 1
REMARK VINA RESULT: -5.971442274      0.000      0.000
REMARK  14 active torsions:
REMARK  status: ('A' for Active; 'I' for Inactive)
REMARK    1  A    between atoms: N1_1  and  C1_5 
REMARK    2  A    between atoms: C1_5  and  C2_6 
REMARK    3  A    between atoms: C2_6  and  O1_7 
REMARK    4  A    between atoms: C4_10  and  O2_11 
REMARK    5  A    between atoms: C4_10  and  C5_13 
REMARK    6  A    between atoms: C5_13  and  O3_14 
REMARK    7  A    between atoms: O3_14  and  C6_15 
REMARK    8  A    between atoms: C6_15  and  O4_16 
REMARK    9  A    between atoms: O4_16  and  C7_17 
REMARK   10  A    between atoms: C7_17  and  C8_18 
REMARK   11  A    between atoms: C8_18  and  O5_19 
REMARK   12  A    between atoms: C9_21  and  C10_22 
REMARK   13  A    between atoms: C9_21  and  C11_25 
REMARK   14  A    between atoms: C10_22  and  O6_23 
ROOT
HETATM    1  C1  UNL     1      18.004  -6.734  -0.703  1.00  0.00     0.170 C 
HETATM    2  C3  UNL     1      17.567  -7.389   0.584  1.00  0.00     0.084 C 
HETATM    3  C4  UNL     1      19.014  -7.766   0.816  1.00  0.00     0.104 C 
HETATM    4  C9  UNL     1      19.409  -6.701  -0.145  1.00  0.00     0.137 C 
ENDROOT
BRANCH   3   5
HETATM    5  O2  UNL     1      19.378  -9.035   0.348  1.00  0.00    -0.386 OA
ATOM      6  H2  UNL     1      20.281  -9.116   0.062  1.00  0.00     0.210 HD
ENDBRANCH   3   5
BRANCH   3   7
HETATM    7  C5  UNL     1      19.453  -7.613   2.248  1.00  0.00     0.209 C 
BRANCH   7   8
HETATM    8  O3  UNL     1      19.001  -8.637   3.041  1.00  0.00    -0.364 OA
BRANCH   8   9
HETATM    9  C6  UNL     1      18.606  -8.138   4.292  1.00  0.00     0.337 C 
BRANCH   9  10
HETATM   10  O4  UNL     1      17.261  -8.243   4.492  1.00  0.00    -0.365 OA
BRANCH  10  11
HETATM   11  C7  UNL     1      16.900  -8.047   5.798  1.00  0.00     0.196 C 
BRANCH  11  12
HETATM   12  C8  UNL     1      16.561  -6.618   6.106  1.00  0.00     0.190 C 
BRANCH  12  13
HETATM   13  O5  UNL     1      15.544  -6.566   7.069  1.00  0.00    -0.399 OA
ATOM     14  H5  UNL     1      15.311  -5.661   7.245  1.00  0.00     0.209 HD
ENDBRANCH  12  13
ENDBRANCH  11  12
ENDBRANCH  10  11
ENDBRANCH   9  10
ENDBRANCH   8   9
ENDBRANCH   7   8
ENDBRANCH   3   7
BRANCH   4  15
HETATM   15  C10 UNL     1      19.639  -5.327   0.472  1.00  0.00     0.190 C 
BRANCH  15  16
HETATM   16  O6  UNL     1      20.672  -4.638  -0.161  1.00  0.00    -0.399 OA
ATOM     17  H6  UNL     1      21.142  -4.072   0.440  1.00  0.00     0.209 HD
ENDBRANCH  15  16
ENDBRANCH   4  15
BRANCH   4  18
HETATM   18  C11 UNL     1      20.433  -7.050  -1.136  1.00  0.00     0.190 C 
HETATM   19  O7  UNL     1      21.465  -7.683  -0.745  1.00  0.00    -0.647 OA
HETATM   20  O8  UNL     1      20.340  -6.734  -2.470  1.00  0.00    -0.647 OA
ENDBRANCH   4  18
BRANCH   1  21
HETATM   21  N1  UNL     1      17.459  -5.471  -0.960  1.00  0.00    -0.067 N 
ATOM     22  H13 UNL     1      17.606  -5.183  -1.928  1.00  0.00     0.275 HD
ATOM     23  H12 UNL     1      16.439  -5.489  -0.962  1.00  0.00     0.275 HD
ATOM     24  H11 UNL     1      17.825  -4.785  -0.299  1.00  0.00     0.275 HD
ENDBRANCH   1  21
BRANCH   1  25
HETATM   25  C2  UNL     1      17.767  -7.653  -1.870  1.00  0.00     0.204 C 
BRANCH  25  26
HETATM   26  O1  UNL     1      16.367  -7.829  -1.995  1.00  0.00    -0.398 OA
ATOM     27  H1  UNL     1      16.223  -8.554  -2.593  1.00  0.00     0.209 HD
ENDBRANCH  25  26
ENDBRANCH   1  25
TORSDOF 14
ENDMDL
MODEL 2
REMARK VINA RESULT: -5.570920436      1.943      3.445
REMARK  14 active torsions:
REMARK  status: ('A' for Active; 'I' for Inactive)
REMARK    1  A    between atoms: N1_1  and  C1_5 
REMARK    2  A    between atoms: C1_5  and  C2_6 
REMARK    3  A    between atoms: C2_6  and  O1_7 
REMARK    4  A    between atoms: C4_10  and  O2_11 
REMARK    5  A    between atoms: C4_10  and  C5_13 
REMARK    6  A    between atoms: C5_13  and  O3_14 
REMARK    7  A    between atoms: O3_14  and  C6_15 
REMARK    8  A    between atoms: C6_15  and  O4_16 
REMARK    9  A    between atoms: O4_16  and  C7_17 
REMARK   10  A    between atoms: C7_17  and  C8_18 
REMARK   11  A    between atoms: C8_18  and  O5_19 
REMARK   12  A    between atoms: C9_21  and  C10_22 
REMARK   13  A    between atoms: C9_21  and  C11_25 
REMARK   14  A    between atoms: C10_22  and  O6_23 
ROOT
HETATM    1  C1  UNL     1      19.042  -6.605  -2.920  1.00  0.00     0.170 C 
HETATM    2  C3  UNL     1      20.383  -6.969  -2.330  1.00  0.00     0.084 C 
HETATM    3  C4  UNL     1      19.843  -6.534  -0.985  1.00  0.00     0.104 C 
HETATM    4  C9  UNL     1      18.466  -6.692  -1.525  1.00  0.00     0.137 C 
ENDROOT
BRANCH   3   5
HETATM    5  O2  UNL     1      20.107  -5.201  -0.643  1.00  0.00    -0.386 OA
ATOM      6  H2  UNL     1      19.636  -4.880   0.116  1.00  0.00     0.210 HD
ENDBRANCH   3   5
BRANCH   3   7
HETATM    7  C5  UNL     1      20.257  -7.435   0.148  1.00  0.00     0.209 C 
BRANCH   7   8
HETATM    8  O3  UNL     1      20.220  -6.794   1.360  1.00  0.00    -0.364 OA
BRANCH   8   9
HETATM    9  C6  UNL     1      19.715  -7.657   2.345  1.00  0.00     0.337 C 
BRANCH   9  10
HETATM   10  O4  UNL     1      18.394  -7.940   2.160  1.00  0.00    -0.365 OA
BRANCH  10  11
HETATM   11  C7  UNL     1      17.882  -8.755   3.133  1.00  0.00     0.196 C 
BRANCH  11  12
HETATM   12  C8  UNL     1      17.692  -8.055   4.447  1.00  0.00     0.190 C 
BRANCH  12  13
HETATM   13  O5  UNL     1      16.458  -8.416   5.006  1.00  0.00    -0.399 OA
ATOM     14  H5  UNL     1      15.759  -7.923   4.591  1.00  0.00     0.209 HD
ENDBRANCH  12  13
ENDBRANCH  11  12
ENDBRANCH  10  11
ENDBRANCH   9  10
ENDBRANCH   8   9
ENDBRANCH   7   8
ENDBRANCH   3   7
BRANCH   4  15
HETATM   15  C10 UNL     1      17.859  -8.079  -1.351  1.00  0.00     0.190 C 
BRANCH  15  16
HETATM   16  O6  UNL     1      16.466  -8.045  -1.381  1.00  0.00    -0.399 OA
ATOM     17  H6  UNL     1      16.085  -8.371  -0.574  1.00  0.00     0.209 HD
ENDBRANCH  15  16
ENDBRANCH   4  15
BRANCH   4  18
HETATM   18  C11 UNL     1      17.511  -5.619  -1.226  1.00  0.00     0.190 C 
HETATM   19  O7  UNL     1      17.427  -5.198  -0.028  1.00  0.00    -0.647 OA
HETATM   20  O8  UNL     1      16.698  -5.038  -2.170  1.00  0.00    -0.647 OA
ENDBRANCH   4  18
BRANCH   1  21
HETATM   21  N1  UNL     1      18.502  -7.528  -3.823  1.00  0.00    -0.067 N 
ATOM     22  H13 UNL     1      18.833  -8.476  -3.641  1.00  0.00     0.275 HD
ATOM     23  H12 UNL     1      17.507  -7.682  -3.661  1.00  0.00     0.275 HD
ATOM     24  H11 UNL     1      18.690  -7.237  -4.783  1.00  0.00     0.275 HD
ENDBRANCH   1  21
BRANCH   1  25
HETATM   25  C2  UNL     1      19.093  -5.235  -3.541  1.00  0.00     0.204 C 
BRANCH  25  26
HETATM   26  O1  UNL     1      19.398  -5.402  -4.914  1.00  0.00    -0.398 OA
ATOM     27  H1  UNL     1      18.847  -4.801  -5.403  1.00  0.00     0.209 HD
ENDBRANCH  25  26
ENDBRANCH   1  25
TORSDOF 14
ENDMDL
MODEL 3
REMARK VINA RESULT: -5.501044525      1.925      3.634
REMARK  14 active torsions:
REMARK  status: ('A' for Active; 'I' for Inactive)
REMARK    1  A    between atoms: N1_1  and  C1_5 
REMARK    2  A    between atoms: C1_5  and  C2_6 
REMARK    3  A    between atoms: C2_6  and  O1_7 
REMARK    4  A    between atoms: C4_10  and  O2_11 
REMARK    5  A    between atoms: C4_10  and  C5_13 
REMARK    6  A    between atoms: C5_13  and  O3_14 
REMARK    7  A    between atoms: O3_14  and  C6_15 
REMARK    8  A    between atoms: C6_15  and  O4_16 
REMARK    9  A    between atoms: O4_16  and  C7_17 
REMARK   10  A    between atoms: C7_17  and  C8_18 
REMARK   11  A    between atoms: C8_18  and  O5_19 
REMARK   12  A    between atoms: C9_21  and  C10_22 
REMARK   13  A    between atoms: C9_21  and  C11_25 
REMARK   14  A    between atoms: C10_22  and  O6_23 
ROOT
HETATM    1  C1  UNL     1      18.976  -6.558  -2.967  1.00  0.00     0.170 C 
HETATM    2  C3  UNL     1      19.973  -6.724  -1.845  1.00  0.00     0.084 C 
HETATM    3  C4  UNL     1      18.829  -6.513  -0.877  1.00  0.00     0.104 C 
HETATM    4  C9  UNL     1      17.884  -6.869  -1.969  1.00  0.00     0.137 C 
ENDROOT
BRANCH   3   5
HETATM    5  O2  UNL     1      18.646  -5.189  -0.455  1.00  0.00    -0.386 OA
ATOM      6  H2  UNL     1      19.432  -4.656  -0.450  1.00  0.00     0.210 HD
ENDBRANCH   3   5
BRANCH   3   7
HETATM    7  C5  UNL     1      18.884  -7.420   0.323  1.00  0.00     0.209 C 
BRANCH   7   8
HETATM    8  O3  UNL     1      19.616  -6.878   1.350  1.00  0.00    -0.364 OA
BRANCH   8   9
HETATM    9  C6  UNL     1      19.728  -7.802   2.400  1.00  0.00     0.337 C 
BRANCH   9  10
HETATM   10  O4  UNL     1      18.513  -8.201   2.873  1.00  0.00    -0.365 OA
BRANCH  10  11
HETATM   11  C7  UNL     1      18.530  -8.482   4.213  1.00  0.00     0.196 C 
BRANCH  11  12
HETATM   12  C8  UNL     1      17.451  -7.771   4.977  1.00  0.00     0.190 C 
BRANCH  12  13
HETATM   13  O5  UNL     1      16.267  -8.521   4.938  1.00  0.00    -0.399 OA
ATOM     14  H5  UNL     1      16.462  -9.440   5.083  1.00  0.00     0.209 HD
ENDBRANCH  12  13
ENDBRANCH  11  12
ENDBRANCH  10  11
ENDBRANCH   9  10
ENDBRANCH   8   9
ENDBRANCH   7   8
ENDBRANCH   3   7
BRANCH   4  15
HETATM   15  C10 UNL     1      17.553  -8.352  -2.079  1.00  0.00     0.190 C 
BRANCH  15  16
HETATM   16  O6  UNL     1      16.673  -8.613  -3.128  1.00  0.00    -0.399 OA
ATOM     17  H6  UNL     1      16.115  -7.868  -3.317  1.00  0.00     0.209 HD
ENDBRANCH  15  16
ENDBRANCH   4  15
BRANCH   4  18
HETATM   18  C11 UNL     1      16.700  -6.016  -2.124  1.00  0.00     0.190 C 
HETATM   19  O7  UNL     1      15.551  -6.561  -2.088  1.00  0.00    -0.647 OA
HETATM   20  O8  UNL     1      16.760  -4.655  -2.305  1.00  0.00    -0.647 OA
ENDBRANCH   4  18
BRANCH   1  21
HETATM   21  N1  UNL     1      19.078  -7.481  -4.014  1.00  0.00    -0.067 N 
ATOM     22  H13 UNL     1      19.317  -8.414  -3.677  1.00  0.00     0.275 HD
ATOM     23  H12 UNL     1      18.168  -7.695  -4.422  1.00  0.00     0.275 HD
ATOM     24  H11 UNL     1      19.740  -7.149  -4.716  1.00  0.00     0.275 HD
ENDBRANCH   1  21
BRANCH   1  25
HETATM   25  C2  UNL     1      19.015  -5.152  -3.503  1.00  0.00     0.204 C 
BRANCH  25  26
HETATM   26  O1  UNL     1      19.418  -5.226  -4.859  1.00  0.00    -0.398 OA
ATOM     27  H1  UNL     1      19.183  -6.089  -5.180  1.00  0.00     0.209 HD
ENDBRANCH  25  26
ENDBRANCH   1  25
TORSDOF 14
ENDMDL
MODEL 4
REMARK VINA RESULT: -5.142393258      2.816      7.027
REMARK  14 active torsions:
REMARK  status: ('A' for Active; 'I' for Inactive)
REMARK    1  A    between atoms: N1_1  and  C1_5 
REMARK    2  A    between atoms: C1_5  and  C2_6 
REMARK    3  A    between atoms: C2_6  and  O1_7 
REMARK    4  A    between atoms: C4_10  and  O2_11 
REMARK    5  A    between atoms: C4_10  and  C5_13 
REMARK    6  A    between atoms: C5_13  and  O3_14 
REMARK    7  A    between atoms: O3_14  and  C6_15 
REMARK    8  A    between atoms: C6_15  and  O4_16 
REMARK    9  A    between atoms: O4_16  and  C7_17 
REMARK   10  A    between atoms: C7_17  and  C8_18 
REMARK   11  A    between atoms: C8_18  and  O5_19 
REMARK   12  A    between atoms: C9_21  and  C10_22 
REMARK   13  A    between atoms: C9_21  and  C11_25 
REMARK   14  A    between atoms: C10_22  and  O6_23 
ROOT
HETATM    1  C1  UNL     1      18.762  -7.970   0.224  1.00  0.00     0.170 C 
HETATM    2  C3  UNL     1      18.104  -7.856  -1.129  1.00  0.00     0.084 C 
HETATM    3  C4  UNL     1      18.714  -6.477  -1.245  1.00  0.00     0.104 C 
HETATM    4  C9  UNL     1      19.700  -6.863  -0.200  1.00  0.00     0.137 C 
ENDROOT
BRANCH   3   5
HETATM    5  O2  UNL     1      17.894  -5.427  -0.810  1.00  0.00    -0.386 OA
ATOM      6  H2  UNL     1      18.312  -4.805  -0.226  1.00  0.00     0.210 HD
ENDBRANCH   3   5
BRANCH   3   7
HETATM    7  C5  UNL     1      19.240  -6.166  -2.621  1.00  0.00     0.209 C 
BRANCH   7   8
HETATM    8  O3  UNL     1      18.231  -5.949  -3.525  1.00  0.00    -0.364 OA
BRANCH   8   9
HETATM    9  C6  UNL     1      18.422  -6.753  -4.659  1.00  0.00     0.337 C 
BRANCH   9  10
HETATM   10  O4  UNL     1      19.579  -6.458  -5.316  1.00  0.00    -0.365 OA
BRANCH  10  11
HETATM   11  C7  UNL     1      20.287  -7.574  -5.676  1.00  0.00     0.196 C 
BRANCH  11  12
HETATM   12  C8  UNL     1      20.650  -7.596  -7.132  1.00  0.00     0.190 C 
BRANCH  12  13
HETATM   13  O5  UNL     1      21.317  -8.789  -7.440  1.00  0.00    -0.399 OA
ATOM     14  H5  UNL     1      21.067  -9.086  -8.307  1.00  0.00     0.209 HD
ENDBRANCH  12  13
ENDBRANCH  11  12
ENDBRANCH  10  11
ENDBRANCH   9  10
ENDBRANCH   8   9
ENDBRANCH   7   8
ENDBRANCH   3   7
BRANCH   4  15
HETATM   15  C10 UNL     1      20.979  -7.503  -0.723  1.00  0.00     0.190 C 
BRANCH  15  16
HETATM   16  O6  UNL     1      22.079  -7.199   0.077  1.00  0.00    -0.399 OA
ATOM     17  H6  UNL     1      22.766  -7.850  -0.001  1.00  0.00     0.209 HD
ENDBRANCH  15  16
ENDBRANCH   4  15
BRANCH   4  18
HETATM   18  C11 UNL     1      19.955  -5.884   0.863  1.00  0.00     0.190 C 
HETATM   19  O7  UNL     1      20.088  -4.660   0.542  1.00  0.00    -0.647 OA
HETATM   20  O8  UNL     1      20.058  -6.214   2.194  1.00  0.00    -0.647 OA
ENDBRANCH   4  18
BRANCH   1  21
HETATM   21  N1  UNL     1      19.396  -9.189   0.493  1.00  0.00    -0.067 N 
ATOM     22  H13 UNL     1      19.936  -9.521  -0.307  1.00  0.00     0.275 HD
ATOM     23  H12 UNL     1      20.162  -9.081   1.157  1.00  0.00     0.275 HD
ATOM     24  H11 UNL     1      18.715  -9.881   0.806  1.00  0.00     0.275 HD
ENDBRANCH   1  21
BRANCH   1  25
HETATM   25  C2  UNL     1      17.782  -7.639   1.317  1.00  0.00     0.204 C 
BRANCH  25  26
HETATM   26  O1  UNL     1      18.113  -8.436   2.440  1.00  0.00    -0.398 OA
ATOM     27  H1  UNL     1      18.038  -7.886   3.212  1.00  0.00     0.209 HD
ENDBRANCH  25  26
ENDBRANCH   1  25
TORSDOF 14
ENDMDL
MODEL 5
REMARK VINA RESULT: -4.939677584      3.096      7.075
REMARK  14 active torsions:
REMARK  status: ('A' for Active; 'I' for Inactive)
REMARK    1  A    between atoms: N1_1  and  C1_5 
REMARK    2  A    between atoms: C1_5  and  C2_6 
REMARK    3  A    between atoms: C2_6  and  O1_7 
REMARK    4  A    between atoms: C4_10  and  O2_11 
REMARK    5  A    between atoms: C4_10  and  C5_13 
REMARK    6  A    between atoms: C5_13  and  O3_14 
REMARK    7  A    between atoms: O3_14  and  C6_15 
REMARK    8  A    between atoms: C6_15  and  O4_16 
REMARK    9  A    between atoms: O4_16  and  C7_17 
REMARK   10  A    between atoms: C7_17  and  C8_18 
REMARK   11  A    between atoms: C8_18  and  O5_19 
REMARK   12  A    between atoms: C9_21  and  C10_22 
REMARK   13  A    between atoms: C9_21  and  C11_25 
REMARK   14  A    between atoms: C10_22  and  O6_23 
ROOT
HETATM    1  C1  UNL     1      18.640  -7.743   0.087  1.00  0.00     0.170 C 
HETATM    2  C3  UNL     1      18.160  -7.809  -1.343  1.00  0.00     0.084 C 
HETATM    3  C4  UNL     1      18.968  -6.558  -1.610  1.00  0.00     0.104 C 
HETATM    4  C9  UNL     1      19.766  -6.853  -0.389  1.00  0.00     0.137 C 
ENDROOT
BRANCH   3   5
HETATM    5  O2  UNL     1      18.260  -5.356  -1.477  1.00  0.00    -0.386 OA
ATOM      6  H2  UNL     1      18.799  -4.578  -1.391  1.00  0.00     0.210 HD
ENDBRANCH   3   5
BRANCH   3   7
HETATM    7  C5  UNL     1      19.684  -6.576  -2.934  1.00  0.00     0.209 C 
BRANCH   7   8
HETATM    8  O3  UNL     1      18.939  -6.003  -3.934  1.00  0.00    -0.364 OA
BRANCH   8   9
HETATM    9  C6  UNL     1      19.272  -6.577  -5.170  1.00  0.00     0.337 C 
BRANCH   9  10
HETATM   10  O4  UNL     1      20.122  -7.635  -5.040  1.00  0.00    -0.365 OA
BRANCH  10  11
HETATM   11  C7  UNL     1      20.743  -7.968  -6.214  1.00  0.00     0.196 C 
BRANCH  11  12
HETATM   12  C8  UNL     1      20.177  -7.247  -7.403  1.00  0.00     0.190 C 
BRANCH  12  13
HETATM   13  O5  UNL     1      21.200  -6.565  -8.077  1.00  0.00    -0.399 OA
ATOM     14  H5  UNL     1      21.229  -6.844  -8.985  1.00  0.00     0.209 HD
ENDBRANCH  12  13
ENDBRANCH  11  12
ENDBRANCH  10  11
ENDBRANCH   9  10
ENDBRANCH   8   9
ENDBRANCH   7   8
ENDBRANCH   3   7
BRANCH   4  15
HETATM   15  C10 UNL     1      20.993  -7.727  -0.616  1.00  0.00     0.190 C 
BRANCH  15  16
HETATM   16  O6  UNL     1      22.061  -7.346   0.195  1.00  0.00    -0.399 OA
ATOM     17  H6  UNL     1      22.439  -8.085   0.656  1.00  0.00     0.209 HD
ENDBRANCH  15  16
ENDBRANCH   4  15
BRANCH   4  18
HETATM   18  C11 UNL     1      20.035  -5.729   0.514  1.00  0.00     0.190 C 
HETATM   19  O7  UNL     1      19.980  -5.933   1.769  1.00  0.00    -0.647 OA
HETATM   20  O8  UNL     1      20.346  -4.462   0.082  1.00  0.00    -0.647 OA
ENDBRANCH   4  18
BRANCH   1  21
HETATM   21  N1  UNL     1      19.062  -8.955   0.645  1.00  0.00    -0.067 N 
ATOM     22  H13 UNL     1      18.580  -9.159   1.521  1.00  0.00     0.275 HD
ATOM     23  H12 UNL     1      18.739  -9.757   0.104  1.00  0.00     0.275 HD
ATOM     24  H11 UNL     1      20.076  -8.958   0.760  1.00  0.00     0.275 HD
ENDBRANCH   1  21
BRANCH   1  25
HETATM   25  C2  UNL     1      17.600  -7.099   0.963  1.00  0.00     0.204 C 
BRANCH  25  26
HETATM   26  O1  UNL     1      16.366  -7.151   0.268  1.00  0.00    -0.398 OA
ATOM     27  H1  UNL     1      16.564  -7.169  -0.662  1.00  0.00     0.209 HD
ENDBRANCH  25  26
ENDBRANCH   1  25
TORSDOF 14
ENDMDL
