MODEL 1
REMARK VINA RESULT: 0.367305754      0.000      0.000
REMARK  7 active torsions:
REMARK  status: ('A' for Active; 'I' for Inactive)
REMARK    1  A    between atoms: C2_2  and  N1_3 
REMARK       I    between atoms: N1_3  and  C4_5 
REMARK    2  A    between atoms: C4_5  and  C5_7 
REMARK    3  A    between atoms: N2_10  and  C8_11 
REMARK    4  A    between atoms: C10_18  and  C11_19 
REMARK    5  A    between atoms: C11_19  and  C12_20 
REMARK    6  A    between atoms: C14_23  and  S2_24 
REMARK    7  A    between atoms: S2_24  and  C15_27 
ROOT
HETATM    1  C5  UNL     1      16.931  -7.039  -2.085  1.00  0.00     0.099 C 
HETATM    2  C6  UNL     1      15.629  -7.132  -1.336  1.00  0.00     0.035 C 
HETATM    3  C7  UNL     1      15.683  -6.422   0.029  1.00  0.00     0.125 C 
HETATM    4  N2  UNL     1      16.766  -6.910   0.802  1.00  0.00    -0.365 N 
HETATM    5  C13 UNL     1      17.970  -7.328   0.130  1.00  0.00     0.145 C 
HETATM    6  C14 UNL     1      18.114  -6.682  -1.241  1.00  0.00     0.140 C 
ENDROOT
BRANCH   4   7
HETATM    7  C8  UNL     1      16.759  -7.022   2.248  1.00  0.00     0.120 C 
HETATM    8  N3  UNL     1      16.064  -6.297   3.031  1.00  0.00    -0.269 N 
HETATM    9  S1  UNL     1      16.325  -6.735   4.663  1.00  0.00     0.236 S 
ATOM     10  H3  UNL     1      15.435  -5.555   2.725  1.00  0.00     0.180 HD
HETATM   11  O2  UNL     1      15.056  -6.953   5.392  1.00  0.00    -0.205 OA
HETATM   12  O3  UNL     1      17.264  -5.808   5.371  1.00  0.00    -0.205 OA
HETATM   13  C9  UNL     1      17.168  -8.302   4.307  1.00  0.00     0.206 C 
HETATM   14  C10 UNL     1      17.599  -8.027   2.924  1.00  0.00     0.003 C 
BRANCH  14  15
HETATM   15  C11 UNL     1      18.659  -8.610   2.348  1.00  0.00     0.024 C 
BRANCH  15  16
HETATM   16  C12 UNL     1      19.639  -9.519   2.872  1.00  0.00     0.085 C 
HETATM   17 CL1  UNL     1      21.055  -9.932   1.970  1.00  0.00    -0.097 Cl
ENDBRANCH  15  16
ENDBRANCH  14  15
ENDBRANCH   4   7
BRANCH   6  18
HETATM   18  S2  UNL     1      19.546  -7.504  -1.952  1.00  0.00     0.154 S 
HETATM   19  O4  UNL     1      20.619  -7.653  -0.901  1.00  0.00    -0.227 OA
HETATM   20  O5  UNL     1      19.163  -8.892  -2.376  1.00  0.00    -0.227 OA
BRANCH  18  21
HETATM   21  C15 UNL     1      20.216  -6.665  -3.331  1.00  0.00     0.101 C 
HETATM   22  C16 UNL     1      20.083  -5.165  -3.282  1.00  0.00     0.026 C 
HETATM   23  C17 UNL     1      21.737  -6.924  -3.295  1.00  0.00     0.026 C 
ENDBRANCH  18  21
ENDBRANCH   6  18
BRANCH   1  24
HETATM   24  C4  UNL     1      16.722  -6.140  -3.247  1.00  0.00     0.225 C 
HETATM   25  N1  UNL     1      16.853  -6.599  -4.559  1.00  0.00    -0.356 N 
HETATM   26  C3  UNL     1      16.594  -5.635  -5.646  1.00  0.00     0.152 C 
HETATM   27  O1  UNL     1      16.414  -4.925  -3.052  1.00  0.00    -0.273 OA
BRANCH  25  28
HETATM   28  C2  UNL     1      17.211  -7.920  -4.982  1.00  0.00     0.120 C 
HETATM   29  C1  UNL     1      18.123  -7.979  -6.176  1.00  0.00     0.026 C 
ENDBRANCH  25  28
ENDBRANCH   1  24
TORSDOF 7
ENDMDL
MODEL 2
REMARK VINA RESULT: 1.001194865      1.377      1.627
REMARK  7 active torsions:
REMARK  status: ('A' for Active; 'I' for Inactive)
REMARK    1  A    between atoms: C2_2  and  N1_3 
REMARK       I    between atoms: N1_3  and  C4_5 
REMARK    2  A    between atoms: C4_5  and  C5_7 
REMARK    3  A    between atoms: N2_10  and  C8_11 
REMARK    4  A    between atoms: C10_18  and  C11_19 
REMARK    5  A    between atoms: C11_19  and  C12_20 
REMARK    6  A    between atoms: C14_23  and  S2_24 
REMARK    7  A    between atoms: S2_24  and  C15_27 
ROOT
HETATM    1  C5  UNL     1      17.133  -7.089  -2.821  1.00  0.00     0.099 C 
HETATM    2  C6  UNL     1      16.107  -7.920  -2.098  1.00  0.00     0.035 C 
HETATM    3  C7  UNL     1      15.590  -7.235  -0.820  1.00  0.00     0.125 C 
HETATM    4  N2  UNL     1      16.670  -6.884   0.028  1.00  0.00    -0.365 N 
HETATM    5  C13 UNL     1      17.929  -6.508  -0.564  1.00  0.00     0.145 C 
HETATM    6  C14 UNL     1      17.763  -6.013  -1.994  1.00  0.00     0.140 C 
ENDROOT
BRANCH   4   7
HETATM    7  C8  UNL     1      16.607  -6.873   1.478  1.00  0.00     0.120 C 
HETATM    8  N3  UNL     1      15.920  -6.054   2.170  1.00  0.00    -0.269 N 
HETATM    9  S1  UNL     1      16.102  -6.362   3.841  1.00  0.00     0.236 S 
ATOM     10  H3  UNL     1      15.338  -5.313   1.779  1.00  0.00     0.180 HD
HETATM   11  O2  UNL     1      14.799  -6.461   4.536  1.00  0.00    -0.205 OA
HETATM   12  O3  UNL     1      17.058  -5.420   4.506  1.00  0.00    -0.205 OA
HETATM   13  C9  UNL     1      16.882  -7.989   3.651  1.00  0.00     0.206 C 
HETATM   14  C10 UNL     1      17.374  -7.852   2.267  1.00  0.00     0.003 C 
BRANCH  14  15
HETATM   15  C11 UNL     1      18.425  -8.528   1.784  1.00  0.00     0.024 C 
BRANCH  15  16
HETATM   16  C12 UNL     1      19.425  -9.321   2.443  1.00  0.00     0.085 C 
HETATM   17 CL1  UNL     1      20.920  -9.709   1.668  1.00  0.00    -0.097 Cl
ENDBRANCH  15  16
ENDBRANCH  14  15
ENDBRANCH   4   7
BRANCH   6  18
HETATM   18  S2  UNL     1      19.453  -5.812  -2.575  1.00  0.00     0.154 S 
HETATM   19  O4  UNL     1      19.443  -5.235  -3.969  1.00  0.00    -0.227 OA
HETATM   20  O5  UNL     1      20.163  -4.818  -1.702  1.00  0.00    -0.227 OA
BRANCH  18  21
HETATM   21  C15 UNL     1      20.367  -7.301  -2.583  1.00  0.00     0.101 C 
HETATM   22  C16 UNL     1      21.701  -7.218  -3.277  1.00  0.00     0.026 C 
HETATM   23  C17 UNL     1      20.710  -7.604  -1.109  1.00  0.00     0.026 C 
ENDBRANCH  18  21
ENDBRANCH   6  18
BRANCH   1  24
HETATM   24  C4  UNL     1      16.517  -6.603  -4.080  1.00  0.00     0.225 C 
HETATM   25  N1  UNL     1      17.076  -6.891  -5.327  1.00  0.00    -0.356 N 
HETATM   26  C3  UNL     1      16.371  -6.388  -6.522  1.00  0.00     0.152 C 
HETATM   27  O1  UNL     1      15.455  -5.910  -4.032  1.00  0.00    -0.273 OA
BRANCH  25  28
HETATM   28  C2  UNL     1      18.273  -7.634  -5.587  1.00  0.00     0.120 C 
HETATM   29  C1  UNL     1      19.099  -7.125  -6.736  1.00  0.00     0.026 C 
ENDBRANCH  25  28
ENDBRANCH   1  24
TORSDOF 7
ENDMDL
MODEL 3
REMARK VINA RESULT: 1.332835117      3.913      8.639
REMARK  7 active torsions:
REMARK  status: ('A' for Active; 'I' for Inactive)
REMARK    1  A    between atoms: C2_2  and  N1_3 
REMARK       I    between atoms: N1_3  and  C4_5 
REMARK    2  A    between atoms: C4_5  and  C5_7 
REMARK    3  A    between atoms: N2_10  and  C8_11 
REMARK    4  A    between atoms: C10_18  and  C11_19 
REMARK    5  A    between atoms: C11_19  and  C12_20 
REMARK    6  A    between atoms: C14_23  and  S2_24 
REMARK    7  A    between atoms: S2_24  and  C15_27 
ROOT
HETATM    1  C5  UNL     1      18.702  -6.980  -2.423  1.00  0.00     0.099 C 
HETATM    2  C6  UNL     1      19.945  -7.666  -2.923  1.00  0.00     0.035 C 
HETATM    3  C7  UNL     1      20.510  -7.006  -4.193  1.00  0.00     0.125 C 
HETATM    4  N2  UNL     1      19.515  -6.930  -5.200  1.00  0.00    -0.365 N 
HETATM    5  C13 UNL     1      18.141  -6.742  -4.809  1.00  0.00     0.145 C 
HETATM    6  C14 UNL     1      18.019  -6.110  -3.430  1.00  0.00     0.140 C 
ENDROOT
BRANCH   4   7
HETATM    7  C8  UNL     1      19.777  -7.026  -6.623  1.00  0.00     0.120 C 
HETATM    8  N3  UNL     1      20.575  -7.859  -7.162  1.00  0.00    -0.269 N 
HETATM    9  S1  UNL     1      20.611  -7.663  -8.859  1.00  0.00     0.236 S 
ATOM     10  H3  UNL     1      21.121  -8.551  -6.648  1.00  0.00     0.180 HD
HETATM   11  O2  UNL     1      20.413  -8.944  -9.573  1.00  0.00    -0.205 OA
HETATM   12  O3  UNL     1      21.809  -6.899  -9.333  1.00  0.00    -0.205 OA
HETATM   13  C9  UNL     1      19.136  -6.610  -8.960  1.00  0.00     0.206 C 
HETATM   14  C10 UNL     1      19.104  -6.118  -7.570  1.00  0.00     0.003 C 
BRANCH  14  15
HETATM   15  C11 UNL     1      18.546  -4.956  -7.207  1.00  0.00     0.024 C 
BRANCH  15  16
HETATM   16  C12 UNL     1      19.052  -3.869  -6.417  1.00  0.00     0.085 C 
HETATM   17 CL1  UNL     1      19.402  -2.331  -7.124  1.00  0.00    -0.097 Cl
ENDBRANCH  15  16
ENDBRANCH  14  15
ENDBRANCH   4   7
BRANCH   6  18
HETATM   18  S2  UNL     1      16.255  -6.173  -3.085  1.00  0.00     0.154 S 
HETATM   19  O4  UNL     1      15.711  -4.770  -2.973  1.00  0.00    -0.227 OA
HETATM   20  O5  UNL     1      15.546  -6.820  -4.239  1.00  0.00    -0.227 OA
BRANCH  18  21
HETATM   21  C15 UNL     1      15.864  -7.052  -1.626  1.00  0.00     0.101 C 
HETATM   22  C16 UNL     1      15.594  -6.188  -0.422  1.00  0.00     0.026 C 
HETATM   23  C17 UNL     1      14.525  -7.769  -1.902  1.00  0.00     0.026 C 
ENDBRANCH  18  21
ENDBRANCH   6  18
BRANCH   1  24
HETATM   24  C4  UNL     1      19.045  -6.288  -1.156  1.00  0.00     0.225 C 
HETATM   25  N1  UNL     1      18.842  -6.893   0.086  1.00  0.00    -0.356 N 
HETATM   26  C3  UNL     1      19.243  -6.134   1.287  1.00  0.00     0.152 C 
HETATM   27  O1  UNL     1      19.536  -5.119  -1.194  1.00  0.00    -0.273 OA
BRANCH  25  28
HETATM   28  C2  UNL     1      18.283  -8.188   0.337  1.00  0.00     0.120 C 
HETATM   29  C1  UNL     1      17.683  -8.366   1.704  1.00  0.00     0.026 C 
ENDBRANCH  25  28
ENDBRANCH   1  24
TORSDOF 7
ENDMDL
MODEL 4
REMARK VINA RESULT: 2.402244113      3.869      8.158
REMARK  7 active torsions:
REMARK  status: ('A' for Active; 'I' for Inactive)
REMARK    1  A    between atoms: C2_2  and  N1_3 
REMARK       I    between atoms: N1_3  and  C4_5 
REMARK    2  A    between atoms: C4_5  and  C5_7 
REMARK    3  A    between atoms: N2_10  and  C8_11 
REMARK    4  A    between atoms: C10_18  and  C11_19 
REMARK    5  A    between atoms: C11_19  and  C12_20 
REMARK    6  A    between atoms: C14_23  and  S2_24 
REMARK    7  A    between atoms: S2_24  and  C15_27 
ROOT
HETATM    1  C5  UNL     1      16.847  -6.576  -3.098  1.00  0.00     0.099 C 
HETATM    2  C6  UNL     1      16.381  -5.979  -4.399  1.00  0.00     0.035 C 
HETATM    3  C7  UNL     1      16.861  -6.782  -5.620  1.00  0.00     0.125 C 
HETATM    4  N2  UNL     1      18.270  -6.938  -5.592  1.00  0.00    -0.365 N 
HETATM    5  C13 UNL     1      18.934  -7.047  -4.318  1.00  0.00     0.145 C 
HETATM    6  C14 UNL     1      17.994  -7.528  -3.222  1.00  0.00     0.140 C 
ENDROOT
BRANCH   4   7
HETATM    7  C8  UNL     1      19.114  -6.998  -6.770  1.00  0.00     0.120 C 
HETATM    8  N3  UNL     1      19.515  -8.071  -7.325  1.00  0.00    -0.269 N 
HETATM    9  S1  UNL     1      20.487  -7.730  -8.688  1.00  0.00     0.236 S 
ATOM     10  H3  UNL     1      19.285  -9.011  -6.999  1.00  0.00     0.180 HD
HETATM   11  O2  UNL     1      20.050  -8.479  -9.888  1.00  0.00    -0.205 OA
HETATM   12  O3  UNL     1      21.952  -7.864  -8.407  1.00  0.00    -0.205 OA
HETATM   13  C9  UNL     1      20.046  -5.973  -8.802  1.00  0.00     0.206 C 
HETATM   14  C10 UNL     1      19.581  -5.759  -7.419  1.00  0.00     0.003 C 
BRANCH  14  15
HETATM   15  C11 UNL     1      19.604  -4.569  -6.805  1.00  0.00     0.024 C 
BRANCH  15  16
HETATM   16  C12 UNL     1      18.993  -3.315  -7.148  1.00  0.00     0.085 C 
HETATM   17 CL1  UNL     1      19.814  -1.815  -6.896  1.00  0.00    -0.097 Cl
ENDBRANCH  15  16
ENDBRANCH  14  15
ENDBRANCH   4   7
BRANCH   6  18
HETATM   18  S2  UNL     1      18.975  -7.383  -1.722  1.00  0.00     0.154 S 
HETATM   19  O4  UNL     1      18.940  -5.956  -1.231  1.00  0.00    -0.227 OA
HETATM   20  O5  UNL     1      18.362  -8.226  -0.643  1.00  0.00    -0.227 OA
BRANCH  18  21
HETATM   21  C15 UNL     1      20.640  -7.870  -1.932  1.00  0.00     0.101 C 
HETATM   22  C16 UNL     1      21.447  -6.983  -2.844  1.00  0.00     0.026 C 
HETATM   23  C17 UNL     1      21.310  -7.721  -0.549  1.00  0.00     0.026 C 
ENDBRANCH  18  21
ENDBRANCH   6  18
BRANCH   1  24
HETATM   24  C4  UNL     1      15.661  -7.140  -2.408  1.00  0.00     0.225 C 
HETATM   25  N1  UNL     1      15.393  -6.860  -1.067  1.00  0.00    -0.356 N 
HETATM   26  C3  UNL     1      14.171  -7.446  -0.480  1.00  0.00     0.152 C 
HETATM   27  O1  UNL     1      14.865  -7.895  -3.046  1.00  0.00    -0.273 OA
BRANCH  25  28
HETATM   28  C2  UNL     1      16.175  -6.054  -0.178  1.00  0.00     0.120 C 
HETATM   29  C1  UNL     1      16.380  -6.636   1.193  1.00  0.00     0.026 C 
ENDBRANCH  25  28
ENDBRANCH   1  24
TORSDOF 7
ENDMDL
MODEL 5
REMARK VINA RESULT: 2.842859679      1.661      3.211
REMARK  7 active torsions:
REMARK  status: ('A' for Active; 'I' for Inactive)
REMARK    1  A    between atoms: C2_2  and  N1_3 
REMARK       I    between atoms: N1_3  and  C4_5 
REMARK    2  A    between atoms: C4_5  and  C5_7 
REMARK    3  A    between atoms: N2_10  and  C8_11 
REMARK    4  A    between atoms: C10_18  and  C11_19 
REMARK    5  A    between atoms: C11_19  and  C12_20 
REMARK    6  A    between atoms: C14_23  and  S2_24 
REMARK    7  A    between atoms: S2_24  and  C15_27 
ROOT
HETATM    1  C5  UNL     1      18.713  -6.176  -2.547  1.00  0.00     0.099 C 
HETATM    2  C6  UNL     1      19.530  -5.748  -1.358  1.00  0.00     0.035 C 
HETATM    3  C7  UNL     1      19.278  -6.631  -0.123  1.00  0.00     0.125 C 
HETATM    4  N2  UNL     1      17.894  -6.677   0.183  1.00  0.00    -0.365 N 
HETATM    5  C13 UNL     1      16.939  -6.609  -0.893  1.00  0.00     0.145 C 
HETATM    6  C14 UNL     1      17.541  -7.047  -2.221  1.00  0.00     0.140 C 
ENDROOT
BRANCH   4   7
HETATM    7  C8  UNL     1      17.353  -6.790   1.524  1.00  0.00     0.120 C 
HETATM    8  N3  UNL     1      16.700  -5.877   2.125  1.00  0.00    -0.269 N 
HETATM    9  S1  UNL     1      16.227  -6.389   3.686  1.00  0.00     0.236 S 
ATOM     10  H3  UNL     1      16.487  -4.962   1.728  1.00  0.00     0.180 HD
HETATM   11  O2  UNL     1      14.785  -6.165   3.934  1.00  0.00    -0.205 OA
HETATM   12  O3  UNL     1      17.107  -5.844   4.769  1.00  0.00    -0.205 OA
HETATM   13  C9  UNL     1      16.594  -8.148   3.429  1.00  0.00     0.206 C 
HETATM   14  C10 UNL     1      17.540  -8.027   2.304  1.00  0.00     0.003 C 
BRANCH  14  15
HETATM   15  C11 UNL     1      18.489  -8.933   2.032  1.00  0.00     0.024 C 
BRANCH  15  16
HETATM   16  C12 UNL     1      19.597  -9.406   2.814  1.00  0.00     0.085 C 
HETATM   17 CL1  UNL     1      21.057  -9.952   2.068  1.00  0.00    -0.097 Cl
ENDBRANCH  15  16
ENDBRANCH  14  15
ENDBRANCH   4   7
BRANCH   6  18
HETATM   18  S2  UNL     1      16.250  -6.679  -3.418  1.00  0.00     0.154 S 
HETATM   19  O4  UNL     1      15.011  -7.474  -3.085  1.00  0.00    -0.227 OA
HETATM   20  O5  UNL     1      15.873  -5.230  -3.313  1.00  0.00    -0.227 OA
BRANCH  18  21
HETATM   21  C15 UNL     1      16.715  -7.017  -5.067  1.00  0.00     0.101 C 
HETATM   22  C16 UNL     1      16.837  -8.481  -5.402  1.00  0.00     0.026 C 
HETATM   23  C17 UNL     1      15.559  -6.508  -5.954  1.00  0.00     0.026 C 
ENDBRANCH  18  21
ENDBRANCH   6  18
BRANCH   1  24
HETATM   24  C4  UNL     1      19.640  -6.757  -3.549  1.00  0.00     0.225 C 
HETATM   25  N1  UNL     1      19.648  -6.322  -4.876  1.00  0.00    -0.356 N 
HETATM   26  C3  UNL     1      20.629  -6.941  -5.789  1.00  0.00     0.152 C 
HETATM   27  O1  UNL     1      20.449  -7.669  -3.200  1.00  0.00    -0.273 OA
BRANCH  25  28
HETATM   28  C2  UNL     1      18.804  -5.326  -5.466  1.00  0.00     0.120 C 
HETATM   29  C1  UNL     1      19.064  -5.054  -6.921  1.00  0.00     0.026 C 
ENDBRANCH  25  28
ENDBRANCH   1  24
TORSDOF 7
ENDMDL
