MODEL 1
REMARK VINA RESULT: -3.910453259      0.000      0.000
REMARK  7 active torsions:
REMARK  status: ('A' for Active; 'I' for Inactive)
REMARK    1  A    between atoms: C2_2  and  C3_3 
REMARK    2  A    between atoms: C2_2  and  C17_19 
REMARK    3  A    between atoms: C3_3  and  N1_4 
REMARK    4  A    between atoms: N1_4  and  C4_5 
REMARK    5  A    between atoms: N1_4  and  C11_13 
REMARK    6  A    between atoms: C4_5  and  C5_6 
REMARK    7  A    between atoms: C5_6  and  N2_7 
ROOT
HETATM    1  N1  UNL     1      17.933  -5.977  -2.556  1.00  0.00    -0.362 N 
ENDROOT
BRANCH   1   2
HETATM    2  C3  UNL     1      17.123  -5.893  -3.658  1.00  0.00     0.102 C 
BRANCH   2   3
HETATM    3  C2  UNL     1      17.321  -6.728  -4.851  1.00  0.00    -0.009 C 
HETATM    4  C1  UNL     1      16.691  -7.851  -5.071  1.00  0.00     0.026 C 
BRANCH   3   5
HETATM    5  C17 UNL     1      18.280  -6.296  -5.852  1.00  0.00     0.040 C 
HETATM    6 CL1  UNL     1      18.668  -4.602  -6.035  1.00  0.00    -0.084 Cl
HETATM    7  C18 UNL     1      18.870  -7.166  -6.632  1.00  0.00    -0.006 C 
HETATM    8  C19 UNL     1      19.865  -6.702  -7.668  1.00  0.00     0.038 C 
ENDBRANCH   3   5
ENDBRANCH   2   3
ENDBRANCH   1   2
BRANCH   1   9
HETATM    9  C4  UNL     1      17.617  -5.662  -1.251  1.00  0.00     0.105 C 
BRANCH   9  10
HETATM   10  C5  UNL     1      16.670  -6.509  -0.446  1.00  0.00     0.190 A 
HETATM   11  C8  UNL     1      16.339  -7.884  -0.992  1.00  0.00     0.047 A 
HETATM   12  C9  UNL     1      14.888  -7.521  -0.951  1.00  0.00     0.006 A 
HETATM   13  C10 UNL     1      15.257  -6.104  -0.491  1.00  0.00     0.047 A 
BRANCH  10  14
HETATM   14  N2  UNL     1      17.282  -6.742   0.868  1.00  0.00     0.094 N 
HETATM   15  C6  UNL     1      17.834  -8.079   0.831  1.00  0.00     0.310 C 
HETATM   16  C7  UNL     1      16.384  -6.631   1.959  1.00  0.00     0.310 C 
ENDBRANCH  10  14
ENDBRANCH   9  10
ENDBRANCH   1   9
BRANCH   1  17
HETATM   17  C11 UNL     1      19.205  -6.644  -2.728  1.00  0.00     0.088 C 
HETATM   18  C12 UNL     1      19.557  -7.589  -1.649  1.00  0.00     0.026 C 
HETATM   19  C13 UNL     1      20.721  -8.467  -2.085  1.00  0.00     0.002 C 
HETATM   20  C14 UNL     1      21.864  -7.650  -2.617  1.00  0.00     0.000 C 
HETATM   21  C15 UNL     1      21.446  -6.679  -3.667  1.00  0.00     0.002 C 
HETATM   22  C16 UNL     1      20.363  -5.764  -3.070  1.00  0.00     0.026 C 
ENDBRANCH   1  17
TORSDOF 7
ENDMDL
MODEL 2
REMARK VINA RESULT: -3.769580588      1.510      4.688
REMARK  7 active torsions:
REMARK  status: ('A' for Active; 'I' for Inactive)
REMARK    1  A    between atoms: C2_2  and  C3_3 
REMARK    2  A    between atoms: C2_2  and  C17_19 
REMARK    3  A    between atoms: C3_3  and  N1_4 
REMARK    4  A    between atoms: N1_4  and  C4_5 
REMARK    5  A    between atoms: N1_4  and  C11_13 
REMARK    6  A    between atoms: C4_5  and  C5_6 
REMARK    7  A    between atoms: C5_6  and  N2_7 
ROOT
HETATM    1  N1  UNL     1      17.840  -6.237  -0.589  1.00  0.00    -0.362 N 
ENDROOT
BRANCH   1   2
HETATM    2  C3  UNL     1      16.738  -5.809  -1.283  1.00  0.00     0.102 C 
BRANCH   2   3
HETATM    3  C2  UNL     1      16.042  -6.654  -2.263  1.00  0.00    -0.009 C 
HETATM    4  C1  UNL     1      15.144  -7.549  -1.950  1.00  0.00     0.026 C 
BRANCH   3   5
HETATM    5  C17 UNL     1      16.370  -6.504  -3.669  1.00  0.00     0.040 C 
HETATM    6 CL1  UNL     1      16.374  -4.923  -4.414  1.00  0.00    -0.084 Cl
HETATM    7  C18 UNL     1      16.669  -7.547  -4.401  1.00  0.00    -0.006 C 
HETATM    8  C19 UNL     1      17.008  -7.375  -5.862  1.00  0.00     0.038 C 
ENDBRANCH   3   5
ENDBRANCH   2   3
ENDBRANCH   1   2
BRANCH   1   9
HETATM    9  C4  UNL     1      19.167  -6.065  -0.923  1.00  0.00     0.105 C 
BRANCH   9  10
HETATM   10  C5  UNL     1      19.811  -6.870  -2.018  1.00  0.00     0.190 A 
HETATM   11  C8  UNL     1      19.274  -8.267  -2.255  1.00  0.00     0.047 A 
HETATM   12  C9  UNL     1      20.656  -8.804  -2.051  1.00  0.00     0.006 A 
HETATM   13  C10 UNL     1      21.154  -7.390  -1.720  1.00  0.00     0.047 A 
BRANCH  10  14
HETATM   14  N2  UNL     1      19.612  -6.150  -3.282  1.00  0.00     0.094 N 
HETATM   15  C6  UNL     1      20.302  -6.912  -4.300  1.00  0.00     0.310 C 
HETATM   16  C7  UNL     1      20.099  -4.819  -3.278  1.00  0.00     0.310 C 
ENDBRANCH  10  14
ENDBRANCH   9  10
ENDBRANCH   1   9
BRANCH   1  17
HETATM   17  C11 UNL     1      17.613  -6.767   0.738  1.00  0.00     0.088 C 
HETATM   18  C12 UNL     1      18.089  -8.150   0.941  1.00  0.00     0.026 C 
HETATM   19  C13 UNL     1      18.110  -8.482   2.425  1.00  0.00     0.002 C 
HETATM   20  C14 UNL     1      16.801  -8.153   3.086  1.00  0.00     0.000 C 
HETATM   21  C15 UNL     1      16.343  -6.763   2.810  1.00  0.00     0.002 C 
HETATM   22  C16 UNL     1      16.234  -6.588   1.285  1.00  0.00     0.026 C 
ENDBRANCH   1  17
TORSDOF 7
ENDMDL
MODEL 3
REMARK VINA RESULT: -3.706743300      1.211      1.386
REMARK  7 active torsions:
REMARK  status: ('A' for Active; 'I' for Inactive)
REMARK    1  A    between atoms: C2_2  and  C3_3 
REMARK    2  A    between atoms: C2_2  and  C17_19 
REMARK    3  A    between atoms: C3_3  and  N1_4 
REMARK    4  A    between atoms: N1_4  and  C4_5 
REMARK    5  A    between atoms: N1_4  and  C11_13 
REMARK    6  A    between atoms: C4_5  and  C5_6 
REMARK    7  A    between atoms: C5_6  and  N2_7 
ROOT
HETATM    1  N1  UNL     1      18.015  -5.935  -1.702  1.00  0.00    -0.362 N 
ENDROOT
BRANCH   1   2
HETATM    2  C3  UNL     1      17.061  -5.550  -2.607  1.00  0.00     0.102 C 
BRANCH   2   3
HETATM    3  C2  UNL     1      16.509  -6.467  -3.614  1.00  0.00    -0.009 C 
HETATM    4  C1  UNL     1      15.416  -7.163  -3.449  1.00  0.00     0.026 C 
BRANCH   3   5
HETATM    5  C17 UNL     1      17.217  -6.628  -4.871  1.00  0.00     0.040 C 
HETATM    6 CL1  UNL     1      17.195  -8.159  -5.712  1.00  0.00    -0.084 Cl
HETATM    7  C18 UNL     1      17.881  -5.629  -5.396  1.00  0.00    -0.006 C 
HETATM    8  C19 UNL     1      18.612  -5.811  -6.704  1.00  0.00     0.038 C 
ENDBRANCH   3   5
ENDBRANCH   2   3
ENDBRANCH   1   2
BRANCH   1   9
HETATM    9  C4  UNL     1      17.923  -5.931  -0.326  1.00  0.00     0.105 C 
BRANCH   9  10
HETATM   10  C5  UNL     1      16.926  -6.795   0.396  1.00  0.00     0.190 A 
HETATM   11  C8  UNL     1      16.722  -8.201  -0.131  1.00  0.00     0.047 A 
HETATM   12  C9  UNL     1      15.261  -7.907  -0.272  1.00  0.00     0.006 A 
HETATM   13  C10 UNL     1      15.513  -6.459   0.173  1.00  0.00     0.047 A 
BRANCH  10  14
HETATM   14  N2  UNL     1      17.390  -6.954   1.781  1.00  0.00     0.094 N 
HETATM   15  C6  UNL     1      18.099  -8.214   1.832  1.00  0.00     0.310 C 
HETATM   16  C7  UNL     1      16.353  -6.956   2.747  1.00  0.00     0.310 C 
ENDBRANCH  10  14
ENDBRANCH   9  10
ENDBRANCH   1   9
BRANCH   1  17
HETATM   17  C11 UNL     1      19.189  -6.597  -2.230  1.00  0.00     0.088 C 
HETATM   18  C12 UNL     1      19.929  -7.416  -1.249  1.00  0.00     0.026 C 
HETATM   19  C13 UNL     1      20.922  -8.318  -1.967  1.00  0.00     0.002 C 
HETATM   20  C14 UNL     1      21.778  -7.544  -2.931  1.00  0.00     0.000 C 
HETATM   21  C15 UNL     1      20.984  -6.698  -3.865  1.00  0.00     0.002 C 
HETATM   22  C16 UNL     1      20.119  -5.741  -3.026  1.00  0.00     0.026 C 
ENDBRANCH   1  17
TORSDOF 7
ENDMDL
MODEL 4
REMARK VINA RESULT: -3.080401142      1.939      5.474
REMARK  7 active torsions:
REMARK  status: ('A' for Active; 'I' for Inactive)
REMARK    1  A    between atoms: C2_2  and  C3_3 
REMARK    2  A    between atoms: C2_2  and  C17_19 
REMARK    3  A    between atoms: C3_3  and  N1_4 
REMARK    4  A    between atoms: N1_4  and  C4_5 
REMARK    5  A    between atoms: N1_4  and  C11_13 
REMARK    6  A    between atoms: C4_5  and  C5_6 
REMARK    7  A    between atoms: C5_6  and  N2_7 
ROOT
HETATM    1  N1  UNL     1      17.594  -6.020  -2.594  1.00  0.00    -0.362 N 
ENDROOT
BRANCH   1   2
HETATM    2  C3  UNL     1      17.082  -5.629  -1.384  1.00  0.00     0.102 C 
BRANCH   2   3
HETATM    3  C2  UNL     1      16.312  -6.535  -0.520  1.00  0.00    -0.009 C 
HETATM    4  C1  UNL     1      15.178  -7.084  -0.863  1.00  0.00     0.026 C 
BRANCH   3   5
HETATM    5  C17 UNL     1      16.826  -6.839   0.803  1.00  0.00     0.040 C 
HETATM    6 CL1  UNL     1      18.472  -6.437   1.228  1.00  0.00    -0.084 Cl
HETATM    7  C18 UNL     1      16.067  -7.418   1.698  1.00  0.00    -0.006 C 
HETATM    8  C19 UNL     1      16.615  -7.729   3.069  1.00  0.00     0.038 C 
ENDBRANCH   3   5
ENDBRANCH   2   3
ENDBRANCH   1   2
BRANCH   1   9
HETATM    9  C4  UNL     1      17.130  -5.695  -3.851  1.00  0.00     0.105 C 
BRANCH   9  10
HETATM   10  C5  UNL     1      17.558  -6.466  -5.069  1.00  0.00     0.190 A 
HETATM   11  C8  UNL     1      16.641  -6.419  -6.274  1.00  0.00     0.047 A 
HETATM   12  C9  UNL     1      16.579  -7.914  -6.253  1.00  0.00     0.006 A 
HETATM   13  C10 UNL     1      17.431  -7.928  -4.975  1.00  0.00     0.047 A 
BRANCH  10  14
HETATM   14  N2  UNL     1      18.839  -5.910  -5.525  1.00  0.00     0.094 N 
HETATM   15  C6  UNL     1      18.534  -4.647  -6.160  1.00  0.00     0.310 C 
HETATM   16  C7  UNL     1      19.545  -6.738  -6.433  1.00  0.00     0.310 C 
ENDBRANCH  10  14
ENDBRANCH   9  10
ENDBRANCH   1   9
BRANCH   1  17
HETATM   17  C11 UNL     1      18.873  -6.696  -2.576  1.00  0.00     0.088 C 
HETATM   18  C12 UNL     1      18.970  -7.807  -1.608  1.00  0.00     0.026 C 
HETATM   19  C13 UNL     1      20.204  -8.647  -1.901  1.00  0.00     0.002 C 
HETATM   20  C14 UNL     1      21.438  -7.797  -2.024  1.00  0.00     0.000 C 
HETATM   21  C15 UNL     1      21.270  -6.663  -2.976  1.00  0.00     0.002 C 
HETATM   22  C16 UNL     1      20.077  -5.814  -2.503  1.00  0.00     0.026 C 
ENDBRANCH   1  17
TORSDOF 7
ENDMDL
MODEL 5
REMARK VINA RESULT: -3.003900458      1.630      4.597
REMARK  7 active torsions:
REMARK  status: ('A' for Active; 'I' for Inactive)
REMARK    1  A    between atoms: C2_2  and  C3_3 
REMARK    2  A    between atoms: C2_2  and  C17_19 
REMARK    3  A    between atoms: C3_3  and  N1_4 
REMARK    4  A    between atoms: N1_4  and  C4_5 
REMARK    5  A    between atoms: N1_4  and  C11_13 
REMARK    6  A    between atoms: C4_5  and  C5_6 
REMARK    7  A    between atoms: C5_6  and  N2_7 
ROOT
HETATM    1  N1  UNL     1      17.764  -6.212  -0.940  1.00  0.00    -0.362 N 
ENDROOT
BRANCH   1   2
HETATM    2  C3  UNL     1      16.670  -5.873  -1.693  1.00  0.00     0.102 C 
BRANCH   2   3
HETATM    3  C2  UNL     1      16.125  -6.751  -2.737  1.00  0.00    -0.009 C 
HETATM    4  C1  UNL     1      15.132  -7.579  -2.551  1.00  0.00     0.026 C 
BRANCH   3   5
HETATM    5  C17 UNL     1      16.722  -6.714  -4.060  1.00  0.00     0.040 C 
HETATM    6 CL1  UNL     1      16.803  -8.160  -5.037  1.00  0.00    -0.084 Cl
HETATM    7  C18 UNL     1      17.208  -5.599  -4.543  1.00  0.00    -0.006 C 
HETATM    8  C19 UNL     1      17.826  -5.576  -5.919  1.00  0.00     0.038 C 
ENDBRANCH   3   5
ENDBRANCH   2   3
ENDBRANCH   1   2
BRANCH   1   9
HETATM    9  C4  UNL     1      19.092  -5.977  -1.227  1.00  0.00     0.105 C 
BRANCH   9  10
HETATM   10  C5  UNL     1      19.915  -6.971  -1.999  1.00  0.00     0.190 A 
HETATM   11  C8  UNL     1      19.242  -8.272  -2.388  1.00  0.00     0.047 A 
HETATM   12  C9  UNL     1      20.335  -9.016  -1.688  1.00  0.00     0.006 A 
HETATM   13  C10 UNL     1      20.943  -7.684  -1.227  1.00  0.00     0.047 A 
BRANCH  10  14
HETATM   14  N2  UNL     1      20.314  -6.338  -3.263  1.00  0.00     0.094 N 
HETATM   15  C6  UNL     1      21.671  -6.766  -3.525  1.00  0.00     0.310 C 
HETATM   16  C7  UNL     1      20.259  -4.922  -3.250  1.00  0.00     0.310 C 
ENDBRANCH  10  14
ENDBRANCH   9  10
ENDBRANCH   1   9
BRANCH   1  17
HETATM   17  C11 UNL     1      17.510  -6.705   0.397  1.00  0.00     0.088 C 
HETATM   18  C12 UNL     1      17.938  -8.099   0.632  1.00  0.00     0.026 C 
HETATM   19  C13 UNL     1      17.938  -8.399   2.123  1.00  0.00     0.002 C 
HETATM   20  C14 UNL     1      16.637  -8.012   2.768  1.00  0.00     0.000 C 
HETATM   21  C15 UNL     1      16.229  -6.613   2.460  1.00  0.00     0.002 C 
HETATM   22  C16 UNL     1      16.135  -6.467   0.931  1.00  0.00     0.026 C 
ENDBRANCH   1  17
TORSDOF 7
ENDMDL
