MODEL 1
REMARK VINA RESULT: -2.213593074      0.000      0.000
REMARK  4 active torsions:
REMARK  status: ('A' for Active; 'I' for Inactive)
REMARK    1  A    between atoms: C2_2  and  C3_3 
REMARK    2  A    between atoms: C8_9  and  C9_10 
REMARK    3  A    between atoms: N1_16  and  C15_17 
REMARK    4  A    between atoms: C15_17  and  C16_18 
ROOT
HETATM    1  C9  UNL     1      19.013  -6.090  -2.583  1.00  0.00     0.122 C 
HETATM    2  C10 UNL     1      20.155  -6.811  -3.111  1.00  0.00     0.030 C 
HETATM    3  C11 UNL     1      20.649  -8.110  -2.714  1.00  0.00     0.003 C 
HETATM    4  C12 UNL     1      21.699  -7.881  -1.603  1.00  0.00     0.005 C 
HETATM    5  C13 UNL     1      21.093  -6.875  -0.669  1.00  0.00     0.044 C 
HETATM    6  C14 UNL     1      19.626  -7.233  -0.545  1.00  0.00     0.064 C 
HETATM    7  N1  UNL     1      18.718  -6.381  -1.187  1.00  0.00    -0.360 N 
ENDROOT
BRANCH   1   8
HETATM    8  C8  UNL     1      17.812  -6.425  -3.391  1.00  0.00    -0.027 A 
HETATM    9  C3  UNL     1      17.779  -5.926  -4.707  1.00  0.00    -0.050 A 
HETATM   10  C4  UNL     1      16.627  -6.018  -5.421  1.00  0.00     0.009 A 
HETATM   11  C5  UNL     1      15.449  -6.591  -4.914  1.00  0.00     0.024 A 
HETATM   12  C6  UNL     1      15.519  -7.066  -3.635  1.00  0.00     0.034 A 
HETATM   13 CL1  UNL     1      14.038  -7.785  -2.966  1.00  0.00    -0.084 Cl
HETATM   14  C7  UNL     1      16.669  -6.999  -2.868  1.00  0.00     0.033 A 
BRANCH   9  15
HETATM   15  C2  UNL     1      19.039  -5.438  -5.299  1.00  0.00     0.035 C 
HETATM   16  C1  UNL     1      19.160  -5.929  -6.733  1.00  0.00     0.010 C 
ENDBRANCH   9  15
ENDBRANCH   1   8
BRANCH   7  17
HETATM   17  C15 UNL     1      17.456  -6.186  -0.687  1.00  0.00     0.103 C 
BRANCH  17  18
HETATM   18  C16 UNL     1      16.977  -6.948   0.489  1.00  0.00    -0.008 A 
HETATM   19  C17 UNL     1      17.060  -6.478   1.733  1.00  0.00     0.006 A 
HETATM   20  C18 UNL     1      16.506  -7.443   2.673  1.00  0.00     0.147 A 
HETATM   21  N2  UNL     1      16.071  -8.532   1.839  1.00  0.00    -0.395 N 
HETATM   22  C19 UNL     1      16.349  -8.237   0.631  1.00  0.00     0.095 A 
ATOM     23  H2  UNL     1      15.619  -9.389   2.158  1.00  0.00     0.159 HD
ENDBRANCH  17  18
ENDBRANCH   7  17
TORSDOF 4
ENDMDL
MODEL 2
REMARK VINA RESULT: -1.098179715      1.573      2.568
REMARK  4 active torsions:
REMARK  status: ('A' for Active; 'I' for Inactive)
REMARK    1  A    between atoms: C2_2  and  C3_3 
REMARK    2  A    between atoms: C8_9  and  C9_10 
REMARK    3  A    between atoms: N1_16  and  C15_17 
REMARK    4  A    between atoms: C15_17  and  C16_18 
ROOT
HETATM    1  C9  UNL     1      19.169  -6.150  -2.206  1.00  0.00     0.122 C 
HETATM    2  C10 UNL     1      20.375  -5.830  -2.945  1.00  0.00     0.030 C 
HETATM    3  C11 UNL     1      21.275  -6.740  -3.617  1.00  0.00     0.003 C 
HETATM    4  C12 UNL     1      22.373  -7.131  -2.602  1.00  0.00     0.005 C 
HETATM    5  C13 UNL     1      21.655  -7.431  -1.319  1.00  0.00     0.044 C 
HETATM    6  C14 UNL     1      20.389  -8.172  -1.699  1.00  0.00     0.064 C 
HETATM    7  N1  UNL     1      19.188  -7.462  -1.575  1.00  0.00    -0.360 N 
ENDROOT
BRANCH   1   8
HETATM    8  C8  UNL     1      18.005  -6.094  -3.128  1.00  0.00    -0.027 A 
HETATM    9  C3  UNL     1      16.747  -5.866  -2.541  1.00  0.00    -0.050 A 
HETATM   10  C4  UNL     1      15.628  -6.012  -3.296  1.00  0.00     0.009 A 
HETATM   11  C5  UNL     1      15.654  -6.383  -4.651  1.00  0.00     0.024 A 
HETATM   12  C6  UNL     1      16.893  -6.595  -5.187  1.00  0.00     0.034 A 
HETATM   13 CL1  UNL     1      16.953  -7.078  -6.896  1.00  0.00    -0.084 Cl
HETATM   14  C7  UNL     1      18.062  -6.456  -4.460  1.00  0.00     0.033 A 
BRANCH   9  15
HETATM   15  C2  UNL     1      16.706  -5.353  -1.158  1.00  0.00     0.035 C 
HETATM   16  C1  UNL     1      15.445  -5.844  -0.462  1.00  0.00     0.010 C 
ENDBRANCH   9  15
ENDBRANCH   1   8
BRANCH   7  17
HETATM   17  C15 UNL     1      18.015  -8.103  -1.268  1.00  0.00     0.103 C 
BRANCH  17  18
HETATM   18  C16 UNL     1      17.546  -8.203   0.134  1.00  0.00    -0.008 A 
HETATM   19  C17 UNL     1      18.330  -7.926   1.175  1.00  0.00     0.006 A 
HETATM   20  C18 UNL     1      17.595  -8.107   2.419  1.00  0.00     0.147 A 
HETATM   21  N2  UNL     1      16.280  -8.508   1.992  1.00  0.00    -0.395 N 
HETATM   22  C19 UNL     1      16.280  -8.561   0.720  1.00  0.00     0.095 A 
ATOM     23  H2  UNL     1      15.488  -8.714   2.601  1.00  0.00     0.159 HD
ENDBRANCH  17  18
ENDBRANCH   7  17
TORSDOF 4
ENDMDL
MODEL 3
REMARK VINA RESULT: -0.628206263      0.954      1.186
REMARK  4 active torsions:
REMARK  status: ('A' for Active; 'I' for Inactive)
REMARK    1  A    between atoms: C2_2  and  C3_3 
REMARK    2  A    between atoms: C8_9  and  C9_10 
REMARK    3  A    between atoms: N1_16  and  C15_17 
REMARK    4  A    between atoms: C15_17  and  C16_18 
ROOT
HETATM    1  C9  UNL     1      19.006  -6.268  -2.301  1.00  0.00     0.122 C 
HETATM    2  C10 UNL     1      20.121  -6.043  -3.201  1.00  0.00     0.030 C 
HETATM    3  C11 UNL     1      21.060  -7.015  -3.714  1.00  0.00     0.003 C 
HETATM    4  C12 UNL     1      22.258  -7.053  -2.738  1.00  0.00     0.005 C 
HETATM    5  C13 UNL     1      21.662  -7.085  -1.362  1.00  0.00     0.044 C 
HETATM    6  C14 UNL     1      20.455  -7.997  -1.438  1.00  0.00     0.064 C 
HETATM    7  N1  UNL     1      19.199  -7.378  -1.379  1.00  0.00    -0.360 N 
ENDROOT
BRANCH   1   8
HETATM    8  C8  UNL     1      17.783  -6.536  -3.101  1.00  0.00    -0.027 A 
HETATM    9  C3  UNL     1      17.738  -5.974  -4.391  1.00  0.00    -0.050 A 
HETATM   10  C4  UNL     1      16.572  -6.005  -5.086  1.00  0.00     0.009 A 
HETATM   11  C5  UNL     1      15.389  -6.574  -4.585  1.00  0.00     0.024 A 
HETATM   12  C6  UNL     1      15.470  -7.110  -3.331  1.00  0.00     0.034 A 
HETATM   13 CL1  UNL     1      13.985  -7.825  -2.668  1.00  0.00    -0.084 Cl
HETATM   14  C7  UNL     1      16.636  -7.107  -2.584  1.00  0.00     0.033 A 
BRANCH   9  15
HETATM   15  C2  UNL     1      18.998  -5.489  -4.984  1.00  0.00     0.035 C 
HETATM   16  C1  UNL     1      18.943  -5.622  -6.498  1.00  0.00     0.010 C 
ENDBRANCH   9  15
ENDBRANCH   1   8
BRANCH   7  17
HETATM   17  C15 UNL     1      18.120  -8.017  -0.823  1.00  0.00     0.103 C 
BRANCH  17  18
HETATM   18  C16 UNL     1      17.631  -7.651   0.526  1.00  0.00    -0.008 A 
HETATM   19  C17 UNL     1      16.593  -8.256   1.101  1.00  0.00     0.006 A 
HETATM   20  C18 UNL     1      16.350  -7.690   2.421  1.00  0.00     0.147 A 
HETATM   21  N2  UNL     1      17.376  -6.691   2.566  1.00  0.00    -0.395 N 
HETATM   22  C19 UNL     1      18.070  -6.684   1.498  1.00  0.00     0.095 A 
ATOM     23  H2  UNL     1      17.522  -6.094   3.380  1.00  0.00     0.159 HD
ENDBRANCH  17  18
ENDBRANCH   7  17
TORSDOF 4
ENDMDL
MODEL 4
REMARK VINA RESULT: -0.035753679      2.513      3.329
REMARK  4 active torsions:
REMARK  status: ('A' for Active; 'I' for Inactive)
REMARK    1  A    between atoms: C2_2  and  C3_3 
REMARK    2  A    between atoms: C8_9  and  C9_10 
REMARK    3  A    between atoms: N1_16  and  C15_17 
REMARK    4  A    between atoms: C15_17  and  C16_18 
ROOT
HETATM    1  C9  UNL     1      19.548  -6.062  -3.508  1.00  0.00     0.122 C 
HETATM    2  C10 UNL     1      20.959  -6.276  -3.249  1.00  0.00     0.030 C 
HETATM    3  C11 UNL     1      21.627  -7.517  -2.928  1.00  0.00     0.003 C 
HETATM    4  C12 UNL     1      21.643  -7.644  -1.388  1.00  0.00     0.005 C 
HETATM    5  C13 UNL     1      20.261  -7.275  -0.934  1.00  0.00     0.044 C 
HETATM    6  C14 UNL     1      19.303  -7.881  -1.938  1.00  0.00     0.064 C 
HETATM    7  N1  UNL     1      18.668  -6.990  -2.813  1.00  0.00    -0.360 N 
ENDROOT
BRANCH   1   8
HETATM    8  C8  UNL     1      19.298  -6.188  -4.967  1.00  0.00    -0.027 A 
HETATM    9  C3  UNL     1      18.046  -5.744  -5.432  1.00  0.00    -0.050 A 
HETATM   10  C4  UNL     1      17.677  -6.022  -6.709  1.00  0.00     0.009 A 
HETATM   11  C5  UNL     1      18.487  -6.739  -7.607  1.00  0.00     0.024 A 
HETATM   12  C6  UNL     1      19.695  -7.152  -7.121  1.00  0.00     0.034 A 
HETATM   13 CL1  UNL     1      20.732  -8.071  -8.233  1.00  0.00    -0.084 Cl
HETATM   14  C7  UNL     1      20.117  -6.891  -5.829  1.00  0.00     0.033 A 
BRANCH   9  15
HETATM   15  C2  UNL     1      17.239  -4.882  -4.547  1.00  0.00     0.035 C 
HETATM   16  C1  UNL     1      15.765  -5.228  -4.692  1.00  0.00     0.010 C 
ENDBRANCH   9  15
ENDBRANCH   1   8
BRANCH   7  17
HETATM   17  C15 UNL     1      17.408  -7.245  -3.291  1.00  0.00     0.103 C 
BRANCH  17  18
HETATM   18  C16 UNL     1      16.242  -7.288  -2.380  1.00  0.00    -0.008 A 
HETATM   19  C17 UNL     1      16.249  -6.719  -1.176  1.00  0.00     0.006 A 
HETATM   20  C18 UNL     1      14.967  -6.919  -0.516  1.00  0.00     0.147 A 
HETATM   21  N2  UNL     1      14.193  -7.661  -1.477  1.00  0.00    -0.395 N 
HETATM   22  C19 UNL     1      14.924  -7.859  -2.501  1.00  0.00     0.095 A 
ATOM     23  H2  UNL     1      13.229  -7.972  -1.360  1.00  0.00     0.159 HD
ENDBRANCH  17  18
ENDBRANCH   7  17
TORSDOF 4
ENDMDL
MODEL 5
REMARK VINA RESULT: 0.116084354      2.768      6.796
REMARK  4 active torsions:
REMARK  status: ('A' for Active; 'I' for Inactive)
REMARK    1  A    between atoms: C2_2  and  C3_3 
REMARK    2  A    between atoms: C8_9  and  C9_10 
REMARK    3  A    between atoms: N1_16  and  C15_17 
REMARK    4  A    between atoms: C15_17  and  C16_18 
ROOT
HETATM    1  C9  UNL     1      17.728  -5.881  -3.226  1.00  0.00     0.122 C 
HETATM    2  C10 UNL     1      16.499  -6.471  -2.731  1.00  0.00     0.030 C 
HETATM    3  C11 UNL     1      15.763  -7.588  -3.281  1.00  0.00     0.003 C 
HETATM    4  C12 UNL     1      14.723  -7.009  -4.267  1.00  0.00     0.005 C 
HETATM    5  C13 UNL     1      15.458  -5.985  -5.081  1.00  0.00     0.044 C 
HETATM    6  C14 UNL     1      16.830  -6.563  -5.362  1.00  0.00     0.064 C 
HETATM    7  N1  UNL     1      17.903  -5.991  -4.667  1.00  0.00    -0.360 N 
ENDROOT
BRANCH   1   8
HETATM    8  C8  UNL     1      18.884  -6.540  -2.565  1.00  0.00    -0.027 A 
HETATM    9  C3  UNL     1      18.745  -6.830  -1.195  1.00  0.00    -0.050 A 
HETATM   10  C4  UNL     1      19.832  -7.236  -0.490  1.00  0.00     0.009 A 
HETATM   11  C5  UNL     1      21.108  -7.386  -1.059  1.00  0.00     0.024 A 
HETATM   12  C6  UNL     1      21.205  -7.097  -2.391  1.00  0.00     0.034 A 
HETATM   13 CL1  UNL     1      22.811  -7.267  -3.132  1.00  0.00    -0.084 Cl
HETATM   14  C7  UNL     1      20.126  -6.683  -3.152  1.00  0.00     0.033 A 
BRANCH   9  15
HETATM   15  C2  UNL     1      17.390  -6.802  -0.610  1.00  0.00     0.035 C 
HETATM   16  C1  UNL     1      17.461  -7.127   0.874  1.00  0.00     0.010 C 
ENDBRANCH   9  15
ENDBRANCH   1   8
BRANCH   7  17
HETATM   17  C15 UNL     1      19.157  -5.937  -5.222  1.00  0.00     0.103 C 
BRANCH  17  18
HETATM   18  C16 UNL     1      19.401  -6.421  -6.600  1.00  0.00    -0.008 A 
HETATM   19  C17 UNL     1      20.290  -7.372  -6.881  1.00  0.00     0.006 A 
HETATM   20  C18 UNL     1      20.305  -7.641  -8.312  1.00  0.00     0.147 A 
HETATM   21  N2  UNL     1      19.308  -6.749  -8.844  1.00  0.00    -0.395 N 
HETATM   22  C19 UNL     1      18.825  -6.077  -7.875  1.00  0.00     0.095 A 
ATOM     23  H2  UNL     1      19.036  -6.668  -9.823  1.00  0.00     0.159 HD
ENDBRANCH  17  18
ENDBRANCH   7  17
TORSDOF 4
ENDMDL
