MODEL 1
REMARK VINA RESULT: -8.170173383      0.000      0.000
REMARK  5 active torsions:
REMARK  status: ('A' for Active; 'I' for Inactive)
REMARK    1  A    between atoms: C2_2  and  C3_3 
REMARK    2  A    between atoms: C3_3  and  C4_4 
REMARK    3  A    between atoms: C4_4  and  C5_5 
REMARK    4  A    between atoms: C5_5  and  C6_6 
REMARK    5  A    between atoms: C16_16  and  O1_17 
ROOT
HETATM    1  C6  UNL     1      61.614  47.733  28.612  1.00  0.00    -0.039 C 
HETATM    2  C7  UNL     1      61.770  47.427  30.072  1.00  0.00     0.015 C 
HETATM    3  C8  UNL     1      61.533  49.226  28.391  1.00  0.00     0.010 C 
HETATM    4  C9  UNL     1      62.553  49.556  27.312  1.00  0.00     0.006 C 
HETATM    5  C10 UNL     1      63.030  48.315  26.721  1.00  0.00    -0.004 C 
HETATM    6  C11 UNL     1      64.471  47.878  26.895  1.00  0.00     0.003 C 
HETATM    7  C12 UNL     1      65.442  48.944  26.990  1.00  0.00     0.006 C 
HETATM    8  C13 UNL     1      66.370  48.979  28.220  1.00  0.00     0.005 C 
HETATM    9  C14 UNL     1      66.124  47.691  28.843  1.00  0.00    -0.011 C 
HETATM   10  C15 UNL     1      66.838  47.106  29.970  1.00  0.00     0.040 C 
HETATM   11  C16 UNL     1      66.120  45.749  30.134  1.00  0.00     0.141 C 
HETATM   12  C17 UNL     1      65.565  45.155  28.911  1.00  0.00     0.001 C 
HETATM   13  C18 UNL     1      64.447  45.634  28.154  1.00  0.00    -0.018 C 
HETATM   14  C19 UNL     1      64.031  47.072  28.086  1.00  0.00    -0.014 C 
HETATM   15  C20 UNL     1      64.648  47.724  29.253  1.00  0.00     0.019 C 
HETATM   16  C21 UNL     1      62.637  47.242  27.702  1.00  0.00     0.011 C 
ENDROOT
BRANCH   1  17
HETATM   17  C5  UNL     1      60.242  47.182  28.203  1.00  0.00     0.010 C 
BRANCH  17  18
HETATM   18  C4  UNL     1      59.493  46.608  29.366  1.00  0.00     0.001 C 
BRANCH  18  19
HETATM   19  C3  UNL     1      58.043  47.026  29.305  1.00  0.00    -0.000 C 
BRANCH  19  20
HETATM   20  C2  UNL     1      57.796  48.090  28.286  1.00  0.00    -0.005 C 
HETATM   21  C1  UNL     1      56.497  48.824  28.615  1.00  0.00     0.005 C 
ENDBRANCH  19  20
ENDBRANCH  18  19
ENDBRANCH  17  18
ENDBRANCH   1  17
BRANCH  11  22
HETATM   22  O1  UNL     1      67.184  44.878  30.520  1.00  0.00    -0.392 OA
ATOM     23  H1  UNL     1      66.835  44.457  31.297  1.00  0.00     0.210 HD
ENDBRANCH  11  22
TORSDOF 5
ENDMDL
MODEL 2
REMARK VINA RESULT: -7.529996661      3.223      4.924
REMARK  5 active torsions:
REMARK  status: ('A' for Active; 'I' for Inactive)
REMARK    1  A    between atoms: C2_2  and  C3_3 
REMARK    2  A    between atoms: C3_3  and  C4_4 
REMARK    3  A    between atoms: C4_4  and  C5_5 
REMARK    4  A    between atoms: C5_5  and  C6_6 
REMARK    5  A    between atoms: C16_16  and  O1_17 
ROOT
HETATM    1  C6  UNL     1      64.530  48.166  29.579  1.00  0.00    -0.039 C 
HETATM    2  C7  UNL     1      64.076  49.555  29.919  1.00  0.00     0.015 C 
HETATM    3  C8  UNL     1      65.925  48.193  29.000  1.00  0.00     0.010 C 
HETATM    4  C9  UNL     1      66.736  47.173  29.785  1.00  0.00     0.006 C 
HETATM    5  C10 UNL     1      65.830  46.383  30.604  1.00  0.00    -0.004 C 
HETATM    6  C11 UNL     1      65.877  46.470  32.116  1.00  0.00     0.003 C 
HETATM    7  C12 UNL     1      67.179  46.729  32.688  1.00  0.00     0.006 C 
HETATM    8  C13 UNL     1      67.335  47.940  33.629  1.00  0.00     0.005 C 
HETATM    9  C14 UNL     1      65.960  48.346  33.859  1.00  0.00    -0.011 C 
HETATM   10  C15 UNL     1      65.483  49.355  34.794  1.00  0.00     0.040 C 
HETATM   11  C16 UNL     1      63.957  49.301  34.573  1.00  0.00     0.141 C 
HETATM   12  C17 UNL     1      63.404  48.003  34.166  1.00  0.00     0.001 C 
HETATM   13  C18 UNL     1      63.590  47.345  32.908  1.00  0.00    -0.018 C 
HETATM   14  C19 UNL     1      64.800  47.517  32.041  1.00  0.00    -0.014 C 
HETATM   15  C20 UNL     1      65.436  48.769  32.482  1.00  0.00     0.019 C 
HETATM   16  C21 UNL     1      64.551  47.178  30.647  1.00  0.00     0.011 C 
ENDROOT
BRANCH   1  17
HETATM   17  C5  UNL     1      63.621  47.684  28.441  1.00  0.00     0.010 C 
BRANCH  17  18
HETATM   18  C4  UNL     1      62.428  48.571  28.255  1.00  0.00     0.001 C 
BRANCH  18  19
HETATM   19  C3  UNL     1      61.159  47.755  28.333  1.00  0.00    -0.000 C 
BRANCH  19  20
HETATM   20  C2  UNL     1      61.166  46.793  29.475  1.00  0.00    -0.005 C 
HETATM   21  C1  UNL     1      59.763  46.220  29.672  1.00  0.00     0.005 C 
ENDBRANCH  19  20
ENDBRANCH  18  19
ENDBRANCH  17  18
ENDBRANCH   1  17
BRANCH  11  22
HETATM   22  O1  UNL     1      63.442  49.530  35.885  1.00  0.00    -0.392 OA
ATOM     23  H1  UNL     1      62.990  48.716  36.075  1.00  0.00     0.210 HD
ENDBRANCH  11  22
TORSDOF 5
ENDMDL
MODEL 3
REMARK VINA RESULT: -7.247188569      3.684      6.323
REMARK  5 active torsions:
REMARK  status: ('A' for Active; 'I' for Inactive)
REMARK    1  A    between atoms: C2_2  and  C3_3 
REMARK    2  A    between atoms: C3_3  and  C4_4 
REMARK    3  A    between atoms: C4_4  and  C5_5 
REMARK    4  A    between atoms: C5_5  and  C6_6 
REMARK    5  A    between atoms: C16_16  and  O1_17 
ROOT
HETATM    1  C6  UNL     1      65.501  47.926  33.241  1.00  0.00    -0.039 C 
HETATM    2  C7  UNL     1      64.051  47.838  32.864  1.00  0.00     0.015 C 
HETATM    3  C8  UNL     1      65.894  46.752  34.107  1.00  0.00     0.010 C 
HETATM    4  C9  UNL     1      67.142  46.152  33.477  1.00  0.00     0.006 C 
HETATM    5  C10 UNL     1      67.633  47.060  32.453  1.00  0.00    -0.004 C 
HETATM    6  C11 UNL     1      67.615  46.662  30.990  1.00  0.00     0.003 C 
HETATM    7  C12 UNL     1      67.796  45.254  30.723  1.00  0.00     0.006 C 
HETATM    8  C13 UNL     1      66.726  44.527  29.884  1.00  0.00     0.005 C 
HETATM    9  C14 UNL     1      65.916  45.622  29.379  1.00  0.00    -0.011 C 
HETATM   10  C15 UNL     1      64.840  45.544  28.402  1.00  0.00     0.040 C 
HETATM   11  C16 UNL     1      64.405  47.020  28.287  1.00  0.00     0.141 C 
HETATM   12  C17 UNL     1      65.450  48.026  28.515  1.00  0.00     0.001 C 
HETATM   13  C18 UNL     1      66.093  48.332  29.758  1.00  0.00    -0.018 C 
HETATM   14  C19 UNL     1      66.281  47.346  30.872  1.00  0.00    -0.014 C 
HETATM   15  C20 UNL     1      65.306  46.271  30.626  1.00  0.00     0.019 C 
HETATM   16  C21 UNL     1      66.479  47.984  32.165  1.00  0.00     0.011 C 
ENDROOT
BRANCH   1  17
HETATM   17  C5  UNL     1      65.636  49.164  34.137  1.00  0.00     0.010 C 
BRANCH  17  18
HETATM   18  C4  UNL     1      65.457  48.834  35.587  1.00  0.00     0.001 C 
BRANCH  18  19
HETATM   19  C3  UNL     1      64.255  49.561  36.140  1.00  0.00    -0.000 C 
BRANCH  19  20
HETATM   20  C2  UNL     1      63.013  48.732  36.094  1.00  0.00    -0.005 C 
HETATM   21  C1  UNL     1      63.341  47.293  36.488  1.00  0.00     0.005 C 
ENDBRANCH  19  20
ENDBRANCH  18  19
ENDBRANCH  17  18
ENDBRANCH   1  17
BRANCH  11  22
HETATM   22  O1  UNL     1      64.069  47.140  26.905  1.00  0.00    -0.392 OA
ATOM     23  H1  UNL     1      64.918  47.094  26.480  1.00  0.00     0.210 HD
ENDBRANCH  11  22
TORSDOF 5
ENDMDL
MODEL 4
REMARK VINA RESULT: -7.117322712      2.298      6.149
REMARK  5 active torsions:
REMARK  status: ('A' for Active; 'I' for Inactive)
REMARK    1  A    between atoms: C2_2  and  C3_3 
REMARK    2  A    between atoms: C3_3  and  C4_4 
REMARK    3  A    between atoms: C4_4  and  C5_5 
REMARK    4  A    between atoms: C5_5  and  C6_6 
REMARK    5  A    between atoms: C16_16  and  O1_17 
ROOT
HETATM    1  C6  UNL     1      65.599  47.022  29.266  1.00  0.00    -0.039 C 
HETATM    2  C7  UNL     1      65.161  45.591  29.165  1.00  0.00     0.015 C 
HETATM    3  C8  UNL     1      65.925  47.573  27.897  1.00  0.00     0.010 C 
HETATM    4  C9  UNL     1      65.155  48.878  27.765  1.00  0.00     0.006 C 
HETATM    5  C10 UNL     1      64.614  49.237  29.066  1.00  0.00    -0.004 C 
HETATM    6  C11 UNL     1      63.117  49.251  29.305  1.00  0.00     0.003 C 
HETATM    7  C12 UNL     1      62.304  49.606  28.165  1.00  0.00     0.006 C 
HETATM    8  C13 UNL     1      61.198  48.626  27.723  1.00  0.00     0.005 C 
HETATM    9  C14 UNL     1      61.153  47.678  28.821  1.00  0.00    -0.011 C 
HETATM   10  C15 UNL     1      60.187  46.607  29.023  1.00  0.00     0.040 C 
HETATM   11  C16 UNL     1      60.669  45.987  30.351  1.00  0.00     0.141 C 
HETATM   12  C17 UNL     1      61.331  46.898  31.292  1.00  0.00     0.001 C 
HETATM   13  C18 UNL     1      62.615  47.513  31.135  1.00  0.00    -0.018 C 
HETATM   14  C19 UNL     1      63.234  47.839  29.810  1.00  0.00    -0.014 C 
HETATM   15  C20 UNL     1      62.531  47.006  28.821  1.00  0.00     0.019 C 
HETATM   16  C21 UNL     1      64.683  47.971  29.879  1.00  0.00     0.011 C 
ENDROOT
BRANCH   1  17
HETATM   17  C5  UNL     1      66.928  47.010  30.031  1.00  0.00     0.010 C 
BRANCH  17  18
HETATM   18  C4  UNL     1      66.727  46.931  31.514  1.00  0.00     0.001 C 
BRANCH  18  19
HETATM   19  C3  UNL     1      67.982  46.422  32.181  1.00  0.00    -0.000 C 
BRANCH  19  20
HETATM   20  C2  UNL     1      67.695  45.441  33.270  1.00  0.00    -0.005 C 
HETATM   21  C1  UNL     1      67.006  44.210  32.683  1.00  0.00     0.005 C 
ENDBRANCH  19  20
ENDBRANCH  18  19
ENDBRANCH  17  18
ENDBRANCH   1  17
BRANCH  11  22
HETATM   22  O1  UNL     1      59.444  45.620  30.987  1.00  0.00    -0.392 OA
ATOM     23  H1  UNL     1      59.509  44.673  31.031  1.00  0.00     0.210 HD
ENDBRANCH  11  22
TORSDOF 5
ENDMDL
MODEL 5
REMARK VINA RESULT: -7.078662098      3.658      5.826
REMARK  5 active torsions:
REMARK  status: ('A' for Active; 'I' for Inactive)
REMARK    1  A    between atoms: C2_2  and  C3_3 
REMARK    2  A    between atoms: C3_3  and  C4_4 
REMARK    3  A    between atoms: C4_4  and  C5_5 
REMARK    4  A    between atoms: C5_5  and  C6_6 
REMARK    5  A    between atoms: C16_16  and  O1_17 
ROOT
HETATM    1  C6  UNL     1      64.787  47.832  30.233  1.00  0.00    -0.039 C 
HETATM    2  C7  UNL     1      64.281  49.233  30.405  1.00  0.00     0.015 C 
HETATM    3  C8  UNL     1      66.234  47.842  29.795  1.00  0.00     0.010 C 
HETATM    4  C9  UNL     1      66.975  46.911  30.742  1.00  0.00     0.006 C 
HETATM    5  C10 UNL     1      66.002  46.172  31.532  1.00  0.00    -0.004 C 
HETATM    6  C11 UNL     1      65.895  46.387  33.028  1.00  0.00     0.003 C 
HETATM    7  C12 UNL     1      67.128  46.723  33.702  1.00  0.00     0.006 C 
HETATM    8  C13 UNL     1      67.171  48.013  34.547  1.00  0.00     0.005 C 
HETATM    9  C14 UNL     1      65.774  48.405  34.602  1.00  0.00    -0.011 C 
HETATM   10  C15 UNL     1      65.190  49.478  35.395  1.00  0.00     0.040 C 
HETATM   11  C16 UNL     1      63.695  49.370  35.028  1.00  0.00     0.141 C 
HETATM   12  C17 UNL     1      63.205  48.030  34.682  1.00  0.00     0.001 C 
HETATM   13  C18 UNL     1      63.528  47.272  33.510  1.00  0.00    -0.018 C 
HETATM   14  C19 UNL     1      64.816  47.399  32.756  1.00  0.00    -0.014 C 
HETATM   15  C20 UNL     1      65.386  48.698  33.149  1.00  0.00     0.019 C 
HETATM   16  C21 UNL     1      64.715  46.938  31.379  1.00  0.00     0.011 C 
ENDROOT
BRANCH   1  17
HETATM   17  C5  UNL     1      64.005  47.235  29.055  1.00  0.00     0.010 C 
BRANCH  17  18
HETATM   18  C4  UNL     1      62.794  48.046  28.711  1.00  0.00     0.001 C 
BRANCH  18  19
HETATM   19  C3  UNL     1      62.723  48.263  27.219  1.00  0.00    -0.000 C 
BRANCH  19  20
HETATM   20  C2  UNL     1      63.250  49.600  26.808  1.00  0.00    -0.005 C 
HETATM   21  C1  UNL     1      64.775  49.552  26.743  1.00  0.00     0.005 C 
ENDBRANCH  19  20
ENDBRANCH  18  19
ENDBRANCH  17  18
ENDBRANCH   1  17
BRANCH  11  22
HETATM   22  O1  UNL     1      63.047  49.697  36.258  1.00  0.00    -0.392 OA
ATOM     23  H1  UNL     1      62.150  49.852  35.985  1.00  0.00     0.210 HD
ENDBRANCH  11  22
TORSDOF 5
ENDMDL
