MODEL 1
REMARK VINA RESULT: -9.606307983      0.000      0.000
REMARK  5 active torsions:
REMARK  status: ('A' for Active; 'I' for Inactive)
REMARK    1  A    between atoms: C2_2  and  C3_3 
REMARK    2  A    between atoms: C2_2  and  C7_9 
REMARK    3  A    between atoms: C3_3  and  C4_4 
REMARK    4  A    between atoms: C4_4  and  C5_5 
REMARK    5  A    between atoms: C5_5  and  O1_7 
ROOT
HETATM    1  C7  UNL     1      67.112  47.472  31.805  1.00  0.00     0.022 C 
HETATM    2  C8  UNL     1      68.372  47.176  32.585  1.00  0.00     0.010 C 
HETATM    3  C9  UNL     1      67.864  47.494  34.008  1.00  0.00     0.011 C 
HETATM    4  C10 UNL     1      66.607  46.690  34.025  1.00  0.00    -0.032 C 
HETATM    5  C11 UNL     1      67.144  45.238  34.118  1.00  0.00     0.016 C 
HETATM    6  C12 UNL     1      65.992  46.872  32.676  1.00  0.00     0.025 C 
HETATM    7  C13 UNL     1      64.713  47.527  32.507  1.00  0.00    -0.018 C 
HETATM    8  C14 UNL     1      64.077  48.477  33.441  1.00  0.00    -0.083 C 
HETATM    9  C15 UNL     1      63.179  47.813  34.463  1.00  0.00     0.034 C 
HETATM   10  C16 UNL     1      63.666  47.921  35.884  1.00  0.00     0.014 C 
HETATM   11  C17 UNL     1      65.199  47.998  35.725  1.00  0.00    -0.035 A 
HETATM   12  C18 UNL     1      65.457  49.383  35.357  1.00  0.00     0.014 C 
HETATM   13  C19 UNL     1      64.887  49.609  33.966  1.00  0.00     0.034 C 
HETATM   14  C20 UNL     1      66.119  47.234  36.533  1.00  0.00     0.016 A 
HETATM   15  C21 UNL     1      65.669  46.837  35.132  1.00  0.00     0.004 A 
ENDROOT
BRANCH   1  16
HETATM   16  C2  UNL     1      67.137  46.916  30.429  1.00  0.00    -0.084 C 
HETATM   17  C1  UNL     1      67.860  45.837  30.169  1.00  0.00     0.014 C 
BRANCH  16  18
HETATM   18  C3  UNL     1      66.369  47.503  29.302  1.00  0.00     0.036 C 
BRANCH  18  19
HETATM   19  C4  UNL     1      65.218  46.618  28.868  1.00  0.00     0.035 C 
BRANCH  19  20
HETATM   20  C5  UNL     1      64.084  47.576  28.472  1.00  0.00     0.114 C 
HETATM   21  C6  UNL     1      64.349  48.913  29.122  1.00  0.00     0.039 C 
BRANCH  20  22
HETATM   22  O1  UNL     1      62.864  47.113  28.908  1.00  0.00    -0.396 OA
ATOM     23  H1  UNL     1      62.960  46.322  29.426  1.00  0.00     0.210 HD
ENDBRANCH  20  22
ENDBRANCH  19  20
ENDBRANCH  18  19
ENDBRANCH  16  18
ENDBRANCH   1  16
TORSDOF 5
ENDMDL
MODEL 2
REMARK VINA RESULT: -9.452799997      1.162      1.250
REMARK  5 active torsions:
REMARK  status: ('A' for Active; 'I' for Inactive)
REMARK    1  A    between atoms: C2_2  and  C3_3 
REMARK    2  A    between atoms: C2_2  and  C7_9 
REMARK    3  A    between atoms: C3_3  and  C4_4 
REMARK    4  A    between atoms: C4_4  and  C5_5 
REMARK    5  A    between atoms: C5_5  and  O1_7 
ROOT
HETATM    1  C7  UNL     1      66.650  47.570  31.487  1.00  0.00     0.022 C 
HETATM    2  C8  UNL     1      68.028  47.349  32.068  1.00  0.00     0.010 C 
HETATM    3  C9  UNL     1      67.730  47.679  33.546  1.00  0.00     0.011 C 
HETATM    4  C10 UNL     1      66.530  46.821  33.772  1.00  0.00    -0.032 C 
HETATM    5  C11 UNL     1      67.144  45.396  33.806  1.00  0.00     0.016 C 
HETATM    6  C12 UNL     1      65.707  46.941  32.531  1.00  0.00     0.025 C 
HETATM    7  C13 UNL     1      64.387  47.534  32.550  1.00  0.00    -0.018 C 
HETATM    8  C14 UNL     1      63.858  48.478  33.554  1.00  0.00    -0.083 C 
HETATM    9  C15 UNL     1      63.160  47.800  34.715  1.00  0.00     0.034 C 
HETATM   10  C16 UNL     1      63.853  47.965  36.041  1.00  0.00     0.014 C 
HETATM   11  C17 UNL     1      65.339  48.107  35.646  1.00  0.00    -0.035 A 
HETATM   12  C18 UNL     1      65.470  49.492  35.218  1.00  0.00     0.014 C 
HETATM   13  C19 UNL     1      64.684  49.658  33.928  1.00  0.00     0.034 C 
HETATM   14  C20 UNL     1      66.408  47.405  36.315  1.00  0.00     0.016 A 
HETATM   15  C21 UNL     1      65.767  46.953  35.008  1.00  0.00     0.004 A 
ENDROOT
BRANCH   1  16
HETATM   16  C2  UNL     1      66.490  46.981  30.133  1.00  0.00    -0.084 C 
HETATM   17  C1  UNL     1      66.582  45.669  29.972  1.00  0.00     0.014 C 
BRANCH  16  18
HETATM   18  C3  UNL     1      66.211  47.793  28.923  1.00  0.00     0.036 C 
BRANCH  18  19
HETATM   19  C4  UNL     1      64.776  48.276  28.872  1.00  0.00     0.035 C 
BRANCH  19  20
HETATM   20  C5  UNL     1      64.772  49.465  27.899  1.00  0.00     0.114 C 
HETATM   21  C6  UNL     1      63.492  49.414  27.100  1.00  0.00     0.039 C 
BRANCH  20  22
HETATM   22  O1  UNL     1      65.835  49.401  27.028  1.00  0.00    -0.396 OA
ATOM     23  H1  UNL     1      66.024  50.252  26.651  1.00  0.00     0.210 HD
ENDBRANCH  20  22
ENDBRANCH  19  20
ENDBRANCH  18  19
ENDBRANCH  16  18
ENDBRANCH   1  16
TORSDOF 5
ENDMDL
MODEL 3
REMARK VINA RESULT: -7.938863984      0.922      1.170
REMARK  5 active torsions:
REMARK  status: ('A' for Active; 'I' for Inactive)
REMARK    1  A    between atoms: C2_2  and  C3_3 
REMARK    2  A    between atoms: C2_2  and  C7_9 
REMARK    3  A    between atoms: C3_3  and  C4_4 
REMARK    4  A    between atoms: C4_4  and  C5_5 
REMARK    5  A    between atoms: C5_5  and  O1_7 
ROOT
HETATM    1  C7  UNL     1      66.182  47.856  31.169  1.00  0.00     0.022 C 
HETATM    2  C8  UNL     1      67.597  47.474  31.540  1.00  0.00     0.010 C 
HETATM    3  C9  UNL     1      67.502  47.630  33.073  1.00  0.00     0.011 C 
HETATM    4  C10 UNL     1      66.273  46.830  33.344  1.00  0.00    -0.032 C 
HETATM    5  C11 UNL     1      66.770  45.376  33.130  1.00  0.00     0.016 C 
HETATM    6  C12 UNL     1      65.321  47.161  32.241  1.00  0.00     0.025 C 
HETATM    7  C13 UNL     1      64.065  47.831  32.498  1.00  0.00    -0.018 C 
HETATM    8  C14 UNL     1      63.735  48.671  33.666  1.00  0.00    -0.083 C 
HETATM    9  C15 UNL     1      63.126  47.896  34.816  1.00  0.00     0.034 C 
HETATM   10  C16 UNL     1      63.981  47.845  36.054  1.00  0.00     0.014 C 
HETATM   11  C17 UNL     1      65.417  47.939  35.494  1.00  0.00    -0.035 A 
HETATM   12  C18 UNL     1      65.607  49.357  35.221  1.00  0.00     0.014 C 
HETATM   13  C19 UNL     1      64.691  49.737  34.070  1.00  0.00     0.034 C 
HETATM   14  C20 UNL     1      66.497  47.089  35.934  1.00  0.00     0.016 A 
HETATM   15  C21 UNL     1      65.673  46.851  34.674  1.00  0.00     0.004 A 
ENDROOT
BRANCH   1  16
HETATM   16  C2  UNL     1      65.817  47.457  29.786  1.00  0.00    -0.084 C 
HETATM   17  C1  UNL     1      66.585  47.825  28.771  1.00  0.00     0.014 C 
BRANCH  16  18
HETATM   18  C3  UNL     1      64.622  46.638  29.466  1.00  0.00     0.036 C 
BRANCH  18  19
HETATM   19  C4  UNL     1      64.090  46.915  28.074  1.00  0.00     0.035 C 
BRANCH  19  20
HETATM   20  C5  UNL     1      62.730  47.602  28.278  1.00  0.00     0.114 C 
HETATM   21  C6  UNL     1      62.931  49.092  28.142  1.00  0.00     0.039 C 
BRANCH  20  22
HETATM   22  O1  UNL     1      62.222  47.341  29.529  1.00  0.00    -0.396 OA
ATOM     23  H1  UNL     1      61.426  47.835  29.688  1.00  0.00     0.210 HD
ENDBRANCH  20  22
ENDBRANCH  19  20
ENDBRANCH  18  19
ENDBRANCH  16  18
ENDBRANCH   1  16
TORSDOF 5
ENDMDL
MODEL 4
REMARK VINA RESULT: -7.655016357      1.942      4.177
REMARK  5 active torsions:
REMARK  status: ('A' for Active; 'I' for Inactive)
REMARK    1  A    between atoms: C2_2  and  C3_3 
REMARK    2  A    between atoms: C2_2  and  C7_9 
REMARK    3  A    between atoms: C3_3  and  C4_4 
REMARK    4  A    between atoms: C4_4  and  C5_5 
REMARK    5  A    between atoms: C5_5  and  O1_7 
ROOT
HETATM    1  C7  UNL     1      64.004  47.420  30.892  1.00  0.00     0.022 C 
HETATM    2  C8  UNL     1      63.126  47.616  32.105  1.00  0.00     0.010 C 
HETATM    3  C9  UNL     1      64.105  47.145  33.201  1.00  0.00     0.011 C 
HETATM    4  C10 UNL     1      65.309  47.951  32.844  1.00  0.00    -0.032 C 
HETATM    5  C11 UNL     1      64.892  49.380  33.282  1.00  0.00     0.016 C 
HETATM    6  C12 UNL     1      65.385  47.927  31.352  1.00  0.00     0.025 C 
HETATM    7  C13 UNL     1      66.491  47.305  30.658  1.00  0.00    -0.018 C 
HETATM    8  C14 UNL     1      67.390  46.260  31.187  1.00  0.00    -0.083 C 
HETATM    9  C15 UNL     1      68.621  46.812  31.875  1.00  0.00     0.034 C 
HETATM   10  C16 UNL     1      68.681  46.541  33.355  1.00  0.00     0.014 C 
HETATM   11  C17 UNL     1      67.194  46.471  33.760  1.00  0.00    -0.035 A 
HETATM   12  C18 UNL     1      66.773  45.134  33.365  1.00  0.00     0.014 C 
HETATM   13  C19 UNL     1      66.789  45.070  31.846  1.00  0.00     0.034 C 
HETATM   14  C20 UNL     1      66.657  47.132  34.926  1.00  0.00     0.016 A 
HETATM   15  C21 UNL     1      66.581  47.688  33.509  1.00  0.00     0.004 A 
ENDROOT
BRANCH   1  16
HETATM   16  C2  UNL     1      63.499  48.127  29.688  1.00  0.00    -0.084 C 
HETATM   17  C1  UNL     1      63.774  49.412  29.517  1.00  0.00     0.014 C 
BRANCH  16  18
HETATM   18  C3  UNL     1      62.698  47.461  28.632  1.00  0.00     0.036 C 
BRANCH  18  19
HETATM   19  C4  UNL     1      61.316  48.067  28.490  1.00  0.00     0.035 C 
BRANCH  19  20
HETATM   20  C5  UNL     1      60.330  46.930  28.793  1.00  0.00     0.114 C 
HETATM   21  C6  UNL     1      58.951  47.378  28.373  1.00  0.00     0.039 C 
BRANCH  20  22
HETATM   22  O1  UNL     1      60.304  46.636  30.137  1.00  0.00    -0.396 OA
ATOM     23  H1  UNL     1      59.658  45.967  30.332  1.00  0.00     0.210 HD
ENDBRANCH  20  22
ENDBRANCH  19  20
ENDBRANCH  18  19
ENDBRANCH  16  18
ENDBRANCH   1  16
TORSDOF 5
ENDMDL
MODEL 5
REMARK VINA RESULT: -7.480274002      1.640      4.018
REMARK  5 active torsions:
REMARK  status: ('A' for Active; 'I' for Inactive)
REMARK    1  A    between atoms: C2_2  and  C3_3 
REMARK    2  A    between atoms: C2_2  and  C7_9 
REMARK    3  A    between atoms: C3_3  and  C4_4 
REMARK    4  A    between atoms: C4_4  and  C5_5 
REMARK    5  A    between atoms: C5_5  and  O1_7 
ROOT
HETATM    1  C7  UNL     1      63.671  47.329  31.208  1.00  0.00     0.022 C 
HETATM    2  C8  UNL     1      62.909  47.558  32.493  1.00  0.00     0.010 C 
HETATM    3  C9  UNL     1      64.022  47.216  33.507  1.00  0.00     0.011 C 
HETATM    4  C10 UNL     1      65.131  48.062  32.977  1.00  0.00    -0.032 C 
HETATM    5  C11 UNL     1      64.673  49.492  33.368  1.00  0.00     0.016 C 
HETATM    6  C12 UNL     1      65.057  47.942  31.489  1.00  0.00     0.025 C 
HETATM    7  C13 UNL     1      66.124  47.337  30.722  1.00  0.00    -0.018 C 
HETATM    8  C14 UNL     1      67.135  46.382  31.217  1.00  0.00    -0.083 C 
HETATM    9  C15 UNL     1      68.392  47.046  31.737  1.00  0.00     0.034 C 
HETATM   10  C16 UNL     1      68.619  46.879  33.216  1.00  0.00     0.014 C 
HETATM   11  C17 UNL     1      67.187  46.753  33.779  1.00  0.00    -0.035 A 
HETATM   12  C18 UNL     1      66.812  45.372  33.512  1.00  0.00     0.014 C 
HETATM   13  C19 UNL     1      66.678  45.207  32.007  1.00  0.00     0.034 C 
HETATM   14  C20 UNL     1      66.731  47.460  34.951  1.00  0.00     0.016 A 
HETATM   15  C21 UNL     1      66.477  47.915  33.519  1.00  0.00     0.004 A 
ENDROOT
BRANCH   1  16
HETATM   16  C2  UNL     1      63.004  47.925  30.023  1.00  0.00    -0.084 C 
HETATM   17  C1  UNL     1      61.894  47.380  29.550  1.00  0.00     0.014 C 
BRANCH  16  18
HETATM   18  C3  UNL     1      63.513  49.134  29.328  1.00  0.00     0.036 C 
BRANCH  18  19
HETATM   19  C4  UNL     1      62.905  49.304  27.950  1.00  0.00     0.035 C 
BRANCH  19  20
HETATM   20  C5  UNL     1      64.085  49.255  26.967  1.00  0.00     0.114 C 
HETATM   21  C6  UNL     1      64.658  47.859  26.989  1.00  0.00     0.039 C 
BRANCH  20  22
HETATM   22  O1  UNL     1      65.074  50.140  27.330  1.00  0.00    -0.396 OA
ATOM     23  H1  UNL     1      64.865  51.024  27.050  1.00  0.00     0.210 HD
ENDBRANCH  20  22
ENDBRANCH  19  20
ENDBRANCH  18  19
ENDBRANCH  16  18
ENDBRANCH   1  16
TORSDOF 5
ENDMDL
