MODEL 1
REMARK VINA RESULT: -6.969130230      0.000      0.000
REMARK  4 active torsions:
REMARK  status: ('A' for Active; 'I' for Inactive)
REMARK    1  A    between atoms: C2_2  and  C3_3 
REMARK    2  A    between atoms: C3_3  and  C4_4 
REMARK    3  A    between atoms: C4_4  and  N1_5 
REMARK    4  A    between atoms: N1_5  and  C5_7 
ROOT
HETATM    1  C5  UNL     1      65.206  47.665  33.222  1.00  0.00     0.077 C 
HETATM    2  C6  UNL     1      63.742  47.741  33.003  1.00  0.00     0.025 C 
HETATM    3  C7  UNL     1      63.248  47.502  31.601  1.00  0.00     0.012 C 
HETATM    4  C8  UNL     1      64.144  48.177  30.550  1.00  0.00    -0.032 C 
HETATM    5  C9  UNL     1      64.029  49.648  30.975  1.00  0.00     0.016 C 
HETATM    6  C10 UNL     1      65.510  47.606  30.817  1.00  0.00    -0.003 C 
HETATM    7  C11 UNL     1      66.048  48.196  32.078  1.00  0.00     0.030 C 
HETATM    8  C12 UNL     1      66.437  47.705  29.657  1.00  0.00     0.011 C 
HETATM    9  C13 UNL     1      65.869  47.437  28.330  1.00  0.00    -0.006 C 
HETATM   10  C14 UNL     1      65.968  48.655  27.471  1.00  0.00     0.005 C 
HETATM   11  C15 UNL     1      64.961  49.722  27.743  1.00  0.00     0.001 C 
HETATM   12  C16 UNL     1      63.685  49.318  28.353  1.00  0.00     0.011 C 
HETATM   13  C17 UNL     1      63.678  48.012  29.155  1.00  0.00    -0.029 C 
HETATM   14  C18 UNL     1      62.217  47.572  29.201  1.00  0.00     0.016 C 
HETATM   15  C19 UNL     1      64.414  47.017  28.304  1.00  0.00    -0.036 C 
HETATM   16  C20 UNL     1      64.360  45.582  28.753  1.00  0.00     0.016 C 
HETATM   17  C21 UNL     1      63.935  46.986  26.894  1.00  0.00     0.016 C 
ENDROOT
BRANCH   1  18
HETATM   18  N1  UNL     1      65.707  46.405  33.702  1.00  0.00    -0.417 N 
ATOM     19  H1  UNL     1      65.107  45.585  33.798  1.00  0.00     0.153 HD
BRANCH  18  20
HETATM   20  C4  UNL     1      67.092  46.370  34.036  1.00  0.00     0.114 C 
BRANCH  20  21
HETATM   21  C3  UNL     1      67.882  45.473  33.089  1.00  0.00     0.019 C 
BRANCH  21  22
HETATM   22  C2  UNL     1      66.983  44.326  32.643  1.00  0.00    -0.003 C 
HETATM   23  C1  UNL     1      66.900  44.230  31.149  1.00  0.00     0.005 C 
ENDBRANCH  21  22
ENDBRANCH  20  21
ENDBRANCH  18  20
ENDBRANCH   1  18
TORSDOF 4
ENDMDL
MODEL 2
REMARK VINA RESULT: -6.593187957      1.208      2.030
REMARK  4 active torsions:
REMARK  status: ('A' for Active; 'I' for Inactive)
REMARK    1  A    between atoms: C2_2  and  C3_3 
REMARK    2  A    between atoms: C3_3  and  C4_4 
REMARK    3  A    between atoms: C4_4  and  N1_5 
REMARK    4  A    between atoms: N1_5  and  C5_7 
ROOT
HETATM    1  C5  UNL     1      65.253  47.731  33.187  1.00  0.00     0.077 C 
HETATM    2  C6  UNL     1      63.787  47.776  32.979  1.00  0.00     0.025 C 
HETATM    3  C7  UNL     1      63.286  47.509  31.584  1.00  0.00     0.012 C 
HETATM    4  C8  UNL     1      64.159  48.188  30.517  1.00  0.00    -0.032 C 
HETATM    5  C9  UNL     1      64.019  49.662  30.925  1.00  0.00     0.016 C 
HETATM    6  C10 UNL     1      65.539  47.648  30.781  1.00  0.00    -0.003 C 
HETATM    7  C11 UNL     1      66.075  48.264  32.030  1.00  0.00     0.030 C 
HETATM    8  C12 UNL     1      66.455  47.750  29.612  1.00  0.00     0.011 C 
HETATM    9  C13 UNL     1      65.882  47.454  28.293  1.00  0.00    -0.006 C 
HETATM   10  C14 UNL     1      65.950  48.662  27.418  1.00  0.00     0.005 C 
HETATM   11  C15 UNL     1      64.923  49.713  27.684  1.00  0.00     0.001 C 
HETATM   12  C16 UNL     1      63.661  49.292  28.310  1.00  0.00     0.011 C 
HETATM   13  C17 UNL     1      63.686  47.996  29.129  1.00  0.00    -0.029 C 
HETATM   14  C18 UNL     1      62.234  47.529  29.192  1.00  0.00     0.016 C 
HETATM   15  C19 UNL     1      64.435  47.005  28.284  1.00  0.00    -0.036 C 
HETATM   16  C20 UNL     1      64.413  45.576  28.751  1.00  0.00     0.016 C 
HETATM   17  C21 UNL     1      63.946  46.947  26.879  1.00  0.00     0.016 C 
ENDROOT
BRANCH   1  18
HETATM   18  N1  UNL     1      65.783  46.489  33.679  1.00  0.00    -0.417 N 
ATOM     19  H1  UNL     1      65.582  45.597  33.225  1.00  0.00     0.153 HD
BRANCH  18  20
HETATM   20  C4  UNL     1      66.607  46.576  34.839  1.00  0.00     0.114 C 
BRANCH  20  21
HETATM   21  C3  UNL     1      65.992  47.477  35.905  1.00  0.00     0.019 C 
BRANCH  21  22
HETATM   22  C2  UNL     1      65.075  46.633  36.784  1.00  0.00    -0.003 C 
HETATM   23  C1  UNL     1      63.633  47.001  36.601  1.00  0.00     0.005 C 
ENDBRANCH  21  22
ENDBRANCH  20  21
ENDBRANCH  18  20
ENDBRANCH   1  18
TORSDOF 4
ENDMDL
MODEL 3
REMARK VINA RESULT: -6.058840520      0.764      1.026
REMARK  4 active torsions:
REMARK  status: ('A' for Active; 'I' for Inactive)
REMARK    1  A    between atoms: C2_2  and  C3_3 
REMARK    2  A    between atoms: C3_3  and  C4_4 
REMARK    3  A    between atoms: C4_4  and  N1_5 
REMARK    4  A    between atoms: N1_5  and  C5_7 
ROOT
HETATM    1  C5  UNL     1      64.775  47.830  33.226  1.00  0.00     0.077 C 
HETATM    2  C6  UNL     1      63.338  47.841  32.867  1.00  0.00     0.025 C 
HETATM    3  C7  UNL     1      62.990  47.527  31.436  1.00  0.00     0.012 C 
HETATM    4  C8  UNL     1      63.959  48.193  30.445  1.00  0.00    -0.032 C 
HETATM    5  C9  UNL     1      63.754  49.674  30.793  1.00  0.00     0.016 C 
HETATM    6  C10 UNL     1      65.312  47.686  30.866  1.00  0.00    -0.003 C 
HETATM    7  C11 UNL     1      65.705  48.346  32.145  1.00  0.00     0.030 C 
HETATM    8  C12 UNL     1      66.342  47.773  29.795  1.00  0.00     0.011 C 
HETATM    9  C13 UNL     1      65.914  47.431  28.433  1.00  0.00    -0.006 C 
HETATM   10  C14 UNL     1      66.054  48.615  27.535  1.00  0.00     0.005 C 
HETATM   11  C15 UNL     1      64.989  49.654  27.664  1.00  0.00     0.001 C 
HETATM   12  C16 UNL     1      63.675  49.226  28.167  1.00  0.00     0.011 C 
HETATM   13  C17 UNL     1      63.635  47.954  29.021  1.00  0.00    -0.029 C 
HETATM   14  C18 UNL     1      62.193  47.461  28.948  1.00  0.00     0.016 C 
HETATM   15  C19 UNL     1      64.484  46.954  28.288  1.00  0.00    -0.036 C 
HETATM   16  C20 UNL     1      64.436  45.538  28.792  1.00  0.00     0.016 C 
HETATM   17  C21 UNL     1      64.144  46.848  26.842  1.00  0.00     0.016 C 
ENDROOT
BRANCH   1  18
HETATM   18  N1  UNL     1      65.271  46.611  33.806  1.00  0.00    -0.417 N 
ATOM     19  H1  UNL     1      64.682  45.786  33.917  1.00  0.00     0.153 HD
BRANCH  18  20
HETATM   20  C4  UNL     1      66.636  46.624  34.218  1.00  0.00     0.114 C 
BRANCH  20  21
HETATM   21  C3  UNL     1      67.400  45.414  33.690  1.00  0.00     0.019 C 
BRANCH  21  22
HETATM   22  C2  UNL     1      68.527  45.907  32.789  1.00  0.00    -0.003 C 
HETATM   23  C1  UNL     1      68.663  47.399  32.830  1.00  0.00     0.005 C 
ENDBRANCH  21  22
ENDBRANCH  20  21
ENDBRANCH  18  20
ENDBRANCH   1  18
TORSDOF 4
ENDMDL
MODEL 4
REMARK VINA RESULT: -5.983544441      1.885      5.572
REMARK  4 active torsions:
REMARK  status: ('A' for Active; 'I' for Inactive)
REMARK    1  A    between atoms: C2_2  and  C3_3 
REMARK    2  A    between atoms: C3_3  and  C4_4 
REMARK    3  A    between atoms: C4_4  and  N1_5 
REMARK    4  A    between atoms: N1_5  and  C5_7 
ROOT
HETATM    1  C5  UNL     1      66.594  46.273  30.457  1.00  0.00     0.077 C 
HETATM    2  C6  UNL     1      67.038  45.495  31.637  1.00  0.00     0.025 C 
HETATM    3  C7  UNL     1      66.337  45.773  32.941  1.00  0.00     0.012 C 
HETATM    4  C8  UNL     1      66.086  47.274  33.153  1.00  0.00    -0.032 C 
HETATM    5  C9  UNL     1      67.523  47.814  33.127  1.00  0.00     0.016 C 
HETATM    6  C10 UNL     1      65.296  47.685  31.939  1.00  0.00    -0.003 C 
HETATM    7  C11 UNL     1      66.200  47.707  30.752  1.00  0.00     0.030 C 
HETATM    8  C12 UNL     1      64.514  48.937  32.131  1.00  0.00     0.011 C 
HETATM    9  C13 UNL     1      63.851  49.113  33.428  1.00  0.00    -0.006 C 
HETATM   10  C14 UNL     1      64.397  50.313  34.129  1.00  0.00     0.005 C 
HETATM   11  C15 UNL     1      65.730  50.132  34.778  1.00  0.00     0.001 C 
HETATM   12  C16 UNL     1      66.116  48.770  35.177  1.00  0.00     0.011 C 
HETATM   13  C17 UNL     1      65.440  47.609  34.441  1.00  0.00    -0.029 C 
HETATM   14  C18 UNL     1      65.589  46.402  35.364  1.00  0.00     0.016 C 
HETATM   15  C19 UNL     1      63.979  47.958  34.400  1.00  0.00    -0.036 C 
HETATM   16  C20 UNL     1      63.045  46.877  33.930  1.00  0.00     0.016 C 
HETATM   17  C21 UNL     1      63.439  48.368  35.726  1.00  0.00     0.016 C 
ENDROOT
BRANCH   1  18
HETATM   18  N1  UNL     1      65.633  45.630  29.601  1.00  0.00    -0.417 N 
ATOM     19  H1  UNL     1      65.298  44.683  29.781  1.00  0.00     0.153 HD
BRANCH  18  20
HETATM   20  C4  UNL     1      65.178  46.394  28.488  1.00  0.00     0.114 C 
BRANCH  20  21
HETATM   21  C3  UNL     1      63.699  46.747  28.608  1.00  0.00     0.019 C 
BRANCH  21  22
HETATM   22  C2  UNL     1      63.512  48.204  28.202  1.00  0.00    -0.003 C 
HETATM   23  C1  UNL     1      64.658  48.705  27.376  1.00  0.00     0.005 C 
ENDBRANCH  21  22
ENDBRANCH  20  21
ENDBRANCH  18  20
ENDBRANCH   1  18
TORSDOF 4
ENDMDL
MODEL 5
REMARK VINA RESULT: -5.719822434      1.479      3.001
REMARK  4 active torsions:
REMARK  status: ('A' for Active; 'I' for Inactive)
REMARK    1  A    between atoms: C2_2  and  C3_3 
REMARK    2  A    between atoms: C3_3  and  C4_4 
REMARK    3  A    between atoms: C4_4  and  N1_5 
REMARK    4  A    between atoms: N1_5  and  C5_7 
ROOT
HETATM    1  C5  UNL     1      66.454  46.714  31.061  1.00  0.00     0.077 C 
HETATM    2  C6  UNL     1      66.417  45.755  29.934  1.00  0.00     0.025 C 
HETATM    3  C7  UNL     1      65.781  46.231  28.654  1.00  0.00     0.012 C 
HETATM    4  C8  UNL     1      64.506  47.050  28.912  1.00  0.00    -0.032 C 
HETATM    5  C9  UNL     1      63.645  46.018  29.653  1.00  0.00     0.016 C 
HETATM    6  C10 UNL     1      64.968  48.165  29.811  1.00  0.00    -0.003 C 
HETATM    7  C11 UNL     1      65.240  47.615  31.171  1.00  0.00     0.030 C 
HETATM    8  C12 UNL     1      64.068  49.351  29.804  1.00  0.00     0.011 C 
HETATM    9  C13 UNL     1      63.509  49.751  28.507  1.00  0.00    -0.006 C 
HETATM   10  C14 UNL     1      62.020  49.641  28.530  1.00  0.00     0.005 C 
HETATM   11  C15 UNL     1      61.472  48.259  28.397  1.00  0.00     0.001 C 
HETATM   12  C16 UNL     1      62.303  47.257  27.713  1.00  0.00     0.011 C 
HETATM   13  C17 UNL     1      63.815  47.505  27.685  1.00  0.00    -0.029 C 
HETATM   14  C18 UNL     1      64.341  46.673  26.519  1.00  0.00     0.016 C 
HETATM   15  C19 UNL     1      63.975  48.950  27.308  1.00  0.00    -0.036 C 
HETATM   16  C20 UNL     1      65.372  49.407  26.987  1.00  0.00     0.016 C 
HETATM   17  C21 UNL     1      63.172  49.336  26.116  1.00  0.00     0.016 C 
ENDROOT
BRANCH   1  18
HETATM   18  N1  UNL     1      67.675  47.459  31.217  1.00  0.00    -0.417 N 
ATOM     19  H1  UNL     1      68.224  47.771  30.415  1.00  0.00     0.153 HD
BRANCH  18  20
HETATM   20  C4  UNL     1      68.074  47.733  32.557  1.00  0.00     0.114 C 
BRANCH  20  21
HETATM   21  C3  UNL     1      68.621  46.491  33.253  1.00  0.00     0.019 C 
BRANCH  21  22
HETATM   22  C2  UNL     1      67.467  45.773  33.943  1.00  0.00    -0.003 C 
HETATM   23  C1  UNL     1      67.357  44.343  33.507  1.00  0.00     0.005 C 
ENDBRANCH  21  22
ENDBRANCH  20  21
ENDBRANCH  18  20
ENDBRANCH   1  18
TORSDOF 4
ENDMDL
