MODEL 1
REMARK VINA RESULT: -8.802449262      0.000      0.000
REMARK  5 active torsions:
REMARK  status: ('A' for Active; 'I' for Inactive)
REMARK    1  A    between atoms: C2_2  and  C5_5 
REMARK    2  A    between atoms: C6_6  and  N1_7 
REMARK    3  A    between atoms: N1_7  and  C7_9 
REMARK    4  A    between atoms: C7_9  and  C8_10 
REMARK    5  A    between atoms: C8_10  and  C9_11 
ROOT
HETATM    1  C7  UNL     1      64.437  49.094  31.364  1.00  0.00     0.057 C 
ENDROOT
BRANCH   1   2
HETATM    2  N1  UNL     1      63.713  48.989  30.203  1.00  0.00    -0.396 N 
ATOM      3  H1  UNL     1      63.739  49.800  29.585  1.00  0.00     0.159 HD
BRANCH   2   4
HETATM    4  C6  UNL     1      62.956  47.921  29.773  1.00  0.00     0.094 A 
HETATM    5  C5  UNL     1      63.238  46.909  28.715  1.00  0.00     0.026 A 
HETATM    6  C19 UNL     1      62.378  48.040  28.349  1.00  0.00    -0.021 A 
HETATM    7  C20 UNL     1      62.748  49.222  27.519  1.00  0.00     0.017 C 
HETATM    8  C21 UNL     1      60.870  47.758  28.191  1.00  0.00     0.017 C 
BRANCH   5   9
HETATM    9  C2  UNL     1      64.491  46.521  28.094  1.00  0.00    -0.045 C 
HETATM   10  C1  UNL     1      64.648  46.547  26.609  1.00  0.00     0.015 C 
HETATM   11  C3  UNL     1      65.715  47.175  28.701  1.00  0.00     0.015 C 
HETATM   12  C4  UNL     1      64.716  45.004  28.426  1.00  0.00     0.015 C 
ENDBRANCH   5   9
ENDBRANCH   2   4
ENDBRANCH   1   2
BRANCH   1  13
HETATM   13  C8  UNL     1      64.824  47.879  32.138  1.00  0.00     0.053 C 
BRANCH  13  14
HETATM   14  C9  UNL     1      64.559  47.911  33.617  1.00  0.00    -0.035 C 
HETATM   15  C10 UNL     1      64.791  49.386  34.000  1.00  0.00     0.014 C 
HETATM   16  C11 UNL     1      64.660  49.634  35.460  1.00  0.00    -0.013 C 
HETATM   17  C12 UNL     1      65.644  48.766  36.196  1.00  0.00     0.009 C 
HETATM   18  C16 UNL     1      63.264  49.257  35.886  1.00  0.00     0.009 C 
HETATM   19  C13 UNL     1      65.385  47.338  35.850  1.00  0.00    -0.013 C 
HETATM   20  C14 UNL     1      63.968  46.971  36.235  1.00  0.00     0.009 C 
HETATM   21  C18 UNL     1      65.516  47.058  34.367  1.00  0.00     0.014 C 
HETATM   22  C15 UNL     1      62.979  47.820  35.458  1.00  0.00    -0.013 C 
HETATM   23  C17 UNL     1      63.113  47.641  33.962  1.00  0.00     0.014 C 
ENDBRANCH  13  14
ENDBRANCH   1  13
TORSDOF 5
ENDMDL
MODEL 2
REMARK VINA RESULT: -8.698354904      0.103      1.563
REMARK  5 active torsions:
REMARK  status: ('A' for Active; 'I' for Inactive)
REMARK    1  A    between atoms: C2_2  and  C5_5 
REMARK    2  A    between atoms: C6_6  and  N1_7 
REMARK    3  A    between atoms: N1_7  and  C7_9 
REMARK    4  A    between atoms: C7_9  and  C8_10 
REMARK    5  A    between atoms: C8_10  and  C9_11 
ROOT
HETATM    1  C7  UNL     1      64.472  49.126  31.344  1.00  0.00     0.057 C 
ENDROOT
BRANCH   1   2
HETATM    2  N1  UNL     1      63.712  49.013  30.208  1.00  0.00    -0.396 N 
ATOM      3  H1  UNL     1      63.703  49.826  29.592  1.00  0.00     0.159 HD
BRANCH   2   4
HETATM    4  C6  UNL     1      62.959  47.933  29.798  1.00  0.00     0.094 A 
HETATM    5  C5  UNL     1      63.241  46.908  28.752  1.00  0.00     0.026 A 
HETATM    6  C19 UNL     1      62.370  48.027  28.378  1.00  0.00    -0.021 A 
HETATM    7  C20 UNL     1      62.723  49.201  27.528  1.00  0.00     0.017 C 
HETATM    8  C21 UNL     1      60.862  47.732  28.236  1.00  0.00     0.017 C 
BRANCH   5   9
HETATM    9  C2  UNL     1      64.491  46.520  28.127  1.00  0.00    -0.045 C 
HETATM   10  C1  UNL     1      64.646  46.556  26.642  1.00  0.00     0.015 C 
HETATM   11  C3  UNL     1      65.719  47.167  28.736  1.00  0.00     0.015 C 
HETATM   12  C4  UNL     1      64.713  45.001  28.449  1.00  0.00     0.015 C 
ENDBRANCH   5   9
ENDBRANCH   2   4
ENDBRANCH   1   2
BRANCH   1  13
HETATM   13  C8  UNL     1      64.830  47.923  32.150  1.00  0.00     0.053 C 
BRANCH  13  14
HETATM   14  C9  UNL     1      64.757  48.068  33.645  1.00  0.00    -0.035 C 
HETATM   15  C10 UNL     1      63.306  47.677  33.982  1.00  0.00     0.014 C 
HETATM   16  C11 UNL     1      62.983  47.831  35.425  1.00  0.00    -0.013 C 
HETATM   17  C12 UNL     1      63.226  49.258  35.834  1.00  0.00     0.009 C 
HETATM   18  C16 UNL     1      63.902  46.935  36.217  1.00  0.00     0.009 C 
HETATM   19  C13 UNL     1      64.644  49.613  35.541  1.00  0.00    -0.013 C 
HETATM   20  C14 UNL     1      65.567  48.684  36.299  1.00  0.00     0.009 C 
HETATM   21  C18 UNL     1      64.996  49.469  34.074  1.00  0.00     0.014 C 
HETATM   22  C15 UNL     1      65.349  47.251  35.852  1.00  0.00    -0.013 C 
HETATM   23  C17 UNL     1      65.612  47.059  34.375  1.00  0.00     0.014 C 
ENDBRANCH  13  14
ENDBRANCH   1  13
TORSDOF 5
ENDMDL
MODEL 3
REMARK VINA RESULT: -8.659353585      0.194      1.597
REMARK  5 active torsions:
REMARK  status: ('A' for Active; 'I' for Inactive)
REMARK    1  A    between atoms: C2_2  and  C5_5 
REMARK    2  A    between atoms: C6_6  and  N1_7 
REMARK    3  A    between atoms: N1_7  and  C7_9 
REMARK    4  A    between atoms: C7_9  and  C8_10 
REMARK    5  A    between atoms: C8_10  and  C9_11 
ROOT
HETATM    1  C7  UNL     1      64.463  49.034  31.353  1.00  0.00     0.057 C 
ENDROOT
BRANCH   1   2
HETATM    2  N1  UNL     1      63.685  48.970  30.225  1.00  0.00    -0.396 N 
ATOM      3  H1  UNL     1      63.664  49.810  29.647  1.00  0.00     0.159 HD
BRANCH   2   4
HETATM    4  C6  UNL     1      62.929  47.907  29.778  1.00  0.00     0.094 A 
HETATM    5  C5  UNL     1      63.221  46.900  28.718  1.00  0.00     0.026 A 
HETATM    6  C19 UNL     1      62.370  48.036  28.348  1.00  0.00    -0.021 A 
HETATM    7  C20 UNL     1      62.755  49.222  27.529  1.00  0.00     0.017 C 
HETATM    8  C21 UNL     1      60.863  47.761  28.170  1.00  0.00     0.017 C 
BRANCH   5   9
HETATM    9  C2  UNL     1      64.480  46.510  28.111  1.00  0.00    -0.045 C 
HETATM   10  C1  UNL     1      64.658  46.550  26.630  1.00  0.00     0.015 C 
HETATM   11  C3  UNL     1      65.700  47.150  28.742  1.00  0.00     0.015 C 
HETATM   12  C4  UNL     1      64.691  44.989  28.431  1.00  0.00     0.015 C 
ENDBRANCH   5   9
ENDBRANCH   2   4
ENDBRANCH   1   2
BRANCH   1  13
HETATM   13  C8  UNL     1      64.625  47.846  32.241  1.00  0.00     0.053 C 
BRANCH  13  14
HETATM   14  C9  UNL     1      64.496  48.088  33.719  1.00  0.00    -0.035 C 
HETATM   15  C10 UNL     1      65.524  47.123  34.340  1.00  0.00     0.014 C 
HETATM   16  C11 UNL     1      65.509  47.136  35.826  1.00  0.00    -0.013 C 
HETATM   17  C12 UNL     1      64.130  46.777  36.308  1.00  0.00     0.009 C 
HETATM   18  C16 UNL     1      65.840  48.531  36.295  1.00  0.00     0.009 C 
HETATM   19  C13 UNL     1      63.148  47.742  35.734  1.00  0.00    -0.013 C 
HETATM   20  C14 UNL     1      63.506  49.147  36.165  1.00  0.00     0.009 C 
HETATM   21  C18 UNL     1      63.142  47.743  34.218  1.00  0.00     0.014 C 
HETATM   22  C15 UNL     1      64.880  49.520  35.641  1.00  0.00    -0.013 C 
HETATM   23  C17 UNL     1      64.958  49.467  34.131  1.00  0.00     0.014 C 
ENDBRANCH  13  14
ENDBRANCH   1  13
TORSDOF 5
ENDMDL
MODEL 4
REMARK VINA RESULT: -8.636569678      1.532      7.176
REMARK  5 active torsions:
REMARK  status: ('A' for Active; 'I' for Inactive)
REMARK    1  A    between atoms: C2_2  and  C5_5 
REMARK    2  A    between atoms: C6_6  and  N1_7 
REMARK    3  A    between atoms: N1_7  and  C7_9 
REMARK    4  A    between atoms: C7_9  and  C8_10 
REMARK    5  A    between atoms: C8_10  and  C9_11 
ROOT
HETATM    1  C7  UNL     1      64.421  48.591  31.595  1.00  0.00     0.057 C 
ENDROOT
BRANCH   1   2
HETATM    2  N1  UNL     1      65.532  47.892  31.992  1.00  0.00    -0.396 N 
ATOM      3  H1  UNL     1      66.425  48.223  31.626  1.00  0.00     0.159 HD
BRANCH   2   4
HETATM    4  C6  UNL     1      65.588  46.796  32.827  1.00  0.00     0.094 A 
HETATM    5  C5  UNL     1      65.648  46.725  34.315  1.00  0.00     0.026 A 
HETATM    6  C19 UNL     1      66.914  46.598  33.586  1.00  0.00    -0.021 A 
HETATM    7  C20 UNL     1      67.984  47.628  33.447  1.00  0.00     0.017 C 
HETATM    8  C21 UNL     1      67.548  45.193  33.511  1.00  0.00     0.017 C 
BRANCH   5   9
HETATM    9  C2  UNL     1      65.309  47.717  35.319  1.00  0.00    -0.045 C 
HETATM   10  C1  UNL     1      65.714  49.144  35.151  1.00  0.00     0.015 C 
HETATM   11  C3  UNL     1      63.856  47.695  35.749  1.00  0.00     0.015 C 
HETATM   12  C4  UNL     1      66.058  47.311  36.636  1.00  0.00     0.015 C 
ENDBRANCH   5   9
ENDBRANCH   2   4
ENDBRANCH   1   2
BRANCH   1  13
HETATM   13  C8  UNL     1      63.360  47.941  30.773  1.00  0.00     0.053 C 
BRANCH  13  14
HETATM   14  C9  UNL     1      63.527  48.009  29.281  1.00  0.00    -0.035 C 
HETATM   15  C10 UNL     1      64.253  49.349  29.054  1.00  0.00     0.014 C 
HETATM   16  C11 UNL     1      64.452  49.666  27.615  1.00  0.00    -0.013 C 
HETATM   17  C12 UNL     1      63.113  49.699  26.929  1.00  0.00     0.009 C 
HETATM   18  C16 UNL     1      65.289  48.574  26.997  1.00  0.00     0.009 C 
HETATM   19  C13 UNL     1      62.437  48.383  27.120  1.00  0.00    -0.013 C 
HETATM   20  C14 UNL     1      63.297  47.281  26.542  1.00  0.00     0.009 C 
HETATM   21  C18 UNL     1      62.219  48.040  28.580  1.00  0.00     0.014 C 
HETATM   22  C15 UNL     1      64.630  47.224  27.265  1.00  0.00    -0.013 C 
HETATM   23  C17 UNL     1      64.473  46.959  28.746  1.00  0.00     0.014 C 
ENDBRANCH  13  14
ENDBRANCH   1  13
TORSDOF 5
ENDMDL
MODEL 5
REMARK VINA RESULT: -8.513051724      1.532      7.163
REMARK  5 active torsions:
REMARK  status: ('A' for Active; 'I' for Inactive)
REMARK    1  A    between atoms: C2_2  and  C5_5 
REMARK    2  A    between atoms: C6_6  and  N1_7 
REMARK    3  A    between atoms: N1_7  and  C7_9 
REMARK    4  A    between atoms: C7_9  and  C8_10 
REMARK    5  A    between atoms: C8_10  and  C9_11 
ROOT
HETATM    1  C7  UNL     1      64.167  48.470  31.684  1.00  0.00     0.057 C 
ENDROOT
BRANCH   1   2
HETATM    2  N1  UNL     1      65.356  47.855  31.981  1.00  0.00    -0.396 N 
ATOM      3  H1  UNL     1      66.184  48.237  31.524  1.00  0.00     0.159 HD
BRANCH   2   4
HETATM    4  C6  UNL     1      65.566  46.783  32.823  1.00  0.00     0.094 A 
HETATM    5  C5  UNL     1      65.723  46.743  34.305  1.00  0.00     0.026 A 
HETATM    6  C19 UNL     1      66.949  46.724  33.500  1.00  0.00    -0.021 A 
HETATM    7  C20 UNL     1      67.905  47.849  33.285  1.00  0.00     0.017 C 
HETATM    8  C21 UNL     1      67.708  45.385  33.401  1.00  0.00     0.017 C 
BRANCH   5   9
HETATM    9  C2  UNL     1      65.351  47.714  35.317  1.00  0.00    -0.045 C 
HETATM   10  C1  UNL     1      65.718  49.153  35.166  1.00  0.00     0.015 C 
HETATM   11  C3  UNL     1      63.897  47.648  35.739  1.00  0.00     0.015 C 
HETATM   12  C4  UNL     1      66.105  47.315  36.634  1.00  0.00     0.015 C 
ENDBRANCH   5   9
ENDBRANCH   2   4
ENDBRANCH   1   2
BRANCH   1  13
HETATM   13  C8  UNL     1      63.204  47.855  30.725  1.00  0.00     0.053 C 
BRANCH  13  14
HETATM   14  C9  UNL     1      63.395  48.189  29.271  1.00  0.00    -0.035 C 
HETATM   15  C10 UNL     1      64.295  47.053  28.748  1.00  0.00     0.014 C 
HETATM   16  C11 UNL     1      64.685  47.230  27.325  1.00  0.00    -0.013 C 
HETATM   17  C12 UNL     1      65.398  48.545  27.170  1.00  0.00     0.009 C 
HETATM   18  C16 UNL     1      63.432  47.254  26.486  1.00  0.00     0.009 C 
HETATM   19  C13 UNL     1      64.504  49.641  27.641  1.00  0.00    -0.013 C 
HETATM   20  C14 UNL     1      63.226  49.637  26.831  1.00  0.00     0.009 C 
HETATM   21  C18 UNL     1      64.095  49.485  29.092  1.00  0.00     0.014 C 
HETATM   22  C15 UNL     1      62.489  48.325  27.024  1.00  0.00    -0.013 C 
HETATM   23  C17 UNL     1      62.120  48.077  28.470  1.00  0.00     0.014 C 
ENDBRANCH  13  14
ENDBRANCH   1  13
TORSDOF 5
ENDMDL
