MODEL 1
REMARK VINA RESULT: -9.946026821      0.000      0.000
REMARK  4 active torsions:
REMARK  status: ('A' for Active; 'I' for Inactive)
REMARK    1  A    between atoms: C1_2  and  C2_3 
REMARK       I    between atoms: C1_2  and  N1_14 
REMARK    2  A    between atoms: C2_3  and  C3_4 
REMARK    3  A    between atoms: N1_14  and  C13_16 
REMARK    4  A    between atoms: C13_16  and  C14_17 
ROOT
HETATM    1  O1  UNL     1      68.112  47.462  31.435  1.00  0.00    -0.274 OA
HETATM    2  C1  UNL     1      66.985  47.000  31.668  1.00  0.00     0.218 C 
HETATM    3  N1  UNL     1      66.019  46.985  30.591  1.00  0.00    -0.361 N 
ATOM      4  H1  UNL     1      65.085  46.606  30.752  1.00  0.00     0.162 HD
ENDROOT
BRANCH   2   5
HETATM    5  C2  UNL     1      66.532  46.464  32.945  1.00  0.00     0.112 C 
BRANCH   5   6
HETATM    6  C3  UNL     1      65.667  47.397  33.736  1.00  0.00    -0.031 C 
HETATM    7  C4  UNL     1      65.846  46.910  35.202  1.00  0.00     0.014 C 
HETATM    8  C5  UNL     1      65.008  47.759  36.090  1.00  0.00    -0.013 C 
HETATM    9  C6  UNL     1      65.425  49.202  35.952  1.00  0.00     0.009 C 
HETATM   10  C10 UNL     1      63.550  47.546  35.702  1.00  0.00     0.009 C 
HETATM   11  C7  UNL     1      65.223  49.674  34.550  1.00  0.00    -0.013 C 
HETATM   12  C8  UNL     1      63.782  49.518  34.166  1.00  0.00     0.009 C 
HETATM   13  C12 UNL     1      66.095  48.828  33.643  1.00  0.00     0.014 C 
HETATM   14  C9  UNL     1      63.352  48.073  34.314  1.00  0.00    -0.013 C 
HETATM   15  C11 UNL     1      64.228  47.273  33.355  1.00  0.00     0.014 C 
ENDBRANCH   5   6
ENDBRANCH   2   5
BRANCH   3  16
HETATM   16  C13 UNL     1      66.359  47.494  29.311  1.00  0.00     0.127 C 
BRANCH  16  17
HETATM   17  C14 UNL     1      65.113  47.763  28.502  1.00  0.00     0.003 C 
HETATM   18  C15 UNL     1      65.442  48.886  27.553  1.00  0.00     0.006 C 
HETATM   19  C16 UNL     1      64.280  49.724  27.170  1.00  0.00     0.000 C 
HETATM   20  C17 UNL     1      63.013  48.984  26.912  1.00  0.00     0.000 C 
HETATM   21  C18 UNL     1      62.183  48.996  28.201  1.00  0.00     0.000 C 
HETATM   22  C19 UNL     1      62.661  47.806  29.007  1.00  0.00     0.000 C 
HETATM   23  C20 UNL     1      64.055  48.181  29.515  1.00  0.00     0.006 C 
ENDBRANCH  16  17
ENDBRANCH   3  16
TORSDOF 4
ENDMDL
MODEL 2
REMARK VINA RESULT: -9.801348181      0.136      1.584
REMARK  4 active torsions:
REMARK  status: ('A' for Active; 'I' for Inactive)
REMARK    1  A    between atoms: C1_2  and  C2_3 
REMARK       I    between atoms: C1_2  and  N1_14 
REMARK    2  A    between atoms: C2_3  and  C3_4 
REMARK    3  A    between atoms: N1_14  and  C13_16 
REMARK    4  A    between atoms: C13_16  and  C14_17 
ROOT
HETATM    1  O1  UNL     1      68.128  47.485  31.499  1.00  0.00    -0.274 OA
HETATM    2  C1  UNL     1      67.018  46.968  31.698  1.00  0.00     0.218 C 
HETATM    3  N1  UNL     1      66.073  46.939  30.601  1.00  0.00    -0.361 N 
ATOM      4  H1  UNL     1      65.155  46.514  30.734  1.00  0.00     0.162 HD
ENDROOT
BRANCH   2   5
HETATM    5  C2  UNL     1      66.566  46.377  32.950  1.00  0.00     0.112 C 
BRANCH   5   6
HETATM    6  C3  UNL     1      65.795  47.311  33.832  1.00  0.00    -0.031 C 
HETATM    7  C4  UNL     1      64.328  47.157  33.338  1.00  0.00     0.014 C 
HETATM    8  C5  UNL     1      63.461  48.064  34.135  1.00  0.00    -0.013 C 
HETATM    9  C6  UNL     1      63.571  47.713  35.598  1.00  0.00     0.009 C 
HETATM   10  C10 UNL     1      63.900  49.496  33.856  1.00  0.00     0.009 C 
HETATM   11  C7  UNL     1      64.974  47.892  36.075  1.00  0.00    -0.013 C 
HETATM   12  C8  UNL     1      65.408  49.310  35.854  1.00  0.00     0.009 C 
HETATM   13  C12 UNL     1      65.860  46.951  35.283  1.00  0.00     0.014 C 
HETATM   14  C9  UNL     1      65.288  49.675  34.389  1.00  0.00    -0.013 C 
HETATM   15  C11 UNL     1      66.225  48.729  33.643  1.00  0.00     0.014 C 
ENDBRANCH   5   6
ENDBRANCH   2   5
BRANCH   3  16
HETATM   16  C13 UNL     1      66.414  47.496  29.342  1.00  0.00     0.127 C 
BRANCH  16  17
HETATM   17  C14 UNL     1      65.169  47.759  28.528  1.00  0.00     0.003 C 
HETATM   18  C15 UNL     1      65.502  48.872  27.568  1.00  0.00     0.006 C 
HETATM   19  C16 UNL     1      64.343  49.709  27.175  1.00  0.00     0.000 C 
HETATM   20  C17 UNL     1      63.074  48.968  26.922  1.00  0.00     0.000 C 
HETATM   21  C18 UNL     1      62.243  48.995  28.210  1.00  0.00     0.000 C 
HETATM   22  C19 UNL     1      62.717  47.812  29.029  1.00  0.00     0.000 C 
HETATM   23  C20 UNL     1      64.111  48.190  29.536  1.00  0.00     0.006 C 
ENDBRANCH  16  17
ENDBRANCH   3  16
TORSDOF 4
ENDMDL
MODEL 3
REMARK VINA RESULT: -9.756034983      0.331      1.328
REMARK  4 active torsions:
REMARK  status: ('A' for Active; 'I' for Inactive)
REMARK    1  A    between atoms: C1_2  and  C2_3 
REMARK       I    between atoms: C1_2  and  N1_14 
REMARK    2  A    between atoms: C2_3  and  C3_4 
REMARK    3  A    between atoms: N1_14  and  C13_16 
REMARK    4  A    between atoms: C13_16  and  C14_17 
ROOT
HETATM    1  O1  UNL     1      68.101  47.460  31.405  1.00  0.00    -0.274 OA
HETATM    2  C1  UNL     1      66.995  47.029  31.766  1.00  0.00     0.218 C 
HETATM    3  N1  UNL     1      65.922  47.006  30.795  1.00  0.00    -0.361 N 
ATOM      4  H1  UNL     1      65.004  46.651  31.062  1.00  0.00     0.162 HD
ENDROOT
BRANCH   2   5
HETATM    5  C2  UNL     1      66.667  46.536  33.098  1.00  0.00     0.112 C 
BRANCH   5   6
HETATM    6  C3  UNL     1      65.722  47.410  33.864  1.00  0.00    -0.031 C 
HETATM    7  C4  UNL     1      65.923  46.964  35.341  1.00  0.00     0.014 C 
HETATM    8  C5  UNL     1      65.011  47.757  36.205  1.00  0.00    -0.013 C 
HETATM    9  C6  UNL     1      65.313  49.227  36.047  1.00  0.00     0.009 C 
HETATM   10  C10 UNL     1      63.579  47.421  35.807  1.00  0.00     0.009 C 
HETATM   11  C7  UNL     1      65.088  49.658  34.635  1.00  0.00    -0.013 C 
HETATM   12  C8  UNL     1      63.669  49.380  34.240  1.00  0.00     0.009 C 
HETATM   13  C12 UNL     1      66.035  48.869  33.751  1.00  0.00     0.014 C 
HETATM   14  C9  UNL     1      63.354  47.908  34.409  1.00  0.00    -0.013 C 
HETATM   15  C11 UNL     1      64.302  47.165  33.472  1.00  0.00     0.014 C 
ENDBRANCH   5   6
ENDBRANCH   2   5
BRANCH   3  16
HETATM   16  C13 UNL     1      66.138  47.472  29.472  1.00  0.00     0.127 C 
BRANCH  16  17
HETATM   17  C14 UNL     1      64.970  48.312  29.013  1.00  0.00     0.003 C 
HETATM   18  C15 UNL     1      63.721  47.633  29.514  1.00  0.00     0.006 C 
HETATM   19  C16 UNL     1      62.520  47.866  28.676  1.00  0.00     0.000 C 
HETATM   20  C17 UNL     1      62.360  49.253  28.155  1.00  0.00     0.000 C 
HETATM   21  C18 UNL     1      62.956  49.302  26.743  1.00  0.00     0.000 C 
HETATM   22  C19 UNL     1      64.431  49.590  26.929  1.00  0.00     0.000 C 
HETATM   23  C20 UNL     1      65.037  48.302  27.492  1.00  0.00     0.006 C 
ENDBRANCH  16  17
ENDBRANCH   3  16
TORSDOF 4
ENDMDL
MODEL 4
REMARK VINA RESULT: -9.633322336      0.330      2.063
REMARK  4 active torsions:
REMARK  status: ('A' for Active; 'I' for Inactive)
REMARK    1  A    between atoms: C1_2  and  C2_3 
REMARK       I    between atoms: C1_2  and  N1_14 
REMARK    2  A    between atoms: C2_3  and  C3_4 
REMARK    3  A    between atoms: N1_14  and  C13_16 
REMARK    4  A    between atoms: C13_16  and  C14_17 
ROOT
HETATM    1  O1  UNL     1      68.123  47.465  31.447  1.00  0.00    -0.274 OA
HETATM    2  C1  UNL     1      67.024  46.981  31.762  1.00  0.00     0.218 C 
HETATM    3  N1  UNL     1      65.978  46.959  30.761  1.00  0.00    -0.361 N 
ATOM      4  H1  UNL     1      65.067  46.562  30.990  1.00  0.00     0.162 HD
ENDROOT
BRANCH   2   5
HETATM    5  C2  UNL     1      66.680  46.423  33.063  1.00  0.00     0.112 C 
BRANCH   5   6
HETATM    6  C3  UNL     1      65.852  47.328  33.923  1.00  0.00    -0.031 C 
HETATM    7  C4  UNL     1      64.407  47.128  33.384  1.00  0.00     0.014 C 
HETATM    8  C5  UNL     1      63.487  48.002  34.157  1.00  0.00    -0.013 C 
HETATM    9  C6  UNL     1      63.563  47.649  35.622  1.00  0.00     0.009 C 
HETATM   10  C10 UNL     1      63.886  49.450  33.897  1.00  0.00     0.009 C 
HETATM   11  C7  UNL     1      64.944  47.871  36.143  1.00  0.00    -0.013 C 
HETATM   12  C8  UNL     1      65.337  49.304  35.940  1.00  0.00     0.009 C 
HETATM   13  C12 UNL     1      65.884  46.963  35.374  1.00  0.00     0.014 C 
HETATM   14  C9  UNL     1      65.251  49.671  34.473  1.00  0.00    -0.013 C 
HETATM   15  C11 UNL     1      66.241  48.760  33.753  1.00  0.00     0.014 C 
ENDBRANCH   5   6
ENDBRANCH   2   5
BRANCH   3  16
HETATM   16  C13 UNL     1      66.211  47.487  29.465  1.00  0.00     0.127 C 
BRANCH  16  17
HETATM   17  C14 UNL     1      65.031  48.314  29.014  1.00  0.00     0.003 C 
HETATM   18  C15 UNL     1      63.791  47.602  29.490  1.00  0.00     0.006 C 
HETATM   19  C16 UNL     1      62.592  47.830  28.647  1.00  0.00     0.000 C 
HETATM   20  C17 UNL     1      62.411  49.225  28.154  1.00  0.00     0.000 C 
HETATM   21  C18 UNL     1      63.017  49.316  26.749  1.00  0.00     0.000 C 
HETATM   22  C19 UNL     1      64.485  49.627  26.954  1.00  0.00     0.000 C 
HETATM   23  C20 UNL     1      65.111  48.339  27.493  1.00  0.00     0.006 C 
ENDBRANCH  16  17
ENDBRANCH   3  16
TORSDOF 4
ENDMDL
MODEL 5
REMARK VINA RESULT: -9.546707882      0.214      1.605
REMARK  4 active torsions:
REMARK  status: ('A' for Active; 'I' for Inactive)
REMARK    1  A    between atoms: C1_2  and  C2_3 
REMARK       I    between atoms: C1_2  and  N1_14 
REMARK    2  A    between atoms: C2_3  and  C3_4 
REMARK    3  A    between atoms: N1_14  and  C13_16 
REMARK    4  A    between atoms: C13_16  and  C14_17 
ROOT
HETATM    1  O1  UNL     1      68.234  47.662  31.514  1.00  0.00    -0.274 OA
HETATM    2  C1  UNL     1      67.166  47.071  31.734  1.00  0.00     0.218 C 
HETATM    3  N1  UNL     1      66.217  46.953  30.647  1.00  0.00    -0.361 N 
ATOM      4  H1  UNL     1      65.332  46.467  30.797  1.00  0.00     0.162 HD
ENDROOT
BRANCH   2   5
HETATM    5  C2  UNL     1      66.767  46.475  33.002  1.00  0.00     0.112 C 
BRANCH   5   6
HETATM    6  C3  UNL     1      65.770  47.281  33.777  1.00  0.00    -0.031 C 
HETATM    7  C4  UNL     1      66.217  48.751  33.535  1.00  0.00     0.014 C 
HETATM    8  C5  UNL     1      65.302  49.654  34.282  1.00  0.00    -0.013 C 
HETATM    9  C6  UNL     1      63.885  49.442  33.812  1.00  0.00     0.009 C 
HETATM   10  C10 UNL     1      65.462  49.357  35.768  1.00  0.00     0.009 C 
HETATM   11  C7  UNL     1      63.450  48.038  34.074  1.00  0.00    -0.013 C 
HETATM   12  C8  UNL     1      63.553  47.742  35.541  1.00  0.00     0.009 C 
HETATM   13  C12 UNL     1      64.364  47.113  33.294  1.00  0.00     0.014 C 
HETATM   14  C9  UNL     1      64.971  47.965  36.024  1.00  0.00    -0.013 C 
HETATM   15  C11 UNL     1      65.841  46.986  35.240  1.00  0.00     0.014 C 
ENDBRANCH   5   6
ENDBRANCH   2   5
BRANCH   3  16
HETATM   16  C13 UNL     1      66.507  47.508  29.374  1.00  0.00     0.127 C 
BRANCH  16  17
HETATM   17  C14 UNL     1      65.232  47.740  28.598  1.00  0.00     0.003 C 
HETATM   18  C15 UNL     1      65.527  48.818  27.586  1.00  0.00     0.006 C 
HETATM   19  C16 UNL     1      64.352  49.638  27.206  1.00  0.00     0.000 C 
HETATM   20  C17 UNL     1      63.077  48.888  27.027  1.00  0.00     0.000 C 
HETATM   21  C18 UNL     1      62.294  48.961  28.343  1.00  0.00     0.000 C 
HETATM   22  C19 UNL     1      62.800  47.809  29.186  1.00  0.00     0.000 C 
HETATM   23  C20 UNL     1      64.211  48.206  29.627  1.00  0.00     0.006 C 
ENDBRANCH  16  17
ENDBRANCH   3  16
TORSDOF 4
ENDMDL
