MODEL 1
REMARK VINA RESULT: -8.801382982      0.000      0.000
REMARK  4 active torsions:
REMARK  status: ('A' for Active; 'I' for Inactive)
REMARK    1  A    between atoms: C14_14  and  C15_15 
REMARK    2  A    between atoms: C15_15  and  C16_16 
REMARK    3  A    between atoms: C16_16  and  C17_17 
REMARK    4  A    between atoms: C17_17  and  O1_18 
ROOT
HETATM    1  C1  UNL     1      67.507  44.247  33.642  1.00  0.00     0.015 C 
HETATM    2  C2  UNL     1      67.525  45.782  33.603  1.00  0.00    -0.044 C 
HETATM    3  C3  UNL     1      68.963  46.182  33.415  1.00  0.00     0.015 C 
HETATM    4  C4  UNL     1      67.004  46.239  34.946  1.00  0.00     0.009 C 
HETATM    5  C5  UNL     1      66.974  47.734  35.041  1.00  0.00     0.001 C 
HETATM    6  C6  UNL     1      66.739  48.423  33.741  1.00  0.00     0.005 C 
HETATM    7  C7  UNL     1      65.951  47.547  32.754  1.00  0.00    -0.005 C 
HETATM    8  C8  UNL     1      66.619  46.239  32.515  1.00  0.00    -0.002 C 
HETATM    9  C9  UNL     1      67.323  46.242  31.150  1.00  0.00     0.006 C 
HETATM   10  C10 UNL     1      66.151  46.310  30.161  1.00  0.00     0.011 C 
HETATM   11  C11 UNL     1      65.577  47.686  30.255  1.00  0.00    -0.032 C 
HETATM   12  C12 UNL     1      66.260  48.519  29.160  1.00  0.00     0.011 C 
HETATM   13  C13 UNL     1      65.388  48.304  27.939  1.00  0.00     0.006 C 
HETATM   14  C14 UNL     1      64.007  48.354  28.531  1.00  0.00    -0.010 C 
HETATM   15  C18 UNL     1      64.129  47.621  29.824  1.00  0.00    -0.002 C 
HETATM   16  C19 UNL     1      63.324  48.290  30.912  1.00  0.00     0.006 C 
HETATM   17  C20 UNL     1      64.306  49.055  31.731  1.00  0.00     0.006 C 
HETATM   18  C21 UNL     1      65.660  48.355  31.551  1.00  0.00    -0.001 C 
ENDROOT
BRANCH  14  19
HETATM   19  C15 UNL     1      62.949  47.831  27.615  1.00  0.00     0.007 C 
BRANCH  19  20
HETATM   20  C16 UNL     1      61.610  48.466  27.802  1.00  0.00     0.026 C 
BRANCH  20  21
HETATM   21  C17 UNL     1      60.740  47.452  28.559  1.00  0.00     0.164 C 
BRANCH  21  22
HETATM   22  O1  UNL     1      59.431  47.626  28.177  1.00  0.00    -0.401 OA
ATOM     23  H1  UNL     1      59.276  47.118  27.388  1.00  0.00     0.209 HD
ENDBRANCH  21  22
ENDBRANCH  20  21
ENDBRANCH  19  20
ENDBRANCH  14  19
TORSDOF 4
ENDMDL
MODEL 2
REMARK VINA RESULT: -8.173000652      2.290      3.810
REMARK  4 active torsions:
REMARK  status: ('A' for Active; 'I' for Inactive)
REMARK    1  A    between atoms: C14_14  and  C15_15 
REMARK    2  A    between atoms: C15_15  and  C16_16 
REMARK    3  A    between atoms: C16_16  and  C17_17 
REMARK    4  A    between atoms: C17_17  and  O1_18 
ROOT
HETATM    1  C1  UNL     1      65.987  49.731  35.216  1.00  0.00     0.015 C 
HETATM    2  C2  UNL     1      65.872  48.296  34.679  1.00  0.00    -0.044 C 
HETATM    3  C3  UNL     1      64.717  47.665  35.408  1.00  0.00     0.015 C 
HETATM    4  C4  UNL     1      67.174  47.616  35.029  1.00  0.00     0.009 C 
HETATM    5  C5  UNL     1      67.191  46.193  34.559  1.00  0.00     0.001 C 
HETATM    6  C6  UNL     1      66.390  45.948  33.327  1.00  0.00     0.005 C 
HETATM    7  C7  UNL     1      66.272  47.206  32.451  1.00  0.00    -0.005 C 
HETATM    8  C8  UNL     1      65.700  48.355  33.202  1.00  0.00    -0.002 C 
HETATM    9  C9  UNL     1      64.232  48.572  32.807  1.00  0.00     0.006 C 
HETATM   10  C10 UNL     1      64.335  49.026  31.344  1.00  0.00     0.011 C 
HETATM   11  C11 UNL     1      64.735  47.831  30.542  1.00  0.00    -0.032 C 
HETATM   12  C12 UNL     1      63.434  47.200  30.022  1.00  0.00     0.011 C 
HETATM   13  C13 UNL     1      63.177  47.918  28.712  1.00  0.00     0.006 C 
HETATM   14  C14 UNL     1      64.559  48.006  28.129  1.00  0.00    -0.010 C 
HETATM   15  C18 UNL     1      65.436  48.318  29.293  1.00  0.00    -0.002 C 
HETATM   16  C19 UNL     1      66.744  47.567  29.212  1.00  0.00     0.006 C 
HETATM   17  C20 UNL     1      66.610  46.418  30.152  1.00  0.00     0.006 C 
HETATM   18  C21 UNL     1      65.574  46.834  31.203  1.00  0.00    -0.001 C 
ENDROOT
BRANCH  14  19
HETATM   19  C15 UNL     1      64.663  48.970  26.993  1.00  0.00     0.007 C 
BRANCH  19  20
HETATM   20  C16 UNL     1      65.482  50.183  27.293  1.00  0.00     0.026 C 
BRANCH  20  21
HETATM   21  C17 UNL     1      66.764  50.072  26.454  1.00  0.00     0.164 C 
BRANCH  21  22
HETATM   22  O1  UNL     1      67.513  51.208  26.647  1.00  0.00    -0.401 OA
ATOM     23  H1  UNL     1      68.364  50.956  26.988  1.00  0.00     0.209 HD
ENDBRANCH  21  22
ENDBRANCH  20  21
ENDBRANCH  19  20
ENDBRANCH  14  19
TORSDOF 4
ENDMDL
MODEL 3
REMARK VINA RESULT: -8.022018185      1.271      1.496
REMARK  4 active torsions:
REMARK  status: ('A' for Active; 'I' for Inactive)
REMARK    1  A    between atoms: C14_14  and  C15_15 
REMARK    2  A    between atoms: C15_15  and  C16_16 
REMARK    3  A    between atoms: C16_16  and  C17_17 
REMARK    4  A    between atoms: C17_17  and  O1_18 
ROOT
HETATM    1  C1  UNL     1      68.264  45.249  33.169  1.00  0.00     0.015 C 
HETATM    2  C2  UNL     1      67.593  46.576  33.551  1.00  0.00    -0.044 C 
HETATM    3  C3  UNL     1      68.651  47.637  33.415  1.00  0.00     0.015 C 
HETATM    4  C4  UNL     1      67.157  46.422  34.989  1.00  0.00     0.009 C 
HETATM    5  C5  UNL     1      66.484  47.663  35.492  1.00  0.00     0.001 C 
HETATM    6  C6  UNL     1      65.753  48.429  34.443  1.00  0.00     0.005 C 
HETATM    7  C7  UNL     1      65.282  47.528  33.289  1.00  0.00    -0.005 C 
HETATM    8  C8  UNL     1      66.409  46.779  32.671  1.00  0.00    -0.002 C 
HETATM    9  C9  UNL     1      66.799  47.416  31.329  1.00  0.00     0.006 C 
HETATM   10  C10 UNL     1      65.572  47.141  30.450  1.00  0.00     0.011 C 
HETATM   11  C11 UNL     1      64.472  48.024  30.944  1.00  0.00    -0.032 C 
HETATM   12  C12 UNL     1      64.521  49.299  30.090  1.00  0.00     0.011 C 
HETATM   13  C13 UNL     1      63.643  48.975  28.897  1.00  0.00     0.006 C 
HETATM   14  C14 UNL     1      62.505  48.235  29.542  1.00  0.00    -0.010 C 
HETATM   15  C18 UNL     1      63.154  47.380  30.577  1.00  0.00    -0.002 C 
HETATM   16  C19 UNL     1      62.330  47.330  31.842  1.00  0.00     0.006 C 
HETATM   17  C20 UNL     1      62.994  48.265  32.795  1.00  0.00     0.006 C 
HETATM   18  C21 UNL     1      64.466  48.347  32.369  1.00  0.00    -0.001 C 
ENDROOT
BRANCH  14  19
HETATM   19  C15 UNL     1      61.651  47.493  28.566  1.00  0.00     0.007 C 
BRANCH  19  20
HETATM   20  C16 UNL     1      60.206  47.871  28.607  1.00  0.00     0.026 C 
BRANCH  20  21
HETATM   21  C17 UNL     1      59.480  46.764  29.385  1.00  0.00     0.164 C 
BRANCH  21  22
HETATM   22  O1  UNL     1      60.334  45.697  29.528  1.00  0.00    -0.401 OA
ATOM     23  H1  UNL     1      60.282  45.386  30.425  1.00  0.00     0.209 HD
ENDBRANCH  21  22
ENDBRANCH  20  21
ENDBRANCH  19  20
ENDBRANCH  14  19
TORSDOF 4
ENDMDL
MODEL 4
REMARK VINA RESULT: -7.649084658      1.543      3.160
REMARK  4 active torsions:
REMARK  status: ('A' for Active; 'I' for Inactive)
REMARK    1  A    between atoms: C14_14  and  C15_15 
REMARK    2  A    between atoms: C15_15  and  C16_16 
REMARK    3  A    between atoms: C16_16  and  C17_17 
REMARK    4  A    between atoms: C17_17  and  O1_18 
ROOT
HETATM    1  C1  UNL     1      65.608  49.735  35.288  1.00  0.00     0.015 C 
HETATM    2  C2  UNL     1      65.712  48.280  34.807  1.00  0.00    -0.044 C 
HETATM    3  C3  UNL     1      64.575  47.539  35.457  1.00  0.00     0.015 C 
HETATM    4  C4  UNL     1      67.046  47.773  35.302  1.00  0.00     0.009 C 
HETATM    5  C5  UNL     1      67.273  46.347  34.900  1.00  0.00     0.001 C 
HETATM    6  C6  UNL     1      66.626  45.967  33.613  1.00  0.00     0.005 C 
HETATM    7  C7  UNL     1      66.446  47.172  32.675  1.00  0.00    -0.005 C 
HETATM    8  C8  UNL     1      65.675  48.269  33.319  1.00  0.00    -0.002 C 
HETATM    9  C9  UNL     1      64.236  48.294  32.784  1.00  0.00     0.006 C 
HETATM   10  C10 UNL     1      64.423  48.708  31.318  1.00  0.00     0.011 C 
HETATM   11  C11 UNL     1      65.034  47.543  30.609  1.00  0.00    -0.032 C 
HETATM   12  C12 UNL     1      63.871  46.744  30.003  1.00  0.00     0.011 C 
HETATM   13  C13 UNL     1      63.656  47.381  28.644  1.00  0.00     0.006 C 
HETATM   14  C14 UNL     1      65.068  47.616  28.184  1.00  0.00    -0.010 C 
HETATM   15  C18 UNL     1      65.789  48.070  29.408  1.00  0.00    -0.002 C 
HETATM   16  C19 UNL     1      67.177  47.479  29.479  1.00  0.00     0.006 C 
HETATM   17  C20 UNL     1      67.090  46.354  30.452  1.00  0.00     0.006 C 
HETATM   18  C21 UNL     1      65.917  46.677  31.387  1.00  0.00    -0.001 C 
ENDROOT
BRANCH  14  19
HETATM   19  C15 UNL     1      65.166  48.546  27.021  1.00  0.00     0.007 C 
BRANCH  19  20
HETATM   20  C16 UNL     1      64.592  49.903  27.272  1.00  0.00     0.026 C 
BRANCH  20  21
HETATM   21  C17 UNL     1      63.145  49.875  26.760  1.00  0.00     0.164 C 
BRANCH  21  22
HETATM   22  O1  UNL     1      62.315  50.300  27.770  1.00  0.00    -0.401 OA
ATOM     23  H1  UNL     1      61.414  50.181  27.492  1.00  0.00     0.209 HD
ENDBRANCH  21  22
ENDBRANCH  20  21
ENDBRANCH  19  20
ENDBRANCH  14  19
TORSDOF 4
ENDMDL
MODEL 5
REMARK VINA RESULT: -7.463635218      1.458      2.585
REMARK  4 active torsions:
REMARK  status: ('A' for Active; 'I' for Inactive)
REMARK    1  A    between atoms: C14_14  and  C15_15 
REMARK    2  A    between atoms: C15_15  and  C16_16 
REMARK    3  A    between atoms: C16_16  and  C17_17 
REMARK    4  A    between atoms: C17_17  and  O1_18 
ROOT
HETATM    1  C1  UNL     1      67.616  44.773  30.417  1.00  0.00     0.015 C 
HETATM    2  C2  UNL     1      67.155  46.113  31.009  1.00  0.00    -0.044 C 
HETATM    3  C3  UNL     1      68.167  47.137  30.571  1.00  0.00     0.015 C 
HETATM    4  C4  UNL     1      67.176  45.934  32.509  1.00  0.00     0.009 C 
HETATM    5  C5  UNL     1      66.747  47.184  33.215  1.00  0.00     0.001 C 
HETATM    6  C6  UNL     1      65.764  48.006  32.455  1.00  0.00     0.005 C 
HETATM    7  C7  UNL     1      64.921  47.158  31.489  1.00  0.00    -0.005 C 
HETATM    8  C8  UNL     1      65.769  46.386  30.541  1.00  0.00    -0.002 C 
HETATM    9  C9  UNL     1      65.756  47.047  29.155  1.00  0.00     0.006 C 
HETATM   10  C10 UNL     1      64.306  46.844  28.693  1.00  0.00     0.011 C 
HETATM   11  C11 UNL     1      63.453  47.753  29.516  1.00  0.00    -0.032 C 
HETATM   12  C12 UNL     1      63.294  49.050  28.709  1.00  0.00     0.011 C 
HETATM   13  C13 UNL     1      62.078  48.795  27.841  1.00  0.00     0.006 C 
HETATM   14  C14 UNL     1      61.161  48.079  28.792  1.00  0.00    -0.010 C 
HETATM   15  C18 UNL     1      62.058  47.171  29.563  1.00  0.00    -0.002 C 
HETATM   16  C19 UNL     1      61.662  47.115  31.020  1.00  0.00     0.006 C 
HETATM   17  C20 UNL     1      62.628  47.996  31.736  1.00  0.00     0.006 C 
HETATM   18  C21 UNL     1      63.899  48.034  30.878  1.00  0.00    -0.001 C 
ENDROOT
BRANCH  14  19
HETATM   19  C15 UNL     1      60.016  47.399  28.115  1.00  0.00     0.007 C 
BRANCH  19  20
HETATM   20  C16 UNL     1      58.672  47.881  28.555  1.00  0.00     0.026 C 
BRANCH  20  21
HETATM   21  C17 UNL     1      58.071  46.778  29.438  1.00  0.00     0.164 C 
BRANCH  21  22
HETATM   22  O1  UNL     1      56.834  47.190  29.873  1.00  0.00    -0.401 OA
ATOM     23  H1  UNL     1      56.205  47.048  29.175  1.00  0.00     0.209 HD
ENDBRANCH  21  22
ENDBRANCH  20  21
ENDBRANCH  19  20
ENDBRANCH  14  19
TORSDOF 4
ENDMDL
