MODEL 1
REMARK VINA RESULT: -6.451045380      0.000      0.000
REMARK  4 active torsions:
REMARK  status: ('A' for Active; 'I' for Inactive)
REMARK    1  A    between atoms: N1_1  and  C1_5 
REMARK    2  A    between atoms: C1_5  and  C2_6 
REMARK    3  A    between atoms: C2_6  and  N2_7 
REMARK    4  A    between atoms: C5_11  and  C6_12 
ROOT
HETATM    1  N2  UNL     1      19.393  16.500  -2.816  1.00  0.00    -0.375 N 
ATOM      2  H2  UNL     1      20.224  16.152  -3.294  1.00  0.00     0.161 HD
HETATM    3  C3  UNL     1      18.706  17.388  -3.430  1.00  0.00     0.103 A 
HETATM    4  C4  UNL     1      19.095  17.841  -4.688  1.00  0.00     0.078 A 
HETATM    5  C5  UNL     1      18.371  18.810  -5.387  1.00  0.00     0.048 A 
HETATM    6  N4  UNL     1      17.263  19.312  -4.812  1.00  0.00    -0.351 N 
ATOM      7  H4  UNL     1      16.710  20.020  -5.294  1.00  0.00     0.166 HD
HETATM    8  C11 UNL     1      16.888  18.868  -3.587  1.00  0.00     0.182 A 
HETATM    9  N5  UNL     1      17.591  17.940  -2.929  1.00  0.00    -0.339 N 
ATOM     10  H5  UNL     1      17.267  17.641  -2.010  1.00  0.00     0.168 HD
ENDROOT
BRANCH   1  11
HETATM   11  C2  UNL     1      19.114  15.951  -1.539  1.00  0.00     0.148 C 
BRANCH  11  12
HETATM   12  C1  UNL     1      19.862  16.611  -0.403  1.00  0.00     0.249 C 
BRANCH  12  13
HETATM   13  N1  UNL     1      20.558  15.636   0.417  1.00  0.00    -0.078 N 
ATOM     14  H13 UNL     1      19.980  15.327   1.198  1.00  0.00     0.274 HD
ATOM     15  H12 UNL     1      20.659  14.746  -0.069  1.00  0.00     0.274 HD
ATOM     16  H11 UNL     1      21.460  15.990   0.737  1.00  0.00     0.274 HD
ENDBRANCH  12  13
ENDBRANCH  11  12
ENDBRANCH   1  11
BRANCH   5  17
HETATM   17  C6  UNL     1      18.816  19.262  -6.715  1.00  0.00     0.006 A 
HETATM   18  C7  UNL     1      18.708  20.572  -7.100  1.00  0.00     0.016 A 
HETATM   19  C8  UNL     1      19.120  21.041  -8.356  1.00  0.00     0.018 A 
HETATM   20  C9  UNL     1      19.654  20.116  -9.221  1.00  0.00     0.087 A 
HETATM   21  N3  UNL     1      19.762  18.827  -8.847  1.00  0.00    -0.374 N 
HETATM   22  C10 UNL     1      19.353  18.388  -7.616  1.00  0.00     0.101 A 
ATOM     23  H3  UNL     1      20.161  18.156  -9.503  1.00  0.00     0.164 HD
ENDBRANCH   5  17
TORSDOF 4
ENDMDL
MODEL 2
REMARK VINA RESULT: -6.404028983      1.285      1.502
REMARK  4 active torsions:
REMARK  status: ('A' for Active; 'I' for Inactive)
REMARK    1  A    between atoms: N1_1  and  C1_5 
REMARK    2  A    between atoms: C1_5  and  C2_6 
REMARK    3  A    between atoms: C2_6  and  N2_7 
REMARK    4  A    between atoms: C5_11  and  C6_12 
ROOT
HETATM    1  N2  UNL     1      19.218  16.549  -2.947  1.00  0.00    -0.375 N 
ATOM      2  H2  UNL     1      19.539  15.864  -3.630  1.00  0.00     0.161 HD
HETATM    3  C3  UNL     1      19.005  17.735  -3.377  1.00  0.00     0.103 A 
HETATM    4  C4  UNL     1      19.208  18.049  -4.719  1.00  0.00     0.078 A 
HETATM    5  C5  UNL     1      18.986  19.333  -5.225  1.00  0.00     0.048 A 
HETATM    6  N4  UNL     1      18.563  20.286  -4.375  1.00  0.00    -0.351 N 
ATOM      7  H4  UNL     1      18.391  21.233  -4.709  1.00  0.00     0.166 HD
HETATM    8  C11 UNL     1      18.367  19.975  -3.070  1.00  0.00     0.182 A 
HETATM    9  N5  UNL     1      18.583  18.742  -2.599  1.00  0.00    -0.339 N 
ATOM     10  H5  UNL     1      18.420  18.561  -1.609  1.00  0.00     0.168 HD
ENDROOT
BRANCH   1  11
HETATM   11  C2  UNL     1      19.053  16.093  -1.614  1.00  0.00     0.148 C 
BRANCH  11  12
HETATM   12  C1  UNL     1      17.646  15.655  -1.278  1.00  0.00     0.249 C 
BRANCH  12  13
HETATM   13  N1  UNL     1      17.158  14.657  -2.211  1.00  0.00    -0.078 N 
ATOM     14  H13 UNL     1      16.852  15.084  -3.086  1.00  0.00     0.274 HD
ATOM     15  H12 UNL     1      17.919  14.083  -2.572  1.00  0.00     0.274 HD
ATOM     16  H11 UNL     1      16.422  14.084  -1.799  1.00  0.00     0.274 HD
ENDBRANCH  12  13
ENDBRANCH  11  12
ENDBRANCH   1  11
BRANCH   5  17
HETATM   17  C6  UNL     1      19.213  19.624  -6.649  1.00  0.00     0.006 A 
HETATM   18  C7  UNL     1      19.138  20.901  -7.141  1.00  0.00     0.016 A 
HETATM   19  C8  UNL     1      19.346  21.218  -8.491  1.00  0.00     0.018 A 
HETATM   20  C9  UNL     1      19.639  20.175  -9.337  1.00  0.00     0.087 A 
HETATM   21  N3  UNL     1      19.714  18.919  -8.859  1.00  0.00    -0.374 N 
HETATM   22  C10 UNL     1      19.506  18.628  -7.537  1.00  0.00     0.101 A 
ATOM     23  H3  UNL     1      19.932  18.159  -9.502  1.00  0.00     0.164 HD
ENDBRANCH   5  17
TORSDOF 4
ENDMDL
MODEL 3
REMARK VINA RESULT: -6.317331996      1.688      1.979
REMARK  4 active torsions:
REMARK  status: ('A' for Active; 'I' for Inactive)
REMARK    1  A    between atoms: N1_1  and  C1_5 
REMARK    2  A    between atoms: C1_5  and  C2_6 
REMARK    3  A    between atoms: C2_6  and  N2_7 
REMARK    4  A    between atoms: C5_11  and  C6_12 
ROOT
HETATM    1  N2  UNL     1      19.316  16.802  -3.278  1.00  0.00    -0.375 N 
ATOM      2  H2  UNL     1      19.589  16.190  -4.047  1.00  0.00     0.161 HD
HETATM    3  C3  UNL     1      19.025  18.011  -3.580  1.00  0.00     0.103 A 
HETATM    4  C4  UNL     1      19.085  18.446  -4.902  1.00  0.00     0.078 A 
HETATM    5  C5  UNL     1      18.775  19.758  -5.269  1.00  0.00     0.048 A 
HETATM    6  N4  UNL     1      18.408  20.618  -4.301  1.00  0.00    -0.351 N 
ATOM      7  H4  UNL     1      18.175  21.583  -4.533  1.00  0.00     0.166 HD
HETATM    8  C11 UNL     1      18.352  20.190  -3.016  1.00  0.00     0.182 A 
HETATM    9  N5  UNL     1      18.651  18.931  -2.679  1.00  0.00    -0.339 N 
ATOM     10  H5  UNL     1      18.593  18.660  -1.697  1.00  0.00     0.168 HD
ENDROOT
BRANCH   1  11
HETATM   11  C2  UNL     1      19.298  16.229  -1.981  1.00  0.00     0.148 C 
BRANCH  11  12
HETATM   12  C1  UNL     1      17.920  15.853  -1.489  1.00  0.00     0.249 C 
BRANCH  12  13
HETATM   13  N1  UNL     1      17.344  14.779  -2.276  1.00  0.00    -0.078 N 
ATOM     14  H13 UNL     1      17.314  13.906  -1.749  1.00  0.00     0.274 HD
ATOM     15  H12 UNL     1      16.343  14.915  -2.415  1.00  0.00     0.274 HD
ATOM     16  H11 UNL     1      17.831  14.661  -3.165  1.00  0.00     0.274 HD
ENDBRANCH  12  13
ENDBRANCH  11  12
ENDBRANCH   1  11
BRANCH   5  17
HETATM   17  C6  UNL     1      18.850  20.178  -6.677  1.00  0.00     0.006 A 
HETATM   18  C7  UNL     1      19.632  19.510  -7.583  1.00  0.00     0.016 A 
HETATM   19  C8  UNL     1      19.730  19.880  -8.932  1.00  0.00     0.018 A 
HETATM   20  C9  UNL     1      18.995  20.969  -9.335  1.00  0.00     0.087 A 
HETATM   21  N3  UNL     1      18.226  21.628  -8.448  1.00  0.00    -0.374 N 
HETATM   22  C10 UNL     1      18.143  21.253  -7.134  1.00  0.00     0.101 A 
ATOM     23  H3  UNL     1      17.687  22.434  -8.766  1.00  0.00     0.164 HD
ENDBRANCH   5  17
TORSDOF 4
ENDMDL
MODEL 4
REMARK VINA RESULT: -6.190324300      1.944      2.589
REMARK  4 active torsions:
REMARK  status: ('A' for Active; 'I' for Inactive)
REMARK    1  A    between atoms: N1_1  and  C1_5 
REMARK    2  A    between atoms: C1_5  and  C2_6 
REMARK    3  A    between atoms: C2_6  and  N2_7 
REMARK    4  A    between atoms: C5_11  and  C6_12 
ROOT
HETATM    1  N2  UNL     1      18.701  17.507  -2.863  1.00  0.00    -0.375 N 
ATOM      2  H2  UNL     1      18.110  18.146  -2.332  1.00  0.00     0.161 HD
HETATM    3  C3  UNL     1      18.873  17.777  -4.102  1.00  0.00     0.103 A 
HETATM    4  C4  UNL     1      18.271  18.895  -4.674  1.00  0.00     0.078 A 
HETATM    5  C5  UNL     1      18.436  19.221  -6.023  1.00  0.00     0.048 A 
HETATM    6  N4  UNL     1      19.204  18.418  -6.781  1.00  0.00    -0.351 N 
ATOM      7  H4  UNL     1      19.346  18.625  -7.769  1.00  0.00     0.166 HD
HETATM    8  C11 UNL     1      19.788  17.330  -6.220  1.00  0.00     0.182 A 
HETATM    9  N5  UNL     1      19.622  17.030  -4.927  1.00  0.00    -0.339 N 
ATOM     10  H5  UNL     1      20.083  16.201  -4.554  1.00  0.00     0.168 HD
ENDROOT
BRANCH   1  11
HETATM   11  C2  UNL     1      19.251  16.408  -2.155  1.00  0.00     0.148 C 
BRANCH  11  12
HETATM   12  C1  UNL     1      19.650  16.724  -0.732  1.00  0.00     0.249 C 
BRANCH  12  13
HETATM   13  N1  UNL     1      19.992  15.523   0.007  1.00  0.00    -0.078 N 
ATOM     14  H13 UNL     1      20.409  15.748   0.911  1.00  0.00     0.274 HD
ATOM     15  H12 UNL     1      19.157  15.037   0.333  1.00  0.00     0.274 HD
ATOM     16  H11 UNL     1      20.594  14.905  -0.537  1.00  0.00     0.274 HD
ENDBRANCH  12  13
ENDBRANCH  11  12
ENDBRANCH   1  11
BRANCH   5  17
HETATM   17  C6  UNL     1      17.782  20.411  -6.589  1.00  0.00     0.006 A 
HETATM   18  C7  UNL     1      16.491  20.740  -6.271  1.00  0.00     0.016 A 
HETATM   19  C8  UNL     1      15.834  21.865  -6.790  1.00  0.00     0.018 A 
HETATM   20  C9  UNL     1      16.547  22.657  -7.658  1.00  0.00     0.087 A 
HETATM   21  N3  UNL     1      17.816  22.338  -7.974  1.00  0.00    -0.374 N 
HETATM   22  C10 UNL     1      18.441  21.234  -7.458  1.00  0.00     0.101 A 
ATOM     23  H3  UNL     1      18.329  22.938  -8.620  1.00  0.00     0.164 HD
ENDBRANCH   5  17
TORSDOF 4
ENDMDL
MODEL 5
REMARK VINA RESULT: -6.168422280      0.964      1.313
REMARK  4 active torsions:
REMARK  status: ('A' for Active; 'I' for Inactive)
REMARK    1  A    between atoms: N1_1  and  C1_5 
REMARK    2  A    between atoms: C1_5  and  C2_6 
REMARK    3  A    between atoms: C2_6  and  N2_7 
REMARK    4  A    between atoms: C5_11  and  C6_12 
ROOT
HETATM    1  N2  UNL     1      19.428  16.695  -3.231  1.00  0.00    -0.375 N 
ATOM      2  H2  UNL     1      20.276  16.482  -3.757  1.00  0.00     0.161 HD
HETATM    3  C3  UNL     1      18.661  17.597  -3.717  1.00  0.00     0.103 A 
HETATM    4  C4  UNL     1      18.989  18.241  -4.907  1.00  0.00     0.078 A 
HETATM    5  C5  UNL     1      18.176  19.230  -5.467  1.00  0.00     0.048 A 
HETATM    6  N4  UNL     1      17.042  19.560  -4.822  1.00  0.00    -0.351 N 
ATOM      7  H4  UNL     1      16.425  20.277  -5.202  1.00  0.00     0.166 HD
HETATM    8  C11 UNL     1      16.727  18.930  -3.664  1.00  0.00     0.182 A 
HETATM    9  N5  UNL     1      17.514  17.985  -3.139  1.00  0.00    -0.339 N 
ATOM     10  H5  UNL     1      17.232  17.541  -2.265  1.00  0.00     0.168 HD
ENDROOT
BRANCH   1  11
HETATM   11  C2  UNL     1      19.218  15.963  -2.036  1.00  0.00     0.148 C 
BRANCH  11  12
HETATM   12  C1  UNL     1      19.865  16.571  -0.813  1.00  0.00     0.249 C 
BRANCH  12  13
HETATM   13  N1  UNL     1      20.174  15.565   0.186  1.00  0.00    -0.078 N 
ATOM     14  H13 UNL     1      21.074  15.747   0.631  1.00  0.00     0.274 HD
ATOM     15  H12 UNL     1      19.571  15.655   1.003  1.00  0.00     0.274 HD
ATOM     16  H11 UNL     1      20.135  14.623  -0.204  1.00  0.00     0.274 HD
ENDBRANCH  12  13
ENDBRANCH  11  12
ENDBRANCH   1  11
BRANCH   5  17
HETATM   17  C6  UNL     1      18.558  19.887  -6.726  1.00  0.00     0.006 A 
HETATM   18  C7  UNL     1      19.399  19.283  -7.623  1.00  0.00     0.016 A 
HETATM   19  C8  UNL     1      19.787  19.877  -8.833  1.00  0.00     0.018 A 
HETATM   20  C9  UNL     1      19.282  21.127  -9.104  1.00  0.00     0.087 A 
HETATM   21  N3  UNL     1      18.455  21.724  -8.225  1.00  0.00    -0.374 N 
HETATM   22  C10 UNL     1      18.088  21.129  -7.048  1.00  0.00     0.101 A 
ATOM     23  H3  UNL     1      18.090  22.651  -8.444  1.00  0.00     0.164 HD
ENDBRANCH   5  17
TORSDOF 4
ENDMDL
