MODEL 1
REMARK VINA RESULT: -6.973572607      0.000      0.000
REMARK  4 active torsions:
REMARK  status: ('A' for Active; 'I' for Inactive)
REMARK    1  A    between atoms: O1_1  and  N1_3 
REMARK    2  A    between atoms: C1_5  and  C2_6 
REMARK    3  A    between atoms: N2_10  and  C6_11 
REMARK    4  A    between atoms: C6_11  and  C7_12 
ROOT
HETATM    1  C2  UNL     1      19.336  19.780  -7.390  1.00  0.00    -0.003 A 
HETATM    2  C3  UNL     1      19.981  20.086  -8.575  1.00  0.00     0.015 A 
HETATM    3  C4  UNL     1      19.597  21.249  -9.210  1.00  0.00     0.018 A 
HETATM    4  C5  UNL     1      18.600  22.062  -8.659  1.00  0.00     0.090 A 
HETATM    5  N2  UNL     1      17.993  21.737  -7.504  1.00  0.00    -0.361 N 
HETATM    6  C12 UNL     1      18.359  20.605  -6.875  1.00  0.00     0.103 A 
ENDROOT
BRANCH   5   7
HETATM    7  C6  UNL     1      16.974  22.536  -6.908  1.00  0.00     0.166 C 
BRANCH   7   8
HETATM    8  C7  UNL     1      15.606  22.023  -7.115  1.00  0.00    -0.037 A 
HETATM    9  C8  UNL     1      15.019  21.987  -8.359  1.00  0.00     0.026 A 
HETATM   10  C9  UNL     1      13.741  21.502  -8.517  1.00  0.00     0.088 A 
HETATM   11  N3  UNL     1      13.066  21.063  -7.442  1.00  0.00    -0.375 N 
HETATM   12  C10 UNL     1      13.572  21.067  -6.201  1.00  0.00     0.088 A 
ATOM     13  H3  UNL     1      12.119  20.709  -7.577  1.00  0.00     0.164 HD
HETATM   14  C11 UNL     1      14.855  21.556  -6.056  1.00  0.00     0.026 A 
ENDBRANCH   7   8
ENDBRANCH   5   7
BRANCH   1  15
HETATM   15  C1  UNL     1      19.698  18.564  -6.670  1.00  0.00     0.126 C 
HETATM   16  N1  UNL     1      19.830  17.458  -7.298  1.00  0.00    -0.280 N 
ATOM     17  H1  UNL     1      19.681  17.426  -8.306  1.00  0.00     0.193 HD
BRANCH  16  18
HETATM   18  O1  UNL     1      20.165  16.330  -6.631  1.00  0.00    -0.290 OA
ATOM     19  H1  UNL     1      19.499  15.695  -6.396  1.00  0.00     0.244 HD
ENDBRANCH  16  18
ENDBRANCH   1  15
TORSDOF 4
ENDMDL
MODEL 2
REMARK VINA RESULT: -6.959839502      0.034      1.178
REMARK  4 active torsions:
REMARK  status: ('A' for Active; 'I' for Inactive)
REMARK    1  A    between atoms: O1_1  and  N1_3 
REMARK    2  A    between atoms: C1_5  and  C2_6 
REMARK    3  A    between atoms: N2_10  and  C6_11 
REMARK    4  A    between atoms: C6_11  and  C7_12 
ROOT
HETATM    1  C2  UNL     1      19.347  19.777  -7.376  1.00  0.00    -0.003 A 
HETATM    2  C3  UNL     1      19.984  20.077  -8.567  1.00  0.00     0.015 A 
HETATM    3  C4  UNL     1      19.600  21.241  -9.201  1.00  0.00     0.018 A 
HETATM    4  C5  UNL     1      18.612  22.060  -8.644  1.00  0.00     0.090 A 
HETATM    5  N2  UNL     1      18.012  21.740  -7.484  1.00  0.00    -0.361 N 
HETATM    6  C12 UNL     1      18.377  20.608  -6.855  1.00  0.00     0.103 A 
ENDROOT
BRANCH   5   7
HETATM    7  C6  UNL     1      17.002  22.545  -6.881  1.00  0.00     0.166 C 
BRANCH   7   8
HETATM    8  C7  UNL     1      15.631  22.032  -7.065  1.00  0.00    -0.037 A 
HETATM    9  C8  UNL     1      14.878  21.563  -6.012  1.00  0.00     0.026 A 
HETATM   10  C9  UNL     1      13.602  21.091  -6.219  1.00  0.00     0.088 A 
HETATM   11  N3  UNL     1      13.094  21.089  -7.462  1.00  0.00    -0.375 N 
HETATM   12  C10 UNL     1      13.767  21.529  -8.535  1.00  0.00     0.088 A 
ATOM     13  H3  UNL     1      12.148  20.734  -7.597  1.00  0.00     0.164 HD
HETATM   14  C11 UNL     1      15.046  22.000  -8.314  1.00  0.00     0.026 A 
ENDBRANCH   7   8
ENDBRANCH   5   7
BRANCH   1  15
HETATM   15  C1  UNL     1      19.708  18.560  -6.656  1.00  0.00     0.126 C 
HETATM   16  N1  UNL     1      19.832  17.453  -7.283  1.00  0.00    -0.280 N 
ATOM     17  H1  UNL     1      19.677  17.420  -8.291  1.00  0.00     0.193 HD
BRANCH  16  18
HETATM   18  O1  UNL     1      20.167  16.324  -6.616  1.00  0.00    -0.290 OA
ATOM     19  H1  UNL     1      19.504  15.680  -6.400  1.00  0.00     0.244 HD
ENDBRANCH  16  18
ENDBRANCH   1  15
TORSDOF 4
ENDMDL
MODEL 3
REMARK VINA RESULT: -6.646027410      2.873      6.034
REMARK  4 active torsions:
REMARK  status: ('A' for Active; 'I' for Inactive)
REMARK    1  A    between atoms: O1_1  and  N1_3 
REMARK    2  A    between atoms: C1_5  and  C2_6 
REMARK    3  A    between atoms: N2_10  and  C6_11 
REMARK    4  A    between atoms: C6_11  and  C7_12 
ROOT
HETATM    1  C2  UNL     1      14.054  21.793  -8.286  1.00  0.00    -0.003 A 
HETATM    2  C3  UNL     1      13.576  21.467  -7.029  1.00  0.00     0.015 A 
HETATM    3  C4  UNL     1      14.447  21.628  -5.971  1.00  0.00     0.018 A 
HETATM    4  C5  UNL     1      15.746  22.100  -6.187  1.00  0.00     0.090 A 
HETATM    5  N2  UNL     1      16.180  22.410  -7.422  1.00  0.00    -0.361 N 
HETATM    6  C12 UNL     1      15.340  22.258  -8.462  1.00  0.00     0.103 A 
ENDROOT
BRANCH   5   7
HETATM    7  C6  UNL     1      17.494  22.895  -7.687  1.00  0.00     0.166 C 
BRANCH   7   8
HETATM    8  C7  UNL     1      18.512  21.836  -7.825  1.00  0.00    -0.037 A 
HETATM    9  C8  UNL     1      19.269  21.405  -6.758  1.00  0.00     0.026 A 
HETATM   10  C9  UNL     1      20.210  20.416  -6.922  1.00  0.00     0.088 A 
HETATM   11  N3  UNL     1      20.388  19.870  -8.136  1.00  0.00    -0.375 N 
HETATM   12  C10 UNL     1      19.689  20.237  -9.220  1.00  0.00     0.088 A 
ATOM     13  H3  UNL     1      21.091  19.138  -8.239  1.00  0.00     0.164 HD
HETATM   14  C11 UNL     1      18.747  21.231  -9.043  1.00  0.00     0.026 A 
ENDBRANCH   7   8
ENDBRANCH   5   7
BRANCH   1  15
HETATM   15  C1  UNL     1      13.181  21.645  -9.445  1.00  0.00     0.126 C 
HETATM   16  N1  UNL     1      12.571  20.542  -9.657  1.00  0.00    -0.280 N 
ATOM     17  H1  UNL     1      12.695  19.762  -9.012  1.00  0.00     0.193 HD
BRANCH  16  18
HETATM   18  O1  UNL     1      11.761  20.405 -10.732  1.00  0.00    -0.290 OA
ATOM     19  H1  UNL     1      12.047  19.905 -11.487  1.00  0.00     0.244 HD
ENDBRANCH  16  18
ENDBRANCH   1  15
TORSDOF 4
ENDMDL
MODEL 4
REMARK VINA RESULT: -6.584999117      2.766      5.864
REMARK  4 active torsions:
REMARK  status: ('A' for Active; 'I' for Inactive)
REMARK    1  A    between atoms: O1_1  and  N1_3 
REMARK    2  A    between atoms: C1_5  and  C2_6 
REMARK    3  A    between atoms: N2_10  and  C6_11 
REMARK    4  A    between atoms: C6_11  and  C7_12 
ROOT
HETATM    1  C2  UNL     1      14.081  21.711  -8.200  1.00  0.00    -0.003 A 
HETATM    2  C3  UNL     1      13.426  21.549  -6.992  1.00  0.00     0.015 A 
HETATM    3  C4  UNL     1      14.179  21.724  -5.849  1.00  0.00     0.018 A 
HETATM    4  C5  UNL     1      15.537  22.049  -5.936  1.00  0.00     0.090 A 
HETATM    5  N2  UNL     1      16.143  22.201  -7.127  1.00  0.00    -0.361 N 
HETATM    6  C12 UNL     1      15.420  22.033  -8.249  1.00  0.00     0.103 A 
ENDROOT
BRANCH   5   7
HETATM    7  C6  UNL     1      17.523  22.533  -7.262  1.00  0.00     0.166 C 
BRANCH   7   8
HETATM    8  C7  UNL     1      18.378  21.403  -7.674  1.00  0.00    -0.037 A 
HETATM    9  C8  UNL     1      19.044  21.390  -8.879  1.00  0.00     0.026 A 
HETATM   10  C9  UNL     1      19.833  20.319  -9.231  1.00  0.00     0.088 A 
HETATM   11  N3  UNL     1      19.950  19.281  -8.387  1.00  0.00    -0.375 N 
HETATM   12  C10 UNL     1      19.333  19.223  -7.199  1.00  0.00     0.088 A 
ATOM     13  H3  UNL     1      20.538  18.495  -8.665  1.00  0.00     0.164 HD
HETATM   14  C11 UNL     1      18.544  20.303  -6.857  1.00  0.00     0.026 A 
ENDBRANCH   7   8
ENDBRANCH   5   7
BRANCH   1  15
HETATM   15  C1  UNL     1      13.340  21.540  -9.445  1.00  0.00     0.126 C 
HETATM   16  N1  UNL     1      12.554  20.542  -9.597  1.00  0.00    -0.280 N 
ATOM     17  H1  UNL     1      12.446  19.863  -8.843  1.00  0.00     0.193 HD
BRANCH  16  18
HETATM   18  O1  UNL     1      11.867  20.383 -10.751  1.00  0.00    -0.290 OA
ATOM     19  H1  UNL     1      11.969  19.592 -11.266  1.00  0.00     0.244 HD
ENDBRANCH  16  18
ENDBRANCH   1  15
TORSDOF 4
ENDMDL
MODEL 5
REMARK VINA RESULT: -6.564990265      1.400      1.927
REMARK  4 active torsions:
REMARK  status: ('A' for Active; 'I' for Inactive)
REMARK    1  A    between atoms: O1_1  and  N1_3 
REMARK    2  A    between atoms: C1_5  and  C2_6 
REMARK    3  A    between atoms: N2_10  and  C6_11 
REMARK    4  A    between atoms: C6_11  and  C7_12 
ROOT
HETATM    1  C2  UNL     1      18.476  19.556  -6.417  1.00  0.00    -0.003 A 
HETATM    2  C3  UNL     1      19.505  20.445  -6.675  1.00  0.00     0.015 A 
HETATM    3  C4  UNL     1      19.167  21.781  -6.749  1.00  0.00     0.018 A 
HETATM    4  C5  UNL     1      17.842  22.189  -6.568  1.00  0.00     0.090 A 
HETATM    5  N2  UNL     1      16.865  21.299  -6.317  1.00  0.00    -0.361 N 
HETATM    6  C12 UNL     1      17.181  19.994  -6.243  1.00  0.00     0.103 A 
ENDROOT
BRANCH   5   7
HETATM    7  C6  UNL     1      15.502  21.671  -6.126  1.00  0.00     0.166 C 
BRANCH   7   8
HETATM    8  C7  UNL     1      14.649  21.470  -7.313  1.00  0.00    -0.037 A 
HETATM    9  C8  UNL     1      13.549  20.643  -7.292  1.00  0.00     0.026 A 
HETATM   10  C9  UNL     1      12.775  20.478  -8.417  1.00  0.00     0.088 A 
HETATM   11  N3  UNL     1      13.102  21.133  -9.543  1.00  0.00    -0.375 N 
HETATM   12  C10 UNL     1      14.156  21.955  -9.639  1.00  0.00     0.088 A 
ATOM     13  H3  UNL     1      12.517  20.998 -10.368  1.00  0.00     0.164 HD
HETATM   14  C11 UNL     1      14.925  22.112  -8.503  1.00  0.00     0.026 A 
ENDBRANCH   7   8
ENDBRANCH   5   7
BRANCH   1  15
HETATM   15  C1  UNL     1      18.769  18.130  -6.326  1.00  0.00     0.126 C 
HETATM   16  N1  UNL     1      19.914  17.682  -6.676  1.00  0.00    -0.280 N 
ATOM     17  H1  UNL     1      20.627  18.325  -7.020  1.00  0.00     0.193 HD
BRANCH  16  18
HETATM   18  O1  UNL     1      20.185  16.359  -6.591  1.00  0.00    -0.290 OA
ATOM     19  H1  UNL     1      20.503  15.885  -7.351  1.00  0.00     0.244 HD
ENDBRANCH  16  18
ENDBRANCH   1  15
TORSDOF 4
ENDMDL
