MODEL 1
REMARK VINA RESULT: -6.272102329      0.000      0.000
REMARK  3 active torsions:
REMARK  status: ('A' for Active; 'I' for Inactive)
REMARK    1  A    between atoms: C2_5  and  S1_6 
REMARK    2  A    between atoms: S1_6  and  C3_8 
REMARK    3  A    between atoms: C3_8  and  C4_9 
ROOT
HETATM    1  S1  UNL     1      18.834  21.500  -7.442  1.00  0.00     0.074 S 
HETATM    2  O2  UNL     1      19.242  22.557  -6.208  1.00  0.00    -0.251 OA
ENDROOT
BRANCH   1   3
HETATM    3  C2  UNL     1      18.980  19.848  -6.995  1.00  0.00     0.127 A 
HETATM    4  N1  UNL     1      19.975  18.960  -7.174  1.00  0.00    -0.293 N 
HETATM    5  C1  UNL     1      19.609  17.792  -6.644  1.00  0.00     0.370 A 
ATOM      6  H1  UNL     1      20.863  19.150  -7.638  1.00  0.00     0.172 HD
HETATM    7  O1  UNL     1      20.265  16.702  -6.606  1.00  0.00    -0.238 OA
HETATM    8  O3  UNL     1      18.412  17.921  -6.138  1.00  0.00    -0.271 OA
HETATM    9  C8  UNL     1      17.992  19.131  -6.322  1.00  0.00     0.186 A 
ENDBRANCH   1   3
BRANCH   1  10
HETATM   10  C3  UNL     1      17.285  21.905  -8.181  1.00  0.00     0.172 C 
BRANCH  10  11
HETATM   11  C4  UNL     1      16.204  21.886  -7.161  1.00  0.00     0.021 A 
HETATM   12  C5  UNL     1      14.914  21.425  -7.308  1.00  0.00     0.027 A 
HETATM   13  C6  UNL     1      14.221  21.587  -6.113  1.00  0.00     0.019 A 
HETATM   14  C7  UNL     1      15.135  22.156  -5.251  1.00  0.00     0.088 A 
HETATM   15  N2  UNL     1      16.293  22.322  -5.892  1.00  0.00    -0.368 N 
ATOM     16  H2  UNL     1      17.133  22.726  -5.476  1.00  0.00     0.165 HD
ENDBRANCH  10  11
ENDBRANCH   1  10
TORSDOF 3
ENDMDL
MODEL 2
REMARK VINA RESULT: -6.260531072      3.221      5.300
REMARK  3 active torsions:
REMARK  status: ('A' for Active; 'I' for Inactive)
REMARK    1  A    between atoms: C2_5  and  S1_6 
REMARK    2  A    between atoms: S1_6  and  C3_8 
REMARK    3  A    between atoms: C3_8  and  C4_9 
ROOT
HETATM    1  S1  UNL     1      19.910  18.252  -5.714  1.00  0.00     0.074 S 
HETATM    2  O2  UNL     1      19.975  17.072  -6.901  1.00  0.00    -0.251 OA
ENDROOT
BRANCH   1   3
HETATM    3  C2  UNL     1      19.649  19.830  -6.340  1.00  0.00     0.127 A 
HETATM    4  N1  UNL     1      19.002  20.895  -5.831  1.00  0.00    -0.293 N 
HETATM    5  C1  UNL     1      19.076  21.900  -6.706  1.00  0.00     0.370 A 
ATOM      6  H1  UNL     1      18.534  20.929  -4.926  1.00  0.00     0.172 HD
HETATM    7  O1  UNL     1      18.594  23.073  -6.603  1.00  0.00    -0.238 OA
HETATM    8  O3  UNL     1      19.750  21.495  -7.749  1.00  0.00    -0.271 OA
HETATM    9  C8  UNL     1      20.114  20.266  -7.579  1.00  0.00     0.186 A 
ENDBRANCH   1   3
BRANCH   1  10
HETATM   10  C3  UNL     1      18.816  17.817  -4.401  1.00  0.00     0.172 C 
BRANCH  10  11
HETATM   11  C4  UNL     1      19.201  18.524  -3.151  1.00  0.00     0.021 A 
HETATM   12  C5  UNL     1      18.447  19.418  -2.422  1.00  0.00     0.027 A 
HETATM   13  C6  UNL     1      19.174  19.851  -1.319  1.00  0.00     0.019 A 
HETATM   14  C7  UNL     1      20.381  19.190  -1.411  1.00  0.00     0.088 A 
HETATM   15  N2  UNL     1      20.371  18.416  -2.498  1.00  0.00    -0.368 N 
ATOM     16  H2  UNL     1      21.147  17.823  -2.794  1.00  0.00     0.165 HD
ENDBRANCH  10  11
ENDBRANCH   1  10
TORSDOF 3
ENDMDL
MODEL 3
REMARK VINA RESULT: -6.081157319      1.128      1.581
REMARK  3 active torsions:
REMARK  status: ('A' for Active; 'I' for Inactive)
REMARK    1  A    between atoms: C2_5  and  S1_6 
REMARK    2  A    between atoms: S1_6  and  C3_8 
REMARK    3  A    between atoms: C3_8  and  C4_9 
ROOT
HETATM    1  S1  UNL     1      18.137  21.580  -6.746  1.00  0.00     0.074 S 
HETATM    2  O2  UNL     1      19.333  22.605  -6.175  1.00  0.00    -0.251 OA
ENDROOT
BRANCH   1   3
HETATM    3  C2  UNL     1      18.536  19.918  -6.588  1.00  0.00     0.127 A 
HETATM    4  N1  UNL     1      19.667  19.242  -6.864  1.00  0.00    -0.293 N 
HETATM    5  C1  UNL     1      19.480  17.955  -6.569  1.00  0.00     0.370 A 
ATOM      6  H1  UNL     1      20.525  19.649  -7.236  1.00  0.00     0.172 HD
HETATM    7  O1  UNL     1      20.304  16.991  -6.685  1.00  0.00    -0.238 OA
HETATM    8  O3  UNL     1      18.265  17.803  -6.117  1.00  0.00    -0.271 OA
HETATM    9  C8  UNL     1      17.660  18.946  -6.109  1.00  0.00     0.186 A 
ENDBRANCH   1   3
BRANCH   1  10
HETATM   10  C3  UNL     1      16.545  21.995  -6.110  1.00  0.00     0.172 C 
BRANCH  10  11
HETATM   11  C4  UNL     1      15.519  21.900  -7.181  1.00  0.00     0.021 A 
HETATM   12  C5  UNL     1      14.378  21.127  -7.188  1.00  0.00     0.027 A 
HETATM   13  C6  UNL     1      13.686  21.326  -8.378  1.00  0.00     0.019 A 
HETATM   14  C7  UNL     1      14.447  22.240  -9.078  1.00  0.00     0.088 A 
HETATM   15  N2  UNL     1      15.520  22.560  -8.351  1.00  0.00    -0.368 N 
ATOM     16  H2  UNL     1      16.243  23.217  -8.645  1.00  0.00     0.165 HD
ENDBRANCH  10  11
ENDBRANCH   1  10
TORSDOF 3
ENDMDL
MODEL 4
REMARK VINA RESULT: -6.070408237      3.205      5.483
REMARK  3 active torsions:
REMARK  status: ('A' for Active; 'I' for Inactive)
REMARK    1  A    between atoms: C2_5  and  S1_6 
REMARK    2  A    between atoms: S1_6  and  C3_8 
REMARK    3  A    between atoms: C3_8  and  C4_9 
ROOT
HETATM    1  S1  UNL     1      19.781  18.572  -6.058  1.00  0.00     0.074 S 
HETATM    2  O2  UNL     1      20.050  17.021  -6.632  1.00  0.00    -0.251 OA
ENDROOT
BRANCH   1   3
HETATM    3  C2  UNL     1      19.603  19.736  -7.307  1.00  0.00     0.127 A 
HETATM    4  N1  UNL     1      19.393  21.065  -7.264  1.00  0.00    -0.293 N 
HETATM    5  C1  UNL     1      19.324  21.529  -8.512  1.00  0.00     0.370 A 
ATOM      6  H1  UNL     1      19.301  21.624  -6.416  1.00  0.00     0.172 HD
HETATM    7  O1  UNL     1      19.136  22.727  -8.900  1.00  0.00    -0.238 OA
HETATM    8  O3  UNL     1      19.486  20.530  -9.338  1.00  0.00    -0.271 OA
HETATM    9  C8  UNL     1      19.655  19.438  -8.667  1.00  0.00     0.186 A 
ENDBRANCH   1   3
BRANCH   1  10
HETATM   10  C3  UNL     1      18.499  18.621  -4.849  1.00  0.00     0.172 C 
BRANCH  10  11
HETATM   11  C4  UNL     1      18.933  17.932  -3.605  1.00  0.00     0.021 A 
HETATM   12  C5  UNL     1      19.076  18.476  -2.347  1.00  0.00     0.027 A 
HETATM   13  C6  UNL     1      19.504  17.494  -1.460  1.00  0.00     0.019 A 
HETATM   14  C7  UNL     1      19.609  16.351  -2.225  1.00  0.00     0.088 A 
HETATM   15  N2  UNL     1      19.269  16.637  -3.483  1.00  0.00    -0.368 N 
ATOM     16  H2  UNL     1      19.265  15.962  -4.248  1.00  0.00     0.165 HD
ENDBRANCH  10  11
ENDBRANCH   1  10
TORSDOF 3
ENDMDL
MODEL 5
REMARK VINA RESULT: -6.014174640      1.317      1.788
REMARK  3 active torsions:
REMARK  status: ('A' for Active; 'I' for Inactive)
REMARK    1  A    between atoms: C2_5  and  S1_6 
REMARK    2  A    between atoms: S1_6  and  C3_8 
REMARK    3  A    between atoms: C3_8  and  C4_9 
ROOT
HETATM    1  S1  UNL     1      18.360  21.725  -6.803  1.00  0.00     0.074 S 
HETATM    2  O2  UNL     1      19.471  22.699  -6.013  1.00  0.00    -0.251 OA
ENDROOT
BRANCH   1   3
HETATM    3  C2  UNL     1      18.939  20.136  -7.098  1.00  0.00     0.127 A 
HETATM    4  N1  UNL     1      19.154  19.097  -6.269  1.00  0.00    -0.293 N 
HETATM    5  C1  UNL     1      19.614  18.068  -6.982  1.00  0.00     0.370 A 
ATOM      6  H1  UNL     1      18.992  19.098  -5.263  1.00  0.00     0.172 HD
HETATM    7  O1  UNL     1      19.938  16.906  -6.574  1.00  0.00    -0.238 OA
HETATM    8  O3  UNL     1      19.695  18.431  -8.234  1.00  0.00    -0.271 OA
HETATM    9  C8  UNL     1      19.304  19.657  -8.355  1.00  0.00     0.186 A 
ENDBRANCH   1   3
BRANCH   1  10
HETATM   10  C3  UNL     1      16.771  21.774  -6.040  1.00  0.00     0.172 C 
BRANCH  10  11
HETATM   11  C4  UNL     1      15.702  21.824  -7.072  1.00  0.00     0.021 A 
HETATM   12  C5  UNL     1      14.478  21.193  -7.049  1.00  0.00     0.027 A 
HETATM   13  C6  UNL     1      13.772  21.498  -8.208  1.00  0.00     0.019 A 
HETATM   14  C7  UNL     1      14.611  22.330  -8.920  1.00  0.00     0.088 A 
HETATM   15  N2  UNL     1      15.739  22.505  -8.230  1.00  0.00    -0.368 N 
ATOM     16  H2  UNL     1      16.524  23.078  -8.541  1.00  0.00     0.165 HD
ENDBRANCH  10  11
ENDBRANCH   1  10
TORSDOF 3
ENDMDL
