MODEL 1
REMARK VINA RESULT: -10.219351095      0.000      0.000
REMARK  4 active torsions:
REMARK  status: ('A' for Active; 'I' for Inactive)
REMARK    1  A    between atoms: C2_3  and  C3_4 
REMARK    2  A    between atoms: C3_4  and  C4_5 
REMARK    3  A    between atoms: C11_16  and  N3_17 
REMARK    4  A    between atoms: N3_17  and  C12_19 
ROOT
HETATM    1  O1  UNL     1       8.161  -0.348  19.749  1.00  0.00    -0.263 OA
HETATM    2  C1  UNL     1       9.270   0.226  19.898  1.00  0.00     0.310 A 
HETATM    3  C2  UNL     1      10.483  -0.035  19.280  1.00  0.00     0.120 A 
HETATM    4  N1  UNL     1      11.412   0.816  19.729  1.00  0.00    -0.184 N 
ATOM      5  H1  UNL     1      12.392   0.856  19.449  1.00  0.00     0.184 HD
HETATM    6  C10 UNL     1      10.790   1.613  20.629  1.00  0.00     0.722 A 
HETATM    7  N2  UNL     1      10.945   2.641  21.483  1.00  0.00    -0.019 N 
ATOM      8  H2  UNL     1      11.823   3.137  21.636  1.00  0.00     0.203 HD
HETATM    9  C11 UNL     1       9.790   2.930  22.107  1.00  0.00     0.713 A 
HETATM   10  N6  UNL     1       8.890   2.054  21.626  1.00  0.00    -0.107 N 
ATOM     11  H6  UNL     1       7.908   2.003  21.897  1.00  0.00     0.207 HD
HETATM   12  N7  UNL     1       9.497   1.257  20.731  1.00  0.00    -0.031 N 
ENDROOT
BRANCH   9  13
HETATM   13  N3  UNL     1       9.592   3.870  22.997  1.00  0.00    -0.190 N 
ATOM     14  H3  UNL     1       9.096   4.723  22.740  1.00  0.00     0.184 HD
BRANCH  13  15
HETATM   15  C12 UNL     1      10.067   3.700  24.304  1.00  0.00     0.050 A 
HETATM   16  C13 UNL     1       9.929   2.468  24.910  1.00  0.00     0.032 A 
HETATM   17  C14 UNL     1      10.389   2.302  26.179  1.00  0.00     0.034 A 
HETATM   18  C15 UNL     1      10.986   3.339  26.864  1.00  0.00     0.059 A 
HETATM   19  N4  UNL     1      11.512   3.430  28.101  1.00  0.00    -0.300 N 
HETATM   20  C17 UNL     1      11.114   4.561  26.243  1.00  0.00     0.011 A 
HETATM   21  N5  UNL     1      11.951   4.657  28.247  1.00  0.00    -0.311 N 
ATOM     22  H4  UNL     1      11.561   2.682  28.794  1.00  0.00     0.187 HD
HETATM   23  C16 UNL     1      11.740   5.394  27.160  1.00  0.00     0.120 A 
ATOM     24  H5  UNL     1      12.399   5.005  29.094  1.00  0.00     0.186 HD
HETATM   25  C18 UNL     1      10.658   4.779  24.945  1.00  0.00     0.045 A 
ENDBRANCH  13  15
ENDBRANCH   9  13
BRANCH   3  26
HETATM   26  C3  UNL     1      10.643  -0.989  18.390  1.00  0.00     0.047 C 
BRANCH  26  27
HETATM   27  C4  UNL     1      11.958  -1.550  18.067  1.00  0.00    -0.034 A 
HETATM   28  C5  UNL     1      12.513  -2.471  18.914  1.00  0.00     0.011 A 
HETATM   29  C6  UNL     1      13.764  -3.044  18.664  1.00  0.00     0.001 A 
HETATM   30  C7  UNL     1      14.435  -2.658  17.532  1.00  0.00     0.000 A 
HETATM   31  C8  UNL     1      13.918  -1.734  16.647  1.00  0.00     0.001 A 
HETATM   32  C9  UNL     1      12.667  -1.189  16.941  1.00  0.00     0.011 A 
ENDBRANCH  26  27
ENDBRANCH   3  26
TORSDOF 4
ENDMDL
MODEL 2
REMARK VINA RESULT: -10.081913940      0.782      1.617
REMARK  4 active torsions:
REMARK  status: ('A' for Active; 'I' for Inactive)
REMARK    1  A    between atoms: C2_3  and  C3_4 
REMARK    2  A    between atoms: C3_4  and  C4_5 
REMARK    3  A    between atoms: C11_16  and  N3_17 
REMARK    4  A    between atoms: N3_17  and  C12_19 
ROOT
HETATM    1  O1  UNL     1       8.263  -0.555  19.723  1.00  0.00    -0.263 OA
HETATM    2  C1  UNL     1       9.356  -0.143  20.190  1.00  0.00     0.310 A 
HETATM    3  C2  UNL     1      10.626  -0.680  20.054  1.00  0.00     0.120 A 
HETATM    4  N1  UNL     1      11.510   0.077  20.713  1.00  0.00    -0.184 N 
ATOM      5  H1  UNL     1      12.516  -0.077  20.785  1.00  0.00     0.184 HD
HETATM    6  C10 UNL     1      10.801   1.090  21.265  1.00  0.00     0.722 A 
HETATM    7  N2  UNL     1      10.873   2.202  22.020  1.00  0.00    -0.019 N 
ATOM      8  H2  UNL     1      11.735   2.574  22.418  1.00  0.00     0.203 HD
HETATM    9  C11 UNL     1       9.659   2.758  22.179  1.00  0.00     0.713 A 
HETATM   10  N6  UNL     1       8.808   1.967  21.502  1.00  0.00    -0.107 N 
ATOM     11  H6  UNL     1       7.801   2.110  21.422  1.00  0.00     0.207 HD
HETATM   12  N7  UNL     1       9.501   0.957  20.950  1.00  0.00    -0.031 N 
ENDROOT
BRANCH   9  13
HETATM   13  N3  UNL     1       9.376   3.844  22.854  1.00  0.00    -0.190 N 
ATOM     14  H3  UNL     1       8.623   4.458  22.544  1.00  0.00     0.184 HD
BRANCH  13  15
HETATM   15  C12 UNL     1      10.111   4.158  24.005  1.00  0.00     0.050 A 
HETATM   16  C13 UNL     1      10.934   5.265  23.990  1.00  0.00     0.032 A 
HETATM   17  C14 UNL     1      11.648   5.570  25.106  1.00  0.00     0.034 A 
HETATM   18  C15 UNL     1      11.562   4.796  26.244  1.00  0.00     0.059 A 
HETATM   19  N4  UNL     1      12.153   4.882  27.452  1.00  0.00    -0.300 N 
HETATM   20  C17 UNL     1      10.736   3.695  26.238  1.00  0.00     0.011 A 
HETATM   21  N5  UNL     1      11.714   3.878  28.171  1.00  0.00    -0.311 N 
ATOM     22  H4  UNL     1      12.818   5.597  27.750  1.00  0.00     0.187 HD
HETATM   23  C16 UNL     1      10.853   3.120  27.497  1.00  0.00     0.120 A 
ATOM     24  H5  UNL     1      11.999   3.699  29.134  1.00  0.00     0.186 HD
HETATM   25  C18 UNL     1       9.985   3.342  25.119  1.00  0.00     0.045 A 
ENDBRANCH  13  15
ENDBRANCH   9  13
BRANCH   3  26
HETATM   26  C3  UNL     1      10.873  -1.773  19.367  1.00  0.00     0.047 C 
BRANCH  26  27
HETATM   27  C4  UNL     1      12.092  -1.944  18.573  1.00  0.00    -0.034 A 
HETATM   28  C5  UNL     1      12.223  -1.252  17.400  1.00  0.00     0.011 A 
HETATM   29  C6  UNL     1      13.361  -1.370  16.596  1.00  0.00     0.001 A 
HETATM   30  C7  UNL     1      14.362  -2.209  17.015  1.00  0.00     0.000 A 
HETATM   31  C8  UNL     1      14.278  -2.928  18.190  1.00  0.00     0.001 A 
HETATM   32  C9  UNL     1      13.122  -2.777  18.958  1.00  0.00     0.011 A 
ENDBRANCH  26  27
ENDBRANCH   3  26
TORSDOF 4
ENDMDL
MODEL 3
REMARK VINA RESULT: -10.039518194      2.002      2.359
REMARK  4 active torsions:
REMARK  status: ('A' for Active; 'I' for Inactive)
REMARK    1  A    between atoms: C2_3  and  C3_4 
REMARK    2  A    between atoms: C3_4  and  C4_5 
REMARK    3  A    between atoms: C11_16  and  N3_17 
REMARK    4  A    between atoms: N3_17  and  C12_19 
ROOT
HETATM    1  O1  UNL     1      11.134   2.070  18.328  1.00  0.00    -0.263 OA
HETATM    2  C1  UNL     1      12.155   2.295  19.027  1.00  0.00     0.310 A 
HETATM    3  C2  UNL     1      13.452   1.836  18.860  1.00  0.00     0.120 A 
HETATM    4  N1  UNL     1      14.232   2.319  19.833  1.00  0.00    -0.184 N 
ATOM      5  H1  UNL     1      15.229   2.148  19.961  1.00  0.00     0.184 HD
HETATM    6  C10 UNL     1      13.431   3.081  20.615  1.00  0.00     0.722 A 
HETATM    7  N2  UNL     1      13.381   3.865  21.707  1.00  0.00    -0.019 N 
ATOM      8  H2  UNL     1      14.181   4.077  22.303  1.00  0.00     0.203 HD
HETATM    9  C11 UNL     1      12.137   4.334  21.909  1.00  0.00     0.713 A 
HETATM   10  N6  UNL     1      11.392   3.825  20.912  1.00  0.00    -0.107 N 
ATOM     11  H6  UNL     1      10.395   3.988  20.772  1.00  0.00     0.207 HD
HETATM   12  N7  UNL     1      12.177   3.067  20.129  1.00  0.00    -0.031 N 
ENDROOT
BRANCH   9  13
HETATM   13  N3  UNL     1      11.743   5.122  22.879  1.00  0.00    -0.190 N 
ATOM     14  H3  UNL     1      11.733   6.133  22.746  1.00  0.00     0.184 HD
BRANCH  13  15
HETATM   15  C12 UNL     1      11.335   4.570  24.100  1.00  0.00     0.050 A 
HETATM   16  C13 UNL     1      10.597   3.403  24.092  1.00  0.00     0.032 A 
HETATM   17  C14 UNL     1      10.201   2.867  25.277  1.00  0.00     0.034 A 
HETATM   18  C15 UNL     1      10.523   3.466  26.477  1.00  0.00     0.059 A 
HETATM   19  N4  UNL     1      10.256   3.143  27.757  1.00  0.00    -0.300 N 
HETATM   20  C17 UNL     1      11.259   4.629  26.463  1.00  0.00     0.011 A 
HETATM   21  N5  UNL     1      10.803   4.065  28.513  1.00  0.00    -0.311 N 
ATOM     22  H4  UNL     1       9.728   2.331  28.079  1.00  0.00     0.187 HD
HETATM   23  C16 UNL     1      11.425   4.994  27.792  1.00  0.00     0.120 A 
ATOM     24  H5  UNL     1      10.756   4.070  29.531  1.00  0.00     0.186 HD
HETATM   25  C18 UNL     1      11.687   5.217  25.275  1.00  0.00     0.045 A 
ENDBRANCH  13  15
ENDBRANCH   9  13
BRANCH   3  26
HETATM   26  C3  UNL     1      13.811   1.045  17.873  1.00  0.00     0.047 C 
BRANCH  26  27
HETATM   27  C4  UNL     1      13.855  -0.413  18.012  1.00  0.00    -0.034 A 
HETATM   28  C5  UNL     1      13.229  -0.998  19.079  1.00  0.00     0.011 A 
HETATM   29  C6  UNL     1      13.233  -2.383  19.269  1.00  0.00     0.001 A 
HETATM   30  C7  UNL     1      13.889  -3.158  18.348  1.00  0.00     0.000 A 
HETATM   31  C8  UNL     1      14.535  -2.616  17.255  1.00  0.00     0.001 A 
HETATM   32  C9  UNL     1      14.503  -1.229  17.109  1.00  0.00     0.011 A 
ENDBRANCH  26  27
ENDBRANCH   3  26
TORSDOF 4
ENDMDL
MODEL 4
REMARK VINA RESULT: -9.935930180      2.278      3.017
REMARK  4 active torsions:
REMARK  status: ('A' for Active; 'I' for Inactive)
REMARK    1  A    between atoms: C2_3  and  C3_4 
REMARK    2  A    between atoms: C3_4  and  C4_5 
REMARK    3  A    between atoms: C11_16  and  N3_17 
REMARK    4  A    between atoms: N3_17  and  C12_19 
ROOT
HETATM    1  O1  UNL     1      14.852   2.410  20.408  1.00  0.00    -0.263 OA
HETATM    2  C1  UNL     1      13.679   2.599  19.995  1.00  0.00     0.310 A 
HETATM    3  C2  UNL     1      13.074   2.150  18.832  1.00  0.00     0.120 A 
HETATM    4  N1  UNL     1      11.809   2.581  18.784  1.00  0.00    -0.184 N 
ATOM      5  H1  UNL     1      11.129   2.402  18.045  1.00  0.00     0.184 HD
HETATM    6  C10 UNL     1      11.613   3.301  19.914  1.00  0.00     0.722 A 
HETATM    7  N2  UNL     1      10.725   4.027  20.617  1.00  0.00    -0.019 N 
ATOM      8  H2  UNL     1       9.764   4.206  20.324  1.00  0.00     0.203 HD
HETATM    9  C11 UNL     1      11.270   4.485  21.757  1.00  0.00     0.713 A 
HETATM   10  N6  UNL     1      12.535   4.029  21.762  1.00  0.00    -0.107 N 
ATOM     11  H6  UNL     1      13.225   4.200  22.494  1.00  0.00     0.207 HD
HETATM   12  N7  UNL     1      12.742   3.312  20.645  1.00  0.00    -0.031 N 
ENDROOT
BRANCH   9  13
HETATM   13  N3  UNL     1      10.683   5.222  22.668  1.00  0.00    -0.190 N 
ATOM     14  H3  UNL     1      10.084   5.999  22.390  1.00  0.00     0.184 HD
BRANCH  13  15
HETATM   15  C12 UNL     1      10.881   4.937  24.025  1.00  0.00     0.050 A 
HETATM   16  C13 UNL     1      11.671   5.782  24.777  1.00  0.00     0.032 A 
HETATM   17  C14 UNL     1      11.863   5.506  26.094  1.00  0.00     0.034 A 
HETATM   18  C15 UNL     1      11.286   4.403  26.685  1.00  0.00     0.059 A 
HETATM   19  N4  UNL     1      11.321   3.919  27.943  1.00  0.00    -0.300 N 
HETATM   20  C17 UNL     1      10.502   3.571  25.918  1.00  0.00     0.011 A 
HETATM   21  N5  UNL     1      10.590   2.831  27.961  1.00  0.00    -0.311 N 
ATOM     22  H4  UNL     1      11.823   4.325  28.733  1.00  0.00     0.187 HD
HETATM   23  C16 UNL     1      10.065   2.563  26.768  1.00  0.00     0.120 A 
ATOM     24  H5  UNL     1      10.441   2.257  28.791  1.00  0.00     0.186 HD
HETATM   25  C18 UNL     1      10.276   3.812  24.565  1.00  0.00     0.045 A 
ENDBRANCH  13  15
ENDBRANCH   9  13
BRANCH   3  26
HETATM   26  C3  UNL     1      13.697   1.412  17.940  1.00  0.00     0.047 C 
BRANCH  26  27
HETATM   27  C4  UNL     1      13.754  -0.050  18.031  1.00  0.00    -0.034 A 
HETATM   28  C5  UNL     1      14.403  -0.751  17.052  1.00  0.00     0.011 A 
HETATM   29  C6  UNL     1      14.494  -2.146  17.079  1.00  0.00     0.001 A 
HETATM   30  C7  UNL     1      13.909  -2.809  18.128  1.00  0.00     0.000 A 
HETATM   31  C8  UNL     1      13.244  -2.148  19.140  1.00  0.00     0.001 A 
HETATM   32  C9  UNL     1      13.180  -0.755  19.067  1.00  0.00     0.011 A 
ENDBRANCH  26  27
ENDBRANCH   3  26
TORSDOF 4
ENDMDL
MODEL 5
REMARK VINA RESULT: -9.926295479      2.017      2.761
REMARK  4 active torsions:
REMARK  status: ('A' for Active; 'I' for Inactive)
REMARK    1  A    between atoms: C2_3  and  C3_4 
REMARK    2  A    between atoms: C3_4  and  C4_5 
REMARK    3  A    between atoms: C11_16  and  N3_17 
REMARK    4  A    between atoms: N3_17  and  C12_19 
ROOT
HETATM    1  O1  UNL     1      11.054   2.115  18.384  1.00  0.00    -0.263 OA
HETATM    2  C1  UNL     1      12.022   2.444  19.118  1.00  0.00     0.310 A 
HETATM    3  C2  UNL     1      13.355   2.075  19.029  1.00  0.00     0.120 A 
HETATM    4  N1  UNL     1      14.051   2.654  20.013  1.00  0.00    -0.184 N 
ATOM      5  H1  UNL     1      15.051   2.563  20.193  1.00  0.00     0.184 HD
HETATM    6  C10 UNL     1      13.161   3.388  20.723  1.00  0.00     0.722 A 
HETATM    7  N2  UNL     1      13.003   4.212  21.775  1.00  0.00    -0.019 N 
ATOM      8  H2  UNL     1      13.757   4.507  22.396  1.00  0.00     0.203 HD
HETATM    9  C11 UNL     1      11.721   4.596  21.900  1.00  0.00     0.713 A 
HETATM   10  N6  UNL     1      11.063   3.992  20.894  1.00  0.00    -0.107 N 
ATOM     11  H6  UNL     1      10.064   4.076  20.704  1.00  0.00     0.207 HD
HETATM   12  N7  UNL     1      11.936   3.261  20.183  1.00  0.00    -0.031 N 
ENDROOT
BRANCH   9  13
HETATM   13  N3  UNL     1      11.226   5.393  22.814  1.00  0.00    -0.190 N 
ATOM     14  H3  UNL     1      10.805   6.282  22.545  1.00  0.00     0.184 HD
BRANCH  13  15
HETATM   15  C12 UNL     1      11.277   5.019  24.163  1.00  0.00     0.050 A 
HETATM   16  C13 UNL     1      12.061   5.751  25.030  1.00  0.00     0.032 A 
HETATM   17  C14 UNL     1      12.111   5.389  26.340  1.00  0.00     0.034 A 
HETATM   18  C15 UNL     1      11.395   4.308  26.810  1.00  0.00     0.059 A 
HETATM   19  N4  UNL     1      11.278   3.755  28.033  1.00  0.00    -0.300 N 
HETATM   20  C17 UNL     1      10.619   3.589  25.929  1.00  0.00     0.011 A 
HETATM   21  N5  UNL     1      10.462   2.734  27.921  1.00  0.00    -0.311 N 
ATOM     22  H4  UNL     1      11.738   4.073  28.887  1.00  0.00     0.187 HD
HETATM   23  C16 UNL     1      10.028   2.578  26.674  1.00  0.00     0.120 A 
ATOM     24  H5  UNL     1      10.194   2.131  28.699  1.00  0.00     0.186 HD
HETATM   25  C18 UNL     1      10.536   3.922  24.579  1.00  0.00     0.045 A 
ENDBRANCH  13  15
ENDBRANCH   9  13
BRANCH   3  26
HETATM   26  C3  UNL     1      13.815   1.271  18.097  1.00  0.00     0.047 C 
BRANCH  26  27
HETATM   27  C4  UNL     1      13.794  -0.187  18.236  1.00  0.00    -0.034 A 
HETATM   28  C5  UNL     1      14.356  -0.956  17.253  1.00  0.00     0.011 A 
HETATM   29  C6  UNL     1      14.370  -2.352  17.324  1.00  0.00     0.001 A 
HETATM   30  C7  UNL     1      13.799  -2.947  18.420  1.00  0.00     0.000 A 
HETATM   31  C8  UNL     1      13.220  -2.216  19.438  1.00  0.00     0.001 A 
HETATM   32  C9  UNL     1      13.231  -0.826  19.320  1.00  0.00     0.011 A 
ENDBRANCH  26  27
ENDBRANCH   3  26
TORSDOF 4
ENDMDL
