MODEL 1
REMARK VINA RESULT: -9.324238301      0.000      0.000
REMARK  3 active torsions:
REMARK  status: ('A' for Active; 'I' for Inactive)
REMARK    1  A    between atoms: N1_1  and  N2_4 
REMARK    2  A    between atoms: C12_17  and  C13_18 
REMARK    3  A    between atoms: C13_18  and  C14_19 
ROOT
HETATM    1  N2  UNL     1      12.433   3.390  21.746  1.00  0.00    -0.306 N 
ATOM      2  H2  UNL     1      11.889   3.525  22.599  1.00  0.00     0.186 HD
HETATM    3  C1  UNL     1      12.148   2.334  21.147  1.00  0.00     0.071 A 
HETATM    4  C2  UNL     1      12.725   1.805  19.900  1.00  0.00     0.004 A 
HETATM    5  C3  UNL     1      13.730   2.279  19.062  1.00  0.00     0.014 A 
HETATM    6  C4  UNL     1      14.080   1.559  17.940  1.00  0.00     0.001 A 
HETATM    7  C5  UNL     1      13.460   0.386  17.639  1.00  0.00     0.001 A 
HETATM    8  C6  UNL     1      12.468  -0.102  18.453  1.00  0.00     0.013 A 
HETATM    9  C7  UNL     1      12.107   0.621  19.593  1.00  0.00    -0.012 A 
HETATM   10  C8  UNL     1      11.111   0.314  20.610  1.00  0.00    -0.011 A 
HETATM   11  C9  UNL     1      10.250  -0.752  20.740  1.00  0.00     0.013 A 
HETATM   12  C10 UNL     1       9.398  -0.824  21.805  1.00  0.00     0.002 A 
HETATM   13  C11 UNL     1       9.405   0.164  22.739  1.00  0.00     0.021 A 
HETATM   14  C12 UNL     1      10.300   1.305  22.634  1.00  0.00     0.024 A 
HETATM   15  C18 UNL     1      11.128   1.344  21.561  1.00  0.00     0.022 A 
ENDROOT
BRANCH  14  16
HETATM   16  C13 UNL     1      10.222   2.194  23.720  1.00  0.00    -0.093 C 
BRANCH  16  17
HETATM   17  C14 UNL     1      10.170   2.983  24.687  1.00  0.00     0.146 A 
HETATM   18  C15 UNL     1      10.452   4.438  24.461  1.00  0.00     0.271 A 
HETATM   19  O1  UNL     1      10.618   4.947  23.323  1.00  0.00    -0.266 OA
HETATM   20  N3  UNL     1      10.546   5.291  25.594  1.00  0.00    -0.299 N 
HETATM   21  C16 UNL     1      10.380   4.804  26.888  1.00  0.00     0.181 A 
ATOM     22  H3  UNL     1      10.739   6.283  25.456  1.00  0.00     0.171 HD
HETATM   23  S1  UNL     1      10.535   5.879  28.131  1.00  0.00    -0.040 SA
HETATM   24  N4  UNL     1      10.109   3.438  27.168  1.00  0.00    -0.299 N 
HETATM   25  C17 UNL     1      10.002   2.526  26.107  1.00  0.00     0.271 A 
ATOM     26  H4  UNL     1       9.995   3.123  28.131  1.00  0.00     0.171 HD
HETATM   27  O2  UNL     1       9.770   1.320  26.367  1.00  0.00    -0.266 OA
ENDBRANCH  16  17
ENDBRANCH  14  16
BRANCH   1  28
HETATM   28  N1  UNL     1      13.304   4.394  21.511  1.00  0.00    -0.345 N 
ATOM     29  H12 UNL     1      13.089   4.885  20.643  1.00  0.00     0.176 HD
ATOM     30  H11 UNL     1      14.115   4.757  22.010  1.00  0.00     0.176 HD
ENDBRANCH   1  28
TORSDOF 3
ENDMDL
MODEL 2
REMARK VINA RESULT: -9.185558828      0.226      1.706
REMARK  3 active torsions:
REMARK  status: ('A' for Active; 'I' for Inactive)
REMARK    1  A    between atoms: N1_1  and  N2_4 
REMARK    2  A    between atoms: C12_17  and  C13_18 
REMARK    3  A    between atoms: C13_18  and  C14_19 
ROOT
HETATM    1  N2  UNL     1      12.537   3.383  21.727  1.00  0.00    -0.306 N 
ATOM      2  H2  UNL     1      12.025   3.549  22.594  1.00  0.00     0.186 HD
HETATM    3  C1  UNL     1      12.199   2.328  21.153  1.00  0.00     0.071 A 
HETATM    4  C2  UNL     1      12.718   1.761  19.898  1.00  0.00     0.004 A 
HETATM    5  C3  UNL     1      13.712   2.188  19.023  1.00  0.00     0.014 A 
HETATM    6  C4  UNL     1      14.003   1.440  17.902  1.00  0.00     0.001 A 
HETATM    7  C5  UNL     1      13.335   0.285  17.638  1.00  0.00     0.001 A 
HETATM    8  C6  UNL     1      12.352  -0.157  18.490  1.00  0.00     0.013 A 
HETATM    9  C7  UNL     1      12.051   0.594  19.629  1.00  0.00    -0.012 A 
HETATM   10  C8  UNL     1      11.078   0.336  20.681  1.00  0.00    -0.011 A 
HETATM   11  C9  UNL     1      10.187  -0.697  20.854  1.00  0.00     0.013 A 
HETATM   12  C10 UNL     1       9.366  -0.724  21.946  1.00  0.00     0.002 A 
HETATM   13  C11 UNL     1       9.436   0.277  22.864  1.00  0.00     0.021 A 
HETATM   14  C12 UNL     1      10.365   1.385  22.712  1.00  0.00     0.024 A 
HETATM   15  C18 UNL     1      11.159   1.379  21.615  1.00  0.00     0.022 A 
ENDROOT
BRANCH  14  16
HETATM   16  C13 UNL     1      10.350   2.292  23.787  1.00  0.00    -0.093 C 
BRANCH  16  17
HETATM   17  C14 UNL     1      10.354   3.100  24.739  1.00  0.00     0.146 A 
HETATM   18  C15 UNL     1       9.978   2.619  26.109  1.00  0.00     0.271 A 
HETATM   19  O1  UNL     1       9.777   1.410  26.392  1.00  0.00    -0.266 OA
HETATM   20  N3  UNL     1       9.832   3.581  27.145  1.00  0.00    -0.299 N 
HETATM   21  C16 UNL     1      10.032   4.939  26.912  1.00  0.00     0.181 A 
ATOM     22  H3  UNL     1       9.574   3.269  28.081  1.00  0.00     0.171 HD
HETATM   23  S1  UNL     1       9.810   5.970  28.181  1.00  0.00    -0.040 SA
HETATM   24  N4  UNL     1      10.390   5.456  25.639  1.00  0.00    -0.299 N 
HETATM   25  C17 UNL     1      10.554   4.576  24.558  1.00  0.00     0.271 A 
ATOM     26  H4  UNL     1      10.527   6.459  25.511  1.00  0.00     0.171 HD
HETATM   27  O2  UNL     1      10.864   5.046  23.437  1.00  0.00    -0.266 OA
ENDBRANCH  16  17
ENDBRANCH  14  16
BRANCH   1  28
HETATM   28  N1  UNL     1      13.433   4.353  21.449  1.00  0.00    -0.345 N 
ATOM     29  H12 UNL     1      13.353   4.677  20.485  1.00  0.00     0.176 HD
ATOM     30  H11 UNL     1      14.159   4.820  21.991  1.00  0.00     0.176 HD
ENDBRANCH   1  28
TORSDOF 3
ENDMDL
MODEL 3
REMARK VINA RESULT: -8.806586628      2.637      3.760
REMARK  3 active torsions:
REMARK  status: ('A' for Active; 'I' for Inactive)
REMARK    1  A    between atoms: N1_1  and  N2_4 
REMARK    2  A    between atoms: C12_17  and  C13_18 
REMARK    3  A    between atoms: C13_18  and  C14_19 
ROOT
HETATM    1  N2  UNL     1      12.857   2.056  18.788  1.00  0.00    -0.306 N 
ATOM      2  H2  UNL     1      12.255   2.648  19.361  1.00  0.00     0.186 HD
HETATM    3  C1  UNL     1      12.638   0.838  18.945  1.00  0.00     0.071 A 
HETATM    4  C2  UNL     1      13.309  -0.303  18.302  1.00  0.00     0.004 A 
HETATM    5  C3  UNL     1      14.357  -0.375  17.388  1.00  0.00     0.014 A 
HETATM    6  C4  UNL     1      14.798  -1.606  16.951  1.00  0.00     0.001 A 
HETATM    7  C5  UNL     1      14.227  -2.755  17.402  1.00  0.00     0.001 A 
HETATM    8  C6  UNL     1      13.194  -2.707  18.305  1.00  0.00     0.013 A 
HETATM    9  C7  UNL     1      12.741  -1.465  18.754  1.00  0.00    -0.012 A 
HETATM   10  C8  UNL     1      11.687  -1.151  19.709  1.00  0.00    -0.011 A 
HETATM   11  C9  UNL     1      10.844  -1.968  20.426  1.00  0.00     0.013 A 
HETATM   12  C10 UNL     1       9.924  -1.430  21.281  1.00  0.00     0.002 A 
HETATM   13  C11 UNL     1       9.846  -0.080  21.420  1.00  0.00     0.021 A 
HETATM   14  C12 UNL     1      10.720   0.814  20.677  1.00  0.00     0.024 A 
HETATM   15  C18 UNL     1      11.616   0.244  19.836  1.00  0.00     0.022 A 
ENDROOT
BRANCH  14  16
HETATM   16  C13 UNL     1      10.548   2.173  20.995  1.00  0.00    -0.093 C 
BRANCH  16  17
HETATM   17  C14 UNL     1      10.412   3.382  21.280  1.00  0.00     0.146 A 
HETATM   18  C15 UNL     1       9.922   3.762  22.645  1.00  0.00     0.271 A 
HETATM   19  O1  UNL     1       9.756   2.937  23.580  1.00  0.00    -0.266 OA
HETATM   20  N3  UNL     1       9.621   5.127  22.897  1.00  0.00    -0.299 N 
HETATM   21  C16 UNL     1       9.774   6.101  21.914  1.00  0.00     0.181 A 
ATOM     22  H3  UNL     1       9.285   5.401  23.821  1.00  0.00     0.171 HD
HETATM   23  S1  UNL     1       9.370   7.652  22.310  1.00  0.00    -0.040 SA
HETATM   24  N4  UNL     1      10.235   5.806  20.604  1.00  0.00    -0.299 N 
HETATM   25  C17 UNL     1      10.554   4.481  20.267  1.00  0.00     0.271 A 
ATOM     26  H4  UNL     1      10.332   6.549  19.913  1.00  0.00     0.171 HD
HETATM   27  O2  UNL     1      10.953   4.231  19.105  1.00  0.00    -0.266 OA
ENDBRANCH  16  17
ENDBRANCH  14  16
BRANCH   1  28
HETATM   28  N1  UNL     1      13.719   2.761  18.025  1.00  0.00    -0.345 N 
ATOM     29  H12 UNL     1      14.447   3.202  18.586  1.00  0.00     0.176 HD
ATOM     30  H11 UNL     1      13.792   2.941  17.024  1.00  0.00     0.176 HD
ENDBRANCH   1  28
TORSDOF 3
ENDMDL
MODEL 4
REMARK VINA RESULT: -8.758876747      2.254      2.997
REMARK  3 active torsions:
REMARK  status: ('A' for Active; 'I' for Inactive)
REMARK    1  A    between atoms: N1_1  and  N2_4 
REMARK    2  A    between atoms: C12_17  and  C13_18 
REMARK    3  A    between atoms: C13_18  and  C14_19 
ROOT
HETATM    1  N2  UNL     1      13.471   1.820  19.777  1.00  0.00    -0.306 N 
ATOM      2  H2  UNL     1      12.881   2.285  20.467  1.00  0.00     0.186 HD
HETATM    3  C1  UNL     1      12.848   1.002  19.072  1.00  0.00     0.071 A 
HETATM    4  C2  UNL     1      13.362   0.146  17.990  1.00  0.00     0.004 A 
HETATM    5  C3  UNL     1      14.640  -0.027  17.465  1.00  0.00     0.014 A 
HETATM    6  C4  UNL     1      14.841  -0.922  16.436  1.00  0.00     0.001 A 
HETATM    7  C5  UNL     1      13.807  -1.644  15.926  1.00  0.00     0.001 A 
HETATM    8  C6  UNL     1      12.539  -1.492  16.430  1.00  0.00     0.013 A 
HETATM    9  C7  UNL     1      12.327  -0.588  17.474  1.00  0.00    -0.012 A 
HETATM   10  C8  UNL     1      11.098  -0.260  18.182  1.00  0.00    -0.011 A 
HETATM   11  C9  UNL     1       9.814  -0.731  18.031  1.00  0.00     0.013 A 
HETATM   12  C10 UNL     1       8.811  -0.269  18.835  1.00  0.00     0.002 A 
HETATM   13  C11 UNL     1       9.088   0.659  19.789  1.00  0.00     0.021 A 
HETATM   14  C12 UNL     1      10.433   1.180  19.977  1.00  0.00     0.024 A 
HETATM   15  C18 UNL     1      11.400   0.702  19.157  1.00  0.00     0.022 A 
ENDROOT
BRANCH  14  16
HETATM   16  C13 UNL     1      10.551   2.080  21.051  1.00  0.00    -0.093 C 
BRANCH  16  17
HETATM   17  C14 UNL     1      10.663   2.867  22.014  1.00  0.00     0.146 A 
HETATM   18  C15 UNL     1      11.917   2.844  22.836  1.00  0.00     0.271 A 
HETATM   19  O1  UNL     1      12.932   2.163  22.540  1.00  0.00    -0.266 OA
HETATM   20  N3  UNL     1      11.962   3.629  24.020  1.00  0.00    -0.299 N 
HETATM   21  C16 UNL     1      10.878   4.407  24.420  1.00  0.00     0.181 A 
ATOM     22  H3  UNL     1      12.807   3.623  24.590  1.00  0.00     0.171 HD
HETATM   23  S1  UNL     1      11.031   5.259  25.825  1.00  0.00    -0.040 SA
HETATM   24  N4  UNL     1       9.665   4.472  23.685  1.00  0.00    -0.299 N 
HETATM   25  C17 UNL     1       9.534   3.726  22.503  1.00  0.00     0.271 A 
ATOM     26  H4  UNL     1       8.895   5.054  24.013  1.00  0.00     0.171 HD
HETATM   27  O2  UNL     1       8.455   3.786  21.866  1.00  0.00    -0.266 OA
ENDBRANCH  16  17
ENDBRANCH  14  16
BRANCH   1  28
HETATM   28  N1  UNL     1      14.758   2.223  19.826  1.00  0.00    -0.345 N 
ATOM     29  H12 UNL     1      15.260   1.793  20.603  1.00  0.00     0.176 HD
ATOM     30  H11 UNL     1      15.323   2.855  19.259  1.00  0.00     0.176 HD
ENDBRANCH   1  28
TORSDOF 3
ENDMDL
MODEL 5
REMARK VINA RESULT: -8.701395326      1.140      1.301
REMARK  3 active torsions:
REMARK  status: ('A' for Active; 'I' for Inactive)
REMARK    1  A    between atoms: N1_1  and  N2_4 
REMARK    2  A    between atoms: C12_17  and  C13_18 
REMARK    3  A    between atoms: C13_18  and  C14_19 
ROOT
HETATM    1  N2  UNL     1      12.769   2.486  20.801  1.00  0.00    -0.306 N 
ATOM      2  H2  UNL     1      12.243   2.847  21.597  1.00  0.00     0.186 HD
HETATM    3  C1  UNL     1      12.379   1.363  20.426  1.00  0.00     0.071 A 
HETATM    4  C2  UNL     1      12.897   0.533  19.326  1.00  0.00     0.004 A 
HETATM    5  C3  UNL     1      13.945   0.721  18.430  1.00  0.00     0.014 A 
HETATM    6  C4  UNL     1      14.220  -0.246  17.487  1.00  0.00     0.001 A 
HETATM    7  C5  UNL     1      13.483  -1.387  17.420  1.00  0.00     0.001 A 
HETATM    8  C6  UNL     1      12.446  -1.595  18.296  1.00  0.00     0.013 A 
HETATM    9  C7  UNL     1      12.161  -0.621  19.256  1.00  0.00    -0.012 A 
HETATM   10  C8  UNL     1      11.140  -0.610  20.294  1.00  0.00    -0.011 A 
HETATM   11  C9  UNL     1      10.175  -1.535  20.622  1.00  0.00     0.013 A 
HETATM   12  C10 UNL     1       9.320  -1.300  21.661  1.00  0.00     0.002 A 
HETATM   13  C11 UNL     1       9.429  -0.146  22.373  1.00  0.00     0.021 A 
HETATM   14  C12 UNL     1      10.436   0.853  22.054  1.00  0.00     0.024 A 
HETATM   15  C18 UNL     1      11.263   0.587  21.013  1.00  0.00     0.022 A 
ENDROOT
BRANCH  14  16
HETATM   16  C13 UNL     1      10.450   1.950  22.933  1.00  0.00    -0.093 C 
BRANCH  16  17
HETATM   17  C14 UNL     1      10.477   2.928  23.710  1.00  0.00     0.146 A 
HETATM   18  C15 UNL     1      10.932   4.260  23.194  1.00  0.00     0.271 A 
HETATM   19  O1  UNL     1      11.172   4.492  21.981  1.00  0.00    -0.266 OA
HETATM   20  N3  UNL     1      11.111   5.319  24.125  1.00  0.00    -0.299 N 
HETATM   21  C16 UNL     1      10.871   5.142  25.485  1.00  0.00     0.181 A 
ATOM     22  H3  UNL     1      11.422   6.230  23.788  1.00  0.00     0.171 HD
HETATM   23  S1  UNL     1      11.136   6.432  26.478  1.00  0.00    -0.040 SA
HETATM   24  N4  UNL     1      10.438   3.906  26.035  1.00  0.00    -0.299 N 
HETATM   25  C17 UNL     1      10.238   2.806  25.187  1.00  0.00     0.271 A 
ATOM     26  H4  UNL     1      10.274   3.818  27.037  1.00  0.00     0.171 HD
HETATM   27  O2  UNL     1       9.862   1.718  25.685  1.00  0.00    -0.266 OA
ENDBRANCH  16  17
ENDBRANCH  14  16
BRANCH   1  28
HETATM   28  N1  UNL     1      13.738   3.328  20.383  1.00  0.00    -0.345 N 
ATOM     29  H12 UNL     1      13.956   3.193  19.396  1.00  0.00     0.176 HD
ATOM     30  H11 UNL     1      14.287   4.056  20.839  1.00  0.00     0.176 HD
ENDBRANCH   1  28
TORSDOF 3
ENDMDL
