MODEL 1
REMARK VINA RESULT: -8.598036720      0.000      0.000
REMARK  2 active torsions:
REMARK  status: ('A' for Active; 'I' for Inactive)
REMARK    1  A    between atoms: C4_4  and  N1_5 
REMARK    2  A    between atoms: N1_5  and  C5_7 
ROOT
HETATM    1  C1  UNL     1      10.710   3.928  18.829  1.00  0.00     0.018 C 
HETATM    2  C2  UNL     1      10.526   4.056  20.009  1.00  0.00    -0.070 C 
HETATM    3  C3  UNL     1      10.312   4.227  21.416  1.00  0.00     0.112 A 
HETATM    4  C4  UNL     1      10.431   3.170  22.284  1.00  0.00     0.070 A 
HETATM    5  C11 UNL     1      10.211   3.401  23.625  1.00  0.00     0.019 A 
HETATM    6  C12 UNL     1      10.323   2.353  24.536  1.00  0.00     0.016 A 
HETATM    7  C13 UNL     1      10.105   2.578  25.875  1.00  0.00     0.001 A 
HETATM    8  C14 UNL     1       9.776   3.847  26.301  1.00  0.00     0.002 A 
HETATM    9  C15 UNL     1       9.663   4.896  25.398  1.00  0.00     0.031 A 
HETATM   10  C16 UNL     1       9.880   4.678  24.054  1.00  0.00     0.049 A 
HETATM   11  N7  UNL     1       9.762   5.713  23.210  1.00  0.00    -0.317 N 
HETATM   12  C17 UNL     1       9.409   7.048  23.710  1.00  0.00     0.159 C 
HETATM   13  C18 UNL     1       9.979   5.473  21.901  1.00  0.00     0.268 A 
HETATM   14  O1  UNL     1       9.862   6.472  21.115  1.00  0.00    -0.266 OA
ENDROOT
BRANCH   4  15
HETATM   15  N1  UNL     1      10.773   1.856  21.833  1.00  0.00    -0.339 N 
ATOM     16  H1  UNL     1      11.713   1.494  21.988  1.00  0.00     0.167 HD
BRANCH  15  17
HETATM   17  C5  UNL     1       9.892   1.126  21.226  1.00  0.00     0.124 A 
HETATM   18  N2  UNL     1       8.628   1.055  21.681  1.00  0.00    -0.338 N 
HETATM   19  C6  UNL     1       7.773   0.275  20.996  1.00  0.00     0.183 A 
ATOM     20  H2  UNL     1       8.331   1.570  22.510  1.00  0.00     0.168 HD
HETATM   21  N3  UNL     1       8.138  -0.419  19.894  1.00  0.00    -0.337 N 
HETATM   22  C7  UNL     1       9.396  -0.362  19.421  1.00  0.00     0.138 A 
ATOM     23  H3  UNL     1       7.447  -0.996  19.413  1.00  0.00     0.168 HD
HETATM   24  N4  UNL     1      10.055  -0.912  18.387  1.00  0.00    -0.283 N 
HETATM   25  C10 UNL     1      10.309   0.432  20.101  1.00  0.00     0.098 A 
HETATM   26  N5  UNL     1      11.299  -0.492  18.413  1.00  0.00    -0.283 N 
ATOM     27  H4  UNL     1       9.657  -1.549  17.697  1.00  0.00     0.188 HD
HETATM   28  C8  UNL     1      11.517   0.337  19.444  1.00  0.00     0.133 A 
ATOM     29  H5  UNL     1      12.012  -0.762  17.735  1.00  0.00     0.188 HD
HETATM   30  N6  UNL     1      12.585   0.951  19.810  1.00  0.00    -0.379 N 
HETATM   31  C9  UNL     1      13.846   0.868  19.147  1.00  0.00     0.147 C 
ATOM     32  H6  UNL     1      12.527   1.543  20.638  1.00  0.00     0.160 HD
ENDBRANCH  15  17
ENDBRANCH   4  15
TORSDOF 2
ENDMDL
MODEL 2
REMARK VINA RESULT: -8.412179401      1.366      2.781
REMARK  2 active torsions:
REMARK  status: ('A' for Active; 'I' for Inactive)
REMARK    1  A    between atoms: C4_4  and  N1_5 
REMARK    2  A    between atoms: N1_5  and  C5_7 
ROOT
HETATM    1  C1  UNL     1       9.642   3.904  19.829  1.00  0.00     0.018 C 
HETATM    2  C2  UNL     1       9.876   4.209  20.967  1.00  0.00    -0.070 C 
HETATM    3  C3  UNL     1      10.162   4.589  22.319  1.00  0.00     0.112 A 
HETATM    4  C4  UNL     1      10.444   3.645  23.276  1.00  0.00     0.070 A 
HETATM    5  C11 UNL     1      10.710   4.076  24.558  1.00  0.00     0.019 A 
HETATM    6  C12 UNL     1      11.001   3.148  25.555  1.00  0.00     0.016 A 
HETATM    7  C13 UNL     1      11.267   3.573  26.835  1.00  0.00     0.001 A 
HETATM    8  C14 UNL     1      11.242   4.921  27.117  1.00  0.00     0.002 A 
HETATM    9  C15 UNL     1      10.953   5.853  26.128  1.00  0.00     0.031 A 
HETATM   10  C16 UNL     1      10.685   5.433  24.842  1.00  0.00     0.049 A 
HETATM   11  N7  UNL     1      10.410   6.359  23.911  1.00  0.00    -0.317 N 
HETATM   12  C17 UNL     1      10.394   7.786  24.258  1.00  0.00     0.159 C 
HETATM   13  C18 UNL     1      10.151   5.924  22.662  1.00  0.00     0.268 A 
HETATM   14  O1  UNL     1       9.892   6.821  21.791  1.00  0.00    -0.266 OA
ENDROOT
BRANCH   4  15
HETATM   15  N1  UNL     1      10.468   2.247  22.973  1.00  0.00    -0.339 N 
ATOM     16  H1  UNL     1       9.703   1.647  23.279  1.00  0.00     0.167 HD
BRANCH  15  17
HETATM   17  C5  UNL     1      11.461   1.741  22.311  1.00  0.00     0.124 A 
HETATM   18  N2  UNL     1      12.727   2.101  22.589  1.00  0.00    -0.338 N 
HETATM   19  C6  UNL     1      13.700   1.532  21.856  1.00  0.00     0.183 A 
ATOM     20  H2  UNL     1      12.939   2.778  23.323  1.00  0.00     0.168 HD
HETATM   21  N3  UNL     1      13.450   0.633  20.878  1.00  0.00    -0.337 N 
HETATM   22  C7  UNL     1      12.192   0.258  20.584  1.00  0.00     0.138 A 
ATOM     23  H3  UNL     1      14.228   0.233  20.354  1.00  0.00     0.168 HD
HETATM   24  N4  UNL     1      11.625  -0.582  19.700  1.00  0.00    -0.283 N 
HETATM   25  C10 UNL     1      11.158   0.824  21.317  1.00  0.00     0.098 A 
HETATM   26  N5  UNL     1      10.323  -0.548  19.867  1.00  0.00    -0.283 N 
ATOM     27  H4  UNL     1      12.123  -1.151  19.015  1.00  0.00     0.188 HD
HETATM   28  C8  UNL     1       9.974   0.299  20.847  1.00  0.00     0.133 A 
ATOM     29  H5  UNL     1       9.660  -1.097  19.320  1.00  0.00     0.188 HD
HETATM   30  N6  UNL     1       8.816   0.608  21.307  1.00  0.00    -0.379 N 
HETATM   31  C9  UNL     1       7.577   0.078  20.836  1.00  0.00     0.147 C 
ATOM     32  H6  UNL     1       8.778   1.285  22.068  1.00  0.00     0.160 HD
ENDBRANCH  15  17
ENDBRANCH   4  15
TORSDOF 2
ENDMDL
MODEL 3
REMARK VINA RESULT: -8.378479861      2.687      7.187
REMARK  2 active torsions:
REMARK  status: ('A' for Active; 'I' for Inactive)
REMARK    1  A    between atoms: C4_4  and  N1_5 
REMARK    2  A    between atoms: N1_5  and  C5_7 
ROOT
HETATM    1  C1  UNL     1       9.975   2.040  26.410  1.00  0.00     0.018 C 
HETATM    2  C2  UNL     1      10.034   2.414  25.270  1.00  0.00    -0.070 C 
HETATM    3  C3  UNL     1      10.113   2.844  23.905  1.00  0.00     0.112 A 
HETATM    4  C4  UNL     1      10.167   4.177  23.584  1.00  0.00     0.070 A 
HETATM    5  C11 UNL     1      10.242   4.525  22.252  1.00  0.00     0.019 A 
HETATM    6  C12 UNL     1      10.298   5.869  21.888  1.00  0.00     0.016 A 
HETATM    7  C13 UNL     1      10.372   6.220  20.561  1.00  0.00     0.001 A 
HETATM    8  C14 UNL     1      10.390   5.231  19.601  1.00  0.00     0.002 A 
HETATM    9  C15 UNL     1      10.334   3.890  19.957  1.00  0.00     0.031 A 
HETATM   10  C16 UNL     1      10.259   3.530  21.286  1.00  0.00     0.049 A 
HETATM   11  N7  UNL     1      10.206   2.226  21.594  1.00  0.00    -0.317 N 
HETATM   12  C17 UNL     1      10.227   1.206  20.537  1.00  0.00     0.159 C 
HETATM   13  C18 UNL     1      10.133   1.900  22.900  1.00  0.00     0.268 A 
HETATM   14  O1  UNL     1      10.084   0.654  23.172  1.00  0.00    -0.266 OA
ENDROOT
BRANCH   4  15
HETATM   15  N1  UNL     1      10.149   5.197  24.588  1.00  0.00    -0.339 N 
ATOM     16  H1  UNL     1      11.023   5.616  24.903  1.00  0.00     0.167 HD
BRANCH  15  17
HETATM   17  C5  UNL     1       9.023   5.589  25.097  1.00  0.00     0.124 A 
HETATM   18  N2  UNL     1       7.965   5.848  24.307  1.00  0.00    -0.338 N 
HETATM   19  C6  UNL     1       6.834   6.251  24.912  1.00  0.00     0.183 A 
ATOM     20  H2  UNL     1       8.019   5.743  23.294  1.00  0.00     0.168 HD
HETATM   21  N3  UNL     1       6.733   6.399  26.252  1.00  0.00    -0.337 N 
HETATM   22  C7  UNL     1       7.778   6.145  27.060  1.00  0.00     0.138 A 
ATOM     23  H3  UNL     1       5.849   6.708  26.657  1.00  0.00     0.168 HD
HETATM   24  N4  UNL     1       7.996   6.194  28.386  1.00  0.00    -0.283 N 
HETATM   25  C10 UNL     1       8.964   5.728  26.474  1.00  0.00     0.098 A 
HETATM   26  N5  UNL     1       9.236   5.830  28.619  1.00  0.00    -0.283 N 
ATOM     27  H4  UNL     1       7.313   6.468  29.093  1.00  0.00     0.188 HD
HETATM   28  C8  UNL     1       9.883   5.531  27.483  1.00  0.00     0.133 A 
ATOM     29  H5  UNL     1       9.656   5.781  29.547  1.00  0.00     0.188 HD
HETATM   30  N6  UNL     1      11.091   5.140  27.290  1.00  0.00    -0.379 N 
HETATM   31  C9  UNL     1      12.060   4.930  28.317  1.00  0.00     0.147 C 
ATOM     32  H6  UNL     1      11.381   4.965  26.328  1.00  0.00     0.160 HD
ENDBRANCH  15  17
ENDBRANCH   4  15
TORSDOF 2
ENDMDL
MODEL 4
REMARK VINA RESULT: -8.329221890      2.526      6.685
REMARK  2 active torsions:
REMARK  status: ('A' for Active; 'I' for Inactive)
REMARK    1  A    between atoms: C4_4  and  N1_5 
REMARK    2  A    between atoms: N1_5  and  C5_7 
ROOT
HETATM    1  C1  UNL     1       9.813   1.877  23.689  1.00  0.00     0.018 C 
HETATM    2  C2  UNL     1      10.416   1.516  22.715  1.00  0.00    -0.070 C 
HETATM    3  C3  UNL     1      11.134   1.068  21.559  1.00  0.00     0.112 A 
HETATM    4  C4  UNL     1      11.976   1.911  20.876  1.00  0.00     0.070 A 
HETATM    5  C11 UNL     1      12.638   1.419  19.772  1.00  0.00     0.019 A 
HETATM    6  C12 UNL     1      13.500   2.245  19.055  1.00  0.00     0.016 A 
HETATM    7  C13 UNL     1      14.162   1.758  17.952  1.00  0.00     0.001 A 
HETATM    8  C14 UNL     1      13.962   0.450  17.569  1.00  0.00     0.002 A 
HETATM    9  C15 UNL     1      13.104  -0.379  18.279  1.00  0.00     0.031 A 
HETATM   10  C16 UNL     1      12.437   0.102  19.385  1.00  0.00     0.049 A 
HETATM   11  N7  UNL     1      11.616  -0.725  20.048  1.00  0.00    -0.317 N 
HETATM   12  C17 UNL     1      11.434  -2.113  19.602  1.00  0.00     0.159 C 
HETATM   13  C18 UNL     1      10.975  -0.231  21.126  1.00  0.00     0.268 A 
HETATM   14  O1  UNL     1      10.199  -1.035  21.743  1.00  0.00    -0.266 OA
ENDROOT
BRANCH   4  15
HETATM   15  N1  UNL     1      12.177   3.269  21.282  1.00  0.00    -0.339 N 
ATOM     16  H1  UNL     1      12.949   3.504  21.905  1.00  0.00     0.167 HD
BRANCH  15  17
HETATM   17  C5  UNL     1      11.380   4.199  20.861  1.00  0.00     0.124 A 
HETATM   18  N2  UNL     1      10.983   4.235  19.576  1.00  0.00    -0.338 N 
HETATM   19  C6  UNL     1      10.156   5.232  19.218  1.00  0.00     0.183 A 
ATOM     20  H2  UNL     1      11.297   3.535  18.903  1.00  0.00     0.168 HD
HETATM   21  N3  UNL     1       9.724   6.174  20.087  1.00  0.00    -0.337 N 
HETATM   22  C7  UNL     1      10.108   6.157  21.377  1.00  0.00     0.138 A 
ATOM     23  H3  UNL     1       9.097   6.908  19.760  1.00  0.00     0.168 HD
HETATM   24  N4  UNL     1       9.866   6.920  22.457  1.00  0.00    -0.283 N 
HETATM   25  C10 UNL     1      10.962   5.143  21.786  1.00  0.00     0.098 A 
HETATM   26  N5  UNL     1      10.524   6.420  23.477  1.00  0.00    -0.283 N 
ATOM     27  H4  UNL     1       9.272   7.749  22.480  1.00  0.00     0.188 HD
HETATM   28  C8  UNL     1      11.217   5.326  23.128  1.00  0.00     0.133 A 
ATOM     29  H5  UNL     1      10.510   6.814  24.419  1.00  0.00     0.188 HD
HETATM   30  N6  UNL     1      11.974   4.560  23.828  1.00  0.00    -0.379 N 
HETATM   31  C9  UNL     1      12.253   4.730  25.218  1.00  0.00     0.147 C 
ATOM     32  H6  UNL     1      12.410   3.770  23.355  1.00  0.00     0.160 HD
ENDBRANCH  15  17
ENDBRANCH   4  15
TORSDOF 2
ENDMDL
MODEL 5
REMARK VINA RESULT: -8.242977433      1.482      1.651
REMARK  2 active torsions:
REMARK  status: ('A' for Active; 'I' for Inactive)
REMARK    1  A    between atoms: C4_4  and  N1_5 
REMARK    2  A    between atoms: N1_5  and  C5_7 
ROOT
HETATM    1  C1  UNL     1      10.746   5.847  20.094  1.00  0.00     0.018 C 
HETATM    2  C2  UNL     1      10.549   5.628  21.259  1.00  0.00    -0.070 C 
HETATM    3  C3  UNL     1      10.317   5.384  22.652  1.00  0.00     0.112 A 
HETATM    4  C4  UNL     1      10.506   4.137  23.195  1.00  0.00     0.070 A 
HETATM    5  C11 UNL     1      10.266   3.969  24.542  1.00  0.00     0.019 A 
HETATM    6  C12 UNL     1      10.447   2.718  25.127  1.00  0.00     0.016 A 
HETATM    7  C13 UNL     1      10.208   2.546  26.470  1.00  0.00     0.001 A 
HETATM    8  C14 UNL     1       9.790   3.620  27.224  1.00  0.00     0.002 A 
HETATM    9  C15 UNL     1       9.607   4.870  26.647  1.00  0.00     0.031 A 
HETATM   10  C16 UNL     1       9.845   5.050  25.301  1.00  0.00     0.049 A 
HETATM   11  N7  UNL     1       9.659   6.270  24.776  1.00  0.00    -0.317 N 
HETATM   12  C17 UNL     1       9.211   7.387  25.619  1.00  0.00     0.159 C 
HETATM   13  C18 UNL     1       9.897   6.421  23.458  1.00  0.00     0.268 A 
HETATM   14  O1  UNL     1       9.714   7.589  22.978  1.00  0.00    -0.266 OA
ENDROOT
BRANCH   4  15
HETATM   15  N1  UNL     1      10.941   3.027  22.403  1.00  0.00    -0.339 N 
ATOM     16  H1  UNL     1      11.889   2.668  22.508  1.00  0.00     0.167 HD
BRANCH  15  17
HETATM   17  C5  UNL     1      10.133   2.478  21.553  1.00  0.00     0.124 A 
HETATM   18  N2  UNL     1       8.825   2.342  21.837  1.00  0.00    -0.338 N 
HETATM   19  C6  UNL     1       8.052   1.761  20.902  1.00  0.00     0.183 A 
ATOM     20  H2  UNL     1       8.436   2.667  22.723  1.00  0.00     0.168 HD
HETATM   21  N3  UNL     1       8.538   1.322  19.720  1.00  0.00    -0.337 N 
HETATM   22  C7  UNL     1       9.843   1.448  19.415  1.00  0.00     0.138 A 
ATOM     23  H3  UNL     1       7.905   0.888  19.047  1.00  0.00     0.168 HD
HETATM   24  N4  UNL     1      10.615   1.124  18.362  1.00  0.00    -0.283 N 
HETATM   25  C10 UNL     1      10.674   2.042  20.354  1.00  0.00     0.098 A 
HETATM   26  N5  UNL     1      11.849   1.492  18.622  1.00  0.00    -0.283 N 
ATOM     27  H4  UNL     1      10.296   0.670  17.506  1.00  0.00     0.188 HD
HETATM   28  C8  UNL     1      11.949   2.062  19.831  1.00  0.00     0.133 A 
ATOM     29  H5  UNL     1      12.633   1.360  17.983  1.00  0.00     0.188 HD
HETATM   30  N6  UNL     1      12.970   2.547  20.442  1.00  0.00    -0.379 N 
HETATM   31  C9  UNL     1      14.299   2.578  19.922  1.00  0.00     0.147 C 
ATOM     32  H6  UNL     1      12.819   2.940  21.371  1.00  0.00     0.160 HD
ENDBRANCH  15  17
ENDBRANCH   4  15
TORSDOF 2
ENDMDL
