MODEL 1
REMARK VINA RESULT: -7.034767439      0.000      0.000
REMARK  6 active torsions:
REMARK  status: ('A' for Active; 'I' for Inactive)
REMARK    1  A    between atoms: C2_4  and  C3_5 
REMARK    2  A    between atoms: C3_5  and  O1_7 
REMARK    3  A    between atoms: C3_5  and  C5_9 
REMARK    4  A    between atoms: C5_9  and  C6_10 
REMARK    5  A    between atoms: C6_10  and  C7_11 
REMARK    6  A    between atoms: N4_17  and  C9_19 
ROOT
HETATM    1  C6  UNL     1      10.249   1.494  21.046  1.00  0.00    -0.018 C 
ENDROOT
BRANCH   1   2
HETATM    2  C5  UNL     1      10.295   0.826  20.032  1.00  0.00    -0.057 C 
BRANCH   2   3
HETATM    3  C3  UNL     1      10.371   0.026  18.813  1.00  0.00     0.148 C 
HETATM    4  C4  UNL     1       9.502   0.572  17.717  1.00  0.00     0.063 C 
BRANCH   3   5
HETATM    5  C2  UNL     1      11.820   0.010  18.375  1.00  0.00     0.214 C 
HETATM    6  S1  UNL     1      12.687  -1.099  19.557  1.00  0.00    -0.021 SA
HETATM    7  N1  UNL     1      13.396  -2.180  18.336  1.00  0.00    -0.300 N 
HETATM    8  C1  UNL     1      14.116  -3.401  18.615  1.00  0.00     0.167 C 
HETATM    9  C13 UNL     1      13.081  -1.558  17.102  1.00  0.00     0.180 C 
HETATM   10  N5  UNL     1      11.971  -0.719  17.139  1.00  0.00    -0.348 N 
HETATM   11  S2  UNL     1      14.000  -1.849  15.753  1.00  0.00    -0.040 SA
ATOM     12  H5  UNL     1      11.319  -0.627  16.359  1.00  0.00     0.163 HD
ENDBRANCH   3   5
BRANCH   3  13
HETATM   13  O1  UNL     1       9.975  -1.297  19.055  1.00  0.00    -0.375 OA
ATOM     14  H1  UNL     1       9.444  -1.584  18.321  1.00  0.00     0.212 HD
ENDBRANCH   3  13
ENDBRANCH   2   3
ENDBRANCH   1   2
BRANCH   1  15
HETATM   15  C7  UNL     1      10.212   2.288  22.253  1.00  0.00     0.222 A 
HETATM   16  N2  UNL     1       9.474   3.379  22.515  1.00  0.00    -0.269 N 
HETATM   17  N3  UNL     1       9.731   3.813  23.742  1.00  0.00    -0.263 N 
ATOM     18  H2  UNL     1       8.814   3.811  21.867  1.00  0.00     0.190 HD
HETATM   19  C8  UNL     1      10.646   2.968  24.242  1.00  0.00     0.242 A 
ATOM     20  H3  UNL     1       9.320   4.621  24.208  1.00  0.00     0.190 HD
HETATM   21  N4  UNL     1      11.154   3.049  25.412  1.00  0.00    -0.347 N 
HETATM   22  O2  UNL     1      10.915   2.052  23.309  1.00  0.00    -0.252 OA
ATOM     23  H4  UNL     1      11.840   2.337  25.661  1.00  0.00     0.163 HD
BRANCH  21  24
HETATM   24  C9  UNL     1      10.863   4.030  26.407  1.00  0.00     0.022 C 
HETATM   25  C10 UNL     1      11.222   3.430  27.773  1.00  0.00     0.037 C 
HETATM   26  C11 UNL     1      11.691   5.288  26.225  1.00  0.00     0.037 C 
HETATM   27  C12 UNL     1       9.416   4.425  26.457  1.00  0.00     0.037 C 
ENDBRANCH  21  24
ENDBRANCH   1  15
TORSDOF 6
ENDMDL
MODEL 2
REMARK VINA RESULT: -6.731457397      1.705      1.923
REMARK  6 active torsions:
REMARK  status: ('A' for Active; 'I' for Inactive)
REMARK    1  A    between atoms: C2_4  and  C3_5 
REMARK    2  A    between atoms: C3_5  and  O1_7 
REMARK    3  A    between atoms: C3_5  and  C5_9 
REMARK    4  A    between atoms: C5_9  and  C6_10 
REMARK    5  A    between atoms: C6_10  and  C7_11 
REMARK    6  A    between atoms: N4_17  and  C9_19 
ROOT
HETATM    1  C6  UNL     1       9.915   1.401  22.386  1.00  0.00    -0.018 C 
ENDROOT
BRANCH   1   2
HETATM    2  C5  UNL     1       9.939   0.483  21.590  1.00  0.00    -0.057 C 
BRANCH   2   3
HETATM    3  C3  UNL     1       9.983  -0.610  20.624  1.00  0.00     0.148 C 
HETATM    4  C4  UNL     1       9.146  -0.332  19.408  1.00  0.00     0.063 C 
BRANCH   3   5
HETATM    5  C2  UNL     1      11.432  -0.804  20.229  1.00  0.00     0.214 C 
HETATM    6  S1  UNL     1      11.414  -2.005  18.838  1.00  0.00    -0.021 SA
HETATM    7  N1  UNL     1      12.326  -0.999  17.691  1.00  0.00    -0.300 N 
HETATM    8  C1  UNL     1      12.555  -1.312  16.299  1.00  0.00     0.167 C 
HETATM    9  C13 UNL     1      12.738   0.116  18.464  1.00  0.00     0.180 C 
HETATM   10  N5  UNL     1      11.946   0.376  19.578  1.00  0.00    -0.348 N 
HETATM   11  S2  UNL     1      14.067   1.004  18.021  1.00  0.00    -0.040 SA
ATOM     12  H5  UNL     1      11.745   1.322  19.907  1.00  0.00     0.163 HD
ENDBRANCH   3   5
BRANCH   3  13
HETATM   13  O1  UNL     1       9.524  -1.805  21.195  1.00  0.00    -0.375 OA
ATOM     14  H1  UNL     1       8.578  -1.824  21.117  1.00  0.00     0.212 HD
ENDBRANCH   3  13
ENDBRANCH   2   3
ENDBRANCH   1   2
BRANCH   1  15
HETATM   15  C7  UNL     1       9.900   2.500  23.324  1.00  0.00     0.222 A 
HETATM   16  N2  UNL     1       9.445   3.751  23.142  1.00  0.00    -0.269 N 
HETATM   17  N3  UNL     1       9.613   4.456  24.253  1.00  0.00    -0.263 N 
ATOM     18  H2  UNL     1       9.032   4.104  22.279  1.00  0.00     0.190 HD
HETATM   19  C8  UNL     1      10.182   3.619  25.134  1.00  0.00     0.242 A 
ATOM     20  H3  UNL     1       9.361   5.433  24.405  1.00  0.00     0.190 HD
HETATM   21  N4  UNL     1      10.504   3.927  26.332  1.00  0.00    -0.347 N 
HETATM   22  O2  UNL     1      10.342   2.438  24.536  1.00  0.00    -0.252 OA
ATOM     23  H4  UNL     1      10.930   3.190  26.893  1.00  0.00     0.163 HD
BRANCH  21  24
HETATM   24  C9  UNL     1      10.330   5.193  26.968  1.00  0.00     0.022 C 
HETATM   25  C10 UNL     1      10.844   5.066  28.409  1.00  0.00     0.037 C 
HETATM   26  C11 UNL     1      11.131   6.287  26.288  1.00  0.00     0.037 C 
HETATM   27  C12 UNL     1       8.897   5.637  27.042  1.00  0.00     0.037 C 
ENDBRANCH  21  24
ENDBRANCH   1  15
TORSDOF 6
ENDMDL
MODEL 3
REMARK VINA RESULT: -6.703800823      4.983      9.671
REMARK  6 active torsions:
REMARK  status: ('A' for Active; 'I' for Inactive)
REMARK    1  A    between atoms: C2_4  and  C3_5 
REMARK    2  A    between atoms: C3_5  and  O1_7 
REMARK    3  A    between atoms: C3_5  and  C5_9 
REMARK    4  A    between atoms: C5_9  and  C6_10 
REMARK    5  A    between atoms: C6_10  and  C7_11 
REMARK    6  A    between atoms: N4_17  and  C9_19 
ROOT
HETATM    1  C6  UNL     1      11.167   3.510  24.577  1.00  0.00    -0.018 C 
ENDROOT
BRANCH   1   2
HETATM    2  C5  UNL     1      10.932   4.075  25.627  1.00  0.00    -0.057 C 
BRANCH   2   3
HETATM    3  C3  UNL     1      10.630   4.748  26.887  1.00  0.00     0.148 C 
HETATM    4  C4  UNL     1      11.788   4.715  27.843  1.00  0.00     0.063 C 
BRANCH   3   5
HETATM    5  C2  UNL     1      10.264   6.179  26.556  1.00  0.00     0.214 C 
HETATM    6  S1  UNL     1       9.877   6.980  28.165  1.00  0.00    -0.021 SA
HETATM    7  N1  UNL     1      11.016   8.335  27.995  1.00  0.00    -0.300 N 
HETATM    8  C1  UNL     1      11.321   9.307  29.019  1.00  0.00     0.167 C 
HETATM    9  C13 UNL     1      11.506   8.207  26.671  1.00  0.00     0.180 C 
HETATM   10  N5  UNL     1      11.430   6.921  26.143  1.00  0.00    -0.348 N 
HETATM   11  S2  UNL     1      12.115   9.524  25.867  1.00  0.00    -0.040 SA
ATOM     12  H5  UNL     1      12.138   6.536  25.517  1.00  0.00     0.163 HD
ENDBRANCH   3   5
BRANCH   3  13
HETATM   13  O1  UNL     1       9.532   4.154  27.524  1.00  0.00    -0.375 OA
ATOM     14  H1  UNL     1       9.722   4.105  28.454  1.00  0.00     0.212 HD
ENDBRANCH   3  13
ENDBRANCH   2   3
ENDBRANCH   1   2
BRANCH   1  15
HETATM   15  C7  UNL     1      11.432   2.831  23.330  1.00  0.00     0.222 A 
HETATM   16  N2  UNL     1      10.998   1.626  22.924  1.00  0.00    -0.269 N 
HETATM   17  N3  UNL     1      11.466   1.365  21.710  1.00  0.00    -0.263 N 
ATOM     18  H2  UNL     1      10.399   1.005  23.467  1.00  0.00     0.190 HD
HETATM   19  C8  UNL     1      12.201   2.433  21.366  1.00  0.00     0.242 A 
ATOM     20  H3  UNL     1      11.301   0.526  21.154  1.00  0.00     0.190 HD
HETATM   21  N4  UNL     1      12.823   2.566  20.257  1.00  0.00    -0.347 N 
HETATM   22  O2  UNL     1      12.158   3.306  22.374  1.00  0.00    -0.252 OA
ATOM     23  H4  UNL     1      13.345   3.433  20.128  1.00  0.00     0.163 HD
BRANCH  21  24
HETATM   24  C9  UNL     1      12.866   1.630  19.180  1.00  0.00     0.022 C 
HETATM   25  C10 UNL     1      13.770   2.216  18.088  1.00  0.00     0.037 C 
HETATM   26  C11 UNL     1      13.459   0.301  19.605  1.00  0.00     0.037 C 
HETATM   27  C12 UNL     1      11.525   1.368  18.558  1.00  0.00     0.037 C 
ENDBRANCH  21  24
ENDBRANCH   1  15
TORSDOF 6
ENDMDL
MODEL 4
REMARK VINA RESULT: -6.638131605      1.924      2.488
REMARK  6 active torsions:
REMARK  status: ('A' for Active; 'I' for Inactive)
REMARK    1  A    between atoms: C2_4  and  C3_5 
REMARK    2  A    between atoms: C3_5  and  O1_7 
REMARK    3  A    between atoms: C3_5  and  C5_9 
REMARK    4  A    between atoms: C5_9  and  C6_10 
REMARK    5  A    between atoms: C6_10  and  C7_11 
REMARK    6  A    between atoms: N4_17  and  C9_19 
ROOT
HETATM    1  C6  UNL     1       9.970   1.178  22.618  1.00  0.00    -0.018 C 
ENDROOT
BRANCH   1   2
HETATM    2  C5  UNL     1       9.961   0.344  21.734  1.00  0.00    -0.057 C 
BRANCH   2   3
HETATM    3  C3  UNL     1       9.968  -0.662  20.676  1.00  0.00     0.148 C 
HETATM    4  C4  UNL     1       9.138  -0.252  19.493  1.00  0.00     0.063 C 
BRANCH   3   5
HETATM    5  C2  UNL     1      11.410  -0.865  20.260  1.00  0.00     0.214 C 
HETATM    6  S1  UNL     1      11.359  -2.035  18.843  1.00  0.00    -0.021 SA
HETATM    7  N1  UNL     1      12.271  -1.015  17.707  1.00  0.00    -0.300 N 
HETATM    8  C1  UNL     1      12.479  -1.300  16.306  1.00  0.00     0.167 C 
HETATM    9  C13 UNL     1      12.706   0.077  18.499  1.00  0.00     0.180 C 
HETATM   10  N5  UNL     1      11.931   0.323  19.629  1.00  0.00    -0.348 N 
HETATM   11  S2  UNL     1      14.041   0.958  18.060  1.00  0.00    -0.040 SA
ATOM     12  H5  UNL     1      11.747   1.263  19.980  1.00  0.00     0.163 HD
ENDBRANCH   3   5
BRANCH   3  13
HETATM   13  O1  UNL     1       9.474  -1.887  21.143  1.00  0.00    -0.375 OA
ATOM     14  H1  UNL     1       8.532  -1.806  21.242  1.00  0.00     0.212 HD
ENDBRANCH   3  13
ENDBRANCH   2   3
ENDBRANCH   1   2
BRANCH   1  15
HETATM   15  C7  UNL     1       9.998   2.166  23.672  1.00  0.00     0.222 A 
HETATM   16  N2  UNL     1      10.216   1.984  24.986  1.00  0.00    -0.269 N 
HETATM   17  N3  UNL     1      10.159   3.149  25.617  1.00  0.00    -0.263 N 
ATOM     18  H2  UNL     1      10.398   1.085  25.431  1.00  0.00     0.190 HD
HETATM   19  C8  UNL     1       9.901   4.065  24.669  1.00  0.00     0.242 A 
ATOM     20  H3  UNL     1      10.284   3.316  26.615  1.00  0.00     0.190 HD
HETATM   21  N4  UNL     1       9.771   5.318  24.880  1.00  0.00    -0.347 N 
HETATM   22  O2  UNL     1       9.809   3.431  23.499  1.00  0.00    -0.252 OA
ATOM     23  H4  UNL     1       9.575   5.900  24.065  1.00  0.00     0.163 HD
BRANCH  21  24
HETATM   24  C9  UNL     1       9.870   5.992  26.134  1.00  0.00     0.022 C 
HETATM   25  C10 UNL     1       9.795   7.501  25.862  1.00  0.00     0.037 C 
HETATM   26  C11 UNL     1       8.726   5.635  27.064  1.00  0.00     0.037 C 
HETATM   27  C12 UNL     1      11.160   5.731  26.857  1.00  0.00     0.037 C 
ENDBRANCH  21  24
ENDBRANCH   1  15
TORSDOF 6
ENDMDL
MODEL 5
REMARK VINA RESULT: -6.581318307      2.297      3.101
REMARK  6 active torsions:
REMARK  status: ('A' for Active; 'I' for Inactive)
REMARK    1  A    between atoms: C2_4  and  C3_5 
REMARK    2  A    between atoms: C3_5  and  O1_7 
REMARK    3  A    between atoms: C3_5  and  C5_9 
REMARK    4  A    between atoms: C5_9  and  C6_10 
REMARK    5  A    between atoms: C6_10  and  C7_11 
REMARK    6  A    between atoms: N4_17  and  C9_19 
ROOT
HETATM    1  C6  UNL     1       9.949   1.365  22.779  1.00  0.00    -0.018 C 
ENDROOT
BRANCH   1   2
HETATM    2  C5  UNL     1       9.541   0.536  21.989  1.00  0.00    -0.057 C 
BRANCH   2   3
HETATM    3  C3  UNL     1       9.032  -0.454  21.044  1.00  0.00     0.148 C 
HETATM    4  C4  UNL     1       7.576  -0.252  20.734  1.00  0.00     0.063 C 
BRANCH   3   5
HETATM    5  C2  UNL     1       9.858  -0.336  19.781  1.00  0.00     0.214 C 
HETATM    6  S1  UNL     1       9.589   1.376  19.167  1.00  0.00    -0.021 SA
HETATM    7  N1  UNL     1      11.306   1.831  19.082  1.00  0.00    -0.300 N 
HETATM    8  C1  UNL     1      11.808   3.154  18.790  1.00  0.00     0.167 C 
HETATM    9  C13 UNL     1      11.995   0.624  19.361  1.00  0.00     0.180 C 
HETATM   10  N5  UNL     1      11.266  -0.308  20.093  1.00  0.00    -0.348 N 
HETATM   11  S2  UNL     1      13.551   0.401  18.830  1.00  0.00    -0.040 SA
ATOM     12  H5  UNL     1      11.691  -0.919  20.791  1.00  0.00     0.163 HD
ENDBRANCH   3   5
BRANCH   3  13
HETATM   13  O1  UNL     1       9.187  -1.754  21.545  1.00  0.00    -0.375 OA
ATOM     14  H1  UNL     1       8.762  -1.795  22.394  1.00  0.00     0.212 HD
ENDBRANCH   3  13
ENDBRANCH   2   3
ENDBRANCH   1   2
BRANCH   1  15
HETATM   15  C7  UNL     1      10.417   2.353  23.723  1.00  0.00     0.222 A 
HETATM   16  N2  UNL     1      11.665   2.821  23.896  1.00  0.00    -0.269 N 
HETATM   17  N3  UNL     1      11.676   3.723  24.868  1.00  0.00    -0.263 N 
ATOM     18  H2  UNL     1      12.481   2.527  23.360  1.00  0.00     0.190 HD
HETATM   19  C8  UNL     1      10.408   3.810  25.299  1.00  0.00     0.242 A 
ATOM     20  H3  UNL     1      12.481   4.243  25.216  1.00  0.00     0.190 HD
HETATM   21  N4  UNL     1      10.006   4.580  26.236  1.00  0.00    -0.347 N 
HETATM   22  O2  UNL     1       9.669   2.963  24.580  1.00  0.00    -0.252 OA
ATOM     23  H4  UNL     1       9.012   4.543  26.461  1.00  0.00     0.163 HD
BRANCH  21  24
HETATM   24  C9  UNL     1      10.799   5.485  27.003  1.00  0.00     0.022 C 
HETATM   25  C10 UNL     1       9.844   6.392  27.791  1.00  0.00     0.037 C 
HETATM   26  C11 UNL     1      11.680   4.763  28.004  1.00  0.00     0.037 C 
HETATM   27  C12 UNL     1      11.672   6.376  26.166  1.00  0.00     0.037 C 
ENDBRANCH  21  24
ENDBRANCH   1  15
TORSDOF 6
ENDMDL
