MODEL 1
REMARK VINA RESULT: -8.879366389      0.000      0.000
REMARK  5 active torsions:
REMARK  status: ('A' for Active; 'I' for Inactive)
REMARK    1  A    between atoms: C1_2  and  N1_3 
REMARK    2  A    between atoms: C1_2  and  N6_14 
REMARK    3  A    between atoms: N1_3  and  C2_5 
REMARK    4  A    between atoms: N6_14  and  C3_16 
REMARK    5  A    between atoms: C4_19  and  C5_20 
ROOT
HETATM    1  C3  UNL     1      11.616   0.742  21.336  1.00  0.00     0.121 A 
HETATM    2  N7  UNL     1      11.294   1.469  22.465  1.00  0.00    -0.327 N 
ATOM      3  H7  UNL     1      10.599   1.098  23.112  1.00  0.00     0.169 HD
HETATM    4  C4  UNL     1      11.866   2.641  22.733  1.00  0.00     0.117 A 
HETATM    5  N9  UNL     1      12.773   3.106  21.871  1.00  0.00    -0.341 N 
ATOM      6  H9  UNL     1      13.205   4.005  22.085  1.00  0.00     0.167 HD
HETATM    7  C10 UNL     1      13.163   2.487  20.745  1.00  0.00     0.047 A 
HETATM    8  C11 UNL     1      14.112   3.031  19.895  1.00  0.00     0.030 A 
HETATM    9  C12 UNL     1      14.476   2.364  18.759  1.00  0.00     0.002 A 
HETATM   10  C13 UNL     1      13.897   1.154  18.468  1.00  0.00     0.001 A 
HETATM   11  C14 UNL     1      12.944   0.621  19.334  1.00  0.00     0.017 A 
HETATM   12  C15 UNL     1      12.559   1.273  20.483  1.00  0.00     0.035 A 
ENDROOT
BRANCH   1  13
HETATM   13  N6  UNL     1      11.031  -0.316  21.191  1.00  0.00    -0.318 N 
ATOM     14  H6  UNL     1      11.749  -1.022  21.358  1.00  0.00     0.170 HD
BRANCH  13  15
HETATM   15  C1  UNL     1       9.933  -1.023  20.925  1.00  0.00     0.192 C 
HETATM   16  S1  UNL     1       9.536  -2.444  21.675  1.00  0.00    -0.040 SA
BRANCH  15  17
HETATM   17  N1  UNL     1       8.981  -0.591  19.945  1.00  0.00    -0.163 N 
ATOM     18  H1  UNL     1       9.005  -0.933  18.984  1.00  0.00     0.186 HD
BRANCH  17  19
HETATM   19  C2  UNL     1       8.085   0.263  20.347  1.00  0.00     0.716 A 
HETATM   20  N2  UNL     1       6.805  -0.010  20.677  1.00  0.00    -0.115 N 
HETATM   21  N3  UNL     1       6.253   1.118  21.022  1.00  0.00    -0.213 N 
ATOM     22  H2  UNL     1       6.355  -0.925  20.659  1.00  0.00     0.207 HD
HETATM   23  N4  UNL     1       7.100   2.122  20.938  1.00  0.00    -0.213 N 
ATOM     24  H3  UNL     1       5.283   1.213  21.321  1.00  0.00     0.210 HD
HETATM   25  N5  UNL     1       8.227   1.587  20.521  1.00  0.00    -0.115 N 
ATOM     26  H4  UNL     1       6.921   3.104  21.150  1.00  0.00     0.210 HD
ATOM     27  H5  UNL     1       9.089   2.104  20.353  1.00  0.00     0.207 HD
ENDBRANCH  17  19
ENDBRANCH  15  17
ENDBRANCH  13  15
ENDBRANCH   1  13
BRANCH   4  28
HETATM   28  C5  UNL     1      11.535   3.432  23.938  1.00  0.00     0.011 A 
HETATM   29  C6  UNL     1      12.157   4.592  24.265  1.00  0.00     0.032 A 
HETATM   30  C7  UNL     1      11.758   5.246  25.424  1.00  0.00     0.088 A 
HETATM   31  N8  UNL     1      10.785   4.772  26.225  1.00  0.00    -0.375 N 
HETATM   32  C8  UNL     1      10.153   3.633  25.929  1.00  0.00     0.088 A 
ATOM     33  H8  UNL     1      10.527   5.288  27.065  1.00  0.00     0.164 HD
HETATM   34  C9  UNL     1      10.536   2.971  24.785  1.00  0.00     0.032 A 
ENDBRANCH   4  28
TORSDOF 5
ENDMDL
MODEL 2
REMARK VINA RESULT: -8.661516112      2.063      2.711
REMARK  5 active torsions:
REMARK  status: ('A' for Active; 'I' for Inactive)
REMARK    1  A    between atoms: C1_2  and  N1_3 
REMARK    2  A    between atoms: C1_2  and  N6_14 
REMARK    3  A    between atoms: N1_3  and  C2_5 
REMARK    4  A    between atoms: N6_14  and  C3_16 
REMARK    5  A    between atoms: C4_19  and  C5_20 
ROOT
HETATM    1  C3  UNL     1      11.073   2.340  22.090  1.00  0.00     0.121 A 
HETATM    2  N7  UNL     1      11.207   2.471  23.458  1.00  0.00    -0.327 N 
ATOM      3  H7  UNL     1      11.314   1.632  24.028  1.00  0.00     0.169 HD
HETATM    4  C4  UNL     1      11.200   3.661  24.054  1.00  0.00     0.117 A 
HETATM    5  N9  UNL     1      11.058   4.744  23.287  1.00  0.00    -0.341 N 
ATOM      6  H9  UNL     1      11.054   5.651  23.754  1.00  0.00     0.167 HD
HETATM    7  C10 UNL     1      10.920   4.737  21.951  1.00  0.00     0.047 A 
HETATM    8  C11 UNL     1      10.777   5.904  21.219  1.00  0.00     0.030 A 
HETATM    9  C12 UNL     1      10.639   5.846  19.860  1.00  0.00     0.002 A 
HETATM   10  C13 UNL     1      10.644   4.627  19.229  1.00  0.00     0.001 A 
HETATM   11  C14 UNL     1      10.790   3.463  19.982  1.00  0.00     0.017 A 
HETATM   12  C15 UNL     1      10.929   3.494  21.351  1.00  0.00     0.035 A 
ENDROOT
BRANCH   1  13
HETATM   13  N6  UNL     1      11.093   1.204  21.651  1.00  0.00    -0.318 N 
ATOM     14  H6  UNL     1      12.024   0.861  21.888  1.00  0.00     0.170 HD
BRANCH  13  15
HETATM   15  C1  UNL     1      10.519   0.180  21.020  1.00  0.00     0.192 C 
HETATM   16  S1  UNL     1      11.126  -0.528  19.654  1.00  0.00    -0.040 SA
BRANCH  15  17
HETATM   17  N1  UNL     1       9.300  -0.405  21.493  1.00  0.00    -0.163 N 
ATOM     18  H1  UNL     1       9.289  -1.290  22.001  1.00  0.00     0.186 HD
BRANCH  17  19
HETATM   19  C2  UNL     1       8.206   0.253  21.241  1.00  0.00     0.716 A 
HETATM   20  N2  UNL     1       7.044  -0.262  20.785  1.00  0.00    -0.115 N 
HETATM   21  N3  UNL     1       6.209   0.731  20.667  1.00  0.00    -0.213 N 
ATOM     22  H2  UNL     1       6.855  -1.242  20.574  1.00  0.00     0.207 HD
HETATM   23  N4  UNL     1       6.757   1.875  21.020  1.00  0.00    -0.213 N 
ATOM     24  H3  UNL     1       5.248   0.635  20.341  1.00  0.00     0.210 HD
HETATM   25  N5  UNL     1       7.988   1.571  21.372  1.00  0.00    -0.115 N 
ATOM     26  H4  UNL     1       6.321   2.797  21.020  1.00  0.00     0.210 HD
ATOM     27  H5  UNL     1       8.681   2.243  21.700  1.00  0.00     0.207 HD
ENDBRANCH  17  19
ENDBRANCH  15  17
ENDBRANCH  13  15
ENDBRANCH   1  13
BRANCH   4  28
HETATM   28  C5  UNL     1      11.343   3.820  25.518  1.00  0.00     0.011 A 
HETATM   29  C6  UNL     1      10.950   2.880  26.414  1.00  0.00     0.032 A 
HETATM   30  C7  UNL     1      11.136   3.145  27.766  1.00  0.00     0.088 A 
HETATM   31  N8  UNL     1      11.688   4.290  28.210  1.00  0.00    -0.375 N 
HETATM   32  C8  UNL     1      12.085   5.233  27.352  1.00  0.00     0.088 A 
ATOM     33  H8  UNL     1      11.803   4.439  29.212  1.00  0.00     0.164 HD
HETATM   34  C9  UNL     1      11.908   4.989  26.009  1.00  0.00     0.032 A 
ENDBRANCH   4  28
TORSDOF 5
ENDMDL
MODEL 3
REMARK VINA RESULT: -8.437386259      1.335      1.844
REMARK  5 active torsions:
REMARK  status: ('A' for Active; 'I' for Inactive)
REMARK    1  A    between atoms: C1_2  and  N1_3 
REMARK    2  A    between atoms: C1_2  and  N6_14 
REMARK    3  A    between atoms: N1_3  and  C2_5 
REMARK    4  A    between atoms: N6_14  and  C3_16 
REMARK    5  A    between atoms: C4_19  and  C5_20 
ROOT
HETATM    1  C3  UNL     1      10.732   1.264  22.529  1.00  0.00     0.121 A 
HETATM    2  N7  UNL     1      10.492   2.145  23.564  1.00  0.00    -0.327 N 
ATOM      3  H7  UNL     1       9.665   2.012  24.146  1.00  0.00     0.169 HD
HETATM    4  C4  UNL     1      11.308   3.164  23.822  1.00  0.00     0.117 A 
HETATM    5  N9  UNL     1      12.383   3.317  23.046  1.00  0.00    -0.341 N 
ATOM      6  H9  UNL     1      13.002   4.101  23.252  1.00  0.00     0.167 HD
HETATM    7  C10 UNL     1      12.715   2.524  22.014  1.00  0.00     0.047 A 
HETATM    8  C11 UNL     1      13.849   2.744  21.250  1.00  0.00     0.030 A 
HETATM    9  C12 UNL     1      14.146   1.909  20.209  1.00  0.00     0.002 A 
HETATM   10  C13 UNL     1      13.315   0.853  19.928  1.00  0.00     0.001 A 
HETATM   11  C14 UNL     1      12.178   0.646  20.708  1.00  0.00     0.017 A 
HETATM   12  C15 UNL     1      11.857   1.473  21.761  1.00  0.00     0.035 A 
ENDROOT
BRANCH   1  13
HETATM   13  N6  UNL     1       9.919   0.368  22.382  1.00  0.00    -0.318 N 
ATOM     14  H6  UNL     1       9.456   0.301  23.289  1.00  0.00     0.170 HD
BRANCH  13  15
HETATM   15  C1  UNL     1       9.326  -0.568  21.642  1.00  0.00     0.192 C 
HETATM   16  S1  UNL     1       9.673  -2.184  21.733  1.00  0.00    -0.040 SA
BRANCH  15  17
HETATM   17  N1  UNL     1       8.310  -0.239  20.687  1.00  0.00    -0.163 N 
ATOM     18  H1  UNL     1       7.327  -0.455  20.852  1.00  0.00     0.186 HD
BRANCH  17  19
HETATM   19  C2  UNL     1       8.709   0.352  19.599  1.00  0.00     0.716 A 
HETATM   20  N2  UNL     1       8.975  -0.237  18.414  1.00  0.00    -0.115 N 
HETATM   21  N3  UNL     1       9.344   0.706  17.595  1.00  0.00    -0.213 N 
ATOM     22  H2  UNL     1       8.900  -1.232  18.200  1.00  0.00     0.207 HD
HETATM   23  N4  UNL     1       9.337   1.887  18.175  1.00  0.00    -0.213 N 
ATOM     24  H3  UNL     1       9.607   0.548  16.622  1.00  0.00     0.210 HD
HETATM   25  N5  UNL     1       8.944   1.661  19.410  1.00  0.00    -0.115 N 
ATOM     26  H4  UNL     1       9.582   2.785  17.757  1.00  0.00     0.210 HD
ATOM     27  H5  UNL     1       8.833   2.379  20.125  1.00  0.00     0.207 HD
ENDBRANCH  17  19
ENDBRANCH  15  17
ENDBRANCH  13  15
ENDBRANCH   1  13
BRANCH   4  28
HETATM   28  C5  UNL     1      11.067   4.117  24.927  1.00  0.00     0.011 A 
HETATM   29  C6  UNL     1      12.000   4.996  25.373  1.00  0.00     0.032 A 
HETATM   30  C7  UNL     1      11.655   5.842  26.420  1.00  0.00     0.088 A 
HETATM   31  N8  UNL     1      10.440   5.820  27.000  1.00  0.00    -0.375 N 
HETATM   32  C8  UNL     1       9.501   4.966  26.583  1.00  0.00     0.088 A 
ATOM     33  H8  UNL     1      10.234   6.461  27.766  1.00  0.00     0.164 HD
HETATM   34  C9  UNL     1       9.825   4.119  25.547  1.00  0.00     0.032 A 
ENDBRANCH   4  28
TORSDOF 5
ENDMDL
MODEL 4
REMARK VINA RESULT: -8.428689921      1.675      2.603
REMARK  5 active torsions:
REMARK  status: ('A' for Active; 'I' for Inactive)
REMARK    1  A    between atoms: C1_2  and  N1_3 
REMARK    2  A    between atoms: C1_2  and  N6_14 
REMARK    3  A    between atoms: N1_3  and  C2_5 
REMARK    4  A    between atoms: N6_14  and  C3_16 
REMARK    5  A    between atoms: C4_19  and  C5_20 
ROOT
HETATM    1  C3  UNL     1      10.685   2.403  21.000  1.00  0.00     0.121 A 
HETATM    2  N7  UNL     1      10.546   2.841  22.302  1.00  0.00    -0.327 N 
ATOM      3  H7  UNL     1       9.615   2.883  22.714  1.00  0.00     0.169 HD
HETATM    4  C4  UNL     1      11.595   3.210  23.034  1.00  0.00     0.117 A 
HETATM    5  N9  UNL     1      12.804   3.147  22.472  1.00  0.00    -0.341 N 
ATOM      6  H9  UNL     1      13.600   3.433  23.041  1.00  0.00     0.167 HD
HETATM    7  C10 UNL     1      13.057   2.738  21.218  1.00  0.00     0.047 A 
HETATM    8  C11 UNL     1      14.341   2.698  20.700  1.00  0.00     0.030 A 
HETATM    9  C12 UNL     1      14.549   2.275  19.417  1.00  0.00     0.002 A 
HETATM   10  C13 UNL     1      13.480   1.890  18.648  1.00  0.00     0.001 A 
HETATM   11  C14 UNL     1      12.194   1.935  19.186  1.00  0.00     0.017 A 
HETATM   12  C15 UNL     1      11.958   2.359  20.474  1.00  0.00     0.035 A 
ENDROOT
BRANCH   1  13
HETATM   13  N6  UNL     1       9.659   2.089  20.423  1.00  0.00    -0.318 N 
ATOM     14  H6  UNL     1       9.487   2.863  19.781  1.00  0.00     0.170 HD
BRANCH  13  15
HETATM   15  C1  UNL     1       8.646   1.251  20.203  1.00  0.00     0.192 C 
HETATM   16  S1  UNL     1       7.182   1.339  20.970  1.00  0.00    -0.040 SA
BRANCH  15  17
HETATM   17  N1  UNL     1       8.748   0.183  19.253  1.00  0.00    -0.163 N 
ATOM     18  H1  UNL     1       8.355   0.258  18.315  1.00  0.00     0.186 HD
BRANCH  17  19
HETATM   19  C2  UNL     1       9.370  -0.888  19.653  1.00  0.00     0.716 A 
HETATM   20  N2  UNL     1       9.373  -1.398  20.903  1.00  0.00    -0.115 N 
HETATM   21  N3  UNL     1      10.114  -2.468  20.874  1.00  0.00    -0.213 N 
ATOM     22  H2  UNL     1       8.888  -1.017  21.715  1.00  0.00     0.207 HD
HETATM   23  N4  UNL     1      10.601  -2.694  19.672  1.00  0.00    -0.213 N 
ATOM     24  H3  UNL     1      10.295  -3.061  21.685  1.00  0.00     0.210 HD
HETATM   25  N5  UNL     1      10.137  -1.715  18.925  1.00  0.00    -0.115 N 
ATOM     26  H4  UNL     1      11.207  -3.462  19.383  1.00  0.00     0.210 HD
ATOM     27  H5  UNL     1      10.333  -1.600  17.931  1.00  0.00     0.207 HD
ENDBRANCH  17  19
ENDBRANCH  15  17
ENDBRANCH  13  15
ENDBRANCH   1  13
BRANCH   4  28
HETATM   28  C5  UNL     1      11.465   3.682  24.430  1.00  0.00     0.011 A 
HETATM   29  C6  UNL     1      10.705   3.056  25.363  1.00  0.00     0.032 A 
HETATM   30  C7  UNL     1      10.662   3.596  26.643  1.00  0.00     0.088 A 
HETATM   31  N8  UNL     1      11.342   4.706  26.984  1.00  0.00    -0.375 N 
HETATM   32  C8  UNL     1      12.099   5.345  26.087  1.00  0.00     0.088 A 
ATOM     33  H8  UNL     1      11.279   5.064  27.936  1.00  0.00     0.164 HD
HETATM   34  C9  UNL     1      12.153   4.824  24.814  1.00  0.00     0.032 A 
ENDBRANCH   4  28
TORSDOF 5
ENDMDL
MODEL 5
REMARK VINA RESULT: -8.404437919      1.845      2.888
REMARK  5 active torsions:
REMARK  status: ('A' for Active; 'I' for Inactive)
REMARK    1  A    between atoms: C1_2  and  N1_3 
REMARK    2  A    between atoms: C1_2  and  N6_14 
REMARK    3  A    between atoms: N1_3  and  C2_5 
REMARK    4  A    between atoms: N6_14  and  C3_16 
REMARK    5  A    between atoms: C4_19  and  C5_20 
ROOT
HETATM    1  C3  UNL     1      10.962   1.298  22.325  1.00  0.00     0.121 A 
HETATM    2  N7  UNL     1      10.645   2.101  23.403  1.00  0.00    -0.327 N 
ATOM      3  H7  UNL     1       9.819   1.881  23.959  1.00  0.00     0.169 HD
HETATM    4  C4  UNL     1      11.386   3.156  23.735  1.00  0.00     0.117 A 
HETATM    5  N9  UNL     1      12.461   3.425  22.991  1.00  0.00    -0.341 N 
ATOM      6  H9  UNL     1      13.021   4.235  23.253  1.00  0.00     0.167 HD
HETATM    7  C10 UNL     1      12.864   2.715  21.924  1.00  0.00     0.047 A 
HETATM    8  C11 UNL     1      13.993   3.054  21.197  1.00  0.00     0.030 A 
HETATM    9  C12 UNL     1      14.364   2.302  20.118  1.00  0.00     0.002 A 
HETATM   10  C13 UNL     1      13.611   1.211  19.761  1.00  0.00     0.001 A 
HETATM   11  C14 UNL     1      12.478   0.883  20.505  1.00  0.00     0.017 A 
HETATM   12  C15 UNL     1      12.083   1.626  21.594  1.00  0.00     0.035 A 
ENDROOT
BRANCH   1  13
HETATM   13  N6  UNL     1      10.214   0.360  22.112  1.00  0.00    -0.318 N 
ATOM     14  H6  UNL     1      10.509  -0.350  22.782  1.00  0.00     0.170 HD
BRANCH  13  15
HETATM   15  C1  UNL     1       9.209  -0.211  21.450  1.00  0.00     0.192 C 
HETATM   16  S1  UNL     1       7.807   0.565  21.037  1.00  0.00    -0.040 SA
BRANCH  15  17
HETATM   17  N1  UNL     1       9.269  -1.579  21.029  1.00  0.00    -0.163 N 
ATOM     18  H1  UNL     1       8.640  -2.288  21.409  1.00  0.00     0.186 HD
BRANCH  17  19
HETATM   19  C2  UNL     1      10.168  -1.870  20.134  1.00  0.00     0.716 A 
HETATM   20  N2  UNL     1      10.106  -1.599  18.813  1.00  0.00    -0.115 N 
HETATM   21  N3  UNL     1      11.203  -2.055  18.280  1.00  0.00    -0.213 N 
ATOM     22  H2  UNL     1       9.344  -1.127  18.325  1.00  0.00     0.207 HD
HETATM   23  N4  UNL     1      11.987  -2.613  19.178  1.00  0.00    -0.213 N 
ATOM     24  H3  UNL     1      11.428  -1.988  17.287  1.00  0.00     0.210 HD
HETATM   25  N5  UNL     1      11.342  -2.494  20.319  1.00  0.00    -0.115 N 
ATOM     26  H4  UNL     1      12.899  -3.044  19.023  1.00  0.00     0.210 HD
ATOM     27  H5  UNL     1      11.685  -2.830  21.218  1.00  0.00     0.207 HD
ENDBRANCH  17  19
ENDBRANCH  15  17
ENDBRANCH  13  15
ENDBRANCH   1  13
BRANCH   4  28
HETATM   28  C5  UNL     1      11.061   4.027  24.886  1.00  0.00     0.011 A 
HETATM   29  C6  UNL     1       9.895   3.952  25.575  1.00  0.00     0.032 A 
HETATM   30  C7  UNL     1       9.706   4.826  26.639  1.00  0.00     0.088 A 
HETATM   31  N8  UNL     1      10.630   5.734  27.004  1.00  0.00    -0.375 N 
HETATM   32  C8  UNL     1      11.787   5.831  26.345  1.00  0.00     0.088 A 
ATOM     33  H8  UNL     1      10.445   6.354  27.792  1.00  0.00     0.164 HD
HETATM   34  C9  UNL     1      11.993   4.974  25.288  1.00  0.00     0.032 A 
ENDBRANCH   4  28
TORSDOF 5
ENDMDL
