MODEL 1
REMARK VINA RESULT: -5.950414905      0.000      0.000
REMARK  4 active torsions:
REMARK  status: ('A' for Active; 'I' for Inactive)
REMARK    1  A    between atoms: O1_1  and  C1_3 
REMARK    2  A    between atoms: C4_9  and  C5_10 
REMARK    3  A    between atoms: C11_16  and  O2_17 
REMARK    4  A    between atoms: C12_19  and  O3_20 
ROOT
HETATM    1  C1  UNL     1     107.730  18.343  18.339  1.00  0.00     0.150 C 
HETATM    2  C2  UNL     1     106.925  17.905  19.493  1.00  0.00     0.062 C 
HETATM    3  C3  UNL     1     105.655  17.176  19.106  1.00  0.00     0.235 C 
HETATM    4  N1  UNL     1     104.956  17.829  18.060  1.00  0.00    -0.068 N 
ATOM      5  H11 UNL     1     104.626  18.747  18.356  1.00  0.00     0.277 HD
ATOM      6  H12 UNL     1     104.057  17.382  17.883  1.00  0.00     0.277 HD
HETATM    7  C4  UNL     1     105.755  17.926  16.822  1.00  0.00     0.223 C 
HETATM    8  C12 UNL     1     106.961  18.788  17.120  1.00  0.00     0.178 C 
ENDROOT
BRANCH   7   9
HETATM    9  C5  UNL     1     104.855  18.556  15.856  1.00  0.00     0.054 C 
HETATM   10  C6  UNL     1     105.444  19.125  14.589  1.00  0.00     0.010 C 
HETATM   11  C7  UNL     1     105.703  18.110  13.504  1.00  0.00     0.001 C 
HETATM   12  C8  UNL     1     104.488  17.187  13.334  1.00  0.00     0.008 C 
HETATM   13  C9  UNL     1     104.264  16.599  14.655  1.00  0.00     0.023 A 
HETATM   14  C10 UNL     1     103.166  16.518  15.541  1.00  0.00     0.046 A 
HETATM   15  C11 UNL     1     103.653  17.828  15.422  1.00  0.00     0.068 A 
BRANCH  15  16
HETATM   16  O2  UNL     1     102.848  18.698  14.632  1.00  0.00    -0.389 OA
ATOM     17  H2  UNL     1     101.962  18.358  14.608  1.00  0.00     0.210 HD
ENDBRANCH  15  16
ENDBRANCH   7   9
BRANCH   8  18
HETATM   18  O3  UNL     1     107.908  18.636  16.076  1.00  0.00    -0.391 OA
ATOM     19  H3  UNL     1     107.365  18.634  15.296  1.00  0.00     0.210 HD
ENDBRANCH   8  18
BRANCH   1  20
HETATM   20  O1  UNL     1     108.553  19.412  18.729  1.00  0.00    -0.393 OA
ATOM     21  H1  UNL     1     109.460  19.185  18.564  1.00  0.00     0.210 HD
ENDBRANCH   1  20
TORSDOF 4
ENDMDL
MODEL 2
REMARK VINA RESULT: -5.833550043      2.570      4.664
REMARK  4 active torsions:
REMARK  status: ('A' for Active; 'I' for Inactive)
REMARK    1  A    between atoms: O1_1  and  C1_3 
REMARK    2  A    between atoms: C4_9  and  C5_10 
REMARK    3  A    between atoms: C11_16  and  O2_17 
REMARK    4  A    between atoms: C12_19  and  O3_20 
ROOT
HETATM    1  C1  UNL     1     105.383  17.139  13.938  1.00  0.00     0.150 C 
HETATM    2  C2  UNL     1     106.238  18.319  14.159  1.00  0.00     0.062 C 
HETATM    3  C3  UNL     1     106.488  18.621  15.622  1.00  0.00     0.235 C 
HETATM    4  N1  UNL     1     105.305  18.542  16.399  1.00  0.00    -0.068 N 
ATOM      5  H11 UNL     1     104.633  19.256  16.118  1.00  0.00     0.277 HD
ATOM      6  H12 UNL     1     105.474  18.846  17.358  1.00  0.00     0.277 HD
HETATM    7  C4  UNL     1     104.697  17.197  16.367  1.00  0.00     0.223 C 
HETATM    8  C12 UNL     1     104.280  16.917  14.941  1.00  0.00     0.178 C 
ENDROOT
BRANCH   7   9
HETATM    9  C5  UNL     1     103.548  17.295  17.266  1.00  0.00     0.054 C 
HETATM   10  C6  UNL     1     102.337  16.443  16.982  1.00  0.00     0.010 C 
HETATM   11  C7  UNL     1     102.443  15.018  17.466  1.00  0.00     0.001 C 
HETATM   12  C8  UNL     1     102.977  14.980  18.906  1.00  0.00     0.008 C 
HETATM   13  C9  UNL     1     104.257  15.687  18.857  1.00  0.00     0.023 A 
HETATM   14  C10 UNL     1     104.822  16.782  19.551  1.00  0.00     0.046 A 
HETATM   15  C11 UNL     1     103.766  17.174  18.716  1.00  0.00     0.068 A 
BRANCH  15  16
HETATM   16  O2  UNL     1     102.549  17.478  19.391  1.00  0.00    -0.389 OA
ATOM     17  H2  UNL     1     102.166  18.254  18.998  1.00  0.00     0.210 HD
ENDBRANCH  15  16
ENDBRANCH   7   9
BRANCH   8  18
HETATM   18  O3  UNL     1     104.001  15.533  14.804  1.00  0.00    -0.391 OA
ATOM     19  H3  UNL     1     103.553  15.489  13.967  1.00  0.00     0.210 HD
ENDBRANCH   8  18
BRANCH   1  20
HETATM   20  O1  UNL     1     104.785  17.233  12.670  1.00  0.00    -0.393 OA
ATOM     21  H1  UNL     1     104.635  16.359  12.330  1.00  0.00     0.210 HD
ENDBRANCH   1  20
TORSDOF 4
ENDMDL
MODEL 3
REMARK VINA RESULT: -5.661289744      2.510      3.614
REMARK  4 active torsions:
REMARK  status: ('A' for Active; 'I' for Inactive)
REMARK    1  A    between atoms: O1_1  and  C1_3 
REMARK    2  A    between atoms: C4_9  and  C5_10 
REMARK    3  A    between atoms: C11_16  and  O2_17 
REMARK    4  A    between atoms: C12_19  and  O3_20 
ROOT
HETATM    1  C1  UNL     1     104.714  17.410  19.630  1.00  0.00     0.150 C 
HETATM    2  C2  UNL     1     106.045  17.831  19.158  1.00  0.00     0.062 C 
HETATM    3  C3  UNL     1     106.071  18.238  17.699  1.00  0.00     0.235 C 
HETATM    4  N1  UNL     1     105.367  17.327  16.873  1.00  0.00    -0.068 N 
ATOM      5  H11 UNL     1     105.812  16.409  16.875  1.00  0.00     0.277 HD
ATOM      6  H12 UNL     1     105.480  17.561  15.887  1.00  0.00     0.277 HD
HETATM    7  C4  UNL     1     103.939  17.225  17.235  1.00  0.00     0.223 C 
HETATM    8  C12 UNL     1     103.859  16.664  18.636  1.00  0.00     0.178 C 
ENDROOT
BRANCH   7   9
HETATM    9  C5  UNL     1     103.377  16.307  16.244  1.00  0.00     0.054 C 
HETATM   10  C6  UNL     1     102.042  15.666  16.532  1.00  0.00     0.010 C 
HETATM   11  C7  UNL     1     100.848  16.537  16.227  1.00  0.00     0.001 C 
HETATM   12  C8  UNL     1     101.002  17.194  14.848  1.00  0.00     0.008 C 
HETATM   13  C9  UNL     1     102.268  17.925  14.911  1.00  0.00     0.023 A 
HETATM   14  C10 UNL     1     103.453  17.943  14.140  1.00  0.00     0.046 A 
HETATM   15  C11 UNL     1     103.296  16.737  14.840  1.00  0.00     0.068 A 
BRANCH  15  16
HETATM   16  O2  UNL     1     102.889  15.629  14.042  1.00  0.00    -0.389 OA
ATOM     17  H2  UNL     1     103.212  14.830  14.440  1.00  0.00     0.210 HD
ENDBRANCH  15  16
ENDBRANCH   7   9
BRANCH   8  18
HETATM   18  O3  UNL     1     102.547  16.859  19.138  1.00  0.00    -0.391 OA
ATOM     19  H3  UNL     1     102.182  15.982  19.121  1.00  0.00     0.210 HD
ENDBRANCH   8  18
BRANCH   1  20
HETATM   20  O1  UNL     1     104.863  16.585  20.757  1.00  0.00    -0.393 OA
ATOM     21  H1  UNL     1     105.631  16.037  20.643  1.00  0.00     0.210 HD
ENDBRANCH   1  20
TORSDOF 4
ENDMDL
MODEL 4
REMARK VINA RESULT: -5.639634081      2.271      4.410
REMARK  4 active torsions:
REMARK  status: ('A' for Active; 'I' for Inactive)
REMARK    1  A    between atoms: O1_1  and  C1_3 
REMARK    2  A    between atoms: C4_9  and  C5_10 
REMARK    3  A    between atoms: C11_16  and  O2_17 
REMARK    4  A    between atoms: C12_19  and  O3_20 
ROOT
HETATM    1  C1  UNL     1     101.508  16.325  17.030  1.00  0.00     0.150 C 
HETATM    2  C2  UNL     1     102.237  15.595  18.083  1.00  0.00     0.062 C 
HETATM    3  C3  UNL     1     103.672  16.047  18.253  1.00  0.00     0.235 C 
HETATM    4  N1  UNL     1     104.339  16.200  17.012  1.00  0.00    -0.068 N 
ATOM      5  H11 UNL     1     104.425  15.307  16.528  1.00  0.00     0.277 HD
ATOM      6  H12 UNL     1     105.329  16.407  17.150  1.00  0.00     0.277 HD
HETATM    7  C4  UNL     1     103.700  17.214  16.149  1.00  0.00     0.223 C 
HETATM    8  C12 UNL     1     102.310  16.722  15.817  1.00  0.00     0.178 C 
ENDROOT
BRANCH   7   9
HETATM    9  C5  UNL     1     104.558  17.277  14.965  1.00  0.00     0.054 C 
HETATM   10  C6  UNL     1     103.958  17.756  13.667  1.00  0.00     0.010 C 
HETATM   11  C7  UNL     1     103.864  19.255  13.532  1.00  0.00     0.001 C 
HETATM   12  C8  UNL     1     105.186  19.914  13.953  1.00  0.00     0.008 C 
HETATM   13  C9  UNL     1     105.424  19.455  15.322  1.00  0.00     0.023 A 
HETATM   14  C10 UNL     1     106.488  18.806  15.989  1.00  0.00     0.046 A 
HETATM   15  C11 UNL     1     105.854  17.966  15.061  1.00  0.00     0.068 A 
BRANCH  15  16
HETATM   16  O2  UNL     1     106.582  17.746  13.857  1.00  0.00    -0.389 OA
ATOM     17  H2  UNL     1     107.473  17.503  14.077  1.00  0.00     0.210 HD
ENDBRANCH  15  16
ENDBRANCH   7   9
BRANCH   8  18
HETATM   18  O3  UNL     1     101.557  17.796  15.277  1.00  0.00    -0.391 OA
ATOM     19  H3  UNL     1     101.339  17.485  14.406  1.00  0.00     0.210 HD
ENDBRANCH   8  18
BRANCH   1  20
HETATM   20  O1  UNL     1     100.432  15.541  16.584  1.00  0.00    -0.393 OA
ATOM     21  H1  UNL     1      99.930  16.034  15.945  1.00  0.00     0.210 HD
ENDBRANCH   1  20
TORSDOF 4
ENDMDL
MODEL 5
REMARK VINA RESULT: -5.574145535      0.906      1.025
REMARK  4 active torsions:
REMARK  status: ('A' for Active; 'I' for Inactive)
REMARK    1  A    between atoms: O1_1  and  C1_3 
REMARK    2  A    between atoms: C4_9  and  C5_10 
REMARK    3  A    between atoms: C11_16  and  O2_17 
REMARK    4  A    between atoms: C12_19  and  O3_20 
ROOT
HETATM    1  C1  UNL     1     106.730  17.593  19.270  1.00  0.00     0.150 C 
HETATM    2  C2  UNL     1     105.636  17.080  20.114  1.00  0.00     0.062 C 
HETATM    3  C3  UNL     1     104.471  16.521  19.325  1.00  0.00     0.235 C 
HETATM    4  N1  UNL     1     104.096  17.363  18.248  1.00  0.00    -0.068 N 
ATOM      5  H11 UNL     1     103.749  18.260  18.587  1.00  0.00     0.277 HD
ATOM      6  H12 UNL     1     103.250  17.022  17.792  1.00  0.00     0.277 HD
HETATM    7  C4  UNL     1     105.188  17.551  17.271  1.00  0.00     0.223 C 
HETATM    8  C12 UNL     1     106.321  18.258  17.980  1.00  0.00     0.178 C 
ENDROOT
BRANCH   7   9
HETATM    9  C5  UNL     1     104.598  18.377  16.219  1.00  0.00     0.054 C 
HETATM   10  C6  UNL     1     105.518  19.051  15.232  1.00  0.00     0.010 C 
HETATM   11  C7  UNL     1     105.990  18.165  14.106  1.00  0.00     0.001 C 
HETATM   12  C8  UNL     1     104.811  17.382  13.510  1.00  0.00     0.008 C 
HETATM   13  C9  UNL     1     104.228  16.651  14.635  1.00  0.00     0.023 A 
HETATM   14  C10 UNL     1     102.938  16.553  15.205  1.00  0.00     0.046 A 
HETATM   15  C11 UNL     1     103.508  17.819  15.402  1.00  0.00     0.068 A 
BRANCH  15  16
HETATM   16  O2  UNL     1     102.978  18.852  14.577  1.00  0.00    -0.389 OA
ATOM     17  H2  UNL     1     103.299  18.732  13.691  1.00  0.00     0.210 HD
ENDBRANCH  15  16
ENDBRANCH   7   9
BRANCH   8  18
HETATM   18  O3  UNL     1     107.493  18.162  17.188  1.00  0.00    -0.391 OA
ATOM     19  H3  UNL     1     107.187  17.713  16.409  1.00  0.00     0.210 HD
ENDBRANCH   8  18
BRANCH   1  20
HETATM   20  O1  UNL     1     107.480  18.527  20.003  1.00  0.00    -0.393 OA
ATOM     21  H1  UNL     1     108.222  18.087  20.403  1.00  0.00     0.210 HD
ENDBRANCH   1  20
TORSDOF 4
ENDMDL
