MODEL 1
REMARK VINA RESULT: -5.642683908      0.000      0.000
REMARK  5 active torsions:
REMARK  status: ('A' for Active; 'I' for Inactive)
REMARK    1  A    between atoms: C2_2  and  O1_3 
REMARK    2  A    between atoms: C5_7  and  C6_8 
REMARK    3  A    between atoms: C6_8  and  O2_9 
REMARK    4  A    between atoms: C7_11  and  O3_12 
REMARK    5  A    between atoms: C10_16  and  O4_17 
ROOT
HETATM    1  C1  UNL     1     104.546  17.078  19.718  1.00  0.00     0.045 C 
HETATM    2  C2  UNL     1     104.403  16.404  18.375  1.00  0.00     0.055 C 
HETATM    3  C3  UNL     1     102.946  16.439  18.001  1.00  0.00     0.038 C 
HETATM    4  C4  UNL     1     102.713  16.176  16.549  1.00  0.00     0.017 C 
HETATM    5  C5  UNL     1     103.395  17.226  15.709  1.00  0.00     0.013 C 
HETATM    6  C7  UNL     1     102.366  18.301  15.323  1.00  0.00     0.129 C 
HETATM    7  C8  UNL     1     103.019  19.248  14.389  1.00  0.00     0.035 C 
HETATM    8  C9  UNL     1     104.354  19.748  14.738  1.00  0.00     0.034 C 
HETATM    9  C10 UNL     1     105.167  18.981  15.704  1.00  0.00     0.123 C 
HETATM   10  C11 UNL     1     104.408  17.971  16.516  1.00  0.00     0.030 C 
HETATM   11  C12 UNL     1     105.284  17.067  17.313  1.00  0.00     0.045 C 
ENDROOT
BRANCH   2  12
HETATM   12  O1  UNL     1     104.846  15.092  18.519  1.00  0.00    -0.390 OA
ATOM     13  H1  UNL     1     105.400  14.895  17.772  1.00  0.00     0.210 HD
ENDBRANCH   2  12
BRANCH   5  14
HETATM   14  C6  UNL     1     103.900  16.577  14.466  1.00  0.00     0.176 C 
BRANCH  14  15
HETATM   15  O2  UNL     1     103.377  15.328  14.215  1.00  0.00    -0.400 OA
ATOM     16  H2  UNL     1     102.479  15.209  14.500  1.00  0.00     0.209 HD
ENDBRANCH  14  15
ENDBRANCH   5  14
BRANCH   9  17
HETATM   17  O4  UNL     1     106.214  18.273  15.072  1.00  0.00    -0.395 OA
ATOM     18  H4  UNL     1     107.022  18.311  15.571  1.00  0.00     0.210 HD
ENDBRANCH   9  17
BRANCH   6  19
HETATM   19  O3  UNL     1     101.331  17.618  14.670  1.00  0.00    -0.395 OA
ATOM     20  H3  UNL     1     101.595  17.561  13.759  1.00  0.00     0.210 HD
ENDBRANCH   6  19
TORSDOF 5
ENDMDL
MODEL 2
REMARK VINA RESULT: -5.023261057      1.922      4.173
REMARK  5 active torsions:
REMARK  status: ('A' for Active; 'I' for Inactive)
REMARK    1  A    between atoms: C2_2  and  O1_3 
REMARK    2  A    between atoms: C5_7  and  C6_8 
REMARK    3  A    between atoms: C6_8  and  O2_9 
REMARK    4  A    between atoms: C7_11  and  O3_12 
REMARK    5  A    between atoms: C10_16  and  O4_17 
ROOT
HETATM    1  C1  UNL     1     101.812  21.533  13.364  1.00  0.00     0.045 C 
HETATM    2  C2  UNL     1     102.084  20.614  14.530  1.00  0.00     0.055 C 
HETATM    3  C3  UNL     1     101.558  19.252  14.167  1.00  0.00     0.038 C 
HETATM    4  C4  UNL     1     102.105  18.167  15.037  1.00  0.00     0.017 C 
HETATM    5  C5  UNL     1     103.604  18.095  14.907  1.00  0.00     0.013 C 
HETATM    6  C7  UNL     1     103.965  16.990  13.900  1.00  0.00     0.129 C 
HETATM    7  C8  UNL     1     105.439  16.842  13.888  1.00  0.00     0.035 C 
HETATM    8  C9  UNL     1     106.252  18.061  13.806  1.00  0.00     0.034 C 
HETATM    9  C10 UNL     1     105.640  19.348  14.195  1.00  0.00     0.123 C 
HETATM   10  C11 UNL     1     104.141  19.341  14.280  1.00  0.00     0.030 C 
HETATM   11  C12 UNL     1     103.573  20.578  14.886  1.00  0.00     0.045 C 
ENDROOT
BRANCH   2  12
HETATM   12  O1  UNL     1     101.407  21.128  15.631  1.00  0.00    -0.390 OA
ATOM     13  H1  UNL     1     100.607  20.625  15.734  1.00  0.00     0.210 HD
ENDBRANCH   2  12
BRANCH   5  14
HETATM   14  C6  UNL     1     104.174  17.736  16.236  1.00  0.00     0.176 C 
BRANCH  14  15
HETATM   15  O2  UNL     1     103.241  17.392  17.189  1.00  0.00    -0.400 OA
ATOM     16  H2  UNL     1     102.835  18.128  17.631  1.00  0.00     0.209 HD
ENDBRANCH  14  15
ENDBRANCH   5  14
BRANCH   9  17
HETATM   17  O4  UNL     1     106.105  19.798  15.450  1.00  0.00    -0.395 OA
ATOM     18  H4  UNL     1     106.692  20.541  15.368  1.00  0.00     0.210 HD
ENDBRANCH   9  17
BRANCH   6  19
HETATM   19  O3  UNL     1     103.368  15.821  14.392  1.00  0.00    -0.395 OA
ATOM     20  H3  UNL     1     102.437  16.006  14.434  1.00  0.00     0.210 HD
ENDBRANCH   6  19
TORSDOF 5
ENDMDL
MODEL 3
REMARK VINA RESULT: -4.991268786      2.221      4.340
REMARK  5 active torsions:
REMARK  status: ('A' for Active; 'I' for Inactive)
REMARK    1  A    between atoms: C2_2  and  O1_3 
REMARK    2  A    between atoms: C5_7  and  C6_8 
REMARK    3  A    between atoms: C6_8  and  O2_9 
REMARK    4  A    between atoms: C7_11  and  O3_12 
REMARK    5  A    between atoms: C10_16  and  O4_17 
ROOT
HETATM    1  C1  UNL     1      98.968  18.523  13.333  1.00  0.00     0.045 C 
HETATM    2  C2  UNL     1      99.860  18.390  14.543  1.00  0.00     0.055 C 
HETATM    3  C3  UNL     1     100.417  16.992  14.545  1.00  0.00     0.038 C 
HETATM    4  C4  UNL     1     101.607  16.842  15.436  1.00  0.00     0.017 C 
HETATM    5  C5  UNL     1     102.723  17.746  14.978  1.00  0.00     0.013 C 
HETATM    6  C7  UNL     1     103.702  16.933  14.116  1.00  0.00     0.129 C 
HETATM    7  C8  UNL     1     104.858  17.800  13.791  1.00  0.00     0.035 C 
HETATM    8  C9  UNL     1     104.585  19.163  13.320  1.00  0.00     0.034 C 
HETATM    9  C10 UNL     1     103.268  19.764  13.618  1.00  0.00     0.123 C 
HETATM   10  C11 UNL     1     102.206  18.793  14.045  1.00  0.00     0.030 C 
HETATM   11  C12 UNL     1     100.967  19.448  14.549  1.00  0.00     0.045 C 
ENDROOT
BRANCH   2  12
HETATM   12  O1  UNL     1      99.071  18.609  15.668  1.00  0.00    -0.390 OA
ATOM     13  H1  UNL     1      98.172  18.691  15.373  1.00  0.00     0.210 HD
ENDBRANCH   2  12
BRANCH   5  14
HETATM   14  C6  UNL     1     103.445  18.246  16.182  1.00  0.00     0.176 C 
BRANCH  14  15
HETATM   15  O2  UNL     1     103.208  17.530  17.335  1.00  0.00    -0.400 OA
ATOM     16  H2  UNL     1     103.966  17.076  17.684  1.00  0.00     0.209 HD
ENDBRANCH  14  15
ENDBRANCH   5  14
BRANCH   9  17
HETATM   17  O4  UNL     1     103.348  20.736  14.639  1.00  0.00    -0.395 OA
ATOM     18  H4  UNL     1     103.723  21.551  14.327  1.00  0.00     0.210 HD
ENDBRANCH   9  17
BRANCH   6  19
HETATM   19  O3  UNL     1     104.115  15.862  14.921  1.00  0.00    -0.395 OA
ATOM     20  H3  UNL     1     104.015  15.084  14.385  1.00  0.00     0.210 HD
ENDBRANCH   6  19
TORSDOF 5
ENDMDL
MODEL 4
REMARK VINA RESULT: -4.916813734      1.576      4.611
REMARK  5 active torsions:
REMARK  status: ('A' for Active; 'I' for Inactive)
REMARK    1  A    between atoms: C2_2  and  O1_3 
REMARK    2  A    between atoms: C5_7  and  C6_8 
REMARK    3  A    between atoms: C6_8  and  O2_9 
REMARK    4  A    between atoms: C7_11  and  O3_12 
REMARK    5  A    between atoms: C10_16  and  O4_17 
ROOT
HETATM    1  C1  UNL     1     101.060  20.586  14.679  1.00  0.00     0.045 C 
HETATM    2  C2  UNL     1     102.245  19.814  14.151  1.00  0.00     0.055 C 
HETATM    3  C3  UNL     1     103.486  20.422  14.746  1.00  0.00     0.038 C 
HETATM    4  C4  UNL     1     104.679  19.530  14.637  1.00  0.00     0.017 C 
HETATM    5  C5  UNL     1     104.439  18.239  15.377  1.00  0.00     0.013 C 
HETATM    6  C7  UNL     1     105.076  18.338  16.773  1.00  0.00     0.129 C 
HETATM    7  C8  UNL     1     104.948  17.017  17.432  1.00  0.00     0.035 C 
HETATM    8  C9  UNL     1     103.645  16.345  17.379  1.00  0.00     0.034 C 
HETATM    9  C10 UNL     1     102.683  16.746  16.332  1.00  0.00     0.123 C 
HETATM   10  C11 UNL     1     102.983  18.054  15.659  1.00  0.00     0.030 C 
HETATM   11  C12 UNL     1     102.130  18.319  14.466  1.00  0.00     0.045 C 
ENDROOT
BRANCH   2  12
HETATM   12  O1  UNL     1     102.244  19.946  12.766  1.00  0.00    -0.390 OA
ATOM     13  H1  UNL     1     102.700  19.193  12.408  1.00  0.00     0.210 HD
ENDBRANCH   2  12
BRANCH   5  14
HETATM   14  C6  UNL     1     105.103  17.136  14.626  1.00  0.00     0.176 C 
BRANCH  14  15
HETATM   15  O2  UNL     1     106.203  17.520  13.892  1.00  0.00    -0.400 OA
ATOM     16  H2  UNL     1     106.631  18.310  14.201  1.00  0.00     0.209 HD
ENDBRANCH  14  15
ENDBRANCH   5  14
BRANCH   9  17
HETATM   17  O4  UNL     1     102.590  15.784  15.301  1.00  0.00    -0.395 OA
ATOM     18  H4  UNL     1     103.005  14.964  15.541  1.00  0.00     0.210 HD
ENDBRANCH   9  17
BRANCH   6  19
HETATM   19  O3  UNL     1     106.427  18.638  16.552  1.00  0.00    -0.395 OA
ATOM     20  H3  UNL     1     106.733  17.997  15.922  1.00  0.00     0.210 HD
ENDBRANCH   6  19
TORSDOF 5
ENDMDL
MODEL 5
REMARK VINA RESULT: -4.868690634      8.667     11.007
REMARK  5 active torsions:
REMARK  status: ('A' for Active; 'I' for Inactive)
REMARK    1  A    between atoms: C2_2  and  O1_3 
REMARK    2  A    between atoms: C5_7  and  C6_8 
REMARK    3  A    between atoms: C6_8  and  O2_9 
REMARK    4  A    between atoms: C7_11  and  O3_12 
REMARK    5  A    between atoms: C10_16  and  O4_17 
ROOT
HETATM    1  C1  UNL     1     109.585  18.986  12.435  1.00  0.00     0.045 C 
HETATM    2  C2  UNL     1     110.649  19.950  11.967  1.00  0.00     0.055 C 
HETATM    3  C3  UNL     1     111.058  20.784  13.150  1.00  0.00     0.038 C 
HETATM    4  C4  UNL     1     112.359  21.489  12.941  1.00  0.00     0.017 C 
HETATM    5  C5  UNL     1     113.467  20.492  12.718  1.00  0.00     0.013 C 
HETATM    6  C7  UNL     1     114.205  20.260  14.046  1.00  0.00     0.129 C 
HETATM    7  C8  UNL     1     115.370  19.386  13.778  1.00  0.00     0.035 C 
HETATM    8  C9  UNL     1     115.158  18.189  12.957  1.00  0.00     0.034 C 
HETATM    9  C10 UNL     1     113.974  18.136  12.074  1.00  0.00     0.123 C 
HETATM   10  C11 UNL     1     112.908  19.148  12.378  1.00  0.00     0.030 C 
HETATM   11  C12 UNL     1     111.840  19.217  11.342  1.00  0.00     0.045 C 
ENDROOT
BRANCH   2  12
HETATM   12  O1  UNL     1     110.083  20.743  10.973  1.00  0.00    -0.390 OA
ATOM     13  H1  UNL     1     110.740  21.377  10.707  1.00  0.00     0.210 HD
ENDBRANCH   2  12
BRANCH   5  14
HETATM   14  C6  UNL     1     114.424  21.068  11.732  1.00  0.00     0.176 C 
BRANCH  14  15
HETATM   15  O2  UNL     1     114.594  22.432  11.822  1.00  0.00    -0.400 OA
ATOM     16  H2  UNL     1     114.295  22.816  12.638  1.00  0.00     0.209 HD
ENDBRANCH  14  15
ENDBRANCH   5  14
BRANCH   9  17
HETATM   17  O4  UNL     1     114.317  18.320  10.717  1.00  0.00    -0.395 OA
ATOM     18  H4  UNL     1     113.748  18.947  10.287  1.00  0.00     0.210 HD
ENDBRANCH   9  17
BRANCH   6  19
HETATM   19  O3  UNL     1     114.638  21.526  14.464  1.00  0.00    -0.395 OA
ATOM     20  H3  UNL     1     113.984  21.831  15.081  1.00  0.00     0.210 HD
ENDBRANCH   6  19
TORSDOF 5
ENDMDL
