MODEL 1
REMARK VINA RESULT: -5.593050874      0.000      0.000
REMARK  6 active torsions:
REMARK  status: ('A' for Active; 'I' for Inactive)
REMARK    1  A    between atoms: C8_8  and  C9_9 
REMARK    2  A    between atoms: C9_9  and  O1_10 
REMARK    3  A    between atoms: C10_12  and  O2_13 
REMARK    4  A    between atoms: C11_15  and  C12_16 
REMARK    5  A    between atoms: C12_16  and  O3_17 
REMARK    6  A    between atoms: C13_19  and  O4_20 
ROOT
HETATM    1  C1  UNL     1     105.237  17.025  18.022  1.00  0.00     0.017 C 
HETATM    2  C2  UNL     1     104.531  17.585  17.055  1.00  0.00    -0.060 C 
HETATM    3  C3  UNL     1     105.311  18.625  16.301  1.00  0.00     0.041 C 
HETATM    4  C4  UNL     1     105.369  18.245  14.859  1.00  0.00    -0.003 C 
HETATM    5  C5  UNL     1     104.906  16.822  14.700  1.00  0.00     0.011 C 
HETATM    6  C6  UNL     1     103.456  16.897  14.422  1.00  0.00     0.009 A 
HETATM    7  C7  UNL     1     103.179  18.263  13.880  1.00  0.00     0.027 A 
HETATM    8  C8  UNL     1     104.409  19.108  14.087  1.00  0.00     0.020 C 
HETATM    9  C10 UNL     1     102.197  18.474  15.022  1.00  0.00     0.137 A 
HETATM   10  C11 UNL     1     102.558  17.116  15.571  1.00  0.00     0.041 A 
HETATM   11  C13 UNL     1     103.168  17.090  16.921  1.00  0.00     0.160 C 
ENDROOT
BRANCH   8  12
HETATM   12  C9  UNL     1     105.045  19.525  12.766  1.00  0.00     0.169 C 
BRANCH  12  13
HETATM   13  O1  UNL     1     104.190  20.347  12.035  1.00  0.00    -0.400 OA
ATOM     14  H1  UNL     1     103.391  20.522  12.517  1.00  0.00     0.209 HD
ENDBRANCH  12  13
ENDBRANCH   8  12
BRANCH   9  15
HETATM   15  O2  UNL     1     100.927  18.659  14.543  1.00  0.00    -0.394 OA
ATOM     16  H2  UNL     1     100.752  19.581  14.399  1.00  0.00     0.210 HD
ENDBRANCH   9  15
BRANCH  10  17
HETATM   17  C12 UNL     1     101.349  16.205  15.544  1.00  0.00     0.179 C 
BRANCH  17  18
HETATM   18  O3  UNL     1     100.494  16.367  16.608  1.00  0.00    -0.400 OA
ATOM     19  H3  UNL     1      99.980  17.166  16.578  1.00  0.00     0.209 HD
ENDBRANCH  17  18
ENDBRANCH  10  17
BRANCH  11  20
HETATM   20  O4  UNL     1     103.109  15.789  17.421  1.00  0.00    -0.390 OA
ATOM     21  H4  UNL     1     103.087  15.180  16.692  1.00  0.00     0.210 HD
ENDBRANCH  11  20
TORSDOF 6
ENDMDL
MODEL 2
REMARK VINA RESULT: -5.471081151      1.994      4.201
REMARK  6 active torsions:
REMARK  status: ('A' for Active; 'I' for Inactive)
REMARK    1  A    between atoms: C8_8  and  C9_9 
REMARK    2  A    between atoms: C9_9  and  O1_10 
REMARK    3  A    between atoms: C10_12  and  O2_13 
REMARK    4  A    between atoms: C11_15  and  C12_16 
REMARK    5  A    between atoms: C12_16  and  O3_17 
REMARK    6  A    between atoms: C13_19  and  O4_20 
ROOT
HETATM    1  C1  UNL     1     105.964  17.889  18.586  1.00  0.00     0.017 C 
HETATM    2  C2  UNL     1     105.435  17.476  17.447  1.00  0.00    -0.060 C 
HETATM    3  C3  UNL     1     104.239  16.590  17.654  1.00  0.00     0.041 C 
HETATM    4  C4  UNL     1     103.054  17.201  16.982  1.00  0.00    -0.003 C 
HETATM    5  C5  UNL     1     103.375  18.620  16.599  1.00  0.00     0.011 C 
HETATM    6  C6  UNL     1     103.885  18.558  15.212  1.00  0.00     0.009 A 
HETATM    7  C7  UNL     1     103.370  17.292  14.605  1.00  0.00     0.027 A 
HETATM    8  C8  UNL     1     102.776  16.452  15.707  1.00  0.00     0.020 C 
HETATM    9  C10 UNL     1     104.809  16.877  14.346  1.00  0.00     0.137 A 
HETATM   10  C11 UNL     1     105.287  18.136  15.026  1.00  0.00     0.041 A 
HETATM   11  C13 UNL     1     106.107  17.956  16.247  1.00  0.00     0.160 C 
ENDROOT
BRANCH   8  12
HETATM   12  C9  UNL     1     101.272  16.270  15.539  1.00  0.00     0.169 C 
BRANCH  12  13
HETATM   13  O1  UNL     1     100.626  16.279  16.774  1.00  0.00    -0.400 OA
ATOM     14  H1  UNL     1     101.063  15.705  17.392  1.00  0.00     0.209 HD
ENDBRANCH  12  13
ENDBRANCH   8  12
BRANCH   9  15
HETATM   15  O2  UNL     1     105.041  16.743  13.002  1.00  0.00    -0.394 OA
ATOM     16  H2  UNL     1     104.247  16.902  12.505  1.00  0.00     0.210 HD
ENDBRANCH   9  15
BRANCH  10  17
HETATM   17  C12 UNL     1     106.030  19.012  14.041  1.00  0.00     0.179 C 
BRANCH  17  18
HETATM   18  O3  UNL     1     107.327  18.623  13.804  1.00  0.00    -0.400 OA
ATOM     19  H3  UNL     1     107.628  17.908  14.353  1.00  0.00     0.209 HD
ENDBRANCH  17  18
ENDBRANCH  10  17
BRANCH  11  20
HETATM   20  O4  UNL     1     106.753  19.158  16.541  1.00  0.00    -0.390 OA
ATOM     21  H4  UNL     1     106.099  19.838  16.654  1.00  0.00     0.210 HD
ENDBRANCH  11  20
TORSDOF 6
ENDMDL
MODEL 3
REMARK VINA RESULT: -5.331953539      1.648      4.350
REMARK  6 active torsions:
REMARK  status: ('A' for Active; 'I' for Inactive)
REMARK    1  A    between atoms: C8_8  and  C9_9 
REMARK    2  A    between atoms: C9_9  and  O1_10 
REMARK    3  A    between atoms: C10_12  and  O2_13 
REMARK    4  A    between atoms: C11_15  and  C12_16 
REMARK    5  A    between atoms: C12_16  and  O3_17 
REMARK    6  A    between atoms: C13_19  and  O4_20 
ROOT
HETATM    1  C1  UNL     1     106.083  17.917  13.409  1.00  0.00     0.017 C 
HETATM    2  C2  UNL     1     104.770  18.010  13.527  1.00  0.00    -0.060 C 
HETATM    3  C3  UNL     1     104.142  16.730  14.002  1.00  0.00     0.041 C 
HETATM    4  C4  UNL     1     103.407  16.987  15.275  1.00  0.00    -0.003 C 
HETATM    5  C5  UNL     1     103.793  18.339  15.809  1.00  0.00     0.011 C 
HETATM    6  C6  UNL     1     102.795  19.287  15.268  1.00  0.00     0.009 A 
HETATM    7  C7  UNL     1     101.575  18.495  14.917  1.00  0.00     0.027 A 
HETATM    8  C8  UNL     1     101.931  17.033  14.986  1.00  0.00     0.020 C 
HETATM    9  C10 UNL     1     101.707  19.002  13.489  1.00  0.00     0.137 A 
HETATM   10  C11 UNL     1     102.971  19.730  13.872  1.00  0.00     0.041 A 
HETATM   11  C13 UNL     1     104.211  19.310  13.180  1.00  0.00     0.160 C 
ENDROOT
BRANCH   8  12
HETATM   12  C9  UNL     1     101.171  16.312  16.094  1.00  0.00     0.169 C 
BRANCH  12  13
HETATM   13  O1  UNL     1      99.850  16.749  16.162  1.00  0.00    -0.400 OA
ATOM     14  H1  UNL     1      99.751  17.601  15.753  1.00  0.00     0.209 HD
ENDBRANCH  12  13
ENDBRANCH   8  12
BRANCH   9  15
HETATM   15  O2  UNL     1     100.614  19.749  13.137  1.00  0.00    -0.394 OA
ATOM     16  H2  UNL     1      99.952  19.720  13.817  1.00  0.00     0.210 HD
ENDBRANCH   9  15
BRANCH  10  17
HETATM   17  C12 UNL     1     102.782  21.223  13.710  1.00  0.00     0.179 C 
BRANCH  17  18
HETATM   18  O3  UNL     1     102.795  21.657  12.405  1.00  0.00    -0.400 OA
ATOM     19  H3  UNL     1     102.102  22.270  12.190  1.00  0.00     0.209 HD
ENDBRANCH  17  18
ENDBRANCH  10  17
BRANCH  11  20
HETATM   20  O4  UNL     1     105.190  20.286  13.368  1.00  0.00    -0.390 OA
ATOM     21  H4  UNL     1     104.954  21.058  12.867  1.00  0.00     0.210 HD
ENDBRANCH  11  20
TORSDOF 6
ENDMDL
MODEL 4
REMARK VINA RESULT: -5.284277444      1.893      4.783
REMARK  6 active torsions:
REMARK  status: ('A' for Active; 'I' for Inactive)
REMARK    1  A    between atoms: C8_8  and  C9_9 
REMARK    2  A    between atoms: C9_9  and  O1_10 
REMARK    3  A    between atoms: C10_12  and  O2_13 
REMARK    4  A    between atoms: C11_15  and  C12_16 
REMARK    5  A    between atoms: C12_16  and  O3_17 
REMARK    6  A    between atoms: C13_19  and  O4_20 
ROOT
HETATM    1  C1  UNL     1     103.399  20.812  13.308  1.00  0.00     0.017 C 
HETATM    2  C2  UNL     1     103.561  19.991  14.331  1.00  0.00    -0.060 C 
HETATM    3  C3  UNL     1     102.287  19.297  14.721  1.00  0.00     0.041 C 
HETATM    4  C4  UNL     1     102.482  17.820  14.620  1.00  0.00    -0.003 C 
HETATM    5  C5  UNL     1     103.759  17.536  13.878  1.00  0.00     0.011 C 
HETATM    6  C6  UNL     1     104.807  17.407  14.914  1.00  0.00     0.009 A 
HETATM    7  C7  UNL     1     104.122  17.062  16.198  1.00  0.00     0.027 A 
HETATM    8  C8  UNL     1     102.640  17.253  16.004  1.00  0.00     0.020 C 
HETATM    9  C10 UNL     1     104.736  18.310  16.814  1.00  0.00     0.137 A 
HETATM   10  C11 UNL     1     105.353  18.655  15.481  1.00  0.00     0.041 A 
HETATM   11  C13 UNL     1     104.917  19.928  14.861  1.00  0.00     0.160 C 
ENDROOT
BRANCH   8  12
HETATM   12  C9  UNL     1     101.877  15.937  16.107  1.00  0.00     0.169 C 
BRANCH  12  13
HETATM   13  O1  UNL     1     100.671  16.109  16.784  1.00  0.00    -0.400 OA
ATOM     14  H1  UNL     1     100.171  16.825  16.412  1.00  0.00     0.209 HD
ENDBRANCH  12  13
ENDBRANCH   8  12
BRANCH   9  15
HETATM   15  O2  UNL     1     105.575  17.979  17.846  1.00  0.00    -0.394 OA
ATOM     16  H2  UNL     1     105.859  18.757  18.311  1.00  0.00     0.210 HD
ENDBRANCH   9  15
BRANCH  10  17
HETATM   17  C12 UNL     1     106.863  18.633  15.584  1.00  0.00     0.179 C 
BRANCH  17  18
HETATM   18  O3  UNL     1     107.411  19.774  16.119  1.00  0.00    -0.400 OA
ATOM     19  H3  UNL     1     106.774  20.433  16.370  1.00  0.00     0.209 HD
ENDBRANCH  17  18
ENDBRANCH  10  17
BRANCH  11  20
HETATM   20  O4  UNL     1     105.814  20.270  13.849  1.00  0.00    -0.390 OA
ATOM     21  H4  UNL     1     106.269  19.487  13.563  1.00  0.00     0.210 HD
ENDBRANCH  11  20
TORSDOF 6
ENDMDL
MODEL 5
REMARK VINA RESULT: -5.155287694      1.795      3.326
REMARK  6 active torsions:
REMARK  status: ('A' for Active; 'I' for Inactive)
REMARK    1  A    between atoms: C8_8  and  C9_9 
REMARK    2  A    between atoms: C9_9  and  O1_10 
REMARK    3  A    between atoms: C10_12  and  O2_13 
REMARK    4  A    between atoms: C11_15  and  C12_16 
REMARK    5  A    between atoms: C12_16  and  O3_17 
REMARK    6  A    between atoms: C13_19  and  O4_20 
ROOT
HETATM    1  C1  UNL     1      99.695  19.469  14.476  1.00  0.00     0.017 C 
HETATM    2  C2  UNL     1     100.754  18.697  14.307  1.00  0.00    -0.060 C 
HETATM    3  C3  UNL     1     101.841  19.374  13.519  1.00  0.00     0.041 C 
HETATM    4  C4  UNL     1     103.085  19.424  14.343  1.00  0.00    -0.003 C 
HETATM    5  C5  UNL     1     102.754  19.070  15.767  1.00  0.00     0.011 C 
HETATM    6  C6  UNL     1     102.969  17.611  15.881  1.00  0.00     0.009 A 
HETATM    7  C7  UNL     1     103.908  17.214  14.787  1.00  0.00     0.027 A 
HETATM    8  C8  UNL     1     104.045  18.380  13.841  1.00  0.00     0.020 C 
HETATM    9  C10 UNL     1     102.847  16.250  14.282  1.00  0.00     0.137 A 
HETATM   10  C11 UNL     1     101.908  16.729  15.361  1.00  0.00     0.041 A 
HETATM   11  C13 UNL     1     100.654  17.373  14.907  1.00  0.00     0.160 C 
ENDROOT
BRANCH   8  12
HETATM   12  C9  UNL     1     105.459  18.948  13.836  1.00  0.00     0.169 C 
BRANCH  12  13
HETATM   13  O1  UNL     1     106.403  17.944  14.044  1.00  0.00    -0.400 OA
ATOM     14  H1  UNL     1     106.883  18.089  14.851  1.00  0.00     0.209 HD
ENDBRANCH  12  13
ENDBRANCH   8  12
BRANCH   9  15
HETATM   15  O2  UNL     1     103.296  14.957  14.346  1.00  0.00    -0.394 OA
ATOM     16  H2  UNL     1     103.817  14.743  13.581  1.00  0.00     0.210 HD
ENDBRANCH   9  15
BRANCH  10  17
HETATM   17  C12 UNL     1     101.580  15.595  16.308  1.00  0.00     0.179 C 
BRANCH  17  18
HETATM   18  O3  UNL     1     101.354  15.989  17.606  1.00  0.00    -0.400 OA
ATOM     19  H3  UNL     1     101.251  15.271  18.220  1.00  0.00     0.209 HD
ENDBRANCH  17  18
ENDBRANCH  10  17
BRANCH  11  20
HETATM   20  O4  UNL     1      99.759  17.430  15.976  1.00  0.00    -0.390 OA
ATOM     21  H4  UNL     1     100.186  17.084  16.752  1.00  0.00     0.210 HD
ENDBRANCH  11  20
TORSDOF 6
ENDMDL
