MODEL 1
REMARK VINA RESULT: -7.076129294      0.000      0.000
REMARK  6 active torsions:
REMARK  status: ('A' for Active; 'I' for Inactive)
REMARK    1  A    between atoms: N1_1  and  C1_5 
REMARK    2  A    between atoms: C1_5  and  C2_6 
REMARK    3  A    between atoms: C1_5  and  C8_12 
REMARK    4  A    between atoms: C10_14  and  O1_15 
REMARK    5  A    between atoms: C11_17  and  O2_18 
REMARK    6  A    between atoms: C12_20  and  O3_21 
ROOT
HETATM    1  C8  UNL     1     106.469  17.372  21.523  1.00  0.00     0.050 C 
HETATM    2  C9  UNL     1     105.326  17.408  22.474  1.00  0.00     0.043 C 
HETATM    3  C10 UNL     1     105.933  17.392  23.874  1.00  0.00     0.150 C 
HETATM    4  C11 UNL     1     107.417  17.548  23.725  1.00  0.00     0.176 C 
HETATM    5  C12 UNL     1     107.697  17.852  22.269  1.00  0.00     0.155 C 
ENDROOT
BRANCH   1   6
HETATM    6  C1  UNL     1     106.326  17.886  20.177  1.00  0.00     0.194 C 
BRANCH   6   7
HETATM    7  N1  UNL     1     107.651  17.729  19.518  1.00  0.00    -0.074 N 
ATOM      8  H13 UNL     1     107.611  17.215  18.638  1.00  0.00     0.274 HD
ATOM      9  H12 UNL     1     108.021  18.599  19.135  1.00  0.00     0.274 HD
ATOM     10  H11 UNL     1     108.260  17.299  20.215  1.00  0.00     0.274 HD
ENDBRANCH   6   7
BRANCH   6  11
HETATM   11  C2  UNL     1     105.343  17.465  19.196  1.00  0.00     0.016 C 
HETATM   12  C3  UNL     1     105.637  17.871  17.758  1.00  0.00     0.007 C 
HETATM   13  C4  UNL     1     104.288  17.907  17.024  1.00  0.00     0.000 C 
HETATM   14  C5  UNL     1     103.579  16.583  17.132  1.00  0.00     0.000 C 
HETATM   15  C6  UNL     1     103.463  16.064  18.522  1.00  0.00     0.000 C 
HETATM   16  C7  UNL     1     104.847  16.076  19.156  1.00  0.00     0.007 C 
ENDBRANCH   6  11
ENDBRANCH   1   6
BRANCH   5  17
HETATM   17  O3  UNL     1     108.835  17.083  21.924  1.00  0.00    -0.392 OA
ATOM     18  H3  UNL     1     109.338  17.507  21.239  1.00  0.00     0.210 HD
ENDBRANCH   5  17
BRANCH   3  19
HETATM   19  O1  UNL     1     105.423  18.423  24.658  1.00  0.00    -0.393 OA
ATOM     20  H1  UNL     1     104.773  18.101  25.271  1.00  0.00     0.210 HD
ENDBRANCH   3  19
BRANCH   4  21
HETATM   21  O2  UNL     1     107.925  18.617  24.469  1.00  0.00    -0.390 OA
ATOM     22  H2  UNL     1     107.682  19.462  24.109  1.00  0.00     0.210 HD
ENDBRANCH   4  21
TORSDOF 6
ENDMDL
MODEL 2
REMARK VINA RESULT: -6.806293446      2.582      4.168
REMARK  6 active torsions:
REMARK  status: ('A' for Active; 'I' for Inactive)
REMARK    1  A    between atoms: N1_1  and  C1_5 
REMARK    2  A    between atoms: C1_5  and  C2_6 
REMARK    3  A    between atoms: C1_5  and  C8_12 
REMARK    4  A    between atoms: C10_14  and  O1_15 
REMARK    5  A    between atoms: C11_17  and  O2_18 
REMARK    6  A    between atoms: C12_20  and  O3_21 
ROOT
HETATM    1  C8  UNL     1     105.546  17.483  18.659  1.00  0.00     0.050 C 
HETATM    2  C9  UNL     1     106.400  18.123  17.622  1.00  0.00     0.043 C 
HETATM    3  C10 UNL     1     107.614  18.686  18.355  1.00  0.00     0.150 C 
HETATM    4  C11 UNL     1     107.554  18.197  19.772  1.00  0.00     0.176 C 
HETATM    5  C12 UNL     1     106.427  17.191  19.857  1.00  0.00     0.155 C 
ENDROOT
BRANCH   1   6
HETATM    6  C1  UNL     1     104.619  16.430  18.305  1.00  0.00     0.194 C 
BRANCH   6   7
HETATM    7  N1  UNL     1     103.904  16.053  19.554  1.00  0.00    -0.074 N 
ATOM      8  H13 UNL     1     103.958  16.763  20.285  1.00  0.00     0.274 HD
ATOM      9  H12 UNL     1     102.889  16.053  19.459  1.00  0.00     0.274 HD
ATOM     10  H11 UNL     1     104.288  15.149  19.833  1.00  0.00     0.274 HD
ENDBRANCH   6   7
BRANCH   6  11
HETATM   11  C2  UNL     1     103.604  16.490  17.270  1.00  0.00     0.016 C 
HETATM   12  C3  UNL     1     102.231  15.962  17.666  1.00  0.00     0.007 C 
HETATM   13  C4  UNL     1     101.530  15.536  16.367  1.00  0.00     0.000 C 
HETATM   14  C5  UNL     1     101.463  16.680  15.389  1.00  0.00     0.000 C 
HETATM   15  C6  UNL     1     102.770  17.349  15.144  1.00  0.00     0.000 C 
HETATM   16  C7  UNL     1     103.379  17.722  16.488  1.00  0.00     0.007 C 
ENDBRANCH   6  11
ENDBRANCH   1   6
BRANCH   5  17
HETATM   17  O3  UNL     1     105.747  17.469  21.067  1.00  0.00    -0.392 OA
ATOM     18  H3  UNL     1     105.272  16.707  21.375  1.00  0.00     0.210 HD
ENDBRANCH   5  17
BRANCH   3  19
HETATM   19  O1  UNL     1     108.801  18.271  17.759  1.00  0.00    -0.393 OA
ATOM     20  H1  UNL     1     109.110  18.907  17.124  1.00  0.00     0.210 HD
ENDBRANCH   3  19
BRANCH   4  21
HETATM   21  O2  UNL     1     108.721  17.536  20.165  1.00  0.00    -0.390 OA
ATOM     22  H2  UNL     1     108.563  16.633  20.417  1.00  0.00     0.210 HD
ENDBRANCH   4  21
TORSDOF 6
ENDMDL
MODEL 3
REMARK VINA RESULT: -6.764944524      4.405      6.701
REMARK  6 active torsions:
REMARK  status: ('A' for Active; 'I' for Inactive)
REMARK    1  A    between atoms: N1_1  and  C1_5 
REMARK    2  A    between atoms: C1_5  and  C2_6 
REMARK    3  A    between atoms: C1_5  and  C8_12 
REMARK    4  A    between atoms: C10_14  and  O1_15 
REMARK    5  A    between atoms: C11_17  and  O2_18 
REMARK    6  A    between atoms: C12_20  and  O3_21 
ROOT
HETATM    1  C8  UNL     1     103.618  16.891  17.500  1.00  0.00     0.050 C 
HETATM    2  C9  UNL     1     103.773  18.025  16.548  1.00  0.00     0.043 C 
HETATM    3  C10 UNL     1     102.778  17.775  15.419  1.00  0.00     0.150 C 
HETATM    4  C11 UNL     1     101.921  16.611  15.820  1.00  0.00     0.176 C 
HETATM    5  C12 UNL     1     102.255  16.278  17.259  1.00  0.00     0.155 C 
ENDROOT
BRANCH   1   6
HETATM    6  C1  UNL     1     103.990  17.039  18.891  1.00  0.00     0.194 C 
BRANCH   6   7
HETATM    7  N1  UNL     1     103.731  15.727  19.543  1.00  0.00    -0.074 N 
ATOM      8  H13 UNL     1     104.581  15.236  19.822  1.00  0.00     0.274 HD
ATOM      9  H12 UNL     1     103.325  15.808  20.474  1.00  0.00     0.274 HD
ATOM     10  H11 UNL     1     103.152  15.200  18.888  1.00  0.00     0.274 HD
ENDBRANCH   6   7
BRANCH   6  11
HETATM   11  C2  UNL     1     105.275  17.486  19.395  1.00  0.00     0.016 C 
HETATM   12  C3  UNL     1     105.668  16.944  20.763  1.00  0.00     0.007 C 
HETATM   13  C4  UNL     1     106.662  17.946  21.367  1.00  0.00     0.000 C 
HETATM   14  C5  UNL     1     107.841  18.155  20.454  1.00  0.00     0.000 C 
HETATM   15  C6  UNL     1     107.474  18.486  19.050  1.00  0.00     0.000 C 
HETATM   16  C7  UNL     1     106.486  17.440  18.552  1.00  0.00     0.007 C 
ENDBRANCH   6  11
ENDBRANCH   1   6
BRANCH   5  17
HETATM   17  O3  UNL     1     102.314  14.865  17.326  1.00  0.00    -0.392 OA
ATOM     18  H3  UNL     1     103.105  14.577  17.765  1.00  0.00     0.210 HD
ENDBRANCH   5  17
BRANCH   3  19
HETATM   19  O1  UNL     1     101.984  18.893  15.187  1.00  0.00    -0.393 OA
ATOM     20  H1  UNL     1     102.511  19.649  14.954  1.00  0.00     0.210 HD
ENDBRANCH   3  19
BRANCH   4  21
HETATM   21  O2  UNL     1     100.556  16.906  15.777  1.00  0.00    -0.390 OA
ATOM     22  H2  UNL     1     100.336  17.522  15.088  1.00  0.00     0.210 HD
ENDBRANCH   4  21
TORSDOF 6
ENDMDL
MODEL 4
REMARK VINA RESULT: -6.710109513      0.901      1.003
REMARK  6 active torsions:
REMARK  status: ('A' for Active; 'I' for Inactive)
REMARK    1  A    between atoms: N1_1  and  C1_5 
REMARK    2  A    between atoms: C1_5  and  C2_6 
REMARK    3  A    between atoms: C1_5  and  C8_12 
REMARK    4  A    between atoms: C10_14  and  O1_15 
REMARK    5  A    between atoms: C11_17  and  O2_18 
REMARK    6  A    between atoms: C12_20  and  O3_21 
ROOT
HETATM    1  C8  UNL     1     106.945  17.567  20.687  1.00  0.00     0.050 C 
HETATM    2  C9  UNL     1     105.761  17.422  21.577  1.00  0.00     0.043 C 
HETATM    3  C10 UNL     1     106.306  17.289  22.996  1.00  0.00     0.150 C 
HETATM    4  C11 UNL     1     107.781  17.555  22.941  1.00  0.00     0.176 C 
HETATM    5  C12 UNL     1     108.102  18.038  21.543  1.00  0.00     0.155 C 
ENDROOT
BRANCH   1   6
HETATM    6  C1  UNL     1     106.825  18.218  19.400  1.00  0.00     0.194 C 
BRANCH   6   7
HETATM    7  N1  UNL     1     108.130  18.036  18.708  1.00  0.00    -0.074 N 
ATOM      8  H13 UNL     1     108.345  17.062  18.494  1.00  0.00     0.274 HD
ATOM      9  H12 UNL     1     108.132  18.375  17.746  1.00  0.00     0.274 HD
ATOM     10  H11 UNL     1     108.826  18.487  19.301  1.00  0.00     0.274 HD
ENDBRANCH   6   7
BRANCH   6  11
HETATM   11  C2  UNL     1     105.806  17.965  18.399  1.00  0.00     0.016 C 
HETATM   12  C3  UNL     1     106.195  18.303  16.966  1.00  0.00     0.007 C 
HETATM   13  C4  UNL     1     104.888  18.563  16.203  1.00  0.00     0.000 C 
HETATM   14  C5  UNL     1     103.961  17.381  16.300  1.00  0.00     0.000 C 
HETATM   15  C6  UNL     1     103.728  16.900  17.689  1.00  0.00     0.000 C 
HETATM   16  C7  UNL     1     105.080  16.680  18.354  1.00  0.00     0.007 C 
ENDBRANCH   6  11
ENDBRANCH   1   6
BRANCH   5  17
HETATM   17  O3  UNL     1     109.305  17.388  21.175  1.00  0.00    -0.392 OA
ATOM     18  H3  UNL     1     109.919  18.000  20.789  1.00  0.00     0.210 HD
ENDBRANCH   5  17
BRANCH   3  19
HETATM   19  O1  UNL     1     105.691  18.190  23.860  1.00  0.00    -0.393 OA
ATOM     20  H1  UNL     1     106.098  18.177  24.719  1.00  0.00     0.210 HD
ENDBRANCH   3  19
BRANCH   4  21
HETATM   21  O2  UNL     1     108.180  18.564  23.822  1.00  0.00    -0.390 OA
ATOM     22  H2  UNL     1     109.097  18.792  23.727  1.00  0.00     0.210 HD
ENDBRANCH   4  21
TORSDOF 6
ENDMDL
MODEL 5
REMARK VINA RESULT: -6.662376155      1.682      3.035
REMARK  6 active torsions:
REMARK  status: ('A' for Active; 'I' for Inactive)
REMARK    1  A    between atoms: N1_1  and  C1_5 
REMARK    2  A    between atoms: C1_5  and  C2_6 
REMARK    3  A    between atoms: C1_5  and  C8_12 
REMARK    4  A    between atoms: C10_14  and  O1_15 
REMARK    5  A    between atoms: C11_17  and  O2_18 
REMARK    6  A    between atoms: C12_20  and  O3_21 
ROOT
HETATM    1  C8  UNL     1     106.170  17.588  19.842  1.00  0.00     0.050 C 
HETATM    2  C9  UNL     1     107.486  18.184  19.483  1.00  0.00     0.043 C 
HETATM    3  C10 UNL     1     108.139  18.603  20.797  1.00  0.00     0.150 C 
HETATM    4  C11 UNL     1     107.291  18.071  21.914  1.00  0.00     0.176 C 
HETATM    5  C12 UNL     1     106.242  17.171  21.297  1.00  0.00     0.155 C 
ENDROOT
BRANCH   1   6
HETATM    6  C1  UNL     1     105.525  16.640  18.960  1.00  0.00     0.194 C 
BRANCH   6   7
HETATM    7  N1  UNL     1     104.572  15.860  19.797  1.00  0.00    -0.074 N 
ATOM      8  H13 UNL     1     104.779  15.902  20.795  1.00  0.00     0.274 HD
ATOM      9  H12 UNL     1     103.642  16.274  19.848  1.00  0.00     0.274 HD
ATOM     10  H11 UNL     1     104.578  14.913  19.418  1.00  0.00     0.274 HD
ENDBRANCH   6   7
BRANCH   6  11
HETATM   11  C2  UNL     1     104.813  16.951  17.735  1.00  0.00     0.016 C 
HETATM   12  C3  UNL     1     103.294  16.874  17.821  1.00  0.00     0.007 C 
HETATM   13  C4  UNL     1     102.783  16.618  16.396  1.00  0.00     0.000 C 
HETATM   14  C5  UNL     1     103.268  17.683  15.448  1.00  0.00     0.000 C 
HETATM   15  C6  UNL     1     104.736  17.921  15.497  1.00  0.00     0.000 C 
HETATM   16  C7  UNL     1     105.136  18.157  16.947  1.00  0.00     0.007 C 
ENDBRANCH   6  11
ENDBRANCH   1   6
BRANCH   5  17
HETATM   17  O3  UNL     1     105.032  17.467  21.970  1.00  0.00    -0.392 OA
ATOM     18  H3  UNL     1     105.058  17.161  22.869  1.00  0.00     0.210 HD
ENDBRANCH   5  17
BRANCH   3  19
HETATM   19  O1  UNL     1     109.433  18.102  20.901  1.00  0.00    -0.393 OA
ATOM     20  H1  UNL     1     110.075  18.741  20.616  1.00  0.00     0.210 HD
ENDBRANCH   3  19
BRANCH   4  21
HETATM   21  O2  UNL     1     108.017  17.289  22.817  1.00  0.00    -0.390 OA
ATOM     22  H2  UNL     1     108.943  17.254  22.609  1.00  0.00     0.210 HD
ENDBRANCH   4  21
TORSDOF 6
ENDMDL
