MODEL 1
REMARK VINA RESULT: -10.313581673      0.000      0.000
REMARK  0 active torsions:
REMARK  status: ('A' for Active; 'I' for Inactive)
ROOT
HETATM    1  C1  UNL     1       9.446   2.901  25.477  1.00  0.00     0.156 C 
HETATM    2  N1  UNL     1       8.199   3.486  25.161  1.00  0.00    -0.346 N 
HETATM    3  C2  UNL     1       6.975   3.018  25.801  1.00  0.00     0.062 A 
HETATM    4  C3  UNL     1       7.100   1.898  26.620  1.00  0.00     0.033 A 
HETATM    5  C4  UNL     1       5.979   1.387  27.239  1.00  0.00     0.014 A 
HETATM    6  C5  UNL     1       4.765   1.994  27.030  1.00  0.00    -0.024 A 
HETATM    7  C6  UNL     1       3.643   1.466  27.664  1.00  0.00     0.012 A 
HETATM    8  C7  UNL     1       2.413   2.037  27.486  1.00  0.00     0.001 A 
HETATM    9  C8  UNL     1       2.292   3.143  26.673  1.00  0.00     0.001 A 
HETATM   10  C9  UNL     1       3.385   3.686  26.035  1.00  0.00     0.014 A 
HETATM   11  C10 UNL     1       4.624   3.104  26.218  1.00  0.00     0.003 A 
HETATM   12  C11 UNL     1       5.750   3.605  25.606  1.00  0.00     0.071 A 
HETATM   13  N2  UNL     1       5.647   4.707  24.751  1.00  0.00    -0.352 N 
ATOM     14  H2  UNL     1       4.744   5.156  24.597  1.00  0.00     0.166 HD
HETATM   15  C12 UNL     1       6.803   5.196  24.101  1.00  0.00     0.063 A 
HETATM   16  C13 UNL     1       6.659   6.267  23.228  1.00  0.00     0.049 A 
HETATM   17  C14 UNL     1       7.782   6.702  22.578  1.00  0.00     0.093 A 
HETATM   18  N3  UNL     1       8.971   6.163  22.738  1.00  0.00    -0.358 N 
HETATM   19  C15 UNL     1      10.057   6.732  21.979  1.00  0.00     0.156 C 
HETATM   20  C16 UNL     1       9.141   5.107  23.594  1.00  0.00     0.074 A 
HETATM   21  C17 UNL     1      10.479   4.627  23.623  1.00  0.00     0.005 A 
HETATM   22  C18 UNL     1      10.879   3.576  22.844  1.00  0.00     0.022 A 
HETATM   23  C19 UNL     1      12.195   3.206  22.744  1.00  0.00    -0.050 A 
HETATM   24  C20 UNL     1      13.171   3.881  23.426  1.00  0.00    -0.041 A 
HETATM   25  C21 UNL     1      12.808   4.948  24.223  1.00  0.00    -0.018 A 
HETATM   26  C22 UNL     1      13.775   5.646  24.922  1.00  0.00     0.014 A 
HETATM   27  C23 UNL     1      13.409   6.727  25.725  1.00  0.00     0.027 A 
HETATM   28  C24 UNL     1      12.104   7.107  25.832  1.00  0.00     0.047 A 
HETATM   29  N4  UNL     1      11.654   8.188  26.622  1.00  0.00    -0.102 NA
HETATM   30  C25 UNL     1      11.173   6.388  25.125  1.00  0.00     0.039 A 
HETATM   31  C26 UNL     1      11.476   5.302  24.308  1.00  0.00    -0.011 A 
HETATM   32  C27 UNL     1      14.655   3.671  23.466  1.00  0.00     0.040 C 
HETATM   33  C28 UNL     1      15.034   2.623  22.449  1.00  0.00     0.005 C 
HETATM   34  C29 UNL     1      14.586   1.241  22.784  1.00  0.00     0.001 C 
HETATM   35  C30 UNL     1      13.138   0.963  22.581  1.00  0.00     0.005 C 
HETATM   36  C31 UNL     1      12.389   2.022  21.847  1.00  0.00     0.039 C 
HETATM   37  C32 UNL     1       8.086   4.611  24.283  1.00  0.00     0.089 A 
ENDROOT
TORSDOF 0
ENDMDL
MODEL 2
REMARK VINA RESULT: -9.402886224      2.773      8.256
REMARK  0 active torsions:
REMARK  status: ('A' for Active; 'I' for Inactive)
ROOT
HETATM    1  C1  UNL     1      10.581   6.748  26.581  1.00  0.00     0.156 C 
HETATM    2  N1  UNL     1      10.999   7.575  25.516  1.00  0.00    -0.346 N 
HETATM    3  C2  UNL     1      11.863   8.725  25.762  1.00  0.00     0.062 A 
HETATM    4  C3  UNL     1      12.127   9.018  27.097  1.00  0.00     0.033 A 
HETATM    5  C4  UNL     1      12.918  10.106  27.404  1.00  0.00     0.014 A 
HETATM    6  C5  UNL     1      13.423  10.873  26.384  1.00  0.00    -0.024 A 
HETATM    7  C6  UNL     1      14.220  11.967  26.711  1.00  0.00     0.012 A 
HETATM    8  C7  UNL     1      14.746  12.762  25.729  1.00  0.00     0.001 A 
HETATM    9  C8  UNL     1      14.479  12.470  24.409  1.00  0.00     0.001 A 
HETATM   10  C9  UNL     1      13.694  11.395  24.057  1.00  0.00     0.014 A 
HETATM   11  C10 UNL     1      13.166  10.597  25.053  1.00  0.00     0.003 A 
HETATM   12  C11 UNL     1      12.376   9.510  24.760  1.00  0.00     0.071 A 
HETATM   13  N2  UNL     1      12.066   9.212  23.428  1.00  0.00    -0.352 N 
ATOM     14  H2  UNL     1      12.442   9.785  22.673  1.00  0.00     0.166 HD
HETATM   15  C12 UNL     1      11.227   8.112  23.137  1.00  0.00     0.063 A 
HETATM   16  C13 UNL     1      10.907   7.868  21.808  1.00  0.00     0.049 A 
HETATM   17  C14 UNL     1      10.063   6.823  21.547  1.00  0.00     0.093 A 
HETATM   18  N3  UNL     1       9.550   6.051  22.480  1.00  0.00    -0.358 N 
HETATM   19  C15 UNL     1       8.674   4.991  22.047  1.00  0.00     0.156 C 
HETATM   20  C16 UNL     1       9.851   6.269  23.799  1.00  0.00     0.074 A 
HETATM   21  C17 UNL     1       9.187   5.366  24.675  1.00  0.00     0.005 A 
HETATM   22  C18 UNL     1       8.005   5.694  25.278  1.00  0.00     0.022 A 
HETATM   23  C19 UNL     1       7.278   4.780  25.996  1.00  0.00    -0.050 A 
HETATM   24  C20 UNL     1       7.711   3.489  26.138  1.00  0.00    -0.041 A 
HETATM   25  C21 UNL     1       8.901   3.119  25.543  1.00  0.00    -0.018 A 
HETATM   26  C22 UNL     1       9.360   1.821  25.671  1.00  0.00     0.014 A 
HETATM   27  C23 UNL     1      10.560   1.445  25.068  1.00  0.00     0.027 A 
HETATM   28  C24 UNL     1      11.293   2.344  24.350  1.00  0.00     0.047 A 
HETATM   29  N4  UNL     1      12.515   2.041  23.710  1.00  0.00    -0.102 NA
HETATM   30  C25 UNL     1      10.805   3.623  24.247  1.00  0.00     0.039 A 
HETATM   31  C26 UNL     1       9.615   4.058  24.826  1.00  0.00    -0.011 A 
HETATM   32  C27 UNL     1       7.093   2.327  26.855  1.00  0.00     0.040 C 
HETATM   33  C28 UNL     1       5.716   2.716  27.334  1.00  0.00     0.005 C 
HETATM   34  C29 UNL     1       5.702   3.717  28.439  1.00  0.00     0.001 C 
HETATM   35  C30 UNL     1       5.999   5.121  28.044  1.00  0.00     0.005 C 
HETATM   36  C31 UNL     1       6.029   5.371  26.574  1.00  0.00     0.039 C 
HETATM   37  C32 UNL     1      10.680   7.279  24.151  1.00  0.00     0.089 A 
ENDROOT
TORSDOF 0
ENDMDL
MODEL 3
REMARK VINA RESULT: -9.091699430      3.143      8.059
REMARK  0 active torsions:
REMARK  status: ('A' for Active; 'I' for Inactive)
ROOT
HETATM    1  C1  UNL     1      12.322   4.597  26.614  1.00  0.00     0.156 C 
HETATM    2  N1  UNL     1      12.832   3.536  25.835  1.00  0.00    -0.346 N 
HETATM    3  C2  UNL     1      13.946   2.727  26.318  1.00  0.00     0.062 A 
HETATM    4  C3  UNL     1      14.540   3.148  27.506  1.00  0.00     0.033 A 
HETATM    5  C4  UNL     1      15.613   2.443  28.009  1.00  0.00     0.014 A 
HETATM    6  C5  UNL     1      16.071   1.345  27.325  1.00  0.00    -0.024 A 
HETATM    7  C6  UNL     1      17.155   0.644  27.847  1.00  0.00     0.012 A 
HETATM    8  C7  UNL     1      17.646  -0.457  27.200  1.00  0.00     0.001 A 
HETATM    9  C8  UNL     1      17.058  -0.869  26.025  1.00  0.00     0.001 A 
HETATM   10  C9  UNL     1      15.985  -0.195  25.485  1.00  0.00     0.014 A 
HETATM   11  C10 UNL     1      15.495   0.916  26.142  1.00  0.00     0.003 A 
HETATM   12  C11 UNL     1      14.425   1.627  25.651  1.00  0.00     0.071 A 
HETATM   13  N2  UNL     1      13.831   1.248  24.442  1.00  0.00    -0.352 N 
ATOM     14  H2  UNL     1      14.175   0.431  23.935  1.00  0.00     0.166 HD
HETATM   15  C12 UNL     1      12.752   2.002  23.927  1.00  0.00     0.063 A 
HETATM   16  C13 UNL     1      12.213   1.621  22.705  1.00  0.00     0.049 A 
HETATM   17  C14 UNL     1      11.195   2.387  22.203  1.00  0.00     0.093 A 
HETATM   18  N3  UNL     1      10.712   3.447  22.812  1.00  0.00    -0.358 N 
HETATM   19  C15 UNL     1       9.641   4.152  22.154  1.00  0.00     0.156 C 
HETATM   20  C16 UNL     1      11.226   3.843  24.019  1.00  0.00     0.074 A 
HETATM   21  C17 UNL     1      10.613   5.025  24.521  1.00  0.00     0.005 A 
HETATM   22  C18 UNL     1      11.158   6.260  24.306  1.00  0.00     0.022 A 
HETATM   23  C19 UNL     1      10.500   7.413  24.646  1.00  0.00    -0.050 A 
HETATM   24  C20 UNL     1       9.257   7.373  25.219  1.00  0.00    -0.041 A 
HETATM   25  C21 UNL     1       8.672   6.144  25.451  1.00  0.00    -0.018 A 
HETATM   26  C22 UNL     1       7.417   6.077  26.028  1.00  0.00     0.014 A 
HETATM   27  C23 UNL     1       6.824   4.835  26.260  1.00  0.00     0.027 A 
HETATM   28  C24 UNL     1       7.468   3.681  25.926  1.00  0.00     0.047 A 
HETATM   29  N4  UNL     1       6.935   2.388  26.128  1.00  0.00    -0.102 NA
HETATM   30  C25 UNL     1       8.712   3.788  25.357  1.00  0.00     0.039 A 
HETATM   31  C26 UNL     1       9.355   4.997  25.100  1.00  0.00    -0.011 A 
HETATM   32  C27 UNL     1       8.350   8.483  25.660  1.00  0.00     0.040 C 
HETATM   33  C28 UNL     1       8.937   9.804  25.226  1.00  0.00     0.005 C 
HETATM   34  C29 UNL     1      10.178  10.201  25.952  1.00  0.00     0.001 C 
HETATM   35  C30 UNL     1      11.418   9.480  25.556  1.00  0.00     0.005 C 
HETATM   36  C31 UNL     1      11.297   8.641  24.330  1.00  0.00     0.039 C 
HETATM   37  C32 UNL     1      12.233   3.145  24.593  1.00  0.00     0.089 A 
ENDROOT
TORSDOF 0
ENDMDL
MODEL 4
REMARK VINA RESULT: -9.023549226      2.187      2.868
REMARK  0 active torsions:
REMARK  status: ('A' for Active; 'I' for Inactive)
ROOT
HETATM    1  C1  UNL     1       9.472   5.208  27.384  1.00  0.00     0.156 C 
HETATM    2  N1  UNL     1       8.446   4.893  26.466  1.00  0.00    -0.346 N 
HETATM    3  C2  UNL     1       7.138   4.450  26.935  1.00  0.00     0.062 A 
HETATM    4  C3  UNL     1       7.018   4.237  28.306  1.00  0.00     0.033 A 
HETATM    5  C4  UNL     1       5.815   3.796  28.816  1.00  0.00     0.014 A 
HETATM    6  C5  UNL     1       4.766   3.575  27.958  1.00  0.00    -0.024 A 
HETATM    7  C6  UNL     1       3.558   3.130  28.490  1.00  0.00     0.012 A 
HETATM    8  C7  UNL     1       2.485   2.896  27.675  1.00  0.00     0.001 A 
HETATM    9  C8  UNL     1       2.608   3.105  26.319  1.00  0.00     0.001 A 
HETATM   10  C9  UNL     1       3.791   3.545  25.765  1.00  0.00     0.014 A 
HETATM   11  C10 UNL     1       4.871   3.778  26.594  1.00  0.00     0.003 A 
HETATM   12  C11 UNL     1       6.075   4.219  26.097  1.00  0.00     0.071 A 
HETATM   13  N2  UNL     1       6.235   4.407  24.720  1.00  0.00    -0.352 N 
ATOM     14  H2  UNL     1       5.453   4.242  24.085  1.00  0.00     0.166 HD
HETATM   15  C12 UNL     1       7.485   4.830  24.214  1.00  0.00     0.063 A 
HETATM   16  C13 UNL     1       7.620   4.969  22.838  1.00  0.00     0.049 A 
HETATM   17  C14 UNL     1       8.848   5.341  22.363  1.00  0.00     0.093 A 
HETATM   18  N3  UNL     1       9.889   5.569  23.134  1.00  0.00    -0.358 N 
HETATM   19  C15 UNL     1      11.117   5.950  22.483  1.00  0.00     0.156 C 
HETATM   20  C16 UNL     1       9.782   5.440  24.494  1.00  0.00     0.074 A 
HETATM   21  C17 UNL     1      11.007   5.691  25.172  1.00  0.00     0.005 A 
HETATM   22  C18 UNL     1      11.854   4.674  25.518  1.00  0.00     0.022 A 
HETATM   23  C19 UNL     1      13.104   4.912  26.027  1.00  0.00    -0.050 A 
HETATM   24  C20 UNL     1      13.559   6.190  26.211  1.00  0.00    -0.041 A 
HETATM   25  C21 UNL     1      12.733   7.244  25.874  1.00  0.00    -0.018 A 
HETATM   26  C22 UNL     1      13.170   8.544  26.049  1.00  0.00     0.014 A 
HETATM   27  C23 UNL     1      12.337   9.610  25.705  1.00  0.00     0.027 A 
HETATM   28  C24 UNL     1      11.092   9.387  25.196  1.00  0.00     0.047 A 
HETATM   29  N4  UNL     1      10.192  10.410  24.824  1.00  0.00    -0.102 NA
HETATM   30  C25 UNL     1      10.694   8.083  25.038  1.00  0.00     0.039 A 
HETATM   31  C26 UNL     1      11.478   6.979  25.362  1.00  0.00    -0.011 A 
HETATM   32  C27 UNL     1      14.871   6.692  26.735  1.00  0.00     0.040 C 
HETATM   33  C28 UNL     1      15.810   5.525  26.920  1.00  0.00     0.005 C 
HETATM   34  C29 UNL     1      15.442   4.602  28.032  1.00  0.00     0.001 C 
HETATM   35  C30 UNL     1      14.301   3.686  27.763  1.00  0.00     0.005 C 
HETATM   36  C31 UNL     1      13.842   3.648  26.344  1.00  0.00     0.039 C 
HETATM   37  C32 UNL     1       8.604   5.079  25.054  1.00  0.00     0.089 A 
ENDROOT
TORSDOF 0
ENDMDL
MODEL 5
REMARK VINA RESULT: -9.010214970      2.357      3.393
REMARK  0 active torsions:
REMARK  status: ('A' for Active; 'I' for Inactive)
ROOT
HETATM    1  C1  UNL     1       9.906   6.223  26.702  1.00  0.00     0.156 C 
HETATM    2  N1  UNL     1       8.880   5.685  25.895  1.00  0.00    -0.346 N 
HETATM    3  C2  UNL     1       7.691   5.093  26.499  1.00  0.00     0.062 A 
HETATM    4  C3  UNL     1       7.701   4.978  27.887  1.00  0.00     0.033 A 
HETATM    5  C4  UNL     1       6.620   4.407  28.524  1.00  0.00     0.014 A 
HETATM    6  C5  UNL     1       5.560   3.964  27.772  1.00  0.00    -0.024 A 
HETATM    7  C6  UNL     1       4.475   3.391  28.430  1.00  0.00     0.012 A 
HETATM    8  C7  UNL     1       3.396   2.934  27.724  1.00  0.00     0.001 A 
HETATM    9  C8  UNL     1       3.391   3.046  26.351  1.00  0.00     0.001 A 
HETATM   10  C9  UNL     1       4.450   3.609  25.673  1.00  0.00     0.014 A 
HETATM   11  C10 UNL     1       5.536   4.067  26.393  1.00  0.00     0.003 A 
HETATM   12  C11 UNL     1       6.621   4.638  25.770  1.00  0.00     0.071 A 
HETATM   13  N2  UNL     1       6.653   4.734  24.374  1.00  0.00    -0.352 N 
ATOM     14  H2  UNL     1       5.865   4.403  23.818  1.00  0.00     0.166 HD
HETATM   15  C12 UNL     1       7.785   5.294  23.739  1.00  0.00     0.063 A 
HETATM   16  C13 UNL     1       7.801   5.338  22.351  1.00  0.00     0.049 A 
HETATM   17  C14 UNL     1       8.922   5.847  21.752  1.00  0.00     0.093 A 
HETATM   18  N3  UNL     1       9.966   6.289  22.417  1.00  0.00    -0.358 N 
HETATM   19  C15 UNL     1      11.073   6.794  21.643  1.00  0.00     0.156 C 
HETATM   20  C16 UNL     1       9.975   6.259  23.787  1.00  0.00     0.074 A 
HETATM   21  C17 UNL     1      11.192   6.743  24.343  1.00  0.00     0.005 A 
HETATM   22  C18 UNL     1      12.207   5.895  24.691  1.00  0.00     0.022 A 
HETATM   23  C19 UNL     1      13.437   6.357  25.079  1.00  0.00    -0.050 A 
HETATM   24  C20 UNL     1      13.702   7.699  25.134  1.00  0.00    -0.041 A 
HETATM   25  C21 UNL     1      12.702   8.588  24.790  1.00  0.00    -0.018 A 
HETATM   26  C22 UNL     1      12.945   9.948  24.837  1.00  0.00     0.014 A 
HETATM   27  C23 UNL     1      11.936  10.846  24.487  1.00  0.00     0.027 A 
HETATM   28  C24 UNL     1      10.707  10.400  24.098  1.00  0.00     0.047 A 
HETATM   29  N4  UNL     1       9.637  11.245  23.729  1.00  0.00    -0.102 NA
HETATM   30  C25 UNL     1      10.505   9.044  24.066  1.00  0.00     0.039 A 
HETATM   31  C26 UNL     1      11.471   8.098  24.403  1.00  0.00    -0.011 A 
HETATM   32  C27 UNL     1      14.955   8.432  25.512  1.00  0.00     0.040 C 
HETATM   33  C28 UNL     1      16.072   7.435  25.702  1.00  0.00     0.005 C 
HETATM   34  C29 UNL     1      15.930   6.563  26.903  1.00  0.00     0.001 C 
HETATM   35  C30 UNL     1      14.927   5.469  26.793  1.00  0.00     0.005 C 
HETATM   36  C31 UNL     1      14.382   5.247  25.423  1.00  0.00     0.039 C 
HETATM   37  C32 UNL     1       8.908   5.774  24.465  1.00  0.00     0.089 A 
ENDROOT
TORSDOF 0
ENDMDL
