MODEL 1
REMARK VINA RESULT: -9.255709339      0.000      0.000
REMARK  9 active torsions:
REMARK  status: ('A' for Active; 'I' for Inactive)
REMARK    1  A    between atoms: C6_8  and  N2_9 
REMARK    2  A    between atoms: N2_9  and  C7_11 
REMARK    3  A    between atoms: C10_20  and  C11_21 
REMARK    4  A    between atoms: C11_21  and  C12_22 
REMARK    5  A    between atoms: C12_22  and  S2_23 
REMARK    6  A    between atoms: S2_23  and  C13_24 
REMARK    7  A    between atoms: C13_24  and  C14_25 
REMARK    8  A    between atoms: C14_25  and  C15_26 
REMARK    9  A    between atoms: N6_28  and  O2_30 
ROOT
HETATM    1  C7  UNL     1      15.837  32.771  -8.011  1.00  0.00     0.120 A 
HETATM    2  N3  UNL     1      14.978  32.401  -7.019  1.00  0.00    -0.319 N 
ATOM      3  H3  UNL     1      14.901  31.417  -6.763  1.00  0.00     0.170 HD
HETATM    4  C8  UNL     1      14.231  33.311  -6.376  1.00  0.00     0.180 A 
HETATM    5  S1  UNL     1      13.229  32.795  -5.204  1.00  0.00    -0.040 SA
HETATM    6  N4  UNL     1      14.330  34.605  -6.712  1.00  0.00    -0.300 N 
ATOM      7  H4  UNL     1      13.763  35.298  -6.225  1.00  0.00     0.171 HD
HETATM    8  C9  UNL     1      15.175  34.997  -7.691  1.00  0.00     0.257 A 
HETATM    9  O1  UNL     1      15.229  36.218  -7.968  1.00  0.00    -0.267 OA
HETATM   10  C10 UNL     1      15.968  34.090  -8.383  1.00  0.00     0.055 A 
ENDROOT
BRANCH   1  11
HETATM   11  N2  UNL     1      16.580  31.781  -8.696  1.00  0.00    -0.330 N 
ATOM     12  H2  UNL     1      17.377  32.028  -9.282  1.00  0.00     0.168 HD
BRANCH  11  13
HETATM   13  C6  UNL     1      16.166  30.407  -8.533  1.00  0.00     0.097 C 
HETATM   14  C5  UNL     1      14.907  29.935  -9.147  1.00  0.00     0.190 C 
HETATM   15  N1  UNL     1      14.168  29.045  -8.322  1.00  0.00    -0.412 N 
HETATM   16  C4  UNL     1      14.934  28.345  -7.336  1.00  0.00     0.144 C 
ATOM     17  H1  UNL     1      13.161  28.915  -8.424  1.00  0.00     0.153 HD
HETATM   18  C2  UNL     1      16.391  28.218  -7.733  1.00  0.00     0.039 C 
HETATM   19  C1  UNL     1      16.479  27.416  -8.990  1.00  0.00     0.039 C 
HETATM   20  C3  UNL     1      17.127  27.509  -6.597  1.00  0.00     0.039 C 
HETATM   21  N7  UNL     1      16.874  29.579  -7.857  1.00  0.00    -0.368 N 
ATOM     22  H7  UNL     1      17.750  29.868  -7.421  1.00  0.00     0.161 HD
ENDBRANCH  11  13
ENDBRANCH   1  11
BRANCH  10  23
HETATM   23  C11 UNL     1      16.911  34.467  -9.435  1.00  0.00     0.058 C 
BRANCH  23  24
HETATM   24  C12 UNL     1      16.400  34.400 -10.833  1.00  0.00     0.079 C 
BRANCH  24  25
HETATM   25  S2  UNL     1      17.000  35.663 -11.943  1.00  0.00    -0.168 SA
BRANCH  25  26
HETATM   26  C13 UNL     1      18.342  35.128 -13.020  1.00  0.00     0.081 C 
BRANCH  26  27
HETATM   27  C14 UNL     1      18.038  35.511 -14.470  1.00  0.00     0.085 C 
BRANCH  27  28
HETATM   28  C15 UNL     1      17.967  34.276 -15.305  1.00  0.00     0.114 C 
HETATM   29  N5  UNL     1      16.716  33.851 -15.768  1.00  0.00    -0.086 NA
HETATM   30  N6  UNL     1      19.032  33.633 -15.578  1.00  0.00    -0.259 N 
ATOM     31  H6  UNL     1      19.935  33.957 -15.231  1.00  0.00     0.195 HD
BRANCH  30  32
HETATM   32  O2  UNL     1      18.953  32.499 -16.345  1.00  0.00    -0.289 OA
ATOM     33  H2  UNL     1      19.752  32.046 -16.590  1.00  0.00     0.244 HD
ENDBRANCH  30  32
ENDBRANCH  27  28
ENDBRANCH  26  27
ENDBRANCH  25  26
ENDBRANCH  24  25
ENDBRANCH  23  24
ENDBRANCH  10  23
TORSDOF 9
ENDMDL
MODEL 2
REMARK VINA RESULT: -8.972982650      3.368      4.993
REMARK  9 active torsions:
REMARK  status: ('A' for Active; 'I' for Inactive)
REMARK    1  A    between atoms: C6_8  and  N2_9 
REMARK    2  A    between atoms: N2_9  and  C7_11 
REMARK    3  A    between atoms: C10_20  and  C11_21 
REMARK    4  A    between atoms: C11_21  and  C12_22 
REMARK    5  A    between atoms: C12_22  and  S2_23 
REMARK    6  A    between atoms: S2_23  and  C13_24 
REMARK    7  A    between atoms: C13_24  and  C14_25 
REMARK    8  A    between atoms: C14_25  and  C15_26 
REMARK    9  A    between atoms: N6_28  and  O2_30 
ROOT
HETATM    1  C7  UNL     1      15.796  32.683  -7.954  1.00  0.00     0.120 A 
HETATM    2  N3  UNL     1      15.173  32.300  -6.803  1.00  0.00    -0.319 N 
ATOM      3  H3  UNL     1      15.263  31.337  -6.481  1.00  0.00     0.170 HD
HETATM    4  C8  UNL     1      14.443  33.170  -6.088  1.00  0.00     0.180 A 
HETATM    5  S1  UNL     1      13.730  32.640  -4.728  1.00  0.00    -0.040 SA
HETATM    6  N4  UNL     1      14.323  34.436  -6.511  1.00  0.00    -0.300 N 
ATOM      7  H4  UNL     1      13.768  35.099  -5.970  1.00  0.00     0.171 HD
HETATM    8  C9  UNL     1      14.932  34.841  -7.648  1.00  0.00     0.257 A 
HETATM    9  O1  UNL     1      14.787  36.036  -8.000  1.00  0.00    -0.267 OA
HETATM   10  C10 UNL     1      15.698  33.976  -8.419  1.00  0.00     0.055 A 
ENDROOT
BRANCH   1  11
HETATM   11  N2  UNL     1      16.524  31.731  -8.704  1.00  0.00    -0.330 N 
ATOM     12  H2  UNL     1      17.289  32.013  -9.318  1.00  0.00     0.168 HD
BRANCH  11  13
HETATM   13  C6  UNL     1      16.145  30.344  -8.566  1.00  0.00     0.097 C 
HETATM   14  C5  UNL     1      14.872  29.864  -9.145  1.00  0.00     0.190 C 
HETATM   15  N1  UNL     1      14.184  28.935  -8.319  1.00  0.00    -0.412 N 
HETATM   16  C4  UNL     1      15.003  28.222  -7.385  1.00  0.00     0.144 C 
ATOM     17  H1  UNL     1      13.177  28.786  -8.387  1.00  0.00     0.153 HD
HETATM   18  C2  UNL     1      16.445  28.138  -7.841  1.00  0.00     0.039 C 
HETATM   19  C1  UNL     1      16.499  27.375  -9.125  1.00  0.00     0.039 C 
HETATM   20  C3  UNL     1      17.239  27.412  -6.757  1.00  0.00     0.039 C 
HETATM   21  N7  UNL     1      16.896  29.512  -7.943  1.00  0.00    -0.368 N 
ATOM     22  H7  UNL     1      17.781  29.807  -7.533  1.00  0.00     0.161 HD
ENDBRANCH  11  13
ENDBRANCH   1  11
BRANCH  10  23
HETATM   23  C11 UNL     1      16.392  34.371  -9.643  1.00  0.00     0.058 C 
BRANCH  23  24
HETATM   24  C12 UNL     1      17.742  34.977  -9.468  1.00  0.00     0.079 C 
BRANCH  24  25
HETATM   25  S2  UNL     1      17.809  36.761  -9.524  1.00  0.00    -0.168 SA
BRANCH  25  26
HETATM   26  C13 UNL     1      18.855  37.505  -8.262  1.00  0.00     0.081 C 
BRANCH  26  27
HETATM   27  C14 UNL     1      18.062  38.541  -7.462  1.00  0.00     0.085 C 
BRANCH  27  28
HETATM   28  C15 UNL     1      18.023  38.137  -6.027  1.00  0.00     0.114 C 
HETATM   29  N5  UNL     1      18.014  36.771  -5.714  1.00  0.00    -0.086 NA
HETATM   30  N6  UNL     1      17.996  39.028  -5.117  1.00  0.00    -0.259 N 
ATOM     31  H6  UNL     1      18.001  40.017  -5.363  1.00  0.00     0.195 HD
BRANCH  30  32
HETATM   32  O2  UNL     1      17.959  38.642  -3.802  1.00  0.00    -0.289 OA
ATOM     33  H2  UNL     1      17.570  39.223  -3.157  1.00  0.00     0.244 HD
ENDBRANCH  30  32
ENDBRANCH  27  28
ENDBRANCH  26  27
ENDBRANCH  25  26
ENDBRANCH  24  25
ENDBRANCH  23  24
ENDBRANCH  10  23
TORSDOF 9
ENDMDL
MODEL 3
REMARK VINA RESULT: -8.673558235      3.708      6.217
REMARK  9 active torsions:
REMARK  status: ('A' for Active; 'I' for Inactive)
REMARK    1  A    between atoms: C6_8  and  N2_9 
REMARK    2  A    between atoms: N2_9  and  C7_11 
REMARK    3  A    between atoms: C10_20  and  C11_21 
REMARK    4  A    between atoms: C11_21  and  C12_22 
REMARK    5  A    between atoms: C12_22  and  S2_23 
REMARK    6  A    between atoms: S2_23  and  C13_24 
REMARK    7  A    between atoms: C13_24  and  C14_25 
REMARK    8  A    between atoms: C14_25  and  C15_26 
REMARK    9  A    between atoms: N6_28  and  O2_30 
ROOT
HETATM    1  C7  UNL     1      14.362  31.181  -9.122  1.00  0.00     0.120 A 
HETATM    2  N3  UNL     1      14.607  29.974  -8.536  1.00  0.00    -0.319 N 
ATOM      3  H3  UNL     1      13.828  29.426  -8.172  1.00  0.00     0.170 HD
HETATM    4  C8  UNL     1      15.856  29.496  -8.430  1.00  0.00     0.180 A 
HETATM    5  S1  UNL     1      16.069  28.050  -7.719  1.00  0.00    -0.040 SA
HETATM    6  N4  UNL     1      16.881  30.215  -8.908  1.00  0.00    -0.300 N 
ATOM      7  H4  UNL     1      17.832  29.855  -8.828  1.00  0.00     0.171 HD
HETATM    8  C9  UNL     1      16.665  31.414  -9.494  1.00  0.00     0.257 A 
HETATM    9  O1  UNL     1      17.658  32.047  -9.923  1.00  0.00    -0.267 OA
HETATM   10  C10 UNL     1      15.389  31.947  -9.626  1.00  0.00     0.055 A 
ENDROOT
BRANCH   1  11
HETATM   11  N2  UNL     1      13.038  31.672  -9.181  1.00  0.00    -0.330 N 
ATOM     12  H2  UNL     1      12.406  31.402  -9.935  1.00  0.00     0.168 HD
BRANCH  11  13
HETATM   13  C6  UNL     1      12.614  32.571  -8.133  1.00  0.00     0.097 C 
HETATM   14  C5  UNL     1      11.977  33.860  -8.477  1.00  0.00     0.190 C 
HETATM   15  N1  UNL     1      12.388  34.939  -7.649  1.00  0.00    -0.412 N 
HETATM   16  C4  UNL     1      12.885  34.566  -6.358  1.00  0.00     0.144 C 
ATOM     17  H1  UNL     1      12.334  35.911  -7.952  1.00  0.00     0.153 HD
HETATM   18  C2  UNL     1      12.337  33.229  -5.903  1.00  0.00     0.039 C 
HETATM   19  C1  UNL     1      10.853  33.335  -5.774  1.00  0.00     0.039 C 
HETATM   20  C3  UNL     1      12.967  32.899  -4.550  1.00  0.00     0.039 C 
HETATM   21  N7  UNL     1      12.783  32.273  -6.898  1.00  0.00    -0.368 N 
ATOM     22  H7  UNL     1      13.217  31.392  -6.624  1.00  0.00     0.161 HD
ENDBRANCH  11  13
ENDBRANCH   1  11
BRANCH  10  23
HETATM   23  C11 UNL     1      15.103  33.228 -10.270  1.00  0.00     0.058 C 
BRANCH  23  24
HETATM   24  C12 UNL     1      15.918  34.389  -9.816  1.00  0.00     0.079 C 
BRANCH  24  25
HETATM   25  S2  UNL     1      15.929  34.692  -8.055  1.00  0.00    -0.168 SA
BRANCH  25  26
HETATM   26  C13 UNL     1      16.143  36.422  -7.601  1.00  0.00     0.081 C 
BRANCH  26  27
HETATM   27  C14 UNL     1      17.350  37.014  -8.332  1.00  0.00     0.085 C 
BRANCH  27  28
HETATM   28  C15 UNL     1      18.164  37.819  -7.376  1.00  0.00     0.114 C 
HETATM   29  N5  UNL     1      18.365  37.321  -6.082  1.00  0.00    -0.086 NA
HETATM   30  N6  UNL     1      18.656  38.935  -7.744  1.00  0.00    -0.259 N 
ATOM     31  H6  UNL     1      18.497  39.282  -8.690  1.00  0.00     0.195 HD
BRANCH  30  32
HETATM   32  O2  UNL     1      19.401  39.665  -6.855  1.00  0.00    -0.289 OA
ATOM     33  H2  UNL     1      19.925  40.391  -7.173  1.00  0.00     0.244 HD
ENDBRANCH  30  32
ENDBRANCH  27  28
ENDBRANCH  26  27
ENDBRANCH  25  26
ENDBRANCH  24  25
ENDBRANCH  23  24
ENDBRANCH  10  23
TORSDOF 9
ENDMDL
MODEL 4
REMARK VINA RESULT: -8.590324036      3.745      6.451
REMARK  9 active torsions:
REMARK  status: ('A' for Active; 'I' for Inactive)
REMARK    1  A    between atoms: C6_8  and  N2_9 
REMARK    2  A    between atoms: N2_9  and  C7_11 
REMARK    3  A    between atoms: C10_20  and  C11_21 
REMARK    4  A    between atoms: C11_21  and  C12_22 
REMARK    5  A    between atoms: C12_22  and  S2_23 
REMARK    6  A    between atoms: S2_23  and  C13_24 
REMARK    7  A    between atoms: C13_24  and  C14_25 
REMARK    8  A    between atoms: C14_25  and  C15_26 
REMARK    9  A    between atoms: N6_28  and  O2_30 
ROOT
HETATM    1  C7  UNL     1      14.354  31.303  -9.151  1.00  0.00     0.120 A 
HETATM    2  N3  UNL     1      14.542  30.065  -8.610  1.00  0.00    -0.319 N 
ATOM      3  H3  UNL     1      13.739  29.546  -8.256  1.00  0.00     0.170 HD
HETATM    4  C8  UNL     1      15.765  29.520  -8.537  1.00  0.00     0.180 A 
HETATM    5  S1  UNL     1      15.911  28.041  -7.879  1.00  0.00    -0.040 SA
HETATM    6  N4  UNL     1      16.822  30.202  -9.001  1.00  0.00    -0.300 N 
ATOM      7  H4  UNL     1      17.753  29.791  -8.945  1.00  0.00     0.171 HD
HETATM    8  C9  UNL     1      16.662  31.430  -9.542  1.00  0.00     0.257 A 
HETATM    9  O1  UNL     1      17.683  32.026  -9.961  1.00  0.00    -0.267 OA
HETATM   10  C10 UNL     1      15.415  32.033  -9.641  1.00  0.00     0.055 A 
ENDROOT
BRANCH   1  11
HETATM   11  N2  UNL     1      13.057  31.864  -9.177  1.00  0.00    -0.330 N 
ATOM     12  H2  UNL     1      12.435  31.723  -9.974  1.00  0.00     0.168 HD
BRANCH  11  13
HETATM   13  C6  UNL     1      12.646  32.644  -8.034  1.00  0.00     0.097 C 
HETATM   14  C5  UNL     1      13.137  32.295  -6.684  1.00  0.00     0.190 C 
HETATM   15  N1  UNL     1      12.152  32.417  -5.668  1.00  0.00    -0.412 N 
HETATM   16  C4  UNL     1      11.076  33.316  -5.962  1.00  0.00     0.144 C 
ATOM     17  H1  UNL     1      12.206  31.901  -4.790  1.00  0.00     0.153 HD
HETATM   18  C2  UNL     1      11.478  34.373  -6.970  1.00  0.00     0.039 C 
HETATM   19  C1  UNL     1      12.577  35.200  -6.387  1.00  0.00     0.039 C 
HETATM   20  C3  UNL     1      10.253  35.240  -7.255  1.00  0.00     0.039 C 
HETATM   21  N7  UNL     1      11.851  33.642  -8.165  1.00  0.00    -0.368 N 
ATOM     22  H7  UNL     1      11.493  33.913  -9.080  1.00  0.00     0.161 HD
ENDBRANCH  11  13
ENDBRANCH   1  11
BRANCH  10  23
HETATM   23  C11 UNL     1      15.188  33.349 -10.236  1.00  0.00     0.058 C 
BRANCH  23  24
HETATM   24  C12 UNL     1      15.972  34.476  -9.657  1.00  0.00     0.079 C 
BRANCH  24  25
HETATM   25  S2  UNL     1      15.848  34.682  -7.887  1.00  0.00    -0.168 SA
BRANCH  25  26
HETATM   26  C13 UNL     1      16.031  36.382  -7.323  1.00  0.00     0.081 C 
BRANCH  26  27
HETATM   27  C14 UNL     1      17.056  37.119  -8.189  1.00  0.00     0.085 C 
BRANCH  27  28
HETATM   28  C15 UNL     1      18.037  37.819  -7.310  1.00  0.00     0.114 C 
HETATM   29  N5  UNL     1      18.410  37.211  -6.104  1.00  0.00    -0.086 NA
HETATM   30  N6  UNL     1      18.514  38.946  -7.663  1.00  0.00    -0.259 N 
ATOM     31  H6  UNL     1      18.229  39.373  -8.544  1.00  0.00     0.195 HD
BRANCH  30  32
HETATM   32  O2  UNL     1      19.415  39.578  -6.846  1.00  0.00    -0.289 OA
ATOM     33  H2  UNL     1      19.999  40.230  -7.215  1.00  0.00     0.244 HD
ENDBRANCH  30  32
ENDBRANCH  27  28
ENDBRANCH  26  27
ENDBRANCH  25  26
ENDBRANCH  24  25
ENDBRANCH  23  24
ENDBRANCH  10  23
TORSDOF 9
ENDMDL
MODEL 5
REMARK VINA RESULT: -8.460966580      3.553      4.857
REMARK  9 active torsions:
REMARK  status: ('A' for Active; 'I' for Inactive)
REMARK    1  A    between atoms: C6_8  and  N2_9 
REMARK    2  A    between atoms: N2_9  and  C7_11 
REMARK    3  A    between atoms: C10_20  and  C11_21 
REMARK    4  A    between atoms: C11_21  and  C12_22 
REMARK    5  A    between atoms: C12_22  and  S2_23 
REMARK    6  A    between atoms: S2_23  and  C13_24 
REMARK    7  A    between atoms: C13_24  and  C14_25 
REMARK    8  A    between atoms: C14_25  and  C15_26 
REMARK    9  A    between atoms: N6_28  and  O2_30 
ROOT
HETATM    1  C7  UNL     1      14.052  32.992  -8.804  1.00  0.00     0.120 A 
HETATM    2  N3  UNL     1      12.733  33.129  -8.486  1.00  0.00    -0.319 N 
ATOM      3  H3  UNL     1      12.087  32.367  -8.691  1.00  0.00     0.170 HD
HETATM    4  C8  UNL     1      12.272  34.248  -7.909  1.00  0.00     0.180 A 
HETATM    5  S1  UNL     1      10.688  34.339  -7.560  1.00  0.00    -0.040 SA
HETATM    6  N4  UNL     1      13.121  35.251  -7.640  1.00  0.00    -0.300 N 
ATOM      7  H4  UNL     1      12.773  36.104  -7.203  1.00  0.00     0.171 HD
HETATM    8  C9  UNL     1      14.433  35.140  -7.945  1.00  0.00     0.257 A 
HETATM    9  O1  UNL     1      15.184  36.106  -7.673  1.00  0.00    -0.267 OA
HETATM   10  C10 UNL     1      14.954  33.999  -8.541  1.00  0.00     0.055 A 
ENDROOT
BRANCH   1  11
HETATM   11  N2  UNL     1      14.497  31.814  -9.447  1.00  0.00    -0.330 N 
ATOM     12  H2  UNL     1      14.534  31.747 -10.464  1.00  0.00     0.168 HD
BRANCH  11  13
HETATM   13  C6  UNL     1      14.896  30.708  -8.608  1.00  0.00     0.097 C 
HETATM   14  C5  UNL     1      14.931  30.868  -7.138  1.00  0.00     0.190 C 
HETATM   15  N1  UNL     1      16.043  30.234  -6.521  1.00  0.00    -0.412 N 
HETATM   16  C4  UNL     1      16.619  29.151  -7.261  1.00  0.00     0.144 C 
ATOM     17  H1  UNL     1      16.405  30.529  -5.615  1.00  0.00     0.153 HD
HETATM   18  C2  UNL     1      15.623  28.517  -8.210  1.00  0.00     0.039 C 
HETATM   19  C1  UNL     1      14.500  27.939  -7.413  1.00  0.00     0.039 C 
HETATM   20  C3  UNL     1      16.347  27.418  -8.986  1.00  0.00     0.039 C 
HETATM   21  N7  UNL     1      15.228  29.578  -9.116  1.00  0.00    -0.368 N 
ATOM     22  H7  UNL     1      15.214  29.431 -10.125  1.00  0.00     0.161 HD
ENDBRANCH  11  13
ENDBRANCH   1  11
BRANCH  10  23
HETATM   23  C11 UNL     1      16.368  33.822  -8.870  1.00  0.00     0.058 C 
BRANCH  23  24
HETATM   24  C12 UNL     1      16.817  34.394 -10.171  1.00  0.00     0.079 C 
BRANCH  24  25
HETATM   25  S2  UNL     1      18.189  35.535 -10.088  1.00  0.00    -0.168 SA
BRANCH  25  26
HETATM   26  C13 UNL     1      17.855  37.029  -9.139  1.00  0.00     0.081 C 
BRANCH  26  27
HETATM   27  C14 UNL     1      19.107  37.456  -8.368  1.00  0.00     0.085 C 
BRANCH  27  28
HETATM   28  C15 UNL     1      18.717  37.920  -7.005  1.00  0.00     0.114 C 
HETATM   29  N5  UNL     1      18.132  37.001  -6.125  1.00  0.00    -0.086 NA
HETATM   30  N6  UNL     1      18.916  39.132  -6.667  1.00  0.00    -0.259 N 
ATOM     31  H6  UNL     1      19.342  39.787  -7.322  1.00  0.00     0.195 HD
BRANCH  30  32
HETATM   32  O2  UNL     1      18.553  39.546  -5.411  1.00  0.00    -0.289 OA
ATOM     33  H2  UNL     1      18.542  38.917  -4.699  1.00  0.00     0.244 HD
ENDBRANCH  30  32
ENDBRANCH  27  28
ENDBRANCH  26  27
ENDBRANCH  25  26
ENDBRANCH  24  25
ENDBRANCH  23  24
ENDBRANCH  10  23
TORSDOF 9
ENDMDL
