MODEL 1
REMARK VINA RESULT: -8.661660021      0.000      0.000
REMARK  9 active torsions:
REMARK  status: ('A' for Active; 'I' for Inactive)
REMARK    1  A    between atoms: N1_1  and  C1_4 
REMARK    2  A    between atoms: C3_8  and  C4_9 
REMARK    3  A    between atoms: C5_12  and  C6_13 
REMARK    4  A    between atoms: C7_15  and  N4_16 
REMARK    5  A    between atoms: N4_16  and  C8_18 
REMARK    6  A    between atoms: N5_21  and  C11_22 
REMARK    7  A    between atoms: C11_22  and  C12_23 
REMARK    8  A    between atoms: C12_23  and  C13_24 
REMARK    9  A    between atoms: C13_24  and  N6_25 
ROOT
HETATM    1  C4  UNL     1      14.057  32.135  -7.004  1.00  0.00     0.091 A 
HETATM    2  N3  UNL     1      14.847  32.379  -8.004  1.00  0.00    -0.350 N 
ATOM      3  H3  UNL     1      14.668  33.200  -8.581  1.00  0.00     0.166 HD
HETATM    4  C5  UNL     1      15.855  31.619  -8.300  1.00  0.00     0.054 A 
HETATM    5  C7  UNL     1      16.077  30.528  -7.522  1.00  0.00     0.096 A 
HETATM    6  S2  UNL     1      14.766  30.689  -6.376  1.00  0.00    -0.052 SA
ENDROOT
BRANCH   5   7
HETATM    7  N4  UNL     1      17.006  29.462  -7.515  1.00  0.00    -0.378 N 
ATOM      8  H4  UNL     1      17.687  29.441  -8.273  1.00  0.00     0.160 HD
BRANCH   7   9
HETATM    9  C8  UNL     1      17.083  28.428  -6.569  1.00  0.00     0.085 C 
HETATM   10  C9  UNL     1      16.522  27.115  -7.137  1.00  0.00     0.055 C 
HETATM   11  C10 UNL     1      17.392  25.959  -6.846  1.00  0.00     0.274 C 
HETATM   12  N5  UNL     1      17.851  25.857  -5.451  1.00  0.00     0.088 N 
HETATM   13  C14 UNL     1      18.496  27.125  -5.086  1.00  0.00     0.274 C 
HETATM   14  C15 UNL     1      18.559  28.031  -6.288  1.00  0.00     0.055 C 
BRANCH  12  15
HETATM   15  C11 UNL     1      18.926  24.897  -5.494  1.00  0.00     0.274 C 
BRANCH  15  16
HETATM   16  C12 UNL     1      19.076  23.931  -4.414  1.00  0.00     0.057 C 
BRANCH  16  17
HETATM   17  C13 UNL     1      20.021  24.172  -3.320  1.00  0.00     0.231 C 
BRANCH  17  18
HETATM   18  N6  UNL     1      21.401  23.997  -3.705  1.00  0.00    -0.079 N 
ATOM     19  H63 UNL     1      21.657  24.655  -4.441  1.00  0.00     0.274 HD
ATOM     20  H62 UNL     1      22.026  24.318  -2.966  1.00  0.00     0.274 HD
ATOM     21  H61 UNL     1      21.627  23.041  -3.981  1.00  0.00     0.274 HD
ENDBRANCH  17  18
ENDBRANCH  16  17
ENDBRANCH  15  16
ENDBRANCH  12  15
ENDBRANCH   7   9
ENDBRANCH   5   7
BRANCH   4  22
HETATM   22  C6  UNL     1      16.772  31.971  -9.463  1.00  0.00     0.146 C 
HETATM   23  S1  UNL     1      16.848  33.796  -9.680  1.00  0.00    -0.091 SA
ENDBRANCH   4  22
BRANCH   1  24
HETATM   24  C3  UNL     1      12.866  32.823  -6.465  1.00  0.00     0.058 A 
HETATM   25  C2  UNL     1      12.807  33.106  -5.101  1.00  0.00     0.124 A 
HETATM   26  N2  UNL     1      11.730  33.732  -4.597  1.00  0.00    -0.201 N 
HETATM   27  C1  UNL     1      10.695  34.100  -5.366  1.00  0.00     0.677 A 
ATOM     28  H2  UNL     1      11.698  33.932  -3.597  1.00  0.00     0.183 HD
HETATM   29  N8  UNL     1      10.739  33.836  -6.670  1.00  0.00    -0.176 N 
HETATM   30  C16 UNL     1      11.825  33.192  -7.250  1.00  0.00     0.129 A 
ATOM     31  H8  UNL     1       9.954  34.114  -7.259  1.00  0.00     0.186 HD
HETATM   32  N7  UNL     1      11.755  33.000  -8.487  1.00  0.00    -0.384 N 
ATOM     33  H72 UNL     1      12.552  32.526  -8.913  1.00  0.00     0.157 HD
ATOM     34  H71 UNL     1      10.971  33.277  -9.077  1.00  0.00     0.157 HD
BRANCH  27  35
HETATM   35  N1  UNL     1       9.679  34.706  -4.811  1.00  0.00    -0.234 N 
ATOM     36  H12 UNL     1       9.488  34.646  -3.811  1.00  0.00     0.174 HD
ATOM     37  H11 UNL     1       9.053  35.259  -5.397  1.00  0.00     0.174 HD
ENDBRANCH  27  35
ENDBRANCH   1  24
TORSDOF 9
ENDMDL
MODEL 2
REMARK VINA RESULT: -8.636742356      4.003      5.682
REMARK  9 active torsions:
REMARK  status: ('A' for Active; 'I' for Inactive)
REMARK    1  A    between atoms: N1_1  and  C1_4 
REMARK    2  A    between atoms: C3_8  and  C4_9 
REMARK    3  A    between atoms: C5_12  and  C6_13 
REMARK    4  A    between atoms: C7_15  and  N4_16 
REMARK    5  A    between atoms: N4_16  and  C8_18 
REMARK    6  A    between atoms: N5_21  and  C11_22 
REMARK    7  A    between atoms: C11_22  and  C12_23 
REMARK    8  A    between atoms: C12_23  and  C13_24 
REMARK    9  A    between atoms: C13_24  and  N6_25 
ROOT
HETATM    1  C4  UNL     1      15.806  35.573  -8.015  1.00  0.00     0.091 A 
HETATM    2  N3  UNL     1      14.534  35.434  -7.800  1.00  0.00    -0.350 N 
ATOM      3  H3  UNL     1      14.031  36.187  -7.330  1.00  0.00     0.166 HD
HETATM    4  C5  UNL     1      13.876  34.376  -8.157  1.00  0.00     0.054 A 
HETATM    5  C7  UNL     1      14.562  33.382  -8.780  1.00  0.00     0.096 A 
HETATM    6  S2  UNL     1      16.165  34.078  -8.806  1.00  0.00    -0.052 SA
ENDROOT
BRANCH   5   7
HETATM    7  N4  UNL     1      14.250  32.098  -9.283  1.00  0.00    -0.378 N 
ATOM      8  H4  UNL     1      13.978  32.043 -10.265  1.00  0.00     0.160 HD
BRANCH   7   9
HETATM    9  C8  UNL     1      14.277  30.892  -8.568  1.00  0.00     0.085 C 
HETATM   10  C9  UNL     1      15.003  29.794  -9.361  1.00  0.00     0.055 C 
HETATM   11  C10 UNL     1      15.956  29.035  -8.529  1.00  0.00     0.274 C 
HETATM   12  N5  UNL     1      15.432  28.583  -7.230  1.00  0.00     0.088 N 
HETATM   13  C14 UNL     1      14.903  29.753  -6.517  1.00  0.00     0.274 C 
HETATM   14  C15 UNL     1      15.182  31.003  -7.309  1.00  0.00     0.055 C 
BRANCH  12  15
HETATM   15  C11 UNL     1      16.602  28.196  -6.483  1.00  0.00     0.274 C 
BRANCH  15  16
HETATM   16  C12 UNL     1      17.319  26.980  -6.844  1.00  0.00     0.057 C 
BRANCH  16  17
HETATM   17  C13 UNL     1      18.463  26.522  -6.051  1.00  0.00     0.231 C 
BRANCH  17  18
HETATM   18  N6  UNL     1      18.855  27.451  -5.019  1.00  0.00    -0.079 N 
ATOM     19  H63 UNL     1      19.864  27.426  -4.875  1.00  0.00     0.274 HD
ATOM     20  H62 UNL     1      18.754  28.413  -5.342  1.00  0.00     0.274 HD
ATOM     21  H61 UNL     1      18.361  27.312  -4.138  1.00  0.00     0.274 HD
ENDBRANCH  17  18
ENDBRANCH  16  17
ENDBRANCH  15  16
ENDBRANCH  12  15
ENDBRANCH   7   9
ENDBRANCH   5   7
BRANCH   4  22
HETATM   22  C6  UNL     1      12.376  34.279  -7.912  1.00  0.00     0.146 C 
HETATM   23  S1  UNL     1      12.046  33.313  -6.383  1.00  0.00    -0.091 SA
ENDBRANCH   4  22
BRANCH   1  24
HETATM   24  C3  UNL     1      16.770  36.651  -7.715  1.00  0.00     0.058 A 
HETATM   25  C2  UNL     1      16.695  37.303  -6.485  1.00  0.00     0.124 A 
HETATM   26  N2  UNL     1      17.566  38.286  -6.198  1.00  0.00    -0.201 N 
HETATM   27  C1  UNL     1      18.518  38.669  -7.062  1.00  0.00     0.677 A 
ATOM     28  H2  UNL     1      17.501  38.755  -5.295  1.00  0.00     0.183 HD
HETATM   29  N8  UNL     1      18.599  38.055  -8.240  1.00  0.00    -0.176 N 
HETATM   30  C16 UNL     1      17.728  37.032  -8.594  1.00  0.00     0.129 A 
ATOM     31  H8  UNL     1      19.322  38.343  -8.901  1.00  0.00     0.186 HD
HETATM   32  N7  UNL     1      17.904  36.527  -9.728  1.00  0.00    -0.384 N 
ATOM     33  H72 UNL     1      17.264  35.776  -9.988  1.00  0.00     0.157 HD
ATOM     34  H71 UNL     1      18.625  36.814 -10.390  1.00  0.00     0.157 HD
BRANCH  27  35
HETATM   35  N1  UNL     1      19.333  39.632  -6.719  1.00  0.00    -0.234 N 
ATOM     36  H12 UNL     1      19.207  40.592  -7.040  1.00  0.00     0.174 HD
ATOM     37  H11 UNL     1      20.123  39.417  -6.110  1.00  0.00     0.174 HD
ENDBRANCH  27  35
ENDBRANCH   1  24
TORSDOF 9
ENDMDL
MODEL 3
REMARK VINA RESULT: -8.622218939      0.444      1.276
REMARK  9 active torsions:
REMARK  status: ('A' for Active; 'I' for Inactive)
REMARK    1  A    between atoms: N1_1  and  C1_4 
REMARK    2  A    between atoms: C3_8  and  C4_9 
REMARK    3  A    between atoms: C5_12  and  C6_13 
REMARK    4  A    between atoms: C7_15  and  N4_16 
REMARK    5  A    between atoms: N4_16  and  C8_18 
REMARK    6  A    between atoms: N5_21  and  C11_22 
REMARK    7  A    between atoms: C11_22  and  C12_23 
REMARK    8  A    between atoms: C12_23  and  C13_24 
REMARK    9  A    between atoms: C13_24  and  N6_25 
ROOT
HETATM    1  C4  UNL     1      14.054  32.140  -7.080  1.00  0.00     0.091 A 
HETATM    2  N3  UNL     1      14.865  32.394  -8.061  1.00  0.00    -0.350 N 
ATOM      3  H3  UNL     1      14.696  33.219  -8.635  1.00  0.00     0.166 HD
HETATM    4  C5  UNL     1      15.881  31.639  -8.340  1.00  0.00     0.054 A 
HETATM    5  C7  UNL     1      16.090  30.543  -7.566  1.00  0.00     0.096 A 
HETATM    6  S2  UNL     1      14.754  30.691  -6.448  1.00  0.00    -0.052 SA
ENDROOT
BRANCH   5   7
HETATM    7  N4  UNL     1      17.022  29.480  -7.546  1.00  0.00    -0.378 N 
ATOM      8  H4  UNL     1      17.716  29.464  -8.293  1.00  0.00     0.160 HD
BRANCH   7   9
HETATM    9  C8  UNL     1      17.086  28.443  -6.603  1.00  0.00     0.085 C 
HETATM   10  C9  UNL     1      16.540  27.130  -7.185  1.00  0.00     0.055 C 
HETATM   11  C10 UNL     1      17.408  25.977  -6.882  1.00  0.00     0.274 C 
HETATM   12  N5  UNL     1      17.843  25.870  -5.480  1.00  0.00     0.088 N 
HETATM   13  C14 UNL     1      18.477  27.140  -5.100  1.00  0.00     0.274 C 
HETATM   14  C15 UNL     1      18.558  28.049  -6.297  1.00  0.00     0.055 C 
BRANCH  12  15
HETATM   15  C11 UNL     1      18.922  24.915  -5.508  1.00  0.00     0.274 C 
BRANCH  15  16
HETATM   16  C12 UNL     1      19.069  23.960  -4.418  1.00  0.00     0.057 C 
BRANCH  16  17
HETATM   17  C13 UNL     1      20.023  24.203  -3.332  1.00  0.00     0.231 C 
BRANCH  17  18
HETATM   18  N6  UNL     1      21.398  24.003  -3.721  1.00  0.00    -0.079 N 
ATOM     19  H63 UNL     1      21.690  24.712  -4.393  1.00  0.00     0.274 HD
ATOM     20  H62 UNL     1      22.027  24.230  -2.951  1.00  0.00     0.274 HD
ATOM     21  H61 UNL     1      21.586  23.067  -4.078  1.00  0.00     0.274 HD
ENDBRANCH  17  18
ENDBRANCH  16  17
ENDBRANCH  15  16
ENDBRANCH  12  15
ENDBRANCH   7   9
ENDBRANCH   5   7
BRANCH   4  22
HETATM   22  C6  UNL     1      16.823  32.003  -9.481  1.00  0.00     0.146 C 
HETATM   23  S1  UNL     1      16.917  33.830  -9.665  1.00  0.00    -0.091 SA
ENDBRANCH   4  22
BRANCH   1  24
HETATM   24  C3  UNL     1      12.849  32.821  -6.563  1.00  0.00     0.058 A 
HETATM   25  C2  UNL     1      11.936  33.360  -7.467  1.00  0.00     0.124 A 
HETATM   26  N2  UNL     1      10.835  33.983  -7.010  1.00  0.00    -0.201 N 
HETATM   27  C1  UNL     1      10.579  34.107  -5.700  1.00  0.00     0.677 A 
ATOM     28  H2  UNL     1      10.175  34.373  -7.682  1.00  0.00     0.183 HD
HETATM   29  N8  UNL     1      11.444  33.596  -4.826  1.00  0.00    -0.176 N 
HETATM   30  C16 UNL     1      12.599  32.942  -5.237  1.00  0.00     0.129 A 
ATOM     31  H8  UNL     1      11.254  33.688  -3.828  1.00  0.00     0.186 HD
HETATM   32  N7  UNL     1      13.336  32.501  -4.323  1.00  0.00    -0.384 N 
ATOM     33  H72 UNL     1      14.184  32.020  -4.625  1.00  0.00     0.157 HD
ATOM     34  H71 UNL     1      13.147  32.592  -3.326  1.00  0.00     0.157 HD
BRANCH  27  35
HETATM   35  N1  UNL     1       9.490  34.723  -5.324  1.00  0.00    -0.234 N 
ATOM     36  H12 UNL     1       8.728  34.927  -5.971  1.00  0.00     0.174 HD
ATOM     37  H11 UNL     1       9.396  35.011  -4.349  1.00  0.00     0.174 HD
ENDBRANCH  27  35
ENDBRANCH   1  24
TORSDOF 9
ENDMDL
MODEL 4
REMARK VINA RESULT: -8.471326504      2.868      4.444
REMARK  9 active torsions:
REMARK  status: ('A' for Active; 'I' for Inactive)
REMARK    1  A    between atoms: N1_1  and  C1_4 
REMARK    2  A    between atoms: C3_8  and  C4_9 
REMARK    3  A    between atoms: C5_12  and  C6_13 
REMARK    4  A    between atoms: C7_15  and  N4_16 
REMARK    5  A    between atoms: N4_16  and  C8_18 
REMARK    6  A    between atoms: N5_21  and  C11_22 
REMARK    7  A    between atoms: C11_22  and  C12_23 
REMARK    8  A    between atoms: C12_23  and  C13_24 
REMARK    9  A    between atoms: C13_24  and  N6_25 
ROOT
HETATM    1  C4  UNL     1      16.163  31.960  -8.625  1.00  0.00     0.091 A 
HETATM    2  N3  UNL     1      15.783  31.915  -7.384  1.00  0.00    -0.350 N 
ATOM      3  H3  UNL     1      15.579  32.791  -6.903  1.00  0.00     0.166 HD
HETATM    4  C5  UNL     1      15.653  30.803  -6.733  1.00  0.00     0.054 A 
HETATM    5  C7  UNL     1      15.930  29.646  -7.389  1.00  0.00     0.096 A 
HETATM    6  S2  UNL     1      16.372  30.276  -8.959  1.00  0.00    -0.052 SA
ENDROOT
BRANCH   5   7
HETATM    7  N4  UNL     1      15.950  28.272  -7.056  1.00  0.00    -0.378 N 
ATOM      8  H4  UNL     1      15.061  27.852  -6.787  1.00  0.00     0.160 HD
BRANCH   7   9
HETATM    9  C8  UNL     1      17.072  27.429  -7.057  1.00  0.00     0.085 C 
HETATM   10  C9  UNL     1      18.038  27.793  -5.919  1.00  0.00     0.055 C 
HETATM   11  C10 UNL     1      18.517  26.605  -5.186  1.00  0.00     0.274 C 
HETATM   12  N5  UNL     1      18.983  25.493  -6.031  1.00  0.00     0.088 N 
HETATM   13  C14 UNL     1      17.909  25.152  -6.973  1.00  0.00     0.274 C 
HETATM   14  C15 UNL     1      16.684  25.975  -6.671  1.00  0.00     0.055 C 
BRANCH  12  15
HETATM   15  C11 UNL     1      19.058  24.366  -5.135  1.00  0.00     0.274 C 
BRANCH  15  16
HETATM   16  C12 UNL     1      19.081  24.588  -3.696  1.00  0.00     0.057 C 
BRANCH  16  17
HETATM   17  C13 UNL     1      20.284  24.292  -2.912  1.00  0.00     0.231 C 
BRANCH  17  18
HETATM   18  N6  UNL     1      21.456  24.068  -3.722  1.00  0.00    -0.079 N 
ATOM     19  H63 UNL     1      22.103  24.853  -3.647  1.00  0.00     0.274 HD
ATOM     20  H62 UNL     1      22.037  23.331  -3.321  1.00  0.00     0.274 HD
ATOM     21  H61 UNL     1      21.243  23.868  -4.699  1.00  0.00     0.274 HD
ENDBRANCH  17  18
ENDBRANCH  16  17
ENDBRANCH  15  16
ENDBRANCH  12  15
ENDBRANCH   7   9
ENDBRANCH   5   7
BRANCH   4  22
HETATM   22  C6  UNL     1      15.170  30.805  -5.288  1.00  0.00     0.146 C 
HETATM   23  S1  UNL     1      14.149  32.301  -4.966  1.00  0.00    -0.091 SA
ENDBRANCH   4  22
BRANCH   1  24
HETATM   24  C3  UNL     1      16.386  33.068  -9.575  1.00  0.00     0.058 A 
HETATM   25  C2  UNL     1      17.693  33.428  -9.900  1.00  0.00     0.124 A 
HETATM   26  N2  UNL     1      17.911  34.435 -10.763  1.00  0.00    -0.201 N 
HETATM   27  C1  UNL     1      16.906  35.118 -11.331  1.00  0.00     0.677 A 
ATOM     28  H2  UNL     1      18.872  34.689 -10.993  1.00  0.00     0.183 HD
HETATM   29  N8  UNL     1      15.653  34.784 -11.028  1.00  0.00    -0.176 N 
HETATM   30  C16 UNL     1      15.364  33.753 -10.143  1.00  0.00     0.129 A 
ATOM     31  H8  UNL     1      14.885  35.300 -11.457  1.00  0.00     0.186 HD
HETATM   32  N7  UNL     1      14.148  33.529  -9.938  1.00  0.00    -0.384 N 
ATOM     33  H72 UNL     1      13.935  32.771  -9.288  1.00  0.00     0.157 HD
ATOM     34  H71 UNL     1      13.379  34.043 -10.365  1.00  0.00     0.157 HD
BRANCH  27  35
HETATM   35  N1  UNL     1      17.189  36.085 -12.162  1.00  0.00    -0.234 N 
ATOM     36  H12 UNL     1      17.454  35.911 -13.131  1.00  0.00     0.174 HD
ATOM     37  H11 UNL     1      17.143  37.050 -11.832  1.00  0.00     0.174 HD
ENDBRANCH  27  35
ENDBRANCH   1  24
TORSDOF 9
ENDMDL
MODEL 5
REMARK VINA RESULT: -8.336359441      1.946      8.166
REMARK  9 active torsions:
REMARK  status: ('A' for Active; 'I' for Inactive)
REMARK    1  A    between atoms: N1_1  and  C1_4 
REMARK    2  A    between atoms: C3_8  and  C4_9 
REMARK    3  A    between atoms: C5_12  and  C6_13 
REMARK    4  A    between atoms: C7_15  and  N4_16 
REMARK    5  A    between atoms: N4_16  and  C8_18 
REMARK    6  A    between atoms: N5_21  and  C11_22 
REMARK    7  A    between atoms: C11_22  and  C12_23 
REMARK    8  A    between atoms: C12_23  and  C13_24 
REMARK    9  A    between atoms: C13_24  and  N6_25 
ROOT
HETATM    1  C4  UNL     1      16.321  29.602  -8.228  1.00  0.00     0.091 A 
HETATM    2  N3  UNL     1      16.878  30.606  -8.833  1.00  0.00    -0.350 N 
ATOM      3  H3  UNL     1      17.895  30.666  -8.848  1.00  0.00     0.166 HD
HETATM    4  C5  UNL     1      16.192  31.537  -9.419  1.00  0.00     0.054 A 
HETATM    5  C7  UNL     1      14.837  31.443  -9.387  1.00  0.00     0.096 A 
HETATM    6  S2  UNL     1      14.648  29.959  -8.482  1.00  0.00    -0.052 SA
ENDROOT
BRANCH   5   7
HETATM    7  N4  UNL     1      13.756  32.227  -9.852  1.00  0.00    -0.378 N 
ATOM      8  H4  UNL     1      13.362  31.975 -10.758  1.00  0.00     0.160 HD
BRANCH   7   9
HETATM    9  C8  UNL     1      13.172  33.318  -9.191  1.00  0.00     0.085 C 
HETATM   10  C9  UNL     1      11.704  33.031  -8.839  1.00  0.00     0.055 C 
HETATM   11  C10 UNL     1      11.370  33.423  -7.456  1.00  0.00     0.274 C 
HETATM   12  N5  UNL     1      11.826  34.765  -7.058  1.00  0.00     0.088 N 
HETATM   13  C14 UNL     1      13.270  34.852  -7.311  1.00  0.00     0.274 C 
HETATM   14  C15 UNL     1      13.789  33.517  -7.778  1.00  0.00     0.055 C 
BRANCH  12  15
HETATM   15  C11 UNL     1      11.704  34.777  -5.622  1.00  0.00     0.274 C 
BRANCH  15  16
HETATM   16  C12 UNL     1      11.654  33.517  -4.892  1.00  0.00     0.057 C 
BRANCH  16  17
HETATM   17  C13 UNL     1      12.852  32.983  -4.238  1.00  0.00     0.231 C 
BRANCH  17  18
HETATM   18  N6  UNL     1      13.257  31.694  -4.746  1.00  0.00    -0.079 N 
ATOM     19  H63 UNL     1      13.714  31.146  -4.017  1.00  0.00     0.274 HD
ATOM     20  H62 UNL     1      12.444  31.103  -4.918  1.00  0.00     0.274 HD
ATOM     21  H61 UNL     1      13.845  31.752  -5.577  1.00  0.00     0.274 HD
ENDBRANCH  17  18
ENDBRANCH  16  17
ENDBRANCH  15  16
ENDBRANCH  12  15
ENDBRANCH   7   9
ENDBRANCH   5   7
BRANCH   4  22
HETATM   22  C6  UNL     1      16.897  32.675 -10.145  1.00  0.00     0.146 C 
HETATM   23  S1  UNL     1      16.828  34.210  -9.135  1.00  0.00    -0.091 SA
ENDBRANCH   4  22
BRANCH   1  24
HETATM   24  C3  UNL     1      16.860  28.436  -7.499  1.00  0.00     0.058 A 
HETATM   25  C2  UNL     1      17.348  28.613  -6.205  1.00  0.00     0.124 A 
HETATM   26  N2  UNL     1      17.842  27.560  -5.531  1.00  0.00    -0.201 N 
HETATM   27  C1  UNL     1      17.883  26.329  -6.061  1.00  0.00     0.677 A 
ATOM     28  H2  UNL     1      18.196  27.702  -4.585  1.00  0.00     0.183 HD
HETATM   29  N8  UNL     1      17.420  26.147  -7.296  1.00  0.00    -0.176 N 
HETATM   30  C16 UNL     1      16.898  27.195  -8.043  1.00  0.00     0.129 A 
ATOM     31  H8  UNL     1      17.449  25.213  -7.704  1.00  0.00     0.186 HD
HETATM   32  N7  UNL     1      16.490  26.903  -9.192  1.00  0.00    -0.384 N 
ATOM     33  H72 UNL     1      16.106  27.672  -9.741  1.00  0.00     0.157 HD
ATOM     34  H71 UNL     1      16.518  25.970  -9.602  1.00  0.00     0.157 HD
BRANCH  27  35
HETATM   35  N1  UNL     1      18.375  25.350  -5.350  1.00  0.00    -0.234 N 
ATOM     36  H12 UNL     1      18.805  25.502  -4.437  1.00  0.00     0.174 HD
ATOM     37  H11 UNL     1      18.329  24.399  -5.718  1.00  0.00     0.174 HD
ENDBRANCH  27  35
ENDBRANCH   1  24
TORSDOF 9
ENDMDL
