MODEL 1
REMARK VINA RESULT: -9.808053006      0.000      0.000
REMARK  10 active torsions:
REMARK  status: ('A' for Active; 'I' for Inactive)
REMARK    1  A    between atoms: C3_4  and  C4_5 
REMARK    2  A    between atoms: C5_8  and  C6_9 
REMARK    3  A    between atoms: C9_17  and  N5_18 
REMARK    4  A    between atoms: C10_22  and  O3_23 
REMARK    5  A    between atoms: C12_27  and  C13_28 
REMARK       I    between atoms: C13_28  and  N7_30 
REMARK    6  A    between atoms: N7_30  and  C14_32 
REMARK    7  A    between atoms: C14_32  and  C15_33 
REMARK    8  A    between atoms: C15_33  and  C16_34 
REMARK    9  A    between atoms: C16_34  and  C17_35 
REMARK   10  A    between atoms: C17_35  and  O5_36 
ROOT
HETATM    1  C6  UNL     1      17.374  37.610  -7.333  1.00  0.00     0.099 A 
HETATM    2  C7  UNL     1      17.856  38.339  -6.269  1.00  0.00     0.146 A 
HETATM    3  C8  UNL     1      17.367  38.223  -4.932  1.00  0.00     0.120 C 
HETATM    4  N2  UNL     1      16.960  38.111  -3.845  1.00  0.00    -0.190 NA
HETATM    5  N3  UNL     1      18.847  39.162  -6.698  1.00  0.00    -0.288 N 
ATOM      6  H3  UNL     1      19.381  39.814  -6.124  1.00  0.00     0.188 HD
HETATM    7  N4  UNL     1      18.990  38.961  -7.997  1.00  0.00    -0.284 N 
ATOM      8  H4  UNL     1      19.663  39.441  -8.594  1.00  0.00     0.188 HD
HETATM    9  C9  UNL     1      18.110  38.023  -8.414  1.00  0.00     0.131 A 
ENDROOT
BRANCH   1  10
HETATM   10  C5  UNL     1      16.316  36.608  -7.346  1.00  0.00     0.168 A 
HETATM   11  N1  UNL     1      16.499  35.323  -7.007  1.00  0.00    -0.329 N 
HETATM   12  C4  UNL     1      15.316  34.632  -7.120  1.00  0.00     0.129 A 
ATOM     13  H1  UNL     1      17.386  34.917  -6.709  1.00  0.00     0.168 HD
HETATM   14  C10 UNL     1      14.431  35.569  -7.540  1.00  0.00     0.215 A 
HETATM   15  O2  UNL     1      15.058  36.738  -7.666  1.00  0.00    -0.268 OA
BRANCH  12  16
HETATM   16  C3  UNL     1      15.180  33.212  -6.824  1.00  0.00     0.132 A 
HETATM   17  O1  UNL     1      14.549  32.766  -5.737  1.00  0.00    -0.310 OA
HETATM   18  C2  UNL     1      14.535  31.480  -5.657  1.00  0.00     0.067 A 
HETATM   19  C1  UNL     1      13.898  30.686  -4.542  1.00  0.00     0.078 C 
HETATM   20  C12 UNL     1      15.192  30.962  -6.746  1.00  0.00     0.088 A 
HETATM   21  C11 UNL     1      15.586  32.088  -7.464  1.00  0.00     0.100 A 
HETATM   22  N6  UNL     1      16.304  32.021  -8.674  1.00  0.00    -0.098 NA
BRANCH  20  23
HETATM   23  C13 UNL     1      15.472  29.602  -7.158  1.00  0.00     0.256 C 
HETATM   24  O4  UNL     1      14.474  28.869  -7.527  1.00  0.00    -0.268 OA
HETATM   25  N7  UNL     1      16.710  28.950  -7.211  1.00  0.00    -0.357 N 
ATOM     26  H7  UNL     1      17.542  29.472  -6.934  1.00  0.00     0.162 HD
BRANCH  25  27
HETATM   27  C14 UNL     1      16.871  27.573  -7.638  1.00  0.00     0.123 C 
BRANCH  27  28
HETATM   28  C15 UNL     1      16.930  26.576  -6.538  1.00  0.00     0.022 C 
BRANCH  28  29
HETATM   29  C16 UNL     1      18.303  25.967  -6.365  1.00  0.00     0.028 C 
BRANCH  29  30
HETATM   30  C17 UNL     1      18.942  26.453  -5.068  1.00  0.00     0.164 C 
BRANCH  30  31
HETATM   31  O5  UNL     1      18.936  27.835  -4.994  1.00  0.00    -0.401 OA
ATOM     32  H5  UNL     1      19.264  28.135  -4.155  1.00  0.00     0.209 HD
ENDBRANCH  30  31
ENDBRANCH  29  30
ENDBRANCH  28  29
ENDBRANCH  27  28
ENDBRANCH  25  27
ENDBRANCH  20  23
ENDBRANCH  12  16
BRANCH  14  33
HETATM   33  O3  UNL     1      13.084  35.388  -7.809  1.00  0.00    -0.339 OA
ATOM     34  H3  UNL     1      12.615  35.644  -8.595  1.00  0.00     0.220 HD
ENDBRANCH  14  33
ENDBRANCH   1  10
BRANCH   9  35
HETATM   35  N5  UNL     1      18.019  37.624  -9.629  1.00  0.00    -0.384 N 
ATOM     36  H52 UNL     1      17.180  37.198 -10.023  1.00  0.00     0.157 HD
ATOM     37  H51 UNL     1      18.731  37.665 -10.358  1.00  0.00     0.157 HD
ENDBRANCH   9  35
TORSDOF 10
ENDMDL
MODEL 2
REMARK VINA RESULT: -9.298185104      0.947      2.075
REMARK  10 active torsions:
REMARK  status: ('A' for Active; 'I' for Inactive)
REMARK    1  A    between atoms: C3_4  and  C4_5 
REMARK    2  A    between atoms: C5_8  and  C6_9 
REMARK    3  A    between atoms: C9_17  and  N5_18 
REMARK    4  A    between atoms: C10_22  and  O3_23 
REMARK    5  A    between atoms: C12_27  and  C13_28 
REMARK       I    between atoms: C13_28  and  N7_30 
REMARK    6  A    between atoms: N7_30  and  C14_32 
REMARK    7  A    between atoms: C14_32  and  C15_33 
REMARK    8  A    between atoms: C15_33  and  C16_34 
REMARK    9  A    between atoms: C16_34  and  C17_35 
REMARK   10  A    between atoms: C17_35  and  O5_36 
ROOT
HETATM    1  C6  UNL     1      17.355  37.181  -8.140  1.00  0.00     0.099 A 
HETATM    2  C7  UNL     1      18.333  37.085  -9.106  1.00  0.00     0.146 A 
HETATM    3  C8  UNL     1      18.461  35.985 -10.009  1.00  0.00     0.120 C 
HETATM    4  N2  UNL     1      18.547  35.084 -10.743  1.00  0.00    -0.190 NA
HETATM    5  N3  UNL     1      19.129  38.183  -9.052  1.00  0.00    -0.288 N 
ATOM      6  H3  UNL     1      19.932  38.376  -9.650  1.00  0.00     0.188 HD
HETATM    7  N4  UNL     1      18.671  38.954  -8.081  1.00  0.00    -0.284 N 
ATOM      8  H4  UNL     1      19.069  39.851  -7.806  1.00  0.00     0.188 HD
HETATM    9  C9  UNL     1      17.592  38.373  -7.507  1.00  0.00     0.131 A 
ENDROOT
BRANCH   1  10
HETATM   10  C5  UNL     1      16.286  36.241  -7.831  1.00  0.00     0.168 A 
HETATM   11  N1  UNL     1      16.488  34.943  -7.556  1.00  0.00    -0.329 N 
HETATM   12  C4  UNL     1      15.288  34.321  -7.306  1.00  0.00     0.129 A 
ATOM     13  H1  UNL     1      17.399  34.484  -7.535  1.00  0.00     0.168 HD
HETATM   14  C10 UNL     1      14.373  35.312  -7.447  1.00  0.00     0.215 A 
HETATM   15  O2  UNL     1      14.999  36.445  -7.760  1.00  0.00    -0.268 OA
BRANCH  12  16
HETATM   16  C3  UNL     1      15.165  32.908  -6.976  1.00  0.00     0.132 A 
HETATM   17  O1  UNL     1      14.511  32.481  -5.894  1.00  0.00    -0.310 OA
HETATM   18  C2  UNL     1      14.515  31.198  -5.780  1.00  0.00     0.067 A 
HETATM   19  C1  UNL     1      13.859  30.424  -4.661  1.00  0.00     0.078 C 
HETATM   20  C12 UNL     1      15.209  30.661  -6.836  1.00  0.00     0.088 A 
HETATM   21  C11 UNL     1      15.606  31.774  -7.574  1.00  0.00     0.100 A 
HETATM   22  N6  UNL     1      16.358  31.686  -8.761  1.00  0.00    -0.098 NA
BRANCH  20  23
HETATM   23  C13 UNL     1      15.521  29.295  -7.203  1.00  0.00     0.256 C 
HETATM   24  O4  UNL     1      14.536  28.514  -7.500  1.00  0.00    -0.268 OA
HETATM   25  N7  UNL     1      16.779  28.685  -7.280  1.00  0.00    -0.357 N 
ATOM     26  H7  UNL     1      17.602  29.245  -7.060  1.00  0.00     0.162 HD
BRANCH  25  27
HETATM   27  C14 UNL     1      16.972  27.296  -7.657  1.00  0.00     0.123 C 
BRANCH  27  28
HETATM   28  C15 UNL     1      17.039  26.340  -6.522  1.00  0.00     0.022 C 
BRANCH  28  29
HETATM   29  C16 UNL     1      18.441  25.840  -6.253  1.00  0.00     0.028 C 
BRANCH  29  30
HETATM   30  C17 UNL     1      18.967  26.410  -4.941  1.00  0.00     0.164 C 
BRANCH  30  31
HETATM   31  O5  UNL     1      18.830  27.787  -4.902  1.00  0.00    -0.401 OA
ATOM     32  H5  UNL     1      18.749  28.098  -4.008  1.00  0.00     0.209 HD
ENDBRANCH  30  31
ENDBRANCH  29  30
ENDBRANCH  28  29
ENDBRANCH  27  28
ENDBRANCH  25  27
ENDBRANCH  20  23
ENDBRANCH  12  16
BRANCH  14  33
HETATM   33  O3  UNL     1      12.999  35.211  -7.299  1.00  0.00    -0.339 OA
ATOM     34  H3  UNL     1      12.423  35.817  -6.848  1.00  0.00     0.220 HD
ENDBRANCH  14  33
ENDBRANCH   1  10
BRANCH   9  35
HETATM   35  N5  UNL     1      16.938  38.893  -6.534  1.00  0.00    -0.384 N 
ATOM     36  H52 UNL     1      16.196  38.409  -6.029  1.00  0.00     0.157 HD
ATOM     37  H51 UNL     1      17.048  39.824  -6.131  1.00  0.00     0.157 HD
ENDBRANCH   9  35
TORSDOF 10
ENDMDL
MODEL 3
REMARK VINA RESULT: -8.989027419      4.586      9.159
REMARK  10 active torsions:
REMARK  status: ('A' for Active; 'I' for Inactive)
REMARK    1  A    between atoms: C3_4  and  C4_5 
REMARK    2  A    between atoms: C5_8  and  C6_9 
REMARK    3  A    between atoms: C9_17  and  N5_18 
REMARK    4  A    between atoms: C10_22  and  O3_23 
REMARK    5  A    between atoms: C12_27  and  C13_28 
REMARK       I    between atoms: C13_28  and  N7_30 
REMARK    6  A    between atoms: N7_30  and  C14_32 
REMARK    7  A    between atoms: C14_32  and  C15_33 
REMARK    8  A    between atoms: C15_33  and  C16_34 
REMARK    9  A    between atoms: C16_34  and  C17_35 
REMARK   10  A    between atoms: C17_35  and  O5_36 
ROOT
HETATM    1  C6  UNL     1      15.031  30.568  -8.235  1.00  0.00     0.099 A 
HETATM    2  C7  UNL     1      16.237  30.979  -8.757  1.00  0.00     0.146 A 
HETATM    3  C8  UNL     1      16.437  32.227  -9.425  1.00  0.00     0.120 C 
HETATM    4  N2  UNL     1      16.584  33.251  -9.960  1.00  0.00    -0.190 NA
HETATM    5  N3  UNL     1      17.175  30.024  -8.535  1.00  0.00    -0.288 N 
ATOM      6  H3  UNL     1      18.155  30.063  -8.814  1.00  0.00     0.188 HD
HETATM    7  N4  UNL     1      16.582  29.034  -7.890  1.00  0.00    -0.284 N 
ATOM      8  H4  UNL     1      17.039  28.174  -7.587  1.00  0.00     0.188 HD
HETATM    9  C9  UNL     1      15.278  29.334  -7.692  1.00  0.00     0.131 A 
ENDROOT
BRANCH   1  10
HETATM   10  C5  UNL     1      13.752  31.264  -8.240  1.00  0.00     0.168 A 
HETATM   11  N1  UNL     1      13.476  32.327  -7.466  1.00  0.00    -0.329 N 
HETATM   12  C4  UNL     1      12.192  32.759  -7.698  1.00  0.00     0.129 A 
ATOM     13  H1  UNL     1      14.125  32.751  -6.803  1.00  0.00     0.168 HD
HETATM   14  C10 UNL     1      11.727  31.904  -8.642  1.00  0.00     0.215 A 
HETATM   15  O2  UNL     1      12.681  31.024  -8.944  1.00  0.00    -0.268 OA
BRANCH  12  16
HETATM   16  C3  UNL     1      11.587  33.894  -7.015  1.00  0.00     0.132 A 
HETATM   17  O1  UNL     1      10.763  34.742  -7.632  1.00  0.00    -0.310 OA
HETATM   18  C2  UNL     1      10.334  35.678  -6.855  1.00  0.00     0.067 A 
HETATM   19  C1  UNL     1       9.391  36.783  -7.267  1.00  0.00     0.078 C 
HETATM   20  C12 UNL     1      10.876  35.500  -5.607  1.00  0.00     0.088 A 
HETATM   21  C11 UNL     1      11.664  34.360  -5.744  1.00  0.00     0.100 A 
HETATM   22  N6  UNL     1      12.417  33.808  -4.689  1.00  0.00    -0.098 NA
BRANCH  20  23
HETATM   23  C13 UNL     1      10.739  36.244  -4.371  1.00  0.00     0.256 C 
HETATM   24  O4  UNL     1      11.331  37.390  -4.292  1.00  0.00    -0.268 OA
HETATM   25  N7  UNL     1      10.036  35.882  -3.216  1.00  0.00    -0.357 N 
ATOM     26  H7  UNL     1       9.543  34.989  -3.210  1.00  0.00     0.162 HD
BRANCH  25  27
HETATM   27  C14 UNL     1       9.972  36.711  -2.026  1.00  0.00     0.123 C 
BRANCH  27  28
HETATM   28  C15 UNL     1       8.696  37.450  -1.842  1.00  0.00     0.022 C 
BRANCH  28  29
HETATM   29  C16 UNL     1       8.828  38.933  -2.103  1.00  0.00     0.028 C 
BRANCH  29  30
HETATM   30  C17 UNL     1       8.369  39.268  -3.517  1.00  0.00     0.164 C 
BRANCH  30  31
HETATM   31  O5  UNL     1       9.440  39.618  -4.322  1.00  0.00    -0.401 OA
ATOM     32  H5  UNL     1       9.175  40.226  -5.001  1.00  0.00     0.209 HD
ENDBRANCH  30  31
ENDBRANCH  29  30
ENDBRANCH  28  29
ENDBRANCH  27  28
ENDBRANCH  25  27
ENDBRANCH  20  23
ENDBRANCH  12  16
BRANCH  14  33
HETATM   33  O3  UNL     1      10.471  31.904  -9.227  1.00  0.00    -0.339 OA
ATOM     34  H3  UNL     1      10.132  31.284  -9.862  1.00  0.00     0.220 HD
ENDBRANCH  14  33
ENDBRANCH   1  10
BRANCH   9  35
HETATM   35  N5  UNL     1      14.453  28.557  -7.092  1.00  0.00    -0.384 N 
ATOM     36  H52 UNL     1      13.491  28.814  -6.874  1.00  0.00     0.157 HD
ATOM     37  H51 UNL     1      14.618  27.609  -6.753  1.00  0.00     0.157 HD
ENDBRANCH   9  35
TORSDOF 10
ENDMDL
MODEL 4
REMARK VINA RESULT: -8.863730792      4.444      8.955
REMARK  10 active torsions:
REMARK  status: ('A' for Active; 'I' for Inactive)
REMARK    1  A    between atoms: C3_4  and  C4_5 
REMARK    2  A    between atoms: C5_8  and  C6_9 
REMARK    3  A    between atoms: C9_17  and  N5_18 
REMARK    4  A    between atoms: C10_22  and  O3_23 
REMARK    5  A    between atoms: C12_27  and  C13_28 
REMARK       I    between atoms: C13_28  and  N7_30 
REMARK    6  A    between atoms: N7_30  and  C14_32 
REMARK    7  A    between atoms: C14_32  and  C15_33 
REMARK    8  A    between atoms: C15_33  and  C16_34 
REMARK    9  A    between atoms: C16_34  and  C17_35 
REMARK   10  A    between atoms: C17_35  and  O5_36 
ROOT
HETATM    1  C6  UNL     1      15.103  30.965  -8.656  1.00  0.00     0.099 A 
HETATM    2  C7  UNL     1      16.285  31.571  -9.023  1.00  0.00     0.146 A 
HETATM    3  C8  UNL     1      16.446  32.982  -9.179  1.00  0.00     0.120 C 
HETATM    4  N2  UNL     1      16.562  34.136  -9.297  1.00  0.00    -0.190 NA
HETATM    5  N3  UNL     1      17.240  30.625  -9.203  1.00  0.00    -0.288 N 
ATOM      6  H3  UNL     1      18.208  30.788  -9.477  1.00  0.00     0.188 HD
HETATM    7  N4  UNL     1      16.682  29.451  -8.958  1.00  0.00    -0.284 N 
ATOM      8  H4  UNL     1      17.159  28.552  -9.013  1.00  0.00     0.188 HD
HETATM    9  C9  UNL     1      15.384  29.624  -8.622  1.00  0.00     0.131 A 
ENDROOT
BRANCH   1  10
HETATM   10  C5  UNL     1      13.817  31.582  -8.360  1.00  0.00     0.168 A 
HETATM   11  N1  UNL     1      13.569  32.298  -7.252  1.00  0.00    -0.329 N 
HETATM   12  C4  UNL     1      12.270  32.747  -7.261  1.00  0.00     0.129 A 
ATOM     13  H1  UNL     1      14.246  32.483  -6.511  1.00  0.00     0.168 HD
HETATM   14  C10 UNL     1      11.767  32.263  -8.423  1.00  0.00     0.215 A 
HETATM   15  O2  UNL     1      12.714  31.572  -9.056  1.00  0.00    -0.268 OA
BRANCH  12  16
HETATM   16  C3  UNL     1      11.688  33.554  -6.197  1.00  0.00     0.132 A 
HETATM   17  O1  UNL     1      11.909  33.302  -4.906  1.00  0.00    -0.310 OA
HETATM   18  C2  UNL     1      11.306  34.129  -4.124  1.00  0.00     0.067 A 
HETATM   19  C1  UNL     1      11.365  34.097  -2.615  1.00  0.00     0.078 C 
HETATM   20  C12 UNL     1      10.608  35.032  -4.886  1.00  0.00     0.088 A 
HETATM   21  C11 UNL     1      10.873  34.638  -6.196  1.00  0.00     0.100 A 
HETATM   22  N6  UNL     1      10.348  35.298  -7.323  1.00  0.00    -0.098 NA
BRANCH  20  23
HETATM   23  C13 UNL     1       9.768  36.159  -4.536  1.00  0.00     0.256 C 
HETATM   24  O4  UNL     1       8.618  35.908  -4.003  1.00  0.00    -0.268 OA
HETATM   25  N7  UNL     1      10.036  37.523  -4.702  1.00  0.00    -0.357 N 
ATOM     26  H7  UNL     1      10.928  37.793  -5.116  1.00  0.00     0.162 HD
BRANCH  25  27
HETATM   27  C14 UNL     1       9.110  38.573  -4.316  1.00  0.00     0.123 C 
BRANCH  27  28
HETATM   28  C15 UNL     1       8.629  39.429  -5.431  1.00  0.00     0.022 C 
BRANCH  28  29
HETATM   29  C16 UNL     1       9.751  40.116  -6.175  1.00  0.00     0.028 C 
BRANCH  29  30
HETATM   30  C17 UNL     1       9.807  39.635  -7.620  1.00  0.00     0.164 C 
BRANCH  30  31
HETATM   31  O5  UNL     1      10.135  38.292  -7.689  1.00  0.00    -0.401 OA
ATOM     32  H5  UNL     1      10.297  38.024  -8.585  1.00  0.00     0.209 HD
ENDBRANCH  30  31
ENDBRANCH  29  30
ENDBRANCH  28  29
ENDBRANCH  27  28
ENDBRANCH  25  27
ENDBRANCH  20  23
ENDBRANCH  12  16
BRANCH  14  33
HETATM   33  O3  UNL     1      10.482  32.431  -8.915  1.00  0.00    -0.339 OA
ATOM     34  H3  UNL     1       9.763  32.891  -8.498  1.00  0.00     0.220 HD
ENDBRANCH  14  33
ENDBRANCH   1  10
BRANCH   9  35
HETATM   35  N5  UNL     1      14.590  28.659  -8.332  1.00  0.00    -0.384 N 
ATOM     36  H52 UNL     1      14.291  28.439  -7.382  1.00  0.00     0.157 HD
ATOM     37  H51 UNL     1      14.154  27.992  -8.969  1.00  0.00     0.157 HD
ENDBRANCH   9  35
TORSDOF 10
ENDMDL
MODEL 5
REMARK VINA RESULT: -8.844685286      3.895      5.211
REMARK  10 active torsions:
REMARK  status: ('A' for Active; 'I' for Inactive)
REMARK    1  A    between atoms: C3_4  and  C4_5 
REMARK    2  A    between atoms: C5_8  and  C6_9 
REMARK    3  A    between atoms: C9_17  and  N5_18 
REMARK    4  A    between atoms: C10_22  and  O3_23 
REMARK    5  A    between atoms: C12_27  and  C13_28 
REMARK       I    between atoms: C13_28  and  N7_30 
REMARK    6  A    between atoms: N7_30  and  C14_32 
REMARK    7  A    between atoms: C14_32  and  C15_33 
REMARK    8  A    between atoms: C15_33  and  C16_34 
REMARK    9  A    between atoms: C16_34  and  C17_35 
REMARK   10  A    between atoms: C17_35  and  O5_36 
ROOT
HETATM    1  C6  UNL     1      10.826  35.072  -5.733  1.00  0.00     0.099 A 
HETATM    2  C7  UNL     1      10.212  34.905  -4.512  1.00  0.00     0.146 A 
HETATM    3  C8  UNL     1      10.850  34.337  -3.366  1.00  0.00     0.120 C 
HETATM    4  N2  UNL     1      11.387  33.878  -2.440  1.00  0.00    -0.190 NA
HETATM    5  N3  UNL     1       8.936  35.359  -4.583  1.00  0.00    -0.288 N 
ATOM      6  H3  UNL     1       8.251  35.358  -3.827  1.00  0.00     0.188 HD
HETATM    7  N4  UNL     1       8.744  35.803  -5.814  1.00  0.00    -0.284 N 
ATOM      8  H4  UNL     1       7.875  36.205  -6.164  1.00  0.00     0.188 HD
HETATM    9  C9  UNL     1       9.875  35.643  -6.538  1.00  0.00     0.131 A 
ENDROOT
BRANCH   1  10
HETATM   10  C5  UNL     1      12.188  34.731  -6.122  1.00  0.00     0.168 A 
HETATM   11  N1  UNL     1      12.589  33.487  -6.428  1.00  0.00    -0.329 N 
HETATM   12  C4  UNL     1      13.924  33.487  -6.754  1.00  0.00     0.129 A 
ATOM     13  H1  UNL     1      11.990  32.661  -6.420  1.00  0.00     0.168 HD
HETATM   14  C10 UNL     1      14.289  34.787  -6.626  1.00  0.00     0.215 A 
HETATM   15  O2  UNL     1      13.232  35.504  -6.248  1.00  0.00    -0.268 OA
BRANCH  12  16
HETATM   16  C3  UNL     1      14.662  32.290  -7.134  1.00  0.00     0.132 A 
HETATM   17  O1  UNL     1      15.488  32.262  -8.181  1.00  0.00    -0.310 OA
HETATM   18  C2  UNL     1      16.045  31.113  -8.349  1.00  0.00     0.067 A 
HETATM   19  C1  UNL     1      17.025  30.776  -9.448  1.00  0.00     0.078 C 
HETATM   20  C12 UNL     1      15.601  30.258  -7.371  1.00  0.00     0.088 A 
HETATM   21  C11 UNL     1      14.727  31.038  -6.618  1.00  0.00     0.100 A 
HETATM   22  N6  UNL     1      14.032  30.554  -5.494  1.00  0.00    -0.098 NA
BRANCH  20  23
HETATM   23  C13 UNL     1      15.895  28.868  -7.086  1.00  0.00     0.256 C 
HETATM   24  O4  UNL     1      14.940  28.011  -7.234  1.00  0.00    -0.268 OA
HETATM   25  N7  UNL     1      17.105  28.309  -6.656  1.00  0.00    -0.357 N 
ATOM     26  H7  UNL     1      17.902  28.930  -6.520  1.00  0.00     0.162 HD
BRANCH  25  27
HETATM   27  C14 UNL     1      17.282  26.893  -6.395  1.00  0.00     0.123 C 
BRANCH  27  28
HETATM   28  C15 UNL     1      18.325  26.565  -5.388  1.00  0.00     0.022 C 
BRANCH  28  29
HETATM   29  C16 UNL     1      18.728  25.108  -5.409  1.00  0.00     0.028 C 
BRANCH  29  30
HETATM   30  C17 UNL     1      19.986  24.890  -4.575  1.00  0.00     0.164 C 
BRANCH  30  31
HETATM   31  O5  UNL     1      20.501  23.620  -4.767  1.00  0.00    -0.401 OA
ATOM     32  H5  UNL     1      21.443  23.609  -4.646  1.00  0.00     0.209 HD
ENDBRANCH  30  31
ENDBRANCH  29  30
ENDBRANCH  28  29
ENDBRANCH  27  28
ENDBRANCH  25  27
ENDBRANCH  20  23
ENDBRANCH  12  16
BRANCH  14  33
HETATM   33  O3  UNL     1      15.546  35.329  -6.841  1.00  0.00    -0.339 OA
ATOM     34  H3  UNL     1      15.823  36.222  -6.674  1.00  0.00     0.220 HD
ENDBRANCH  14  33
ENDBRANCH   1  10
BRANCH   9  35
HETATM   35  N5  UNL     1       9.984  35.984  -7.769  1.00  0.00    -0.384 N 
ATOM     36  H52 UNL     1      10.878  36.100  -8.247  1.00  0.00     0.157 HD
ATOM     37  H51 UNL     1       9.236  36.184  -8.434  1.00  0.00     0.157 HD
ENDBRANCH   9  35
TORSDOF 10
ENDMDL
