MODEL 1
REMARK VINA RESULT: -8.635706380      0.000      0.000
REMARK  14 active torsions:
REMARK  status: ('A' for Active; 'I' for Inactive)
REMARK    1  A    between atoms: C1_2  and  O2_4 
REMARK    2  A    between atoms: O2_4  and  C2_5 
REMARK    3  A    between atoms: C2_5  and  C3_6 
REMARK    4  A    between atoms: C6_9  and  N2_10 
REMARK    5  A    between atoms: N2_10  and  C7_12 
REMARK    6  A    between atoms: C8_14  and  O4_15 
REMARK    7  A    between atoms: C9_17  and  N3_18 
REMARK    8  A    between atoms: N3_18  and  C10_20 
REMARK    9  A    between atoms: C10_20  and  C11_21 
REMARK   10  A    between atoms: C11_21  and  C12_22 
REMARK   11  A    between atoms: C12_22  and  C13_23 
REMARK   12  A    between atoms: C13_23  and  O5_24 
REMARK   13  A    between atoms: C13_23  and  N4_26 
REMARK   14  A    between atoms: N4_26  and  O6_28 
ROOT
HETATM    1  C3  UNL     1      15.530  35.367  -7.776  1.00  0.00     0.036 A 
HETATM    2  C4  UNL     1      14.457  34.412  -7.605  1.00  0.00    -0.002 A 
HETATM    3  C5  UNL     1      13.427  34.633  -6.682  1.00  0.00     0.046 A 
HETATM    4  C6  UNL     1      12.370  33.775  -6.507  1.00  0.00     0.070 A 
HETATM    5  C8  UNL     1      12.367  32.624  -7.322  1.00  0.00     0.120 A 
HETATM    6  C9  UNL     1      13.359  32.368  -8.239  1.00  0.00     0.079 A 
HETATM    7  C14 UNL     1      14.411  33.254  -8.397  1.00  0.00     0.057 A 
HETATM    8  C15 UNL     1      15.473  33.070  -9.374  1.00  0.00     0.216 A 
HETATM    9  O7  UNL     1      15.469  32.050 -10.111  1.00  0.00    -0.285 OA
HETATM   10  C16 UNL     1      16.576  34.026  -9.567  1.00  0.00     0.142 A 
HETATM   11  N5  UNL     1      17.705  34.428 -10.176  1.00  0.00    -0.254 N 
ATOM     12  H5  UNL     1      18.312  34.072 -10.914  1.00  0.00     0.195 HD
HETATM   13  O8  UNL     1      17.676  35.487  -9.393  1.00  0.00    -0.234 OA
HETATM   14  C17 UNL     1      16.579  35.133  -8.775  1.00  0.00     0.144 A 
ENDROOT
BRANCH   6  15
HETATM   15  N3  UNL     1      13.345  31.189  -9.038  1.00  0.00    -0.387 N 
ATOM     16  H3  UNL     1      13.151  31.324 -10.031  1.00  0.00     0.159 HD
BRANCH  15  17
HETATM   17  C10 UNL     1      13.566  29.855  -8.628  1.00  0.00     0.120 C 
BRANCH  17  18
HETATM   18  C11 UNL     1      14.709  29.484  -7.793  1.00  0.00     0.027 C 
BRANCH  18  19
HETATM   19  C12 UNL     1      14.583  29.125  -6.379  1.00  0.00     0.087 C 
BRANCH  19  20
HETATM   20  C13 UNL     1      14.398  30.268  -5.479  1.00  0.00     0.135 C 
BRANCH  20  21
HETATM   21  O5  UNL     1      13.246  30.499  -4.791  1.00  0.00    -0.348 OA
ATOM     22  H5  UNL     1      12.604  31.149  -5.051  1.00  0.00     0.219 HD
ENDBRANCH  20  21
BRANCH  20  23
HETATM   23  N4  UNL     1      15.398  31.098  -5.338  1.00  0.00    -0.251 N 
ATOM     24  H4  UNL     1      16.334  30.795  -5.609  1.00  0.00     0.196 HD
BRANCH  23  25
HETATM   25  O6  UNL     1      15.230  32.366  -4.836  1.00  0.00    -0.288 OA
ATOM     26  H6  UNL     1      15.928  33.009  -4.842  1.00  0.00     0.244 HD
ENDBRANCH  23  25
ENDBRANCH  20  23
ENDBRANCH  19  20
ENDBRANCH  18  19
ENDBRANCH  17  18
ENDBRANCH  15  17
ENDBRANCH   6  15
BRANCH   5  27
HETATM   27  O4  UNL     1      11.324  31.781  -7.153  1.00  0.00    -0.356 OA
ATOM     28  H4  UNL     1      11.501  30.992  -6.656  1.00  0.00     0.218 HD
ENDBRANCH   5  27
BRANCH   4  29
HETATM   29  N2  UNL     1      11.317  33.977  -5.582  1.00  0.00    -0.332 N 
ATOM     30  H2  UNL     1      11.005  33.144  -5.082  1.00  0.00     0.168 HD
BRANCH  29  31
HETATM   31  C7  UNL     1      10.651  35.154  -5.262  1.00  0.00     0.353 C 
HETATM   32  O3  UNL     1      11.032  36.001  -4.450  1.00  0.00    -0.283 OA
ENDBRANCH  29  31
ENDBRANCH   4  29
BRANCH   1  33
HETATM   33  C2  UNL     1      15.588  36.458  -7.038  1.00  0.00     0.162 C 
BRANCH  33  34
HETATM   34  O2  UNL     1      16.417  36.432  -5.891  1.00  0.00    -0.275 OA
BRANCH  34  35
HETATM   35  C1  UNL     1      17.517  37.257  -5.901  1.00  0.00     0.377 C 
HETATM   36  N1  UNL     1      17.507  38.523  -5.261  1.00  0.00    -0.032 NA
HETATM   37  O1  UNL     1      18.565  36.869  -6.501  1.00  0.00    -0.242 OA
ENDBRANCH  34  35
ENDBRANCH  33  34
ENDBRANCH   1  33
TORSDOF 14
ENDMDL
MODEL 2
REMARK VINA RESULT: -8.558042374      0.892      1.105
REMARK  14 active torsions:
REMARK  status: ('A' for Active; 'I' for Inactive)
REMARK    1  A    between atoms: C1_2  and  O2_4 
REMARK    2  A    between atoms: O2_4  and  C2_5 
REMARK    3  A    between atoms: C2_5  and  C3_6 
REMARK    4  A    between atoms: C6_9  and  N2_10 
REMARK    5  A    between atoms: N2_10  and  C7_12 
REMARK    6  A    between atoms: C8_14  and  O4_15 
REMARK    7  A    between atoms: C9_17  and  N3_18 
REMARK    8  A    between atoms: N3_18  and  C10_20 
REMARK    9  A    between atoms: C10_20  and  C11_21 
REMARK   10  A    between atoms: C11_21  and  C12_22 
REMARK   11  A    between atoms: C12_22  and  C13_23 
REMARK   12  A    between atoms: C13_23  and  O5_24 
REMARK   13  A    between atoms: C13_23  and  N4_26 
REMARK   14  A    between atoms: N4_26  and  O6_28 
ROOT
HETATM    1  C3  UNL     1      15.918  35.710  -7.697  1.00  0.00     0.036 A 
HETATM    2  C4  UNL     1      14.955  34.630  -7.653  1.00  0.00    -0.002 A 
HETATM    3  C5  UNL     1      13.868  34.661  -6.770  1.00  0.00     0.046 A 
HETATM    4  C6  UNL     1      12.910  33.680  -6.713  1.00  0.00     0.070 A 
HETATM    5  C8  UNL     1      13.075  32.603  -7.609  1.00  0.00     0.120 A 
HETATM    6  C9  UNL     1      14.129  32.532  -8.490  1.00  0.00     0.079 A 
HETATM    7  C14 UNL     1      15.078  33.540  -8.529  1.00  0.00     0.057 A 
HETATM    8  C15 UNL     1      16.194  33.554  -9.461  1.00  0.00     0.216 A 
HETATM    9  O7  UNL     1      16.340  32.601 -10.269  1.00  0.00    -0.285 OA
HETATM   10  C16 UNL     1      17.187  34.640  -9.525  1.00  0.00     0.142 A 
HETATM   11  N5  UNL     1      18.287  35.211 -10.044  1.00  0.00    -0.254 N 
ATOM     12  H5  UNL     1      18.963  34.984 -10.774  1.00  0.00     0.195 HD
HETATM   13  O8  UNL     1      18.103  36.196  -9.188  1.00  0.00    -0.234 OA
HETATM   14  C17 UNL     1      17.028  35.674  -8.655  1.00  0.00     0.144 A 
ENDROOT
BRANCH   6  15
HETATM   15  N3  UNL     1      14.285  31.426  -9.374  1.00  0.00    -0.387 N 
ATOM     16  H3  UNL     1      14.044  31.596 -10.350  1.00  0.00     0.159 HD
BRANCH  15  17
HETATM   17  C10 UNL     1      14.733  30.121  -9.066  1.00  0.00     0.120 C 
BRANCH  17  18
HETATM   18  C11 UNL     1      15.800  29.881  -8.094  1.00  0.00     0.027 C 
BRANCH  18  19
HETATM   19  C12 UNL     1      15.557  29.332  -6.758  1.00  0.00     0.087 C 
BRANCH  19  20
HETATM   20  C13 UNL     1      14.951  30.279  -5.817  1.00  0.00     0.135 C 
BRANCH  20  21
HETATM   21  O5  UNL     1      15.538  31.453  -5.454  1.00  0.00    -0.348 OA
ATOM     22  H5  UNL     1      15.272  31.957  -4.694  1.00  0.00     0.219 HD
ENDBRANCH  20  21
BRANCH  20  23
HETATM   23  N4  UNL     1      13.787  29.970  -5.308  1.00  0.00    -0.251 N 
ATOM     24  H4  UNL     1      13.467  29.003  -5.359  1.00  0.00     0.196 HD
BRANCH  23  25
HETATM   25  O6  UNL     1      12.980  30.907  -4.708  1.00  0.00    -0.288 OA
ATOM     26  H6  UNL     1      12.159  30.673  -4.291  1.00  0.00     0.244 HD
ENDBRANCH  23  25
ENDBRANCH  20  23
ENDBRANCH  19  20
ENDBRANCH  18  19
ENDBRANCH  17  18
ENDBRANCH  15  17
ENDBRANCH   6  15
BRANCH   5  27
HETATM   27  O4  UNL     1      12.130  31.638  -7.557  1.00  0.00    -0.356 OA
ATOM     28  H4  UNL     1      11.300  31.888  -7.169  1.00  0.00     0.218 HD
ENDBRANCH   5  27
BRANCH   4  29
HETATM   29  N2  UNL     1      11.803  33.690  -5.832  1.00  0.00    -0.332 N 
ATOM     30  H2  UNL     1      11.627  32.815  -5.336  1.00  0.00     0.168 HD
BRANCH  29  31
HETATM   31  C7  UNL     1      10.922  34.727  -5.550  1.00  0.00     0.353 C 
HETATM   32  O3  UNL     1      11.110  35.631  -4.732  1.00  0.00    -0.283 OA
ENDBRANCH  29  31
ENDBRANCH   4  29
BRANCH   1  33
HETATM   33  C2  UNL     1      15.817  36.739  -6.880  1.00  0.00     0.162 C 
BRANCH  33  34
HETATM   34  O2  UNL     1      16.571  36.703  -5.682  1.00  0.00    -0.275 OA
BRANCH  34  35
HETATM   35  C1  UNL     1      17.417  37.761  -5.448  1.00  0.00     0.377 C 
HETATM   36  N1  UNL     1      17.472  38.410  -4.188  1.00  0.00    -0.032 NA
HETATM   37  O1  UNL     1      18.166  38.163  -6.390  1.00  0.00    -0.242 OA
ENDBRANCH  34  35
ENDBRANCH  33  34
ENDBRANCH   1  33
TORSDOF 14
ENDMDL
MODEL 3
REMARK VINA RESULT: -8.550733258      2.775      5.181
REMARK  14 active torsions:
REMARK  status: ('A' for Active; 'I' for Inactive)
REMARK    1  A    between atoms: C1_2  and  O2_4 
REMARK    2  A    between atoms: O2_4  and  C2_5 
REMARK    3  A    between atoms: C2_5  and  C3_6 
REMARK    4  A    between atoms: C6_9  and  N2_10 
REMARK    5  A    between atoms: N2_10  and  C7_12 
REMARK    6  A    between atoms: C8_14  and  O4_15 
REMARK    7  A    between atoms: C9_17  and  N3_18 
REMARK    8  A    between atoms: N3_18  and  C10_20 
REMARK    9  A    between atoms: C10_20  and  C11_21 
REMARK   10  A    between atoms: C11_21  and  C12_22 
REMARK   11  A    between atoms: C12_22  and  C13_23 
REMARK   12  A    between atoms: C13_23  and  O5_24 
REMARK   13  A    between atoms: C13_23  and  N4_26 
REMARK   14  A    between atoms: N4_26  and  O6_28 
ROOT
HETATM    1  C3  UNL     1      14.186  33.693  -6.804  1.00  0.00     0.036 A 
HETATM    2  C4  UNL     1      15.028  33.005  -7.759  1.00  0.00    -0.002 A 
HETATM    3  C5  UNL     1      15.617  33.686  -8.832  1.00  0.00     0.046 A 
HETATM    4  C6  UNL     1      16.449  33.087  -9.744  1.00  0.00     0.070 A 
HETATM    5  C8  UNL     1      16.692  31.711  -9.548  1.00  0.00     0.120 A 
HETATM    6  C9  UNL     1      16.132  31.004  -8.510  1.00  0.00     0.079 A 
HETATM    7  C14 UNL     1      15.299  31.637  -7.601  1.00  0.00     0.057 A 
HETATM    8  C15 UNL     1      14.706  30.965  -6.456  1.00  0.00     0.216 A 
HETATM    9  O7  UNL     1      14.927  29.740  -6.271  1.00  0.00    -0.285 OA
HETATM   10  C16 UNL     1      13.845  31.642  -5.471  1.00  0.00     0.142 A 
HETATM   11  N5  UNL     1      13.087  31.643  -4.362  1.00  0.00    -0.254 N 
ATOM     12  H5  UNL     1      12.800  30.958  -3.662  1.00  0.00     0.195 HD
HETATM   13  O8  UNL     1      12.880  32.926  -4.582  1.00  0.00    -0.234 OA
HETATM   14  C17 UNL     1      13.609  32.968  -5.667  1.00  0.00     0.144 A 
ENDROOT
BRANCH   6  15
HETATM   15  N3  UNL     1      16.377  29.611  -8.342  1.00  0.00    -0.387 N 
ATOM     16  H3  UNL     1      17.190  29.365  -7.778  1.00  0.00     0.159 HD
BRANCH  15  17
HETATM   17  C10 UNL     1      15.632  28.527  -8.860  1.00  0.00     0.120 C 
BRANCH  17  18
HETATM   18  C11 UNL     1      15.910  27.144  -8.471  1.00  0.00     0.027 C 
BRANCH  18  19
HETATM   19  C12 UNL     1      15.849  26.676  -7.085  1.00  0.00     0.087 C 
BRANCH  19  20
HETATM   20  C13 UNL     1      17.072  26.915  -6.311  1.00  0.00     0.135 C 
BRANCH  20  21
HETATM   21  O5  UNL     1      17.384  28.121  -5.761  1.00  0.00    -0.348 OA
ATOM     22  H5  UNL     1      18.275  28.398  -5.582  1.00  0.00     0.219 HD
ENDBRANCH  20  21
BRANCH  20  23
HETATM   23  N4  UNL     1      17.893  25.913  -6.147  1.00  0.00    -0.251 N 
ATOM     24  H4  UNL     1      17.531  24.961  -6.215  1.00  0.00     0.196 HD
BRANCH  23  25
HETATM   25  O6  UNL     1      19.230  26.098  -5.884  1.00  0.00    -0.288 OA
ATOM     26  H6  UNL     1      19.640  26.953  -5.932  1.00  0.00     0.244 HD
ENDBRANCH  23  25
ENDBRANCH  20  23
ENDBRANCH  19  20
ENDBRANCH  18  19
ENDBRANCH  17  18
ENDBRANCH  15  17
ENDBRANCH   6  15
BRANCH   5  27
HETATM   27  O4  UNL     1      17.515  31.120 -10.443  1.00  0.00    -0.356 OA
ATOM     28  H4  UNL     1      17.748  30.218 -10.263  1.00  0.00     0.218 HD
ENDBRANCH   5  27
BRANCH   4  29
HETATM   29  N2  UNL     1      17.057  33.753 -10.835  1.00  0.00    -0.332 N 
ATOM     30  H2  UNL     1      16.474  33.859 -11.666  1.00  0.00     0.168 HD
BRANCH  29  31
HETATM   31  C7  UNL     1      18.338  34.282 -10.929  1.00  0.00     0.353 C 
HETATM   32  O3  UNL     1      19.366  33.644 -11.166  1.00  0.00    -0.283 OA
ENDBRANCH  29  31
ENDBRANCH   4  29
BRANCH   1  33
HETATM   33  C2  UNL     1      13.919  34.977  -6.939  1.00  0.00     0.162 C 
BRANCH  33  34
HETATM   34  O2  UNL     1      14.631  35.885  -6.119  1.00  0.00    -0.275 OA
BRANCH  34  35
HETATM   35  C1  UNL     1      15.653  36.588  -6.711  1.00  0.00     0.377 C 
HETATM   36  N1  UNL     1      16.970  36.578  -6.183  1.00  0.00    -0.032 NA
HETATM   37  O1  UNL     1      15.405  37.262  -7.756  1.00  0.00    -0.242 OA
ENDBRANCH  34  35
ENDBRANCH  33  34
ENDBRANCH   1  33
TORSDOF 14
ENDMDL
MODEL 4
REMARK VINA RESULT: -8.513844798      1.763      2.033
REMARK  14 active torsions:
REMARK  status: ('A' for Active; 'I' for Inactive)
REMARK    1  A    between atoms: C1_2  and  O2_4 
REMARK    2  A    between atoms: O2_4  and  C2_5 
REMARK    3  A    between atoms: C2_5  and  C3_6 
REMARK    4  A    between atoms: C6_9  and  N2_10 
REMARK    5  A    between atoms: N2_10  and  C7_12 
REMARK    6  A    between atoms: C8_14  and  O4_15 
REMARK    7  A    between atoms: C9_17  and  N3_18 
REMARK    8  A    between atoms: N3_18  and  C10_20 
REMARK    9  A    between atoms: C10_20  and  C11_21 
REMARK   10  A    between atoms: C11_21  and  C12_22 
REMARK   11  A    between atoms: C12_22  and  C13_23 
REMARK   12  A    between atoms: C13_23  and  O5_24 
REMARK   13  A    between atoms: C13_23  and  N4_26 
REMARK   14  A    between atoms: N4_26  and  O6_28 
ROOT
HETATM    1  C3  UNL     1      15.576  35.273  -7.743  1.00  0.00     0.036 A 
HETATM    2  C4  UNL     1      14.494  34.331  -7.554  1.00  0.00    -0.002 A 
HETATM    3  C5  UNL     1      13.473  34.572  -6.626  1.00  0.00     0.046 A 
HETATM    4  C6  UNL     1      12.409  33.727  -6.434  1.00  0.00     0.070 A 
HETATM    5  C8  UNL     1      12.389  32.566  -7.236  1.00  0.00     0.120 A 
HETATM    6  C9  UNL     1      13.372  32.290  -8.156  1.00  0.00     0.079 A 
HETATM    7  C14 UNL     1      14.432  33.164  -8.332  1.00  0.00     0.057 A 
HETATM    8  C15 UNL     1      15.485  32.959  -9.315  1.00  0.00     0.216 A 
HETATM    9  O7  UNL     1      15.466  31.930 -10.040  1.00  0.00    -0.285 OA
HETATM   10  C16 UNL     1      16.596  33.902  -9.526  1.00  0.00     0.142 A 
HETATM   11  N5  UNL     1      17.724  34.285 -10.147  1.00  0.00    -0.254 N 
ATOM     12  H5  UNL     1      18.323  33.915 -10.886  1.00  0.00     0.195 HD
HETATM   13  O8  UNL     1      17.711  35.354  -9.376  1.00  0.00    -0.234 OA
HETATM   14  C17 UNL     1      16.615  35.018  -8.746  1.00  0.00     0.144 A 
ENDROOT
BRANCH   6  15
HETATM   15  N3  UNL     1      13.341  31.103  -8.942  1.00  0.00    -0.387 N 
ATOM     16  H3  UNL     1      13.076  31.221  -9.921  1.00  0.00     0.159 HD
BRANCH  15  17
HETATM   17  C10 UNL     1      13.631  29.780  -8.536  1.00  0.00     0.120 C 
BRANCH  17  18
HETATM   18  C11 UNL     1      14.380  29.496  -7.312  1.00  0.00     0.027 C 
BRANCH  18  19
HETATM   19  C12 UNL     1      14.688  28.138  -6.860  1.00  0.00     0.087 C 
BRANCH  19  20
HETATM   20  C13 UNL     1      16.068  27.713  -7.120  1.00  0.00     0.135 C 
BRANCH  20  21
HETATM   21  O5  UNL     1      17.138  28.176  -6.417  1.00  0.00    -0.348 OA
ATOM     22  H5  UNL     1      17.967  27.716  -6.365  1.00  0.00     0.219 HD
ENDBRANCH  20  21
BRANCH  20  23
HETATM   23  N4  UNL     1      16.266  26.844  -8.075  1.00  0.00    -0.251 N 
ATOM     24  H4  UNL     1      16.747  25.972  -7.857  1.00  0.00     0.196 HD
BRANCH  23  25
HETATM   25  O6  UNL     1      15.847  27.068  -9.365  1.00  0.00    -0.288 OA
ATOM     26  H6  UNL     1      14.957  26.891  -9.645  1.00  0.00     0.244 HD
ENDBRANCH  23  25
ENDBRANCH  20  23
ENDBRANCH  19  20
ENDBRANCH  18  19
ENDBRANCH  17  18
ENDBRANCH  15  17
ENDBRANCH   6  15
BRANCH   5  27
HETATM   27  O4  UNL     1      11.339  31.736  -7.050  1.00  0.00    -0.356 OA
ATOM     28  H4  UNL     1      11.545  30.811  -6.990  1.00  0.00     0.218 HD
ENDBRANCH   5  27
BRANCH   4  29
HETATM   29  N2  UNL     1      11.365  33.949  -5.504  1.00  0.00    -0.332 N 
ATOM     30  H2  UNL     1      11.096  33.141  -4.943  1.00  0.00     0.168 HD
BRANCH  29  31
HETATM   31  C7  UNL     1      10.657  35.119  -5.251  1.00  0.00     0.353 C 
HETATM   32  O3  UNL     1      11.068  36.085  -4.605  1.00  0.00    -0.283 OA
ENDBRANCH  29  31
ENDBRANCH   4  29
BRANCH   1  33
HETATM   33  C2  UNL     1      15.649  36.372  -7.018  1.00  0.00     0.162 C 
BRANCH  33  34
HETATM   34  O2  UNL     1      16.712  36.476  -6.088  1.00  0.00    -0.275 OA
BRANCH  34  35
HETATM   35  C1  UNL     1      17.618  37.489  -6.291  1.00  0.00     0.377 C 
HETATM   36  N1  UNL     1      18.877  37.253  -6.904  1.00  0.00    -0.032 NA
HETATM   37  O1  UNL     1      17.316  38.662  -5.918  1.00  0.00    -0.242 OA
ENDBRANCH  34  35
ENDBRANCH  33  34
ENDBRANCH   1  33
TORSDOF 14
ENDMDL
MODEL 5
REMARK VINA RESULT: -8.482421087      1.549      1.659
REMARK  14 active torsions:
REMARK  status: ('A' for Active; 'I' for Inactive)
REMARK    1  A    between atoms: C1_2  and  O2_4 
REMARK    2  A    between atoms: O2_4  and  C2_5 
REMARK    3  A    between atoms: C2_5  and  C3_6 
REMARK    4  A    between atoms: C6_9  and  N2_10 
REMARK    5  A    between atoms: N2_10  and  C7_12 
REMARK    6  A    between atoms: C8_14  and  O4_15 
REMARK    7  A    between atoms: C9_17  and  N3_18 
REMARK    8  A    between atoms: N3_18  and  C10_20 
REMARK    9  A    between atoms: C10_20  and  C11_21 
REMARK   10  A    between atoms: C11_21  and  C12_22 
REMARK   11  A    between atoms: C12_22  and  C13_23 
REMARK   12  A    between atoms: C13_23  and  O5_24 
REMARK   13  A    between atoms: C13_23  and  N4_26 
REMARK   14  A    between atoms: N4_26  and  O6_28 
ROOT
HETATM    1  C3  UNL     1      15.587  35.232  -7.755  1.00  0.00     0.036 A 
HETATM    2  C4  UNL     1      14.494  34.307  -7.550  1.00  0.00    -0.002 A 
HETATM    3  C5  UNL     1      13.488  34.566  -6.610  1.00  0.00     0.046 A 
HETATM    4  C6  UNL     1      12.414  33.738  -6.401  1.00  0.00     0.070 A 
HETATM    5  C8  UNL     1      12.366  32.575  -7.199  1.00  0.00     0.120 A 
HETATM    6  C9  UNL     1      13.334  32.281  -8.131  1.00  0.00     0.079 A 
HETATM    7  C14 UNL     1      14.404  33.139  -8.323  1.00  0.00     0.057 A 
HETATM    8  C15 UNL     1      15.441  32.915  -9.318  1.00  0.00     0.216 A 
HETATM    9  O7  UNL     1      15.398  31.884 -10.040  1.00  0.00    -0.285 OA
HETATM   10  C16 UNL     1      16.563  33.841  -9.547  1.00  0.00     0.142 A 
HETATM   11  N5  UNL     1      17.689  34.205 -10.184  1.00  0.00    -0.254 N 
ATOM     12  H5  UNL     1      18.273  33.824 -10.928  1.00  0.00     0.195 HD
HETATM   13  O8  UNL     1      17.702  35.277  -9.416  1.00  0.00    -0.234 OA
HETATM   14  C17 UNL     1      16.609  34.959  -8.771  1.00  0.00     0.144 A 
ENDROOT
BRANCH   6  15
HETATM   15  N3  UNL     1      13.275  31.092  -8.913  1.00  0.00    -0.387 N 
ATOM     16  H3  UNL     1      12.945  31.203  -9.872  1.00  0.00     0.159 HD
BRANCH  15  17
HETATM   17  C10 UNL     1      13.617  29.776  -8.525  1.00  0.00     0.120 C 
BRANCH  17  18
HETATM   18  C11 UNL     1      14.153  29.478  -7.197  1.00  0.00     0.027 C 
BRANCH  18  19
HETATM   19  C12 UNL     1      14.777  28.199  -6.855  1.00  0.00     0.087 C 
BRANCH  19  20
HETATM   20  C13 UNL     1      16.242  28.240  -6.783  1.00  0.00     0.135 C 
BRANCH  20  21
HETATM   21  O5  UNL     1      16.997  29.164  -7.439  1.00  0.00    -0.348 OA
ATOM     22  H5  UNL     1      16.705  30.052  -7.609  1.00  0.00     0.219 HD
ENDBRANCH  20  21
BRANCH  20  23
HETATM   23  N4  UNL     1      16.839  27.341  -6.047  1.00  0.00    -0.251 N 
ATOM     24  H4  UNL     1      16.390  26.435  -5.912  1.00  0.00     0.196 HD
BRANCH  23  25
HETATM   25  O6  UNL     1      18.054  27.576  -5.448  1.00  0.00    -0.288 OA
ATOM     26  H6  UNL     1      18.320  27.130  -4.653  1.00  0.00     0.244 HD
ENDBRANCH  23  25
ENDBRANCH  20  23
ENDBRANCH  19  20
ENDBRANCH  18  19
ENDBRANCH  17  18
ENDBRANCH  15  17
ENDBRANCH   6  15
BRANCH   5  27
HETATM   27  O4  UNL     1      11.307  31.761  -6.997  1.00  0.00    -0.356 OA
ATOM     28  H4  UNL     1      10.519  31.974  -7.483  1.00  0.00     0.218 HD
ENDBRANCH   5  27
BRANCH   4  29
HETATM   29  N2  UNL     1      11.385  33.979  -5.459  1.00  0.00    -0.332 N 
ATOM     30  H2  UNL     1      11.151  33.192  -4.853  1.00  0.00     0.168 HD
BRANCH  29  31
HETATM   31  C7  UNL     1      10.652  35.140  -5.247  1.00  0.00     0.353 C 
HETATM   32  O3  UNL     1      10.989  36.085  -4.531  1.00  0.00    -0.283 OA
ENDBRANCH  29  31
ENDBRANCH   4  29
BRANCH   1  33
HETATM   33  C2  UNL     1      15.686  36.332  -7.035  1.00  0.00     0.162 C 
BRANCH  33  34
HETATM   34  O2  UNL     1      16.577  36.320  -5.936  1.00  0.00    -0.275 OA
BRANCH  34  35
HETATM   35  C1  UNL     1      17.588  37.251  -5.945  1.00  0.00     0.377 C 
HETATM   36  N1  UNL     1      17.582  38.368  -5.070  1.00  0.00    -0.032 NA
HETATM   37  O1  UNL     1      18.548  37.102  -6.760  1.00  0.00    -0.242 OA
ENDBRANCH  34  35
ENDBRANCH  33  34
ENDBRANCH   1  33
TORSDOF 14
ENDMDL
