MODEL 1
REMARK VINA RESULT: -7.336557175      0.000      0.000
REMARK  10 active torsions:
REMARK  status: ('A' for Active; 'I' for Inactive)
REMARK    1  A    between atoms: C2_2  and  C3_3 
REMARK    2  A    between atoms: C3_3  and  N1_4 
REMARK    3  A    between atoms: C5_8  and  N3_9 
REMARK    4  A    between atoms: C9_21  and  C10_22 
REMARK    5  A    between atoms: C10_22  and  N6_23 
REMARK    6  A    between atoms: N6_23  and  C11_26 
REMARK    7  A    between atoms: C11_26  and  C12_27 
REMARK    8  A    between atoms: C12_27  and  S2_28 
REMARK    9  A    between atoms: S2_28  and  S3_29 
REMARK   10  A    between atoms: S3_29  and  C13_30 
ROOT
HETATM    1  N1  UNL     1      15.505  29.746  -6.446  1.00  0.00    -0.348 N 
HETATM    2  C4  UNL     1      16.204  28.511  -6.463  1.00  0.00     0.131 A 
HETATM    3  N2  UNL     1      17.169  28.329  -5.510  1.00  0.00    -0.176 N 
ATOM      4  H2  UNL     1      17.347  29.066  -4.828  1.00  0.00     0.186 HD
HETATM    5  C5  UNL     1      17.882  27.197  -5.459  1.00  0.00     0.679 A 
HETATM    6  N4  UNL     1      17.623  26.249  -6.368  1.00  0.00    -0.177 N 
ATOM      7  H4  UNL     1      18.168  25.388  -6.327  1.00  0.00     0.186 HD
HETATM    8  C6  UNL     1      16.707  26.353  -7.317  1.00  0.00     0.125 A 
HETATM    9  N5  UNL     1      16.512  25.398  -8.160  1.00  0.00    -0.384 N 
ATOM     10  H51 UNL     1      15.806  25.479  -8.892  1.00  0.00     0.157 HD
ATOM     11  H52 UNL     1      17.066  24.543  -8.104  1.00  0.00     0.157 HD
HETATM   12  C7  UNL     1      15.952  27.520  -7.393  1.00  0.00     0.040 A 
HETATM   13  C8  UNL     1      14.943  27.580  -8.463  1.00  0.00     0.122 C 
HETATM   14  S1  UNL     1      14.093  29.169  -8.576  1.00  0.00    -0.137 SA
HETATM   15  C9  UNL     1      15.137  30.392  -7.694  1.00  0.00     0.174 C 
ENDROOT
BRANCH  15  16
HETATM   16  C10 UNL     1      16.330  30.675  -8.558  1.00  0.00     0.268 C 
BRANCH  16  17
HETATM   17  N6  UNL     1      16.581  32.068  -8.749  1.00  0.00    -0.072 N 
ATOM     18  H62 UNL     1      17.130  32.446  -7.977  1.00  0.00     0.277 HD
ATOM     19  H61 UNL     1      17.241  32.215  -9.514  1.00  0.00     0.277 HD
BRANCH  17  20
HETATM   20  C11 UNL     1      15.376  32.850  -8.954  1.00  0.00     0.243 C 
BRANCH  20  21
HETATM   21  C12 UNL     1      15.652  34.311  -8.582  1.00  0.00     0.114 C 
BRANCH  21  22
HETATM   22  S2  UNL     1      14.333  34.860  -7.497  1.00  0.00    -0.088 SA
BRANCH  22  23
HETATM   23  S3  UNL     1      12.544  33.830  -7.991  1.00  0.00    -0.022 SA
BRANCH  23  24
HETATM   24  C13 UNL     1      11.210  34.517  -7.044  1.00  0.00     0.146 C 
HETATM   25  N7  UNL     1      10.274  35.267  -7.561  1.00  0.00    -0.369 N 
HETATM   26  C14 UNL     1       9.332  35.680  -6.569  1.00  0.00     0.141 C 
ATOM     27  H7  UNL     1      10.221  35.526  -8.546  1.00  0.00     0.161 HD
HETATM   28  C15 UNL     1       9.876  35.165  -5.283  1.00  0.00     0.141 C 
HETATM   29  N8  UNL     1      10.996  34.348  -5.655  1.00  0.00    -0.369 N 
ATOM     30  H8  UNL     1      11.541  33.753  -5.031  1.00  0.00     0.161 HD
ENDBRANCH  23  24
ENDBRANCH  22  23
ENDBRANCH  21  22
ENDBRANCH  20  21
ENDBRANCH  17  20
ENDBRANCH  16  17
ENDBRANCH  15  16
BRANCH   1  31
HETATM   31  C3  UNL     1      15.172  30.341  -5.172  1.00  0.00     0.152 C 
BRANCH  31  32
HETATM   32  C2  UNL     1      14.772  31.775  -5.330  1.00  0.00    -0.017 C 
HETATM   33  C1  UNL     1      13.689  32.275  -4.755  1.00  0.00     0.008 C 
ENDBRANCH  31  32
ENDBRANCH   1  31
BRANCH   5  34
HETATM   34  N3  UNL     1      18.783  27.062  -4.547  1.00  0.00    -0.234 N 
ATOM     35  H32 UNL     1      19.299  27.851  -4.159  1.00  0.00     0.174 HD
ATOM     36  H31 UNL     1      18.994  26.130  -4.190  1.00  0.00     0.174 HD
ENDBRANCH   5  34
TORSDOF 10
ENDMDL
MODEL 2
REMARK VINA RESULT: -7.225716590      2.624      3.473
REMARK  10 active torsions:
REMARK  status: ('A' for Active; 'I' for Inactive)
REMARK    1  A    between atoms: C2_2  and  C3_3 
REMARK    2  A    between atoms: C3_3  and  N1_4 
REMARK    3  A    between atoms: C5_8  and  N3_9 
REMARK    4  A    between atoms: C9_21  and  C10_22 
REMARK    5  A    between atoms: C10_22  and  N6_23 
REMARK    6  A    between atoms: N6_23  and  C11_26 
REMARK    7  A    between atoms: C11_26  and  C12_27 
REMARK    8  A    between atoms: C12_27  and  S2_28 
REMARK    9  A    between atoms: S2_28  and  S3_29 
REMARK   10  A    between atoms: S3_29  and  C13_30 
ROOT
HETATM    1  N1  UNL     1      15.507  29.735  -6.458  1.00  0.00    -0.348 N 
HETATM    2  C4  UNL     1      16.215  28.505  -6.441  1.00  0.00     0.131 A 
HETATM    3  N2  UNL     1      17.192  28.363  -5.493  1.00  0.00    -0.176 N 
ATOM      4  H2  UNL     1      17.373  29.125  -4.839  1.00  0.00     0.186 HD
HETATM    5  C5  UNL     1      17.914  27.238  -5.412  1.00  0.00     0.679 A 
HETATM    6  N4  UNL     1      17.652  26.258  -6.285  1.00  0.00    -0.177 N 
ATOM      7  H4  UNL     1      18.204  25.403  -6.220  1.00  0.00     0.186 HD
HETATM    8  C6  UNL     1      16.724  26.323  -7.226  1.00  0.00     0.125 A 
HETATM    9  N5  UNL     1      16.526  25.338  -8.033  1.00  0.00    -0.384 N 
ATOM     10  H51 UNL     1      15.811  25.388  -8.759  1.00  0.00     0.157 HD
ATOM     11  H52 UNL     1      17.087  24.489  -7.955  1.00  0.00     0.157 HD
HETATM   12  C7  UNL     1      15.959  27.481  -7.333  1.00  0.00     0.040 A 
HETATM   13  C8  UNL     1      14.937  27.497  -8.392  1.00  0.00     0.122 C 
HETATM   14  S1  UNL     1      14.075  29.075  -8.550  1.00  0.00    -0.137 SA
HETATM   15  C9  UNL     1      15.120  30.335  -7.722  1.00  0.00     0.174 C 
ENDROOT
BRANCH  15  16
HETATM   16  C10 UNL     1      16.301  30.596  -8.610  1.00  0.00     0.268 C 
BRANCH  16  17
HETATM   17  N6  UNL     1      16.288  31.892  -9.213  1.00  0.00    -0.072 N 
ATOM     18  H62 UNL     1      16.545  32.609  -8.535  1.00  0.00     0.277 HD
ATOM     19  H61 UNL     1      17.064  31.992  -9.868  1.00  0.00     0.277 HD
BRANCH  17  20
HETATM   20  C11 UNL     1      15.028  32.218  -9.854  1.00  0.00     0.243 C 
BRANCH  20  21
HETATM   21  C12 UNL     1      14.508  33.548  -9.298  1.00  0.00     0.114 C 
BRANCH  21  22
HETATM   22  S2  UNL     1      15.884  34.392  -8.516  1.00  0.00    -0.088 SA
BRANCH  22  23
HETATM   23  S3  UNL     1      15.139  35.767  -7.080  1.00  0.00    -0.022 SA
BRANCH  23  24
HETATM   24  C13 UNL     1      16.363  37.022  -6.804  1.00  0.00     0.146 C 
HETATM   25  N7  UNL     1      16.626  37.522  -5.627  1.00  0.00    -0.369 N 
HETATM   26  C14 UNL     1      17.653  38.512  -5.701  1.00  0.00     0.141 C 
ATOM     27  H7  UNL     1      16.159  37.242  -4.764  1.00  0.00     0.161 HD
HETATM   28  C15 UNL     1      17.942  38.661  -7.153  1.00  0.00     0.141 C 
HETATM   29  N8  UNL     1      17.182  37.622  -7.789  1.00  0.00    -0.369 N 
ATOM     30  H8  UNL     1      17.226  37.362  -8.775  1.00  0.00     0.161 HD
ENDBRANCH  23  24
ENDBRANCH  22  23
ENDBRANCH  21  22
ENDBRANCH  20  21
ENDBRANCH  17  20
ENDBRANCH  16  17
ENDBRANCH  15  16
BRANCH   1  31
HETATM   31  C3  UNL     1      15.184  30.371  -5.201  1.00  0.00     0.152 C 
BRANCH  31  32
HETATM   32  C2  UNL     1      14.838  31.814  -5.396  1.00  0.00    -0.017 C 
HETATM   33  C1  UNL     1      13.699  32.333  -4.964  1.00  0.00     0.008 C 
ENDBRANCH  31  32
ENDBRANCH   1  31
BRANCH   5  34
HETATM   34  N3  UNL     1      18.827  27.141  -4.506  1.00  0.00    -0.234 N 
ATOM     35  H32 UNL     1      18.801  27.673  -3.637  1.00  0.00     0.174 HD
ATOM     36  H31 UNL     1      19.611  26.506  -4.657  1.00  0.00     0.174 HD
ENDBRANCH   5  34
TORSDOF 10
ENDMDL
MODEL 3
REMARK VINA RESULT: -7.130134667      2.981      5.024
REMARK  10 active torsions:
REMARK  status: ('A' for Active; 'I' for Inactive)
REMARK    1  A    between atoms: C2_2  and  C3_3 
REMARK    2  A    between atoms: C3_3  and  N1_4 
REMARK    3  A    between atoms: C5_8  and  N3_9 
REMARK    4  A    between atoms: C9_21  and  C10_22 
REMARK    5  A    between atoms: C10_22  and  N6_23 
REMARK    6  A    between atoms: N6_23  and  C11_26 
REMARK    7  A    between atoms: C11_26  and  C12_27 
REMARK    8  A    between atoms: C12_27  and  S2_28 
REMARK    9  A    between atoms: S2_28  and  S3_29 
REMARK   10  A    between atoms: S3_29  and  C13_30 
ROOT
HETATM    1  N1  UNL     1      15.455  29.766  -6.471  1.00  0.00    -0.348 N 
HETATM    2  C4  UNL     1      16.159  28.533  -6.474  1.00  0.00     0.131 A 
HETATM    3  N2  UNL     1      17.111  28.359  -5.506  1.00  0.00    -0.176 N 
ATOM      4  H2  UNL     1      17.276  29.098  -4.824  1.00  0.00     0.186 HD
HETATM    5  C5  UNL     1      17.828  27.229  -5.442  1.00  0.00     0.679 A 
HETATM    6  N4  UNL     1      17.586  26.278  -6.352  1.00  0.00    -0.177 N 
ATOM      7  H4  UNL     1      18.134  25.420  -6.300  1.00  0.00     0.186 HD
HETATM    8  C6  UNL     1      16.684  26.375  -7.314  1.00  0.00     0.125 A 
HETATM    9  N5  UNL     1      16.504  25.417  -8.157  1.00  0.00    -0.384 N 
ATOM     10  H51 UNL     1      15.809  25.492  -8.899  1.00  0.00     0.157 HD
ATOM     11  H52 UNL     1      17.061  24.564  -8.091  1.00  0.00     0.157 HD
HETATM   12  C7  UNL     1      15.924  27.538  -7.405  1.00  0.00     0.040 A 
HETATM   13  C8  UNL     1      14.930  27.591  -8.489  1.00  0.00     0.122 C 
HETATM   14  S1  UNL     1      14.075  29.176  -8.619  1.00  0.00    -0.137 SA
HETATM   15  C9  UNL     1      15.101  30.406  -7.725  1.00  0.00     0.174 C 
ENDROOT
BRANCH  15  16
HETATM   16  C10 UNL     1      16.305  30.691  -8.573  1.00  0.00     0.268 C 
BRANCH  16  17
HETATM   17  N6  UNL     1      16.693  32.067  -8.574  1.00  0.00    -0.072 N 
ATOM     18  H62 UNL     1      17.239  32.289  -7.741  1.00  0.00     0.277 HD
ATOM     19  H61 UNL     1      17.397  32.243  -9.290  1.00  0.00     0.277 HD
BRANCH  17  20
HETATM   20  C11 UNL     1      15.575  32.981  -8.715  1.00  0.00     0.243 C 
BRANCH  20  21
HETATM   21  C12 UNL     1      15.678  33.700 -10.065  1.00  0.00     0.114 C 
BRANCH  21  22
HETATM   22  S2  UNL     1      16.995  34.911  -9.944  1.00  0.00    -0.088 SA
BRANCH  22  23
HETATM   23  S3  UNL     1      18.617  34.308 -11.173  1.00  0.00    -0.022 SA
BRANCH  23  24
HETATM   24  C13 UNL     1      18.184  34.595 -12.869  1.00  0.00     0.146 C 
HETATM   25  N7  UNL     1      18.750  33.975 -13.870  1.00  0.00    -0.369 N 
HETATM   26  C14 UNL     1      18.206  34.402 -15.120  1.00  0.00     0.141 C 
ATOM     27  H7  UNL     1      19.487  33.276 -13.772  1.00  0.00     0.161 HD
HETATM   28  C15 UNL     1      17.260  35.498 -14.775  1.00  0.00     0.141 C 
HETATM   29  N8  UNL     1      17.203  35.500 -13.341  1.00  0.00    -0.369 N 
ATOM     30  H8  UNL     1      16.570  36.054 -12.764  1.00  0.00     0.161 HD
ENDBRANCH  23  24
ENDBRANCH  22  23
ENDBRANCH  21  22
ENDBRANCH  20  21
ENDBRANCH  17  20
ENDBRANCH  16  17
ENDBRANCH  15  16
BRANCH   1  31
HETATM   31  C3  UNL     1      15.100  30.362  -5.204  1.00  0.00     0.152 C 
BRANCH  31  32
HETATM   32  C2  UNL     1      14.805  31.822  -5.354  1.00  0.00    -0.017 C 
HETATM   33  C1  UNL     1      13.659  32.356  -4.962  1.00  0.00     0.008 C 
ENDBRANCH  31  32
ENDBRANCH   1  31
BRANCH   5  34
HETATM   34  N3  UNL     1      18.716  27.101  -4.517  1.00  0.00    -0.234 N 
ATOM     35  H32 UNL     1      19.175  27.898  -4.077  1.00  0.00     0.174 HD
ATOM     36  H31 UNL     1      18.977  26.166  -4.204  1.00  0.00     0.174 HD
ENDBRANCH   5  34
TORSDOF 10
ENDMDL
MODEL 4
REMARK VINA RESULT: -7.063691571      2.579      4.874
REMARK  10 active torsions:
REMARK  status: ('A' for Active; 'I' for Inactive)
REMARK    1  A    between atoms: C2_2  and  C3_3 
REMARK    2  A    between atoms: C3_3  and  N1_4 
REMARK    3  A    between atoms: C5_8  and  N3_9 
REMARK    4  A    between atoms: C9_21  and  C10_22 
REMARK    5  A    between atoms: C10_22  and  N6_23 
REMARK    6  A    between atoms: N6_23  and  C11_26 
REMARK    7  A    between atoms: C11_26  and  C12_27 
REMARK    8  A    between atoms: C12_27  and  S2_28 
REMARK    9  A    between atoms: S2_28  and  S3_29 
REMARK   10  A    between atoms: S3_29  and  C13_30 
ROOT
HETATM    1  N1  UNL     1      15.560  32.679  -8.742  1.00  0.00    -0.348 N 
HETATM    2  C4  UNL     1      15.269  31.441  -8.111  1.00  0.00     0.131 A 
HETATM    3  N2  UNL     1      15.448  30.307  -8.855  1.00  0.00    -0.176 N 
ATOM      4  H2  UNL     1      15.784  30.383  -9.815  1.00  0.00     0.186 HD
HETATM    5  C5  UNL     1      15.190  29.097  -8.341  1.00  0.00     0.679 A 
HETATM    6  N4  UNL     1      14.750  29.032  -7.078  1.00  0.00    -0.177 N 
ATOM      7  H4  UNL     1      14.554  28.110  -6.690  1.00  0.00     0.186 HD
HETATM    8  C6  UNL     1      14.554  30.083  -6.299  1.00  0.00     0.125 A 
HETATM    9  N5  UNL     1      14.129  29.945  -5.090  1.00  0.00    -0.384 N 
ATOM     10  H51 UNL     1      13.977  30.755  -4.490  1.00  0.00     0.157 HD
ATOM     11  H52 UNL     1      13.937  29.015  -4.717  1.00  0.00     0.157 HD
HETATM   12  C7  UNL     1      14.815  31.352  -6.808  1.00  0.00     0.040 A 
HETATM   13  C8  UNL     1      14.587  32.485  -5.897  1.00  0.00     0.122 C 
HETATM   14  S1  UNL     1      14.825  34.101  -6.668  1.00  0.00    -0.137 SA
HETATM   15  C9  UNL     1      14.731  33.842  -8.481  1.00  0.00     0.174 C 
ENDROOT
BRANCH  15  16
HETATM   16  C10 UNL     1      13.292  33.600  -8.828  1.00  0.00     0.268 C 
BRANCH  16  17
HETATM   17  N6  UNL     1      12.384  34.462  -8.140  1.00  0.00    -0.072 N 
ATOM     18  H62 UNL     1      12.868  34.993  -7.416  1.00  0.00     0.277 HD
ATOM     19  H61 UNL     1      12.088  35.230  -8.743  1.00  0.00     0.277 HD
BRANCH  17  20
HETATM   20  C11 UNL     1      11.235  33.769  -7.589  1.00  0.00     0.243 C 
BRANCH  20  21
HETATM   21  C12 UNL     1      10.102  34.775  -7.354  1.00  0.00     0.114 C 
BRANCH  21  22
HETATM   22  S2  UNL     1      10.079  35.178  -5.606  1.00  0.00    -0.088 SA
BRANCH  22  23
HETATM   23  S3  UNL     1       9.015  36.992  -5.318  1.00  0.00    -0.022 SA
BRANCH  23  24
HETATM   24  C13 UNL     1       8.479  37.595  -6.898  1.00  0.00     0.146 C 
HETATM   25  N7  UNL     1       7.250  37.487  -7.329  1.00  0.00    -0.369 N 
HETATM   26  C14 UNL     1       7.105  38.058  -8.630  1.00  0.00     0.141 C 
ATOM     27  H7  UNL     1       6.492  37.051  -6.804  1.00  0.00     0.161 HD
HETATM   28  C15 UNL     1       8.480  38.460  -9.032  1.00  0.00     0.141 C 
HETATM   29  N8  UNL     1       9.284  38.248  -7.862  1.00  0.00    -0.369 N 
ATOM     30  H8  UNL     1      10.261  38.518  -7.746  1.00  0.00     0.161 HD
ENDBRANCH  23  24
ENDBRANCH  22  23
ENDBRANCH  21  22
ENDBRANCH  20  21
ENDBRANCH  17  20
ENDBRANCH  16  17
ENDBRANCH  15  16
BRANCH   1  31
HETATM   31  C3  UNL     1      16.689  32.755  -9.640  1.00  0.00     0.152 C 
BRANCH  31  32
HETATM   32  C2  UNL     1      17.038  34.176  -9.956  1.00  0.00    -0.017 C 
HETATM   33  C1  UNL     1      18.073  34.498 -10.715  1.00  0.00     0.008 C 
ENDBRANCH  31  32
ENDBRANCH   1  31
BRANCH   5  34
HETATM   34  N3  UNL     1      15.369  28.051  -9.072  1.00  0.00    -0.234 N 
ATOM     35  H32 UNL     1      15.854  28.081  -9.969  1.00  0.00     0.174 HD
ATOM     36  H31 UNL     1      15.016  27.151  -8.748  1.00  0.00     0.174 HD
ENDBRANCH   5  34
TORSDOF 10
ENDMDL
MODEL 5
REMARK VINA RESULT: -7.061000459      2.824      4.021
REMARK  10 active torsions:
REMARK  status: ('A' for Active; 'I' for Inactive)
REMARK    1  A    between atoms: C2_2  and  C3_3 
REMARK    2  A    between atoms: C3_3  and  N1_4 
REMARK    3  A    between atoms: C5_8  and  N3_9 
REMARK    4  A    between atoms: C9_21  and  C10_22 
REMARK    5  A    between atoms: C10_22  and  N6_23 
REMARK    6  A    between atoms: N6_23  and  C11_26 
REMARK    7  A    between atoms: C11_26  and  C12_27 
REMARK    8  A    between atoms: C12_27  and  S2_28 
REMARK    9  A    between atoms: S2_28  and  S3_29 
REMARK   10  A    between atoms: S3_29  and  C13_30 
ROOT
HETATM    1  N1  UNL     1      14.894  30.357  -6.475  1.00  0.00    -0.348 N 
HETATM    2  C4  UNL     1      15.546  29.131  -6.765  1.00  0.00     0.131 A 
HETATM    3  N2  UNL     1      16.430  28.661  -5.832  1.00  0.00    -0.176 N 
ATOM      4  H2  UNL     1      16.584  29.190  -4.974  1.00  0.00     0.186 HD
HETATM    5  C5  UNL     1      17.095  27.515  -6.029  1.00  0.00     0.679 A 
HETATM    6  N4  UNL     1      16.869  26.844  -7.165  1.00  0.00    -0.177 N 
ATOM      7  H4  UNL     1      17.378  25.973  -7.312  1.00  0.00     0.186 HD
HETATM    8  C6  UNL     1      16.031  27.235  -8.111  1.00  0.00     0.125 A 
HETATM    9  N5  UNL     1      15.863  26.537  -9.181  1.00  0.00    -0.384 N 
ATOM     10  H51 UNL     1      15.217  26.839  -9.911  1.00  0.00     0.157 HD
ATOM     11  H52 UNL     1      16.380  25.667  -9.312  1.00  0.00     0.157 HD
HETATM   12  C7  UNL     1      15.326  28.423  -7.932  1.00  0.00     0.040 A 
HETATM   13  C8  UNL     1      14.402  28.807  -9.011  1.00  0.00     0.122 C 
HETATM   14  S1  UNL     1      13.623  30.417  -8.765  1.00  0.00    -0.137 SA
HETATM   15  C9  UNL     1      14.643  31.317  -7.535  1.00  0.00     0.174 C 
ENDROOT
BRANCH  15  16
HETATM   16  C10 UNL     1      15.906  31.744  -8.222  1.00  0.00     0.268 C 
BRANCH  16  17
HETATM   17  N6  UNL     1      15.714  32.134  -9.583  1.00  0.00    -0.072 N 
ATOM     18  H62 UNL     1      16.499  31.832 -10.160  1.00  0.00     0.277 HD
ATOM     19  H61 UNL     1      14.968  31.588 -10.014  1.00  0.00     0.277 HD
BRANCH  17  20
HETATM   20  C11 UNL     1      15.472  33.556  -9.748  1.00  0.00     0.243 C 
BRANCH  20  21
HETATM   21  C12 UNL     1      16.569  34.342  -9.020  1.00  0.00     0.114 C 
BRANCH  21  22
HETATM   22  S2  UNL     1      17.628  35.086 -10.263  1.00  0.00    -0.088 SA
BRANCH  22  23
HETATM   23  S3  UNL     1      19.033  36.363  -9.313  1.00  0.00    -0.022 SA
BRANCH  23  24
HETATM   24  C13 UNL     1      18.179  37.369  -8.127  1.00  0.00     0.146 C 
HETATM   25  N7  UNL     1      18.730  37.809  -7.028  1.00  0.00    -0.369 N 
HETATM   26  C14 UNL     1      17.812  38.591  -6.264  1.00  0.00     0.141 C 
ATOM     27  H7  UNL     1      19.693  37.618  -6.751  1.00  0.00     0.161 HD
HETATM   28  C15 UNL     1      16.520  38.496  -6.996  1.00  0.00     0.141 C 
HETATM   29  N8  UNL     1      16.837  37.809  -8.216  1.00  0.00    -0.369 N 
ATOM     30  H8  UNL     1      16.207  37.664  -9.005  1.00  0.00     0.161 HD
ENDBRANCH  23  24
ENDBRANCH  22  23
ENDBRANCH  21  22
ENDBRANCH  20  21
ENDBRANCH  17  20
ENDBRANCH  16  17
ENDBRANCH  15  16
BRANCH   1  31
HETATM   31  C3  UNL     1      14.489  30.627  -5.115  1.00  0.00     0.152 C 
BRANCH  31  32
HETATM   32  C2  UNL     1      14.276  32.092  -4.891  1.00  0.00    -0.017 C 
HETATM   33  C1  UNL     1      13.118  32.684  -5.136  1.00  0.00     0.008 C 
ENDBRANCH  31  32
ENDBRANCH   1  31
BRANCH   5  34
HETATM   34  N3  UNL     1      17.920  27.104  -5.128  1.00  0.00    -0.234 N 
ATOM     35  H32 UNL     1      18.363  27.732  -4.457  1.00  0.00     0.174 HD
ATOM     36  H31 UNL     1      18.146  26.111  -5.076  1.00  0.00     0.174 HD
ENDBRANCH   5  34
TORSDOF 10
ENDMDL
