MODEL 1
REMARK VINA RESULT: -7.862411470      0.000      0.000
REMARK  14 active torsions:
REMARK  status: ('A' for Active; 'I' for Inactive)
REMARK    1  A    between atoms: C2_2  and  N1_3 
REMARK    2  A    between atoms: N1_3  and  C3_5 
REMARK    3  A    between atoms: C3_5  and  S1_9 
REMARK    4  A    between atoms: S1_9  and  C4_10 
REMARK    5  A    between atoms: C4_10  and  C5_11 
REMARK    6  A    between atoms: C5_11  and  C6_12 
REMARK    7  A    between atoms: C6_12  and  S2_13 
REMARK    8  A    between atoms: S2_13  and  C7_14 
REMARK    9  A    between atoms: C7_14  and  C8_15 
REMARK   10  A    between atoms: C9_17  and  S4_18 
REMARK   11  A    between atoms: S4_18  and  C10_19 
REMARK   12  A    between atoms: C11_24  and  O1_25 
REMARK   13  A    between atoms: C12_27  and  O2_28 
REMARK   14  A    between atoms: C13_30  and  O3_31 
ROOT
HETATM    1  C8  UNL     1      14.796  32.258  -8.107  1.00  0.00     0.089 C 
HETATM    2  S3  UNL     1      13.109  31.519  -8.000  1.00  0.00    -0.142 SA
HETATM    3  C9  UNL     1      12.108  32.772  -7.087  1.00  0.00     0.147 C 
HETATM    4  C11 UNL     1      12.400  34.063  -7.869  1.00  0.00     0.173 C 
HETATM    5  C12 UNL     1      13.801  34.514  -7.682  1.00  0.00     0.178 C 
HETATM    6  C13 UNL     1      14.750  33.681  -8.528  1.00  0.00     0.164 C 
ENDROOT
BRANCH   1   7
HETATM    7  C7  UNL     1      15.688  31.371  -8.889  1.00  0.00     0.091 C 
BRANCH   7   8
HETATM    8  S2  UNL     1      15.521  29.659  -8.552  1.00  0.00    -0.168 SA
BRANCH   8   9
HETATM    9  C6  UNL     1      16.193  28.994  -7.061  1.00  0.00     0.075 C 
BRANCH   9  10
HETATM   10  C5  UNL     1      15.691  27.581  -6.762  1.00  0.00     0.021 C 
BRANCH  10  11
HETATM   11  C4  UNL     1      16.602  26.628  -7.515  1.00  0.00     0.083 C 
BRANCH  11  12
HETATM   12  S1  UNL     1      17.326  25.383  -6.426  1.00  0.00    -0.095 SA
BRANCH  12  13
HETATM   13  C3  UNL     1      18.717  26.079  -5.568  1.00  0.00     0.133 C 
HETATM   14  N2  UNL     1      18.541  27.104  -4.817  1.00  0.00    -0.380 N 
ATOM     15  H22 UNL     1      19.341  27.503  -4.325  1.00  0.00     0.158 HD
ATOM     16  H21 UNL     1      17.623  27.532  -4.697  1.00  0.00     0.158 HD
BRANCH  13  17
HETATM   17  N1  UNL     1      19.990  25.484  -5.734  1.00  0.00    -0.371 N 
ATOM     18  H1  UNL     1      20.423  25.424  -6.656  1.00  0.00     0.161 HD
BRANCH  17  19
HETATM   19  C2  UNL     1      20.670  24.957  -4.549  1.00  0.00     0.117 C 
HETATM   20  C1  UNL     1      19.939  23.774  -3.995  1.00  0.00     0.026 C 
ENDBRANCH  17  19
ENDBRANCH  13  17
ENDBRANCH  12  13
ENDBRANCH  11  12
ENDBRANCH  10  11
ENDBRANCH   9  10
ENDBRANCH   8   9
ENDBRANCH   7   8
ENDBRANCH   1   7
BRANCH   6  21
HETATM   21  O3  UNL     1      14.390  33.788  -9.844  1.00  0.00    -0.392 OA
ATOM     22  H3  UNL     1      14.620  34.643 -10.188  1.00  0.00     0.210 HD
ENDBRANCH   6  21
BRANCH   3  23
HETATM   23  S4  UNL     1      12.743  32.795  -5.420  1.00  0.00    -0.080 SA
BRANCH  23  24
HETATM   24  C10 UNL     1      13.833  31.508  -4.976  1.00  0.00     0.149 C 
HETATM   25  N3  UNL     1      13.538  30.286  -4.780  1.00  0.00    -0.382 N 
ATOM     26  H32 UNL     1      12.550  30.057  -4.878  1.00  0.00     0.157 HD
ATOM     27  H31 UNL     1      14.176  29.534  -4.519  1.00  0.00     0.157 HD
HETATM   28  N4  UNL     1      15.233  31.832  -4.836  1.00  0.00    -0.075 NA
ENDBRANCH  23  24
ENDBRANCH   3  23
BRANCH   5  29
HETATM   29  O2  UNL     1      14.236  34.640  -6.387  1.00  0.00    -0.390 OA
ATOM     30  H2  UNL     1      14.784  33.940  -6.053  1.00  0.00     0.210 HD
ENDBRANCH   5  29
BRANCH   4  31
HETATM   31  O1  UNL     1      11.438  35.027  -7.711  1.00  0.00    -0.391 OA
ATOM     32  H1  UNL     1      11.164  35.426  -8.529  1.00  0.00     0.210 HD
ENDBRANCH   4  31
TORSDOF 14
ENDMDL
MODEL 2
REMARK VINA RESULT: -7.772323397      0.663      1.034
REMARK  14 active torsions:
REMARK  status: ('A' for Active; 'I' for Inactive)
REMARK    1  A    between atoms: C2_2  and  N1_3 
REMARK    2  A    between atoms: N1_3  and  C3_5 
REMARK    3  A    between atoms: C3_5  and  S1_9 
REMARK    4  A    between atoms: S1_9  and  C4_10 
REMARK    5  A    between atoms: C4_10  and  C5_11 
REMARK    6  A    between atoms: C5_11  and  C6_12 
REMARK    7  A    between atoms: C6_12  and  S2_13 
REMARK    8  A    between atoms: S2_13  and  C7_14 
REMARK    9  A    between atoms: C7_14  and  C8_15 
REMARK   10  A    between atoms: C9_17  and  S4_18 
REMARK   11  A    between atoms: S4_18  and  C10_19 
REMARK   12  A    between atoms: C11_24  and  O1_25 
REMARK   13  A    between atoms: C12_27  and  O2_28 
REMARK   14  A    between atoms: C13_30  and  O3_31 
ROOT
HETATM    1  C8  UNL     1      14.983  32.478  -8.129  1.00  0.00     0.089 C 
HETATM    2  S3  UNL     1      13.364  31.618  -7.922  1.00  0.00    -0.142 SA
HETATM    3  C9  UNL     1      12.328  32.801  -6.957  1.00  0.00     0.147 C 
HETATM    4  C11 UNL     1      12.478  34.103  -7.759  1.00  0.00     0.173 C 
HETATM    5  C12 UNL     1      13.850  34.658  -7.656  1.00  0.00     0.178 C 
HETATM    6  C13 UNL     1      14.808  33.891  -8.552  1.00  0.00     0.164 C 
ENDROOT
BRANCH   1   7
HETATM    7  C7  UNL     1      15.891  31.653  -8.959  1.00  0.00     0.091 C 
BRANCH   7   8
HETATM    8  S2  UNL     1      15.673  29.920  -8.808  1.00  0.00    -0.168 SA
BRANCH   8   9
HETATM    9  C6  UNL     1      16.199  29.099  -7.337  1.00  0.00     0.075 C 
BRANCH   9  10
HETATM   10  C5  UNL     1      15.358  27.863  -7.013  1.00  0.00     0.021 C 
BRANCH  10  11
HETATM   11  C4  UNL     1      16.324  26.698  -6.896  1.00  0.00     0.083 C 
BRANCH  11  12
HETATM   12  S1  UNL     1      17.581  26.987  -5.633  1.00  0.00    -0.095 SA
BRANCH  12  13
HETATM   13  C3  UNL     1      18.778  25.676  -5.673  1.00  0.00     0.133 C 
HETATM   14  N2  UNL     1      18.539  24.630  -6.377  1.00  0.00    -0.380 N 
ATOM     15  H22 UNL     1      19.227  23.877  -6.400  1.00  0.00     0.158 HD
ATOM     16  H21 UNL     1      17.679  24.529  -6.916  1.00  0.00     0.158 HD
BRANCH  13  17
HETATM   17  N1  UNL     1      19.972  25.816  -4.926  1.00  0.00    -0.371 N 
ATOM     18  H1  UNL     1      20.348  26.739  -4.710  1.00  0.00     0.161 HD
BRANCH  17  19
HETATM   19  C2  UNL     1      20.653  24.602  -4.472  1.00  0.00     0.117 C 
HETATM   20  C1  UNL     1      19.958  24.009  -3.286  1.00  0.00     0.026 C 
ENDBRANCH  17  19
ENDBRANCH  13  17
ENDBRANCH  12  13
ENDBRANCH  11  12
ENDBRANCH  10  11
ENDBRANCH   9  10
ENDBRANCH   8   9
ENDBRANCH   7   8
ENDBRANCH   1   7
BRANCH   6  21
HETATM   21  O3  UNL     1      14.366  33.960  -9.846  1.00  0.00    -0.392 OA
ATOM     22  H3  UNL     1      15.079  33.808 -10.455  1.00  0.00     0.210 HD
ENDBRANCH   6  21
BRANCH   3  23
HETATM   23  S4  UNL     1      13.055  32.884  -5.330  1.00  0.00    -0.080 SA
BRANCH  23  24
HETATM   24  C10 UNL     1      14.138  31.592  -4.885  1.00  0.00     0.149 C 
HETATM   25  N3  UNL     1      15.410  31.619  -4.895  1.00  0.00    -0.382 N 
ATOM     26  H32 UNL     1      15.822  32.492  -5.221  1.00  0.00     0.157 HD
ATOM     27  H31 UNL     1      16.043  30.863  -4.635  1.00  0.00     0.157 HD
HETATM   28  N4  UNL     1      13.553  30.354  -4.424  1.00  0.00    -0.075 NA
ENDBRANCH  23  24
ENDBRANCH   3  23
BRANCH   5  29
HETATM   29  O2  UNL     1      14.348  34.827  -6.389  1.00  0.00    -0.390 OA
ATOM     30  H2  UNL     1      15.183  34.413  -6.203  1.00  0.00     0.210 HD
ENDBRANCH   5  29
BRANCH   4  31
HETATM   31  O1  UNL     1      11.457  34.995  -7.550  1.00  0.00    -0.391 OA
ATOM     32  H1  UNL     1      10.695  34.833  -8.092  1.00  0.00     0.210 HD
ENDBRANCH   4  31
TORSDOF 14
ENDMDL
MODEL 3
REMARK VINA RESULT: -7.747715901      2.280      2.899
REMARK  14 active torsions:
REMARK  status: ('A' for Active; 'I' for Inactive)
REMARK    1  A    between atoms: C2_2  and  N1_3 
REMARK    2  A    between atoms: N1_3  and  C3_5 
REMARK    3  A    between atoms: C3_5  and  S1_9 
REMARK    4  A    between atoms: S1_9  and  C4_10 
REMARK    5  A    between atoms: C4_10  and  C5_11 
REMARK    6  A    between atoms: C5_11  and  C6_12 
REMARK    7  A    between atoms: C6_12  and  S2_13 
REMARK    8  A    between atoms: S2_13  and  C7_14 
REMARK    9  A    between atoms: C7_14  and  C8_15 
REMARK   10  A    between atoms: C9_17  and  S4_18 
REMARK   11  A    between atoms: S4_18  and  C10_19 
REMARK   12  A    between atoms: C11_24  and  O1_25 
REMARK   13  A    between atoms: C12_27  and  O2_28 
REMARK   14  A    between atoms: C13_30  and  O3_31 
ROOT
HETATM    1  C8  UNL     1      14.456  31.680  -7.656  1.00  0.00     0.089 C 
HETATM    2  S3  UNL     1      14.450  32.701  -6.119  1.00  0.00    -0.142 SA
HETATM    3  C9  UNL     1      13.824  34.351  -6.659  1.00  0.00     0.147 C 
HETATM    4  C11 UNL     1      12.538  33.986  -7.417  1.00  0.00     0.173 C 
HETATM    5  C12 UNL     1      12.831  33.278  -8.687  1.00  0.00     0.178 C 
HETATM    6  C13 UNL     1      13.192  31.825  -8.422  1.00  0.00     0.164 C 
ENDROOT
BRANCH   1   7
HETATM    7  C7  UNL     1      14.876  30.295  -7.340  1.00  0.00     0.091 C 
BRANCH   7   8
HETATM    8  S2  UNL     1      15.203  29.278  -8.730  1.00  0.00    -0.168 SA
BRANCH   8   9
HETATM    9  C6  UNL     1      15.603  27.575  -8.490  1.00  0.00     0.075 C 
BRANCH   9  10
HETATM   10  C5  UNL     1      15.381  27.109  -7.051  1.00  0.00     0.021 C 
BRANCH  10  11
HETATM   11  C4  UNL     1      16.698  27.306  -6.322  1.00  0.00     0.083 C 
BRANCH  11  12
HETATM   12  S1  UNL     1      17.685  25.795  -6.291  1.00  0.00    -0.095 SA
BRANCH  12  13
HETATM   13  C3  UNL     1      19.184  26.081  -5.382  1.00  0.00     0.133 C 
HETATM   14  N2  UNL     1      19.296  27.148  -4.679  1.00  0.00    -0.380 N 
ATOM     15  H22 UNL     1      20.158  27.312  -4.157  1.00  0.00     0.158 HD
ATOM     16  H21 UNL     1      18.548  27.839  -4.625  1.00  0.00     0.158 HD
BRANCH  13  17
HETATM   17  N1  UNL     1      20.222  25.122  -5.456  1.00  0.00    -0.371 N 
ATOM     18  H1  UNL     1      20.749  24.987  -6.319  1.00  0.00     0.161 HD
BRANCH  17  19
HETATM   19  C2  UNL     1      20.521  24.329  -4.262  1.00  0.00     0.117 C 
HETATM   20  C1  UNL     1      19.393  23.400  -3.941  1.00  0.00     0.026 C 
ENDBRANCH  17  19
ENDBRANCH  13  17
ENDBRANCH  12  13
ENDBRANCH  11  12
ENDBRANCH  10  11
ENDBRANCH   9  10
ENDBRANCH   8   9
ENDBRANCH   7   8
ENDBRANCH   1   7
BRANCH   6  21
HETATM   21  O3  UNL     1      12.155  31.217  -7.768  1.00  0.00    -0.392 OA
ATOM     22  H3  UNL     1      11.807  30.498  -8.284  1.00  0.00     0.210 HD
ENDBRANCH   6  21
BRANCH   3  23
HETATM   23  S4  UNL     1      15.091  35.043  -7.707  1.00  0.00    -0.080 SA
BRANCH  23  24
HETATM   24  C10 UNL     1      15.954  36.427  -7.089  1.00  0.00     0.149 C 
HETATM   25  N3  UNL     1      15.836  37.636  -7.467  1.00  0.00    -0.382 N 
ATOM     26  H32 UNL     1      15.175  37.790  -8.228  1.00  0.00     0.157 HD
ATOM     27  H31 UNL     1      16.341  38.445  -7.106  1.00  0.00     0.157 HD
HETATM   28  N4  UNL     1      16.890  36.208  -6.012  1.00  0.00    -0.075 NA
ENDBRANCH  23  24
ENDBRANCH   3  23
BRANCH   5  29
HETATM   29  O2  UNL     1      13.720  33.886  -9.537  1.00  0.00    -0.390 OA
ATOM     30  H2  UNL     1      14.538  33.429  -9.693  1.00  0.00     0.210 HD
ENDBRANCH   5  29
BRANCH   4  31
HETATM   31  O1  UNL     1      11.642  35.021  -7.505  1.00  0.00    -0.391 OA
ATOM     32  H1  UNL     1      10.850  34.880  -7.000  1.00  0.00     0.210 HD
ENDBRANCH   4  31
TORSDOF 14
ENDMDL
MODEL 4
REMARK VINA RESULT: -7.686111039      2.698      3.430
REMARK  14 active torsions:
REMARK  status: ('A' for Active; 'I' for Inactive)
REMARK    1  A    between atoms: C2_2  and  N1_3 
REMARK    2  A    between atoms: N1_3  and  C3_5 
REMARK    3  A    between atoms: C3_5  and  S1_9 
REMARK    4  A    between atoms: S1_9  and  C4_10 
REMARK    5  A    between atoms: C4_10  and  C5_11 
REMARK    6  A    between atoms: C5_11  and  C6_12 
REMARK    7  A    between atoms: C6_12  and  S2_13 
REMARK    8  A    between atoms: S2_13  and  C7_14 
REMARK    9  A    between atoms: C7_14  and  C8_15 
REMARK   10  A    between atoms: C9_17  and  S4_18 
REMARK   11  A    between atoms: S4_18  and  C10_19 
REMARK   12  A    between atoms: C11_24  and  O1_25 
REMARK   13  A    between atoms: C12_27  and  O2_28 
REMARK   14  A    between atoms: C13_30  and  O3_31 
ROOT
HETATM    1  C8  UNL     1      14.757  31.681  -7.339  1.00  0.00     0.089 C 
HETATM    2  S3  UNL     1      13.489  32.998  -7.590  1.00  0.00    -0.142 SA
HETATM    3  C9  UNL     1      14.371  34.322  -8.524  1.00  0.00     0.147 C 
HETATM    4  C11 UNL     1      15.000  33.543  -9.690  1.00  0.00     0.173 C 
HETATM    5  C12 UNL     1      16.084  32.643  -9.228  1.00  0.00     0.178 C 
HETATM    6  C13 UNL     1      15.507  31.391  -8.587  1.00  0.00     0.164 C 
ENDROOT
BRANCH   1   7
HETATM    7  C7  UNL     1      14.147  30.517  -6.655  1.00  0.00     0.091 C 
BRANCH   7   8
HETATM    8  S2  UNL     1      15.230  29.169  -6.364  1.00  0.00    -0.168 SA
BRANCH   8   9
HETATM    9  C6  UNL     1      14.942  27.628  -7.174  1.00  0.00     0.075 C 
BRANCH   9  10
HETATM   10  C5  UNL     1      16.230  26.852  -7.452  1.00  0.00     0.021 C 
BRANCH  10  11
HETATM   11  C4  UNL     1      17.011  26.825  -6.151  1.00  0.00     0.083 C 
BRANCH  11  12
HETATM   12  S1  UNL     1      18.107  25.394  -6.051  1.00  0.00    -0.095 SA
BRANCH  12  13
HETATM   13  C3  UNL     1      19.630  25.864  -5.267  1.00  0.00     0.133 C 
HETATM   14  N2  UNL     1      19.770  27.066  -4.840  1.00  0.00    -0.380 N 
ATOM     15  H22 UNL     1      20.645  27.335  -4.390  1.00  0.00     0.158 HD
ATOM     16  H21 UNL     1      19.030  27.762  -4.937  1.00  0.00     0.158 HD
BRANCH  13  17
HETATM   17  N1  UNL     1      20.656  24.899  -5.132  1.00  0.00    -0.371 N 
ATOM     18  H1  UNL     1      21.568  25.042  -5.566  1.00  0.00     0.161 HD
BRANCH  17  19
HETATM   19  C2  UNL     1      20.375  23.692  -4.353  1.00  0.00     0.117 C 
HETATM   20  C1  UNL     1      19.946  24.040  -2.962  1.00  0.00     0.026 C 
ENDBRANCH  17  19
ENDBRANCH  13  17
ENDBRANCH  12  13
ENDBRANCH  11  12
ENDBRANCH  10  11
ENDBRANCH   9  10
ENDBRANCH   8   9
ENDBRANCH   7   8
ENDBRANCH   1   7
BRANCH   6  21
HETATM   21  O3  UNL     1      14.712  30.747  -9.495  1.00  0.00    -0.392 OA
ATOM     22  H3  UNL     1      14.064  31.341  -9.857  1.00  0.00     0.210 HD
ENDBRANCH   6  21
BRANCH   3  23
HETATM   23  S4  UNL     1      15.575  35.004  -7.398  1.00  0.00    -0.080 SA
BRANCH  23  24
HETATM   24  C10 UNL     1      16.319  36.512  -7.859  1.00  0.00     0.149 C 
HETATM   25  N3  UNL     1      16.043  37.672  -7.415  1.00  0.00    -0.382 N 
ATOM     26  H32 UNL     1      15.288  37.705  -6.730  1.00  0.00     0.157 HD
ATOM     27  H31 UNL     1      16.478  38.553  -7.685  1.00  0.00     0.157 HD
HETATM   28  N4  UNL     1      17.387  36.464  -8.830  1.00  0.00    -0.075 NA
ENDBRANCH  23  24
ENDBRANCH   3  23
BRANCH   5  29
HETATM   29  O2  UNL     1      17.068  33.212  -8.460  1.00  0.00    -0.390 OA
ATOM     30  H2  UNL     1      17.887  33.411  -8.898  1.00  0.00     0.210 HD
ENDBRANCH   5  29
BRANCH   4  31
HETATM   31  O1  UNL     1      15.298  34.328 -10.774  1.00  0.00    -0.391 OA
ATOM     32  H1  UNL     1      14.849  34.063 -11.569  1.00  0.00     0.210 HD
ENDBRANCH   4  31
TORSDOF 14
ENDMDL
MODEL 5
REMARK VINA RESULT: -7.497266568      2.113      2.970
REMARK  14 active torsions:
REMARK  status: ('A' for Active; 'I' for Inactive)
REMARK    1  A    between atoms: C2_2  and  N1_3 
REMARK    2  A    between atoms: N1_3  and  C3_5 
REMARK    3  A    between atoms: C3_5  and  S1_9 
REMARK    4  A    between atoms: S1_9  and  C4_10 
REMARK    5  A    between atoms: C4_10  and  C5_11 
REMARK    6  A    between atoms: C5_11  and  C6_12 
REMARK    7  A    between atoms: C6_12  and  S2_13 
REMARK    8  A    between atoms: S2_13  and  C7_14 
REMARK    9  A    between atoms: C7_14  and  C8_15 
REMARK   10  A    between atoms: C9_17  and  S4_18 
REMARK   11  A    between atoms: S4_18  and  C10_19 
REMARK   12  A    between atoms: C11_24  and  O1_25 
REMARK   13  A    between atoms: C12_27  and  O2_28 
REMARK   14  A    between atoms: C13_30  and  O3_31 
ROOT
HETATM    1  C8  UNL     1      14.204  31.463  -6.685  1.00  0.00     0.089 C 
HETATM    2  S3  UNL     1      14.826  33.193  -6.523  1.00  0.00    -0.142 SA
HETATM    3  C9  UNL     1      13.948  34.130  -7.848  1.00  0.00     0.147 C 
HETATM    4  C11 UNL     1      12.479  33.751  -7.604  1.00  0.00     0.173 C 
HETATM    5  C12 UNL     1      12.216  32.328  -7.933  1.00  0.00     0.178 C 
HETATM    6  C13 UNL     1      12.727  31.418  -6.828  1.00  0.00     0.164 C 
ENDROOT
BRANCH   1   7
HETATM    7  C7  UNL     1      14.786  30.616  -5.619  1.00  0.00     0.091 C 
BRANCH   7   8
HETATM    8  S2  UNL     1      15.718  29.241  -6.182  1.00  0.00    -0.168 SA
BRANCH   8   9
HETATM    9  C6  UNL     1      15.431  28.597  -7.800  1.00  0.00     0.075 C 
BRANCH   9  10
HETATM   10  C5  UNL     1      15.955  27.171  -7.973  1.00  0.00     0.021 C 
BRANCH  10  11
HETATM   11  C4  UNL     1      16.210  26.628  -6.579  1.00  0.00     0.083 C 
BRANCH  11  12
HETATM   12  S1  UNL     1      17.558  25.428  -6.557  1.00  0.00    -0.095 SA
BRANCH  12  13
HETATM   13  C3  UNL     1      18.883  26.039  -5.544  1.00  0.00     0.133 C 
HETATM   14  N2  UNL     1      18.678  27.057  -4.792  1.00  0.00    -0.380 N 
ATOM     15  H22 UNL     1      19.440  27.408  -4.210  1.00  0.00     0.158 HD
ATOM     16  H21 UNL     1      17.774  27.528  -4.757  1.00  0.00     0.158 HD
BRANCH  13  17
HETATM   17  N1  UNL     1      20.137  25.385  -5.591  1.00  0.00    -0.371 N 
ATOM     18  H1  UNL     1      20.696  25.386  -6.444  1.00  0.00     0.161 HD
BRANCH  17  19
HETATM   19  C2  UNL     1      20.612  24.707  -4.383  1.00  0.00     0.117 C 
HETATM   20  C1  UNL     1      19.689  23.594  -3.996  1.00  0.00     0.026 C 
ENDBRANCH  17  19
ENDBRANCH  13  17
ENDBRANCH  12  13
ENDBRANCH  11  12
ENDBRANCH  10  11
ENDBRANCH   9  10
ENDBRANCH   8   9
ENDBRANCH   7   8
ENDBRANCH   1   7
BRANCH   6  21
HETATM   21  O3  UNL     1      12.114  31.753  -5.652  1.00  0.00    -0.392 OA
ATOM     22  H3  UNL     1      11.278  32.174  -5.815  1.00  0.00     0.210 HD
ENDBRANCH   6  21
BRANCH   3  23
HETATM   23  S4  UNL     1      14.590  33.518  -9.396  1.00  0.00    -0.080 SA
BRANCH  23  24
HETATM   24  C10 UNL     1      16.214  32.884  -9.379  1.00  0.00     0.149 C 
HETATM   25  N3  UNL     1      16.560  31.659  -9.363  1.00  0.00    -0.382 N 
ATOM     26  H32 UNL     1      15.789  30.992  -9.338  1.00  0.00     0.157 HD
ATOM     27  H31 UNL     1      17.510  31.289  -9.353  1.00  0.00     0.157 HD
HETATM   28  N4  UNL     1      17.305  33.830  -9.414  1.00  0.00    -0.075 NA
ENDBRANCH  23  24
ENDBRANCH   3  23
BRANCH   5  29
HETATM   29  O2  UNL     1      12.611  31.904  -9.177  1.00  0.00    -0.390 OA
ATOM     30  H2  UNL     1      12.146  32.274  -9.918  1.00  0.00     0.210 HD
ENDBRANCH   5  29
BRANCH   4  31
HETATM   31  O1  UNL     1      11.587  34.656  -8.121  1.00  0.00    -0.391 OA
ATOM     32  H1  UNL     1      11.018  35.043  -7.466  1.00  0.00     0.210 HD
ENDBRANCH   4  31
TORSDOF 14
ENDMDL
