MODEL 1
REMARK VINA RESULT: -8.202176669      0.000      0.000
REMARK  11 active torsions:
REMARK  status: ('A' for Active; 'I' for Inactive)
REMARK    1  A    between atoms: S1_2  and  C2_3 
REMARK    2  A    between atoms: C2_3  and  C3_4 
REMARK    3  A    between atoms: N1_6  and  O1_7 
REMARK    4  A    between atoms: C6_10  and  N2_11 
REMARK    5  A    between atoms: N2_11  and  C7_13 
REMARK    6  A    between atoms: C7_13  and  C8_14 
REMARK    7  A    between atoms: C8_14  and  N3_15 
REMARK    8  A    between atoms: N3_15  and  C9_17 
REMARK    9  A    between atoms: C9_17  and  C10_18 
REMARK   10  A    between atoms: C10_18  and  O2_19 
REMARK   11  A    between atoms: C15_31  and  O4_32 
ROOT
HETATM    1  C3  UNL     1      15.413  30.490  -9.035  1.00  0.00    -0.015 A 
HETATM    2  C4  UNL     1      16.600  31.206  -9.118  1.00  0.00     0.132 A 
HETATM    3  N1  UNL     1      16.328  32.511  -8.871  1.00  0.00    -0.232 N 
HETATM    4  C5  UNL     1      15.002  32.637  -8.636  1.00  0.00     0.104 A 
HETATM    5  C6  UNL     1      14.170  33.724  -8.317  1.00  0.00     0.087 A 
HETATM    6  C11 UNL     1      12.838  33.532  -8.108  1.00  0.00     0.082 A 
HETATM    7  N4  UNL     1      12.090  34.608  -7.773  1.00  0.00    -0.330 N 
ATOM      8  H4  UNL     1      12.518  35.531  -7.698  1.00  0.00     0.168 HD
HETATM    9  C12 UNL     1      10.790  34.448  -7.544  1.00  0.00     0.179 A 
HETATM   10  S2  UNL     1       9.859  35.709  -7.142  1.00  0.00    -0.040 SA
HETATM   11  N5  UNL     1      10.220  33.243  -7.639  1.00  0.00    -0.299 N 
ATOM     12  H5  UNL     1       9.221  33.150  -7.458  1.00  0.00     0.171 HD
HETATM   13  C13 UNL     1      10.942  32.136  -7.972  1.00  0.00     0.263 A 
HETATM   14  O3  UNL     1      10.396  31.021  -8.055  1.00  0.00    -0.267 OA
HETATM   15  C14 UNL     1      12.276  32.273  -8.212  1.00  0.00     0.095 A 
HETATM   16  C15 UNL     1      13.044  31.173  -8.525  1.00  0.00     0.097 A 
HETATM   17  C16 UNL     1      14.414  31.408  -8.730  1.00  0.00     0.038 A 
ENDROOT
BRANCH   5  18
HETATM   18  N2  UNL     1      14.860  34.968  -8.285  1.00  0.00    -0.381 N 
ATOM     19  H2  UNL     1      15.062  35.436  -9.168  1.00  0.00     0.160 HD
BRANCH  18  20
HETATM   20  C7  UNL     1      15.283  35.590  -7.064  1.00  0.00     0.164 C 
BRANCH  20  21
HETATM   21  C8  UNL     1      15.813  36.957  -7.076  1.00  0.00     0.079 C 
BRANCH  21  22
HETATM   22  N3  UNL     1      16.958  37.243  -6.310  1.00  0.00    -0.379 N 
ATOM     23  H3  UNL     1      16.959  37.057  -5.308  1.00  0.00     0.164 HD
BRANCH  22  24
HETATM   24  C9  UNL     1      18.102  37.786  -6.924  1.00  0.00     0.086 C 
BRANCH  24  25
HETATM   25  C10 UNL     1      18.361  37.440  -8.348  1.00  0.00     0.208 C 
BRANCH  25  26
HETATM   26  O2  UNL     1      18.908  38.457  -9.101  1.00  0.00    -0.396 OA
ATOM     27  H2  UNL     1      19.853  38.537  -9.040  1.00  0.00     0.209 HD
ENDBRANCH  25  26
ENDBRANCH  24  25
ENDBRANCH  22  24
ENDBRANCH  21  22
ENDBRANCH  20  21
ENDBRANCH  18  20
ENDBRANCH   5  18
BRANCH   3  28
HETATM   28  O1  UNL     1      17.221  33.543  -8.836  1.00  0.00    -0.283 OA
ATOM     29  H1  UNL     1      17.518  34.068  -9.570  1.00  0.00     0.245 HD
ENDBRANCH   3  28
BRANCH   1  30
HETATM   30  C2  UNL     1      15.248  29.029  -9.227  1.00  0.00     0.114 C 
BRANCH  30  31
HETATM   31  S1  UNL     1      15.630  28.112  -7.718  1.00  0.00    -0.169 SA
HETATM   32  C1  UNL     1      15.497  29.252  -6.317  1.00  0.00     0.090 C 
ENDBRANCH  30  31
ENDBRANCH   1  30
BRANCH  16  33
HETATM   33  O4  UNL     1      12.596  29.914  -8.651  1.00  0.00    -0.359 OA
ATOM     34  H4  UNL     1      13.131  29.149  -8.824  1.00  0.00     0.217 HD
ENDBRANCH  16  33
TORSDOF 11
ENDMDL
MODEL 2
REMARK VINA RESULT: -8.124821996      1.276      1.417
REMARK  11 active torsions:
REMARK  status: ('A' for Active; 'I' for Inactive)
REMARK    1  A    between atoms: S1_2  and  C2_3 
REMARK    2  A    between atoms: C2_3  and  C3_4 
REMARK    3  A    between atoms: N1_6  and  O1_7 
REMARK    4  A    between atoms: C6_10  and  N2_11 
REMARK    5  A    between atoms: N2_11  and  C7_13 
REMARK    6  A    between atoms: C7_13  and  C8_14 
REMARK    7  A    between atoms: C8_14  and  N3_15 
REMARK    8  A    between atoms: N3_15  and  C9_17 
REMARK    9  A    between atoms: C9_17  and  C10_18 
REMARK   10  A    between atoms: C10_18  and  O2_19 
REMARK   11  A    between atoms: C15_31  and  O4_32 
ROOT
HETATM    1  C3  UNL     1      15.412  30.429  -9.017  1.00  0.00    -0.015 A 
HETATM    2  C4  UNL     1      16.606  31.136  -9.086  1.00  0.00     0.132 A 
HETATM    3  N1  UNL     1      16.343  32.441  -8.836  1.00  0.00    -0.232 N 
HETATM    4  C5  UNL     1      15.016  32.578  -8.613  1.00  0.00     0.104 A 
HETATM    5  C6  UNL     1      14.190  33.671  -8.297  1.00  0.00     0.087 A 
HETATM    6  C11 UNL     1      12.855  33.489  -8.102  1.00  0.00     0.082 A 
HETATM    7  N4  UNL     1      12.112  34.570  -7.769  1.00  0.00    -0.330 N 
ATOM      8  H4  UNL     1      12.548  35.489  -7.685  1.00  0.00     0.168 HD
HETATM    9  C12 UNL     1      10.809  34.420  -7.553  1.00  0.00     0.179 A 
HETATM   10  S2  UNL     1       9.885  35.687  -7.154  1.00  0.00    -0.040 SA
HETATM   11  N5  UNL     1      10.229  33.221  -7.659  1.00  0.00    -0.299 N 
ATOM     12  H5  UNL     1       9.228  33.135  -7.488  1.00  0.00     0.171 HD
HETATM   13  C13 UNL     1      10.946  32.109  -7.989  1.00  0.00     0.263 A 
HETATM   14  O3  UNL     1      10.391  30.999  -8.082  1.00  0.00    -0.267 OA
HETATM   15  C14 UNL     1      12.283  32.236  -8.216  1.00  0.00     0.095 A 
HETATM   16  C15 UNL     1      13.044  31.130  -8.527  1.00  0.00     0.097 A 
HETATM   17  C16 UNL     1      14.419  31.355  -8.718  1.00  0.00     0.038 A 
ENDROOT
BRANCH   5  18
HETATM   18  N2  UNL     1      14.890  34.908  -8.253  1.00  0.00    -0.381 N 
ATOM     19  H2  UNL     1      15.142  35.358  -9.133  1.00  0.00     0.160 HD
BRANCH  18  20
HETATM   20  C7  UNL     1      15.257  35.551  -7.024  1.00  0.00     0.164 C 
BRANCH  20  21
HETATM   21  C8  UNL     1      15.934  36.850  -7.042  1.00  0.00     0.079 C 
BRANCH  21  22
HETATM   22  N3  UNL     1      17.029  37.052  -6.181  1.00  0.00    -0.379 N 
ATOM     23  H3  UNL     1      17.508  36.251  -5.772  1.00  0.00     0.164 HD
BRANCH  22  24
HETATM   24  C9  UNL     1      17.463  38.356  -5.883  1.00  0.00     0.086 C 
BRANCH  24  25
HETATM   25  C10 UNL     1      17.488  38.775  -4.455  1.00  0.00     0.208 C 
BRANCH  25  26
HETATM   26  O2  UNL     1      17.066  37.814  -3.561  1.00  0.00    -0.396 OA
ATOM     27  H2  UNL     1      16.617  38.151  -2.793  1.00  0.00     0.209 HD
ENDBRANCH  25  26
ENDBRANCH  24  25
ENDBRANCH  22  24
ENDBRANCH  21  22
ENDBRANCH  20  21
ENDBRANCH  18  20
ENDBRANCH   5  18
BRANCH   3  28
HETATM   28  O1  UNL     1      17.244  33.466  -8.788  1.00  0.00    -0.283 OA
ATOM     29  H1  UNL     1      17.945  33.641  -9.405  1.00  0.00     0.245 HD
ENDBRANCH   3  28
BRANCH   1  30
HETATM   30  C2  UNL     1      15.237  28.970  -9.218  1.00  0.00     0.114 C 
BRANCH  30  31
HETATM   31  S1  UNL     1      15.626  28.042  -7.718  1.00  0.00    -0.169 SA
HETATM   32  C1  UNL     1      15.503  29.171  -6.307  1.00  0.00     0.090 C 
ENDBRANCH  30  31
ENDBRANCH   1  30
BRANCH  16  33
HETATM   33  O4  UNL     1      12.587  29.876  -8.663  1.00  0.00    -0.359 OA
ATOM     34  H4  UNL     1      12.388  29.443  -9.484  1.00  0.00     0.217 HD
ENDBRANCH  16  33
TORSDOF 11
ENDMDL
MODEL 3
REMARK VINA RESULT: -7.618089503      2.669      6.618
REMARK  11 active torsions:
REMARK  status: ('A' for Active; 'I' for Inactive)
REMARK    1  A    between atoms: S1_2  and  C2_3 
REMARK    2  A    between atoms: C2_3  and  C3_4 
REMARK    3  A    between atoms: N1_6  and  O1_7 
REMARK    4  A    between atoms: C6_10  and  N2_11 
REMARK    5  A    between atoms: N2_11  and  C7_13 
REMARK    6  A    between atoms: C7_13  and  C8_14 
REMARK    7  A    between atoms: C8_14  and  N3_15 
REMARK    8  A    between atoms: N3_15  and  C9_17 
REMARK    9  A    between atoms: C9_17  and  C10_18 
REMARK   10  A    between atoms: C10_18  and  O2_19 
REMARK   11  A    between atoms: C15_31  and  O4_32 
ROOT
HETATM    1  C3  UNL     1      12.270  33.712  -6.290  1.00  0.00    -0.015 A 
HETATM    2  C4  UNL     1      11.586  32.562  -6.659  1.00  0.00     0.132 A 
HETATM    3  N1  UNL     1      12.234  31.999  -7.708  1.00  0.00    -0.232 N 
HETATM    4  C5  UNL     1      13.307  32.765  -8.011  1.00  0.00     0.104 A 
HETATM    5  C6  UNL     1      14.329  32.671  -8.972  1.00  0.00     0.087 A 
HETATM    6  C11 UNL     1      15.316  33.608  -9.019  1.00  0.00     0.082 A 
HETATM    7  N4  UNL     1      16.291  33.451  -9.944  1.00  0.00    -0.330 N 
ATOM      8  H4  UNL     1      16.269  32.661 -10.589  1.00  0.00     0.168 HD
HETATM    9  C12 UNL     1      17.279  34.339 -10.001  1.00  0.00     0.179 A 
HETATM   10  S2  UNL     1      18.464  34.190 -11.092  1.00  0.00    -0.040 SA
HETATM   11  N5  UNL     1      17.318  35.377  -9.160  1.00  0.00    -0.299 N 
ATOM     12  H5  UNL     1      18.088  36.043  -9.227  1.00  0.00     0.171 HD
HETATM   13  C13 UNL     1      16.355  35.566  -8.214  1.00  0.00     0.263 A 
HETATM   14  O3  UNL     1      16.407  36.537  -7.437  1.00  0.00    -0.267 OA
HETATM   15  C14 UNL     1      15.332  34.669  -8.135  1.00  0.00     0.095 A 
HETATM   16  C15 UNL     1      14.354  34.813  -7.175  1.00  0.00     0.097 A 
HETATM   17  C16 UNL     1      13.354  33.826  -7.153  1.00  0.00     0.038 A 
ENDROOT
BRANCH   5  18
HETATM   18  N2  UNL     1      14.174  31.561  -9.849  1.00  0.00    -0.381 N 
ATOM     19  H2  UNL     1      13.609  31.679 -10.689  1.00  0.00     0.160 HD
BRANCH  18  20
HETATM   20  C7  UNL     1      14.778  30.284  -9.600  1.00  0.00     0.164 C 
BRANCH  20  21
HETATM   21  C8  UNL     1      15.467  30.026  -8.333  1.00  0.00     0.079 C 
BRANCH  21  22
HETATM   22  N3  UNL     1      14.720  29.532  -7.248  1.00  0.00    -0.379 N 
ATOM     23  H3  UNL     1      13.847  29.033  -7.416  1.00  0.00     0.164 HD
BRANCH  22  24
HETATM   24  C9  UNL     1      15.174  29.726  -5.930  1.00  0.00     0.086 C 
BRANCH  24  25
HETATM   25  C10 UNL     1      14.550  30.815  -5.129  1.00  0.00     0.208 C 
BRANCH  25  26
HETATM   26  O2  UNL     1      13.384  30.465  -4.484  1.00  0.00    -0.396 OA
ATOM     27  H2  UNL     1      12.586  30.689  -4.949  1.00  0.00     0.209 HD
ENDBRANCH  25  26
ENDBRANCH  24  25
ENDBRANCH  22  24
ENDBRANCH  21  22
ENDBRANCH  20  21
ENDBRANCH  18  20
ENDBRANCH   5  18
BRANCH   3  28
HETATM   28  O1  UNL     1      11.900  30.846  -8.357  1.00  0.00    -0.283 OA
ATOM     29  H1  UNL     1      11.382  30.764  -9.150  1.00  0.00     0.245 HD
ENDBRANCH   3  28
BRANCH   1  30
HETATM   30  C2  UNL     1      11.915  34.634  -5.183  1.00  0.00     0.114 C 
BRANCH  30  31
HETATM   31  S1  UNL     1      10.124  34.790  -4.997  1.00  0.00    -0.169 SA
HETATM   32  C1  UNL     1       9.481  35.663  -6.448  1.00  0.00     0.090 C 
ENDBRANCH  30  31
ENDBRANCH   1  30
BRANCH  16  33
HETATM   33  O4  UNL     1      14.278  35.805  -6.274  1.00  0.00    -0.359 OA
ATOM     34  H4  UNL     1      14.270  35.699  -5.331  1.00  0.00     0.217 HD
ENDBRANCH  16  33
TORSDOF 11
ENDMDL
MODEL 4
REMARK VINA RESULT: -7.379493528      2.860      6.820
REMARK  11 active torsions:
REMARK  status: ('A' for Active; 'I' for Inactive)
REMARK    1  A    between atoms: S1_2  and  C2_3 
REMARK    2  A    between atoms: C2_3  and  C3_4 
REMARK    3  A    between atoms: N1_6  and  O1_7 
REMARK    4  A    between atoms: C6_10  and  N2_11 
REMARK    5  A    between atoms: N2_11  and  C7_13 
REMARK    6  A    between atoms: C7_13  and  C8_14 
REMARK    7  A    between atoms: C8_14  and  N3_15 
REMARK    8  A    between atoms: N3_15  and  C9_17 
REMARK    9  A    between atoms: C9_17  and  C10_18 
REMARK   10  A    between atoms: C10_18  and  O2_19 
REMARK   11  A    between atoms: C15_31  and  O4_32 
ROOT
HETATM    1  C3  UNL     1      12.315  33.670  -6.308  1.00  0.00    -0.015 A 
HETATM    2  C4  UNL     1      11.650  32.502  -6.657  1.00  0.00     0.132 A 
HETATM    3  N1  UNL     1      12.303  31.936  -7.701  1.00  0.00    -0.232 N 
HETATM    4  C5  UNL     1      13.361  32.717  -8.020  1.00  0.00     0.104 A 
HETATM    5  C6  UNL     1      14.379  32.627  -8.985  1.00  0.00     0.087 A 
HETATM    6  C11 UNL     1      15.349  33.581  -9.051  1.00  0.00     0.082 A 
HETATM    7  N4  UNL     1      16.322  33.429  -9.979  1.00  0.00    -0.330 N 
ATOM      8  H4  UNL     1      16.311  32.629 -10.612  1.00  0.00     0.168 HD
HETATM    9  C12 UNL     1      17.293  34.334 -10.054  1.00  0.00     0.179 A 
HETATM   10  S2  UNL     1      18.476  34.190 -11.149  1.00  0.00    -0.040 SA
HETATM   11  N5  UNL     1      17.318  35.385  -9.228  1.00  0.00    -0.299 N 
ATOM     12  H5  UNL     1      18.074  36.063  -9.309  1.00  0.00     0.171 HD
HETATM   13  C13 UNL     1      16.356  35.570  -8.280  1.00  0.00     0.263 A 
HETATM   14  O3  UNL     1      16.394  36.553  -7.518  1.00  0.00    -0.267 OA
HETATM   15  C14 UNL     1      15.350  34.656  -8.182  1.00  0.00     0.095 A 
HETATM   16  C15 UNL     1      14.374  34.796  -7.220  1.00  0.00     0.097 A 
HETATM   17  C16 UNL     1      13.392  33.790  -7.178  1.00  0.00     0.038 A 
ENDROOT
BRANCH   5  18
HETATM   18  N2  UNL     1      14.241  31.502  -9.844  1.00  0.00    -0.381 N 
ATOM     19  H2  UNL     1      13.699  31.608 -10.702  1.00  0.00     0.160 HD
BRANCH  18  20
HETATM   20  C7  UNL     1      14.829  30.226  -9.556  1.00  0.00     0.164 C 
BRANCH  20  21
HETATM   21  C8  UNL     1      15.839  30.099  -8.501  1.00  0.00     0.079 C 
BRANCH  21  22
HETATM   22  N3  UNL     1      16.120  28.820  -7.988  1.00  0.00    -0.379 N 
ATOM     23  H3  UNL     1      16.235  28.031  -8.623  1.00  0.00     0.164 HD
BRANCH  22  24
HETATM   24  C9  UNL     1      16.243  28.626  -6.600  1.00  0.00     0.086 C 
BRANCH  24  25
HETATM   25  C10 UNL     1      16.908  27.382  -6.124  1.00  0.00     0.208 C 
BRANCH  25  26
HETATM   26  O2  UNL     1      18.089  27.581  -5.441  1.00  0.00    -0.396 OA
ATOM     27  H2  UNL     1      18.219  27.010  -4.692  1.00  0.00     0.209 HD
ENDBRANCH  25  26
ENDBRANCH  24  25
ENDBRANCH  22  24
ENDBRANCH  21  22
ENDBRANCH  20  21
ENDBRANCH  18  20
ENDBRANCH   5  18
BRANCH   3  28
HETATM   28  O1  UNL     1      11.988  30.767  -8.331  1.00  0.00    -0.283 OA
ATOM     29  H1  UNL     1      12.578  30.052  -8.539  1.00  0.00     0.245 HD
ENDBRANCH   3  28
BRANCH   1  30
HETATM   30  C2  UNL     1      11.948  34.601  -5.213  1.00  0.00     0.114 C 
BRANCH  30  31
HETATM   31  S1  UNL     1      10.158  34.814  -5.094  1.00  0.00    -0.169 SA
HETATM   32  C1  UNL     1       9.577  35.574  -6.632  1.00  0.00     0.090 C 
ENDBRANCH  30  31
ENDBRANCH   1  30
BRANCH  16  33
HETATM   33  O4  UNL     1      14.284  35.799  -6.333  1.00  0.00    -0.359 OA
ATOM     34  H4  UNL     1      13.835  36.624  -6.472  1.00  0.00     0.217 HD
ENDBRANCH  16  33
TORSDOF 11
ENDMDL
MODEL 5
REMARK VINA RESULT: -7.277110869      3.398      4.385
REMARK  11 active torsions:
REMARK  status: ('A' for Active; 'I' for Inactive)
REMARK    1  A    between atoms: S1_2  and  C2_3 
REMARK    2  A    between atoms: C2_3  and  C3_4 
REMARK    3  A    between atoms: N1_6  and  O1_7 
REMARK    4  A    between atoms: C6_10  and  N2_11 
REMARK    5  A    between atoms: N2_11  and  C7_13 
REMARK    6  A    between atoms: C7_13  and  C8_14 
REMARK    7  A    between atoms: C8_14  and  N3_15 
REMARK    8  A    between atoms: N3_15  and  C9_17 
REMARK    9  A    between atoms: C9_17  and  C10_18 
REMARK   10  A    between atoms: C10_18  and  O2_19 
REMARK   11  A    between atoms: C15_31  and  O4_32 
ROOT
HETATM    1  C3  UNL     1      15.017  30.394  -8.515  1.00  0.00    -0.015 A 
HETATM    2  C4  UNL     1      16.002  29.983  -9.404  1.00  0.00     0.132 A 
HETATM    3  N1  UNL     1      16.751  31.062  -9.737  1.00  0.00    -0.232 N 
HETATM    4  C5  UNL     1      16.264  32.142  -9.085  1.00  0.00     0.104 A 
HETATM    5  C6  UNL     1      16.637  33.497  -9.032  1.00  0.00     0.087 A 
HETATM    6  C11 UNL     1      15.949  34.368  -8.243  1.00  0.00     0.082 A 
HETATM    7  N4  UNL     1      16.371  35.654  -8.206  1.00  0.00    -0.330 N 
ATOM      8  H4  UNL     1      17.169  35.951  -8.768  1.00  0.00     0.168 HD
HETATM    9  C12 UNL     1      15.732  36.523  -7.430  1.00  0.00     0.179 A 
HETATM   10  S2  UNL     1      16.203  38.070  -7.357  1.00  0.00    -0.040 SA
HETATM   11  N5  UNL     1      14.687  36.143  -6.689  1.00  0.00    -0.299 N 
ATOM     12  H5  UNL     1      14.216  36.832  -6.103  1.00  0.00     0.171 HD
HETATM   13  C13 UNL     1      14.236  34.857  -6.699  1.00  0.00     0.263 A 
HETATM   14  O3  UNL     1      13.261  34.519  -6.002  1.00  0.00    -0.267 OA
HETATM   15  C14 UNL     1      14.873  33.946  -7.486  1.00  0.00     0.095 A 
HETATM   16  C15 UNL     1      14.462  32.631  -7.502  1.00  0.00     0.097 A 
HETATM   17  C16 UNL     1      15.196  31.759  -8.324  1.00  0.00     0.038 A 
ENDROOT
BRANCH   5  18
HETATM   18  N2  UNL     1      17.728  33.811  -9.889  1.00  0.00    -0.381 N 
ATOM     19  H2  UNL     1      18.576  33.248  -9.826  1.00  0.00     0.160 HD
BRANCH  18  20
HETATM   20  C7  UNL     1      17.687  34.887 -10.836  1.00  0.00     0.164 C 
BRANCH  20  21
HETATM   21  C8  UNL     1      16.570  35.001 -11.779  1.00  0.00     0.079 C 
BRANCH  21  22
HETATM   22  N3  UNL     1      16.805  35.587 -13.036  1.00  0.00    -0.379 N 
ATOM     23  H3  UNL     1      16.224  36.362 -13.352  1.00  0.00     0.164 HD
BRANCH  22  24
HETATM   24  C9  UNL     1      17.840  35.106 -13.858  1.00  0.00     0.086 C 
BRANCH  24  25
HETATM   25  C10 UNL     1      17.476  34.567 -15.196  1.00  0.00     0.208 C 
BRANCH  25  26
HETATM   26  O2  UNL     1      17.982  33.315 -15.475  1.00  0.00    -0.396 OA
ATOM     27  H2  UNL     1      17.507  32.594 -15.079  1.00  0.00     0.209 HD
ENDBRANCH  25  26
ENDBRANCH  24  25
ENDBRANCH  22  24
ENDBRANCH  21  22
ENDBRANCH  20  21
ENDBRANCH  18  20
ENDBRANCH   5  18
BRANCH   3  28
HETATM   28  O1  UNL     1      17.833  31.085 -10.569  1.00  0.00    -0.283 OA
ATOM     29  H1  UNL     1      17.825  31.175 -11.515  1.00  0.00     0.245 HD
ENDBRANCH   3  28
BRANCH   1  30
HETATM   30  C2  UNL     1      13.981  29.538  -7.888  1.00  0.00     0.114 C 
BRANCH  30  31
HETATM   31  S1  UNL     1      14.697  28.037  -7.181  1.00  0.00    -0.169 SA
HETATM   32  C1  UNL     1      16.170  28.507  -6.237  1.00  0.00     0.090 C 
ENDBRANCH  30  31
ENDBRANCH   1  30
BRANCH  16  33
HETATM   33  O4  UNL     1      13.432  32.123  -6.808  1.00  0.00    -0.359 OA
ATOM     34  H4  UNL     1      13.365  31.232  -6.486  1.00  0.00     0.217 HD
ENDBRANCH  16  33
TORSDOF 11
ENDMDL
