MODEL 1
REMARK VINA RESULT: -8.640107799      0.000      0.000
REMARK  13 active torsions:
REMARK  status: ('A' for Active; 'I' for Inactive)
REMARK    1  A    between atoms: C3_3  and  O1_4 
REMARK    2  A    between atoms: C7_9  and  C8_10 
REMARK    3  A    between atoms: C8_10  and  S1_11 
REMARK    4  A    between atoms: S1_11  and  C9_12 
REMARK    5  A    between atoms: C9_12  and  S2_18 
REMARK    6  A    between atoms: N1_13  and  N2_15 
REMARK    7  A    between atoms: S2_18  and  C10_19 
REMARK    8  A    between atoms: C10_19  and  C11_20 
REMARK    9  A    between atoms: C11_20  and  C12_21 
REMARK   10  A    between atoms: C12_21  and  C13_22 
REMARK   11  A    between atoms: C13_22  and  N3_23 
REMARK   12  A    between atoms: C14_27  and  O2_28 
REMARK   13  A    between atoms: C17_35  and  O4_36 
ROOT
HETATM    1  C1  UNL     1      17.412  35.416  -9.958  1.00  0.00     0.054 C 
HETATM    2  C2  UNL     1      16.709  34.356  -9.182  1.00  0.00     0.007 A 
HETATM    3  C3  UNL     1      16.748  33.041  -9.525  1.00  0.00     0.081 A 
HETATM    4  C4  UNL     1      15.960  32.072  -8.867  1.00  0.00    -0.015 A 
HETATM    5  C5  UNL     1      16.141  30.664  -9.167  1.00  0.00     0.052 C 
HETATM    6  C6  UNL     1      15.140  32.496  -7.862  1.00  0.00     0.012 A 
HETATM    7  C7  UNL     1      14.210  31.642  -7.302  1.00  0.00     0.004 A 
HETATM    8  C14 UNL     1      13.322  32.169  -6.374  1.00  0.00     0.142 A 
HETATM    9  C15 UNL     1      13.313  33.473  -5.999  1.00  0.00     0.279 A 
HETATM   10  O3  UNL     1      12.486  33.878  -5.134  1.00  0.00    -0.265 OA
HETATM   11  N4  UNL     1      14.203  34.282  -6.565  1.00  0.00    -0.318 N 
ATOM     12  H4  UNL     1      14.207  35.266  -6.299  1.00  0.00     0.169 HD
HETATM   13  C16 UNL     1      15.081  33.866  -7.457  1.00  0.00     0.080 A 
HETATM   14  C17 UNL     1      15.880  34.789  -8.128  1.00  0.00     0.102 A 
ENDROOT
BRANCH   7  15
HETATM   15  C8  UNL     1      14.062  30.270  -7.809  1.00  0.00     0.124 C 
BRANCH  15  16
HETATM   16  S1  UNL     1      14.919  29.190  -6.527  1.00  0.00    -0.099 SA
BRANCH  16  17
HETATM   17  C9  UNL     1      15.816  27.839  -7.199  1.00  0.00     0.122 C 
HETATM   18  N1  UNL     1      15.571  27.527  -8.387  1.00  0.00    -0.295 N 
ATOM     19  H1  UNL     1      14.855  28.153  -8.754  1.00  0.00     0.187 HD
BRANCH  18  20
HETATM   20  N2  UNL     1      15.917  26.670  -9.331  1.00  0.00    -0.344 N 
ATOM     21  H22 UNL     1      16.925  26.531  -9.262  1.00  0.00     0.176 HD
ATOM     22  H21 UNL     1      15.529  26.110 -10.089  1.00  0.00     0.176 HD
ENDBRANCH  18  20
BRANCH  17  23
HETATM   23  S2  UNL     1      17.043  27.021  -6.166  1.00  0.00    -0.104 SA
BRANCH  23  24
HETATM   24  C10 UNL     1      17.114  25.258  -6.581  1.00  0.00     0.081 C 
BRANCH  24  25
HETATM   25  C11 UNL     1      18.236  24.644  -5.748  1.00  0.00     0.012 C 
BRANCH  25  26
HETATM   26  C12 UNL     1      19.228  25.763  -5.379  1.00  0.00     0.028 C 
BRANCH  26  27
HETATM   27  C13 UNL     1      20.459  25.175  -4.725  1.00  0.00     0.229 C 
BRANCH  27  28
HETATM   28  N3  UNL     1      20.452  23.730  -4.684  1.00  0.00    -0.079 N 
ATOM     29  H33 UNL     1      19.974  23.394  -3.848  1.00  0.00     0.274 HD
ATOM     30  H32 UNL     1      19.830  23.351  -5.398  1.00  0.00     0.274 HD
ATOM     31  H31 UNL     1      21.382  23.319  -4.760  1.00  0.00     0.274 HD
ENDBRANCH  27  28
ENDBRANCH  26  27
ENDBRANCH  25  26
ENDBRANCH  24  25
ENDBRANCH  23  24
ENDBRANCH  17  23
ENDBRANCH  16  17
ENDBRANCH  15  16
ENDBRANCH   7  15
BRANCH   8  32
HETATM   32  O2  UNL     1      12.421  31.232  -5.848  1.00  0.00    -0.355 OA
ATOM     33  H2  UNL     1      12.249  31.340  -4.920  1.00  0.00     0.218 HD
ENDBRANCH   8  32
BRANCH   3  34
HETATM   34  O1  UNL     1      17.545  32.573 -10.525  1.00  0.00    -0.359 OA
ATOM     35  H1  UNL     1      17.413  31.721 -10.921  1.00  0.00     0.217 HD
ENDBRANCH   3  34
BRANCH  14  36
HETATM   36  O4  UNL     1      15.878  36.110  -7.790  1.00  0.00    -0.358 OA
ATOM     37  H4  UNL     1      15.105  36.629  -7.974  1.00  0.00     0.217 HD
ENDBRANCH  14  36
TORSDOF 13
ENDMDL
MODEL 2
REMARK VINA RESULT: -8.380061743      1.014      1.081
REMARK  13 active torsions:
REMARK  status: ('A' for Active; 'I' for Inactive)
REMARK    1  A    between atoms: C3_3  and  O1_4 
REMARK    2  A    between atoms: C7_9  and  C8_10 
REMARK    3  A    between atoms: C8_10  and  S1_11 
REMARK    4  A    between atoms: S1_11  and  C9_12 
REMARK    5  A    between atoms: C9_12  and  S2_18 
REMARK    6  A    between atoms: N1_13  and  N2_15 
REMARK    7  A    between atoms: S2_18  and  C10_19 
REMARK    8  A    between atoms: C10_19  and  C11_20 
REMARK    9  A    between atoms: C11_20  and  C12_21 
REMARK   10  A    between atoms: C12_21  and  C13_22 
REMARK   11  A    between atoms: C13_22  and  N3_23 
REMARK   12  A    between atoms: C14_27  and  O2_28 
REMARK   13  A    between atoms: C17_35  and  O4_36 
ROOT
HETATM    1  C1  UNL     1      16.893  34.913 -10.354  1.00  0.00     0.054 C 
HETATM    2  C2  UNL     1      16.433  33.887  -9.376  1.00  0.00     0.007 A 
HETATM    3  C3  UNL     1      16.655  32.556  -9.543  1.00  0.00     0.081 A 
HETATM    4  C4  UNL     1      16.087  31.590  -8.685  1.00  0.00    -0.015 A 
HETATM    5  C5  UNL     1      16.467  30.195  -8.811  1.00  0.00     0.052 C 
HETATM    6  C6  UNL     1      15.292  32.032  -7.668  1.00  0.00     0.012 A 
HETATM    7  C7  UNL     1      14.557  31.142  -6.908  1.00  0.00     0.004 A 
HETATM    8  C14 UNL     1      13.672  31.664  -5.974  1.00  0.00     0.142 A 
HETATM    9  C15 UNL     1      13.484  32.993  -5.778  1.00  0.00     0.279 A 
HETATM   10  O3  UNL     1      12.674  33.395  -4.895  1.00  0.00    -0.265 OA
HETATM   11  N4  UNL     1      14.185  33.831  -6.534  1.00  0.00    -0.318 N 
ATOM     12  H4  UNL     1      14.053  34.834  -6.403  1.00  0.00     0.169 HD
HETATM   13  C16 UNL     1      15.046  33.422  -7.446  1.00  0.00     0.080 A 
HETATM   14  C17 UNL     1      15.631  34.344  -8.311  1.00  0.00     0.102 A 
ENDROOT
BRANCH   7  15
HETATM   15  C8  UNL     1      14.592  29.704  -7.209  1.00  0.00     0.124 C 
BRANCH  15  16
HETATM   16  S1  UNL     1      15.754  28.972  -5.922  1.00  0.00    -0.099 SA
BRANCH  16  17
HETATM   17  C9  UNL     1      16.591  27.519  -6.443  1.00  0.00     0.122 C 
HETATM   18  N1  UNL     1      16.247  27.026  -7.542  1.00  0.00    -0.295 N 
ATOM     19  H1  UNL     1      15.503  27.596  -7.943  1.00  0.00     0.187 HD
BRANCH  18  20
HETATM   20  N2  UNL     1      16.512  26.026  -8.362  1.00  0.00    -0.344 N 
ATOM     21  H22 UNL     1      16.780  25.225  -7.790  1.00  0.00     0.176 HD
ATOM     22  H21 UNL     1      16.539  25.784  -9.353  1.00  0.00     0.176 HD
ENDBRANCH  18  20
BRANCH  17  23
HETATM   23  S2  UNL     1      17.898  26.857  -5.397  1.00  0.00    -0.104 SA
BRANCH  23  24
HETATM   24  C10 UNL     1      18.140  25.097  -5.760  1.00  0.00     0.081 C 
BRANCH  24  25
HETATM   25  C11 UNL     1      18.351  24.387  -4.425  1.00  0.00     0.012 C 
BRANCH  25  26
HETATM   26  C12 UNL     1      19.520  23.398  -4.586  1.00  0.00     0.028 C 
BRANCH  26  27
HETATM   27  C13 UNL     1      20.754  23.930  -3.888  1.00  0.00     0.229 C 
BRANCH  27  28
HETATM   28  N3  UNL     1      20.617  23.989  -2.450  1.00  0.00    -0.079 N 
ATOM     29  H33 UNL     1      20.335  24.923  -2.151  1.00  0.00     0.274 HD
ATOM     30  H32 UNL     1      19.802  23.460  -2.141  1.00  0.00     0.274 HD
ATOM     31  H31 UNL     1      21.455  23.688  -1.951  1.00  0.00     0.274 HD
ENDBRANCH  27  28
ENDBRANCH  26  27
ENDBRANCH  25  26
ENDBRANCH  24  25
ENDBRANCH  23  24
ENDBRANCH  17  23
ENDBRANCH  16  17
ENDBRANCH  15  16
ENDBRANCH   7  15
BRANCH   8  32
HETATM   32  O2  UNL     1      12.978  30.692  -5.239  1.00  0.00    -0.355 OA
ATOM     33  H2  UNL     1      13.507  30.253  -4.583  1.00  0.00     0.218 HD
ENDBRANCH   8  32
BRANCH   3  34
HETATM   34  O1  UNL     1      17.435  32.069 -10.546  1.00  0.00    -0.359 OA
ATOM     35  H1  UNL     1      18.096  31.403 -10.397  1.00  0.00     0.217 HD
ENDBRANCH   3  34
BRANCH  14  36
HETATM   36  O4  UNL     1      15.444  35.685  -8.155  1.00  0.00    -0.358 OA
ATOM     37  H4  UNL     1      14.628  35.994  -7.781  1.00  0.00     0.217 HD
ENDBRANCH  14  36
TORSDOF 13
ENDMDL
MODEL 3
REMARK VINA RESULT: -8.324309372      1.599      3.612
REMARK  13 active torsions:
REMARK  status: ('A' for Active; 'I' for Inactive)
REMARK    1  A    between atoms: C3_3  and  O1_4 
REMARK    2  A    between atoms: C7_9  and  C8_10 
REMARK    3  A    between atoms: C8_10  and  S1_11 
REMARK    4  A    between atoms: S1_11  and  C9_12 
REMARK    5  A    between atoms: C9_12  and  S2_18 
REMARK    6  A    between atoms: N1_13  and  N2_15 
REMARK    7  A    between atoms: S2_18  and  C10_19 
REMARK    8  A    between atoms: C10_19  and  C11_20 
REMARK    9  A    between atoms: C11_20  and  C12_21 
REMARK   10  A    between atoms: C12_21  and  C13_22 
REMARK   11  A    between atoms: C13_22  and  N3_23 
REMARK   12  A    between atoms: C14_27  and  O2_28 
REMARK   13  A    between atoms: C17_35  and  O4_36 
ROOT
HETATM    1  C1  UNL     1      11.420  34.579  -6.633  1.00  0.00     0.054 C 
HETATM    2  C2  UNL     1      12.337  33.703  -7.415  1.00  0.00     0.007 A 
HETATM    3  C3  UNL     1      12.149  32.362  -7.540  1.00  0.00     0.081 A 
HETATM    4  C4  UNL     1      13.104  31.527  -8.160  1.00  0.00    -0.015 A 
HETATM    5  C5  UNL     1      12.797  30.129  -8.401  1.00  0.00     0.052 C 
HETATM    6  C6  UNL     1      14.243  32.109  -8.635  1.00  0.00     0.012 A 
HETATM    7  C7  UNL     1      15.297  31.334  -9.083  1.00  0.00     0.004 A 
HETATM    8  C14 UNL     1      16.473  31.983  -9.435  1.00  0.00     0.142 A 
HETATM    9  C15 UNL     1      16.645  33.327  -9.351  1.00  0.00     0.279 A 
HETATM   10  O3  UNL     1      17.739  33.848  -9.707  1.00  0.00    -0.265 OA
HETATM   11  N4  UNL     1      15.626  34.049  -8.899  1.00  0.00    -0.318 N 
ATOM     12  H4  UNL     1      15.739  35.060  -8.825  1.00  0.00     0.169 HD
HETATM   13  C16 UNL     1      14.474  33.516  -8.540  1.00  0.00     0.080 A 
HETATM   14  C17 UNL     1      13.503  34.305  -7.928  1.00  0.00     0.102 A 
ENDROOT
BRANCH   7  15
HETATM   15  C8  UNL     1      15.221  29.869  -9.017  1.00  0.00     0.124 C 
BRANCH  15  16
HETATM   16  S1  UNL     1      15.891  29.429  -7.314  1.00  0.00    -0.099 SA
BRANCH  16  17
HETATM   17  C9  UNL     1      16.445  27.770  -7.157  1.00  0.00     0.122 C 
HETATM   18  N1  UNL     1      16.270  27.015  -8.142  1.00  0.00    -0.295 N 
ATOM     19  H1  UNL     1      15.810  27.541  -8.885  1.00  0.00     0.187 HD
BRANCH  18  20
HETATM   20  N2  UNL     1      16.472  25.777  -8.553  1.00  0.00    -0.344 N 
ATOM     21  H22 UNL     1      16.227  25.741  -9.542  1.00  0.00     0.176 HD
ATOM     22  H21 UNL     1      16.784  24.862  -8.227  1.00  0.00     0.176 HD
ENDBRANCH  18  20
BRANCH  17  23
HETATM   23  S2  UNL     1      17.254  27.273  -5.627  1.00  0.00    -0.104 SA
BRANCH  23  24
HETATM   24  C10 UNL     1      18.582  26.095  -5.993  1.00  0.00     0.081 C 
BRANCH  24  25
HETATM   25  C11 UNL     1      18.077  24.710  -5.596  1.00  0.00     0.012 C 
BRANCH  25  26
HETATM   26  C12 UNL     1      18.447  24.469  -4.120  1.00  0.00     0.028 C 
BRANCH  26  27
HETATM   27  C13 UNL     1      19.609  23.505  -4.024  1.00  0.00     0.229 C 
BRANCH  27  28
HETATM   28  N3  UNL     1      20.578  23.874  -3.017  1.00  0.00    -0.079 N 
ATOM     29  H33 UNL     1      20.540  24.876  -2.827  1.00  0.00     0.274 HD
ATOM     30  H32 UNL     1      20.303  23.519  -2.102  1.00  0.00     0.274 HD
ATOM     31  H31 UNL     1      21.530  23.586  -3.246  1.00  0.00     0.274 HD
ENDBRANCH  27  28
ENDBRANCH  26  27
ENDBRANCH  25  26
ENDBRANCH  24  25
ENDBRANCH  23  24
ENDBRANCH  17  23
ENDBRANCH  16  17
ENDBRANCH  15  16
ENDBRANCH   7  15
BRANCH   8  32
HETATM   32  O2  UNL     1      17.485  31.125  -9.889  1.00  0.00    -0.355 OA
ATOM     33  H2  UNL     1      18.050  31.509 -10.550  1.00  0.00     0.218 HD
ENDBRANCH   8  32
BRANCH   3  34
HETATM   34  O1  UNL     1      11.032  31.738  -7.075  1.00  0.00    -0.359 OA
ATOM     35  H1  UNL     1      11.048  30.845  -6.752  1.00  0.00     0.217 HD
ENDBRANCH   3  34
BRANCH  14  36
HETATM   36  O4  UNL     1      13.655  35.655  -7.809  1.00  0.00    -0.358 OA
ATOM     37  H4  UNL     1      14.173  35.996  -7.090  1.00  0.00     0.217 HD
ENDBRANCH  14  36
TORSDOF 13
ENDMDL
MODEL 4
REMARK VINA RESULT: -8.278151187      2.887      5.076
REMARK  13 active torsions:
REMARK  status: ('A' for Active; 'I' for Inactive)
REMARK    1  A    between atoms: C3_3  and  O1_4 
REMARK    2  A    between atoms: C7_9  and  C8_10 
REMARK    3  A    between atoms: C8_10  and  S1_11 
REMARK    4  A    between atoms: S1_11  and  C9_12 
REMARK    5  A    between atoms: C9_12  and  S2_18 
REMARK    6  A    between atoms: N1_13  and  N2_15 
REMARK    7  A    between atoms: S2_18  and  C10_19 
REMARK    8  A    between atoms: C10_19  and  C11_20 
REMARK    9  A    between atoms: C11_20  and  C12_21 
REMARK   10  A    between atoms: C12_21  and  C13_22 
REMARK   11  A    between atoms: C13_22  and  N3_23 
REMARK   12  A    between atoms: C14_27  and  O2_28 
REMARK   13  A    between atoms: C17_35  and  O4_36 
ROOT
HETATM    1  C1  UNL     1      17.346  38.875  -6.637  1.00  0.00     0.054 C 
HETATM    2  C2  UNL     1      16.993  37.590  -7.304  1.00  0.00     0.007 A 
HETATM    3  C3  UNL     1      16.110  36.701  -6.776  1.00  0.00     0.081 A 
HETATM    4  C4  UNL     1      15.899  35.427  -7.345  1.00  0.00    -0.015 A 
HETATM    5  C5  UNL     1      14.845  34.571  -6.835  1.00  0.00     0.052 C 
HETATM    6  C6  UNL     1      16.618  35.102  -8.458  1.00  0.00     0.012 A 
HETATM    7  C7  UNL     1      16.602  33.813  -8.957  1.00  0.00     0.004 A 
HETATM    8  C14 UNL     1      17.453  33.517 -10.014  1.00  0.00     0.142 A 
HETATM    9  C15 UNL     1      18.302  34.418 -10.571  1.00  0.00     0.279 A 
HETATM   10  O3  UNL     1      19.034  34.080 -11.543  1.00  0.00    -0.265 OA
HETATM   11  N4  UNL     1      18.317  35.645 -10.061  1.00  0.00    -0.318 N 
ATOM     12  H4  UNL     1      18.952  36.333 -10.463  1.00  0.00     0.169 HD
HETATM   13  C16 UNL     1      17.544  36.012  -9.057  1.00  0.00     0.080 A 
HETATM   14  C17 UNL     1      17.718  37.262  -8.468  1.00  0.00     0.102 A 
ENDROOT
BRANCH   7  15
HETATM   15  C8  UNL     1      15.837  32.762  -8.273  1.00  0.00     0.124 C 
BRANCH  15  16
HETATM   16  S1  UNL     1      14.312  32.503  -9.346  1.00  0.00    -0.099 SA
BRANCH  16  17
HETATM   17  C9  UNL     1      13.143  31.372  -8.684  1.00  0.00     0.122 C 
HETATM   18  N1  UNL     1      11.931  31.661  -8.818  1.00  0.00    -0.295 N 
ATOM     19  H1  UNL     1      11.854  32.550  -9.312  1.00  0.00     0.187 HD
BRANCH  18  20
HETATM   20  N2  UNL     1      10.719  31.217  -8.543  1.00  0.00    -0.344 N 
ATOM     21  H22 UNL     1      10.583  30.355  -9.072  1.00  0.00     0.176 HD
ATOM     22  H21 UNL     1       9.888  31.435  -7.993  1.00  0.00     0.176 HD
ENDBRANCH  18  20
BRANCH  17  23
HETATM   23  S2  UNL     1      13.748  29.870  -7.897  1.00  0.00    -0.104 SA
BRANCH  23  24
HETATM   24  C10 UNL     1      15.103  29.170  -8.877  1.00  0.00     0.081 C 
BRANCH  24  25
HETATM   25  C11 UNL     1      15.496  27.848  -8.223  1.00  0.00     0.012 C 
BRANCH  25  26
HETATM   26  C12 UNL     1      16.251  28.163  -6.918  1.00  0.00     0.028 C 
BRANCH  26  27
HETATM   27  C13 UNL     1      16.929  26.917  -6.393  1.00  0.00     0.229 C 
BRANCH  27  28
HETATM   28  N3  UNL     1      17.732  27.154  -5.215  1.00  0.00    -0.079 N 
ATOM     29  H33 UNL     1      17.832  28.154  -5.040  1.00  0.00     0.274 HD
ATOM     30  H32 UNL     1      17.226  26.885  -4.371  1.00  0.00     0.274 HD
ATOM     31  H31 UNL     1      18.645  26.700  -5.249  1.00  0.00     0.274 HD
ENDBRANCH  27  28
ENDBRANCH  26  27
ENDBRANCH  25  26
ENDBRANCH  24  25
ENDBRANCH  23  24
ENDBRANCH  17  23
ENDBRANCH  16  17
ENDBRANCH  15  16
ENDBRANCH   7  15
BRANCH   8  32
HETATM   32  O2  UNL     1      17.363  32.193 -10.467  1.00  0.00    -0.355 OA
ATOM     33  H2  UNL     1      17.433  32.101 -11.410  1.00  0.00     0.218 HD
ENDBRANCH   8  32
BRANCH   3  34
HETATM   34  O1  UNL     1      15.376  36.980  -5.664  1.00  0.00    -0.359 OA
ATOM     35  H1  UNL     1      14.953  37.820  -5.533  1.00  0.00     0.217 HD
ENDBRANCH   3  34
BRANCH  14  36
HETATM   36  O4  UNL     1      18.579  38.181  -8.989  1.00  0.00    -0.358 OA
ATOM     37  H4  UNL     1      18.226  38.918  -9.472  1.00  0.00     0.217 HD
ENDBRANCH  14  36
TORSDOF 13
ENDMDL
MODEL 5
REMARK VINA RESULT: -8.238104950      1.901      2.220
REMARK  13 active torsions:
REMARK  status: ('A' for Active; 'I' for Inactive)
REMARK    1  A    between atoms: C3_3  and  O1_4 
REMARK    2  A    between atoms: C7_9  and  C8_10 
REMARK    3  A    between atoms: C8_10  and  S1_11 
REMARK    4  A    between atoms: S1_11  and  C9_12 
REMARK    5  A    between atoms: C9_12  and  S2_18 
REMARK    6  A    between atoms: N1_13  and  N2_15 
REMARK    7  A    between atoms: S2_18  and  C10_19 
REMARK    8  A    between atoms: C10_19  and  C11_20 
REMARK    9  A    between atoms: C11_20  and  C12_21 
REMARK   10  A    between atoms: C12_21  and  C13_22 
REMARK   11  A    between atoms: C13_22  and  N3_23 
REMARK   12  A    between atoms: C14_27  and  O2_28 
REMARK   13  A    between atoms: C17_35  and  O4_36 
ROOT
HETATM    1  C1  UNL     1      16.905  36.582  -7.760  1.00  0.00     0.054 C 
HETATM    2  C2  UNL     1      16.182  35.283  -7.853  1.00  0.00     0.007 A 
HETATM    3  C3  UNL     1      16.589  34.268  -8.661  1.00  0.00     0.081 A 
HETATM    4  C4  UNL     1      15.814  33.103  -8.847  1.00  0.00    -0.015 A 
HETATM    5  C5  UNL     1      16.353  31.985  -9.600  1.00  0.00     0.052 C 
HETATM    6  C6  UNL     1      14.622  33.021  -8.188  1.00  0.00     0.012 A 
HETATM    7  C7  UNL     1      13.731  32.002  -8.466  1.00  0.00     0.004 A 
HETATM    8  C14 UNL     1      12.485  32.046  -7.854  1.00  0.00     0.142 A 
HETATM    9  C15 UNL     1      12.095  33.038  -7.013  1.00  0.00     0.279 A 
HETATM   10  O3  UNL     1      10.951  33.002  -6.479  1.00  0.00    -0.265 OA
HETATM   11  N4  UNL     1      12.960  34.018  -6.777  1.00  0.00    -0.318 N 
ATOM     12  H4  UNL     1      12.682  34.774  -6.151  1.00  0.00     0.169 HD
HETATM   13  C16 UNL     1      14.163  34.056  -7.316  1.00  0.00     0.080 A 
HETATM   14  C17 UNL     1      14.962  35.186  -7.154  1.00  0.00     0.102 A 
ENDROOT
BRANCH   7  15
HETATM   15  C8  UNL     1      14.038  31.010  -9.505  1.00  0.00     0.124 C 
BRANCH  15  16
HETATM   16  S1  UNL     1      14.017  29.354  -8.610  1.00  0.00    -0.099 SA
BRANCH  16  17
HETATM   17  C9  UNL     1      14.657  29.404  -6.975  1.00  0.00     0.122 C 
HETATM   18  N1  UNL     1      13.963  29.984  -6.109  1.00  0.00    -0.295 N 
ATOM     19  H1  UNL     1      13.112  30.338  -6.547  1.00  0.00     0.187 HD
BRANCH  18  20
HETATM   20  N2  UNL     1      13.947  30.298  -4.827  1.00  0.00    -0.344 N 
ATOM     21  H22 UNL     1      14.219  29.465  -4.306  1.00  0.00     0.176 HD
ATOM     22  H21 UNL     1      13.761  31.074  -4.191  1.00  0.00     0.176 HD
ENDBRANCH  18  20
BRANCH  17  23
HETATM   23  S2  UNL     1      16.232  28.599  -6.643  1.00  0.00    -0.104 SA
BRANCH  23  24
HETATM   24  C10 UNL     1      16.262  26.965  -7.429  1.00  0.00     0.081 C 
BRANCH  24  25
HETATM   25  C11 UNL     1      17.088  26.049  -6.530  1.00  0.00     0.012 C 
BRANCH  25  26
HETATM   26  C12 UNL     1      17.826  26.923  -5.500  1.00  0.00     0.028 C 
BRANCH  26  27
HETATM   27  C13 UNL     1      18.876  26.106  -4.778  1.00  0.00     0.229 C 
BRANCH  27  28
HETATM   28  N3  UNL     1      19.899  25.585  -5.656  1.00  0.00    -0.079 N 
ATOM     29  H33 UNL     1      19.496  25.281  -6.542  1.00  0.00     0.274 HD
ATOM     30  H32 UNL     1      20.503  26.334  -5.994  1.00  0.00     0.274 HD
ATOM     31  H31 UNL     1      20.452  24.838  -5.234  1.00  0.00     0.274 HD
ENDBRANCH  27  28
ENDBRANCH  26  27
ENDBRANCH  25  26
ENDBRANCH  24  25
ENDBRANCH  23  24
ENDBRANCH  17  23
ENDBRANCH  16  17
ENDBRANCH  15  16
ENDBRANCH   7  15
BRANCH   8  32
HETATM   32  O2  UNL     1      11.649  30.969  -8.180  1.00  0.00    -0.355 OA
ATOM     33  H2  UNL     1      11.418  30.420  -7.440  1.00  0.00     0.218 HD
ENDBRANCH   8  32
BRANCH   3  34
HETATM   34  O1  UNL     1      17.766  34.308  -9.343  1.00  0.00    -0.359 OA
ATOM     35  H1  UNL     1      18.339  35.066  -9.320  1.00  0.00     0.217 HD
ENDBRANCH   3  34
BRANCH  14  36
HETATM   36  O4  UNL     1      14.589  36.209  -6.334  1.00  0.00    -0.358 OA
ATOM     37  H4  UNL     1      14.042  36.018  -5.582  1.00  0.00     0.217 HD
ENDBRANCH  14  36
TORSDOF 13
ENDMDL
