MODEL 1
REMARK VINA RESULT: -8.566230835      0.000      0.000
REMARK  16 active torsions:
REMARK  status: ('A' for Active; 'I' for Inactive)
REMARK    1  A    between atoms: O1_2  and  C2_3 
REMARK    2  A    between atoms: C6_10  and  O3_11 
REMARK    3  A    between atoms: C7_13  and  O4_14 
REMARK    4  A    between atoms: O4_14  and  C8_15 
REMARK    5  A    between atoms: C9_16  and  O5_17 
REMARK    6  A    between atoms: C13_22  and  O6_23 
REMARK    7  A    between atoms: O6_23  and  C14_24 
REMARK    8  A    between atoms: C17_27  and  N2_28 
REMARK    9  A    between atoms: C18_32  and  O7_33 
REMARK   10  A    between atoms: O7_33  and  C19_34 
REMARK   11  A    between atoms: C21_36  and  O8_37 
REMARK   12  A    between atoms: C21_36  and  C22_39 
REMARK   13  A    between atoms: C25_43  and  O10_44 
REMARK   14  A    between atoms: C26_47  and  O12_48 
REMARK   15  A    between atoms: C27_50  and  C28_51 
REMARK   16  A    between atoms: C28_51  and  O13_52 
ROOT
HETATM    1  C8  UNL     1       2.702  30.997 -12.149  1.00  0.00     0.182 C 
HETATM    2  C9  UNL     1       3.078  32.242 -12.927  1.00  0.00     0.150 C 
HETATM    3  C10 UNL     1       1.881  33.157 -12.918  1.00  0.00     0.041 C 
HETATM    4  C11 UNL     1       1.459  33.542 -11.528  1.00  0.00     0.016 C 
HETATM    5  C12 UNL     1       2.447  34.474 -10.920  1.00  0.00     0.012 C 
HETATM    6  C13 UNL     1       1.226  32.273 -10.732  1.00  0.00     0.159 C 
HETATM    7  C26 UNL     1       2.483  31.423 -10.726  1.00  0.00     0.179 C 
ENDROOT
BRANCH   6   8
HETATM    8  O6  UNL     1       0.708  32.508  -9.493  1.00  0.00    -0.353 OA
BRANCH   8   9
HETATM    9  C14 UNL     1      -0.559  31.950  -9.365  1.00  0.00     0.263 C 
HETATM   10  C15 UNL     1      -1.648  32.970  -9.368  1.00  0.00     0.063 C 
HETATM   11  C16 UNL     1      -2.969  32.284  -9.167  1.00  0.00     0.042 C 
HETATM   12  C17 UNL     1      -2.887  30.813  -9.373  1.00  0.00     0.238 C 
HETATM   13  C18 UNL     1      -1.880  30.338 -10.361  1.00  0.00     0.293 C 
HETATM   14  O11 UNL     1      -0.741  31.101 -10.453  1.00  0.00    -0.329 OA
BRANCH  12  15
HETATM   15  N2  UNL     1      -2.791  30.072  -8.116  1.00  0.00    -0.070 N 
ATOM     16  H23 UNL     1      -1.863  30.171  -7.702  1.00  0.00     0.274 HD
ATOM     17  H22 UNL     1      -3.346  30.517  -7.385  1.00  0.00     0.274 HD
ATOM     18  H21 UNL     1      -3.042  29.088  -8.219  1.00  0.00     0.274 HD
ENDBRANCH  12  15
BRANCH  13  19
HETATM   19  O7  UNL     1      -2.442  30.100 -11.627  1.00  0.00    -0.349 OA
BRANCH  19  20
HETATM   20  C19 UNL     1      -1.628  29.341 -12.439  1.00  0.00     0.184 C 
HETATM   21  C20 UNL     1      -2.233  29.150 -13.826  1.00  0.00     0.105 C 
HETATM   22  C21 UNL     1      -1.945  27.689 -14.085  1.00  0.00     0.170 C 
HETATM   23  O9  UNL     1      -2.169  27.114 -12.839  1.00  0.00    -0.323 OA
HETATM   24  C25 UNL     1      -1.483  27.931 -11.961  1.00  0.00     0.289 C 
BRANCH  22  25
HETATM   25  O8  UNL     1      -0.626  27.544 -14.449  1.00  0.00    -0.365 OA
ATOM     26  H8  UNL     1      -0.529  26.753 -14.965  1.00  0.00     0.213 HD
ENDBRANCH  22  25
BRANCH  22  27
HETATM   27  C22 UNL     1      -2.869  27.118 -15.141  1.00  0.00     0.040 C 
HETATM   28  C23 UNL     1      -2.191  25.993 -15.881  1.00  0.00     0.015 C 
HETATM   29  C24 UNL     1      -3.203  28.204 -16.127  1.00  0.00     0.015 C 
ENDBRANCH  22  27
BRANCH  24  30
HETATM   30  O10 UNL     1      -0.134  27.535 -11.974  1.00  0.00    -0.368 OA
ATOM     31  H10 UNL     1      -0.057  26.601 -12.132  1.00  0.00     0.212 HD
ENDBRANCH  24  30
ENDBRANCH  19  20
ENDBRANCH  13  19
ENDBRANCH   8   9
ENDBRANCH   6   8
BRANCH   7  32
HETATM   32  O12 UNL     1       3.499  32.238 -10.229  1.00  0.00    -0.390 OA
ATOM     33  H12 UNL     1       3.178  33.023  -9.802  1.00  0.00     0.210 HD
ENDBRANCH   7  32
BRANCH   1  34
HETATM   34  O4  UNL     1       3.598  29.991 -12.337  1.00  0.00    -0.368 OA
BRANCH  34  35
HETATM   35  C7  UNL     1       3.453  28.870 -11.566  1.00  0.00     0.200 C 
HETATM   36  C3  UNL     1       4.715  28.729 -10.737  1.00  0.00     0.123 C 
HETATM   37  N1  UNL     1       5.917  28.857 -11.488  1.00  0.00    -0.368 N 
HETATM   38  C4  UNL     1       4.660  27.535  -9.851  1.00  0.00     0.066 C 
HETATM   39  C2  UNL     1       6.712  27.710 -11.704  1.00  0.00     0.366 C 
ATOM     40  H1  UNL     1       6.200  29.762 -11.864  1.00  0.00     0.158 HD
HETATM   41  O14 UNL     1       6.826  26.862 -10.646  1.00  0.00    -0.336 OA
HETATM   42  C27 UNL     1       6.076  27.107  -9.536  1.00  0.00     0.158 C 
HETATM   43  C5  UNL     1       3.823  26.471 -10.466  1.00  0.00     0.180 C 
HETATM   44  O2  UNL     1       3.777  26.479 -11.836  1.00  0.00    -0.358 OA
HETATM   45  C6  UNL     1       3.264  27.623 -12.387  1.00  0.00     0.287 C 
BRANCH  39  46
HETATM   46  O1  UNL     1       8.036  28.156 -11.982  1.00  0.00    -0.349 OA
HETATM   47  C1  UNL     1       8.976  27.167 -11.845  1.00  0.00     0.206 C 
ENDBRANCH  39  46
BRANCH  42  48
HETATM   48  C28 UNL     1       6.144  25.947  -8.591  1.00  0.00     0.196 C 
BRANCH  48  49
HETATM   49  O13 UNL     1       5.977  26.477  -7.290  1.00  0.00    -0.398 OA
ATOM     50  H13 UNL     1       5.501  25.824  -6.791  1.00  0.00     0.209 HD
ENDBRANCH  48  49
ENDBRANCH  42  48
BRANCH  45  51
HETATM   51  O3  UNL     1       3.807  27.750 -13.683  1.00  0.00    -0.369 OA
ATOM     52  H3  UNL     1       3.329  28.440 -14.126  1.00  0.00     0.212 HD
ENDBRANCH  45  51
ENDBRANCH  34  35
ENDBRANCH   1  34
BRANCH   2  53
HETATM   53  O5  UNL     1       3.309  31.884 -14.257  1.00  0.00    -0.393 OA
ATOM     54  H5  UNL     1       2.473  31.716 -14.676  1.00  0.00     0.210 HD
ENDBRANCH   2  53
TORSDOF 16
ENDMDL
MODEL 2
REMARK VINA RESULT: -8.468396252      2.051      4.182
REMARK  16 active torsions:
REMARK  status: ('A' for Active; 'I' for Inactive)
REMARK    1  A    between atoms: O1_2  and  C2_3 
REMARK    2  A    between atoms: C6_10  and  O3_11 
REMARK    3  A    between atoms: C7_13  and  O4_14 
REMARK    4  A    between atoms: O4_14  and  C8_15 
REMARK    5  A    between atoms: C9_16  and  O5_17 
REMARK    6  A    between atoms: C13_22  and  O6_23 
REMARK    7  A    between atoms: O6_23  and  C14_24 
REMARK    8  A    between atoms: C17_27  and  N2_28 
REMARK    9  A    between atoms: C18_32  and  O7_33 
REMARK   10  A    between atoms: O7_33  and  C19_34 
REMARK   11  A    between atoms: C21_36  and  O8_37 
REMARK   12  A    between atoms: C21_36  and  C22_39 
REMARK   13  A    between atoms: C25_43  and  O10_44 
REMARK   14  A    between atoms: C26_47  and  O12_48 
REMARK   15  A    between atoms: C27_50  and  C28_51 
REMARK   16  A    between atoms: C28_51  and  O13_52 
ROOT
HETATM    1  C8  UNL     1       0.672  33.031 -10.265  1.00  0.00     0.182 C 
HETATM    2  C9  UNL     1       0.444  34.269  -9.420  1.00  0.00     0.150 C 
HETATM    3  C10 UNL     1      -0.888  34.848  -9.818  1.00  0.00     0.041 C 
HETATM    4  C11 UNL     1      -2.022  33.884  -9.611  1.00  0.00     0.016 C 
HETATM    5  C12 UNL     1      -2.293  33.700  -8.159  1.00  0.00     0.012 C 
HETATM    6  C13 UNL     1      -1.700  32.602 -10.354  1.00  0.00     0.159 C 
HETATM    7  C26 UNL     1      -0.379  32.035  -9.867  1.00  0.00     0.179 C 
ENDROOT
BRANCH   6   8
HETATM    8  O6  UNL     1      -2.727  31.706 -10.342  1.00  0.00    -0.353 OA
BRANCH   8   9
HETATM    9  C14 UNL     1      -2.305  30.453 -10.774  1.00  0.00     0.263 C 
HETATM   10  C15 UNL     1      -2.937  29.332 -10.018  1.00  0.00     0.063 C 
HETATM   11  C16 UNL     1      -2.379  28.028 -10.510  1.00  0.00     0.042 C 
HETATM   12  C17 UNL     1      -1.656  28.166 -11.802  1.00  0.00     0.238 C 
HETATM   13  C18 UNL     1      -2.144  29.227 -12.725  1.00  0.00     0.293 C 
HETATM   14  O11 UNL     1      -2.664  30.343 -12.115  1.00  0.00    -0.329 OA
BRANCH  12  15
HETATM   15  N2  UNL     1      -0.204  28.236 -11.632  1.00  0.00    -0.070 N 
ATOM     16  H23 UNL     1       0.251  28.536 -12.495  1.00  0.00     0.274 HD
ATOM     17  H22 UNL     1       0.056  29.015 -11.028  1.00  0.00     0.274 HD
ATOM     18  H21 UNL     1       0.195  27.360 -11.294  1.00  0.00     0.274 HD
ENDBRANCH  12  15
BRANCH  13  19
HETATM   19  O7  UNL     1      -3.019  28.725 -13.705  1.00  0.00    -0.349 OA
BRANCH  19  20
HETATM   20  C19 UNL     1      -2.517  27.616 -14.350  1.00  0.00     0.184 C 
HETATM   21  C20 UNL     1      -1.519  27.998 -15.438  1.00  0.00     0.105 C 
HETATM   22  C21 UNL     1      -1.921  27.068 -16.560  1.00  0.00     0.170 C 
HETATM   23  O9  UNL     1      -3.308  27.072 -16.470  1.00  0.00    -0.323 OA
HETATM   24  C25 UNL     1      -3.560  26.874 -15.125  1.00  0.00     0.289 C 
BRANCH  22  25
HETATM   25  O8  UNL     1      -1.426  25.810 -16.305  1.00  0.00    -0.365 OA
ATOM     26  H8  UNL     1      -0.910  25.520 -17.048  1.00  0.00     0.213 HD
ENDBRANCH  22  25
BRANCH  22  27
HETATM   27  C22 UNL     1      -1.444  27.580 -17.904  1.00  0.00     0.040 C 
HETATM   28  C23 UNL     1      -0.221  28.445 -17.734  1.00  0.00     0.015 C 
HETATM   29  C24 UNL     1      -2.537  28.414 -18.518  1.00  0.00     0.015 C 
ENDBRANCH  22  27
BRANCH  24  30
HETATM   30  O10 UNL     1      -3.481  25.493 -14.874  1.00  0.00    -0.368 OA
ATOM     31  H10 UNL     1      -4.089  25.013 -15.425  1.00  0.00     0.212 HD
ENDBRANCH  24  30
ENDBRANCH  19  20
ENDBRANCH  13  19
ENDBRANCH   8   9
ENDBRANCH   6   8
BRANCH   7  32
HETATM   32  O12 UNL     1      -0.507  31.886  -8.487  1.00  0.00    -0.390 OA
ATOM     33  H12 UNL     1       0.106  31.263  -8.115  1.00  0.00     0.210 HD
ENDBRANCH   7  32
BRANCH   1  34
HETATM   34  O4  UNL     1       1.958  32.598 -10.194  1.00  0.00    -0.368 OA
BRANCH  34  35
HETATM   35  C7  UNL     1       2.627  32.424 -11.376  1.00  0.00     0.200 C 
HETATM   36  C3  UNL     1       2.687  30.931 -11.641  1.00  0.00     0.123 C 
HETATM   37  N1  UNL     1       3.119  30.163 -10.524  1.00  0.00    -0.368 N 
HETATM   38  C4  UNL     1       3.393  30.628 -12.915  1.00  0.00     0.066 C 
HETATM   39  C2  UNL     1       4.397  29.560 -10.563  1.00  0.00     0.366 C 
ATOM     40  H1  UNL     1       2.517  30.049  -9.709  1.00  0.00     0.158 HD
HETATM   41  O14 UNL     1       4.761  29.024 -11.760  1.00  0.00    -0.336 OA
HETATM   42  C27 UNL     1       3.947  29.222 -12.833  1.00  0.00     0.158 C 
HETATM   43  C5  UNL     1       4.415  31.670 -13.202  1.00  0.00     0.180 C 
HETATM   44  O2  UNL     1       4.940  32.297 -12.102  1.00  0.00    -0.358 OA
HETATM   45  C6  UNL     1       4.028  32.971 -11.336  1.00  0.00     0.287 C 
BRANCH  39  46
HETATM   46  O1  UNL     1       4.383  28.473  -9.643  1.00  0.00    -0.349 OA
HETATM   47  C1  UNL     1       5.194  27.436 -10.026  1.00  0.00     0.206 C 
ENDBRANCH  39  46
BRANCH  42  48
HETATM   48  C28 UNL     1       4.624  28.782 -14.094  1.00  0.00     0.196 C 
BRANCH  48  49
HETATM   49  O13 UNL     1       5.946  28.424 -13.738  1.00  0.00    -0.398 OA
ATOM     50  H13 UNL     1       6.494  28.636 -14.485  1.00  0.00     0.209 HD
ENDBRANCH  48  49
ENDBRANCH  42  48
BRANCH  45  51
HETATM   51  O3  UNL     1       4.539  33.031 -10.022  1.00  0.00    -0.369 OA
ATOM     52  H3  UNL     1       4.925  32.185  -9.828  1.00  0.00     0.212 HD
ENDBRANCH  45  51
ENDBRANCH  34  35
ENDBRANCH   1  34
BRANCH   2  53
HETATM   53  O5  UNL     1       1.417  35.217  -9.748  1.00  0.00    -0.393 OA
ATOM     54  H5  UNL     1       1.212  36.029  -9.301  1.00  0.00     0.210 HD
ENDBRANCH   2  53
TORSDOF 16
ENDMDL
MODEL 3
REMARK VINA RESULT: -8.451363672      2.252      8.090
REMARK  16 active torsions:
REMARK  status: ('A' for Active; 'I' for Inactive)
REMARK    1  A    between atoms: O1_2  and  C2_3 
REMARK    2  A    between atoms: C6_10  and  O3_11 
REMARK    3  A    between atoms: C7_13  and  O4_14 
REMARK    4  A    between atoms: O4_14  and  C8_15 
REMARK    5  A    between atoms: C9_16  and  O5_17 
REMARK    6  A    between atoms: C13_22  and  O6_23 
REMARK    7  A    between atoms: O6_23  and  C14_24 
REMARK    8  A    between atoms: C17_27  and  N2_28 
REMARK    9  A    between atoms: C18_32  and  O7_33 
REMARK   10  A    between atoms: O7_33  and  C19_34 
REMARK   11  A    between atoms: C21_36  and  O8_37 
REMARK   12  A    between atoms: C21_36  and  C22_39 
REMARK   13  A    between atoms: C25_43  and  O10_44 
REMARK   14  A    between atoms: C26_47  and  O12_48 
REMARK   15  A    between atoms: C27_50  and  C28_51 
REMARK   16  A    between atoms: C28_51  and  O13_52 
ROOT
HETATM    1  C8  UNL     1      -1.518  30.409 -11.283  1.00  0.00     0.182 C 
HETATM    2  C9  UNL     1      -2.319  31.385 -10.444  1.00  0.00     0.150 C 
HETATM    3  C10 UNL     1      -1.835  31.261  -9.023  1.00  0.00     0.041 C 
HETATM    4  C11 UNL     1      -0.370  31.563  -8.883  1.00  0.00     0.016 C 
HETATM    5  C12 UNL     1      -0.116  33.018  -9.070  1.00  0.00     0.012 C 
HETATM    6  C13 UNL     1       0.395  30.668  -9.838  1.00  0.00     0.159 C 
HETATM    7  C26 UNL     1      -0.093  30.882 -11.259  1.00  0.00     0.179 C 
ENDROOT
BRANCH   6   8
HETATM    8  O6  UNL     1       1.747  30.767  -9.694  1.00  0.00    -0.353 OA
BRANCH   8   9
HETATM    9  C14 UNL     1       2.399  30.511 -10.896  1.00  0.00     0.263 C 
HETATM   10  C15 UNL     1       3.684  31.258 -11.033  1.00  0.00     0.063 C 
HETATM   11  C16 UNL     1       4.284  30.968 -12.378  1.00  0.00     0.042 C 
HETATM   12  C17 UNL     1       3.662  29.790 -13.040  1.00  0.00     0.238 C 
HETATM   13  C18 UNL     1       3.152  28.718 -12.142  1.00  0.00     0.293 C 
HETATM   14  O11 UNL     1       2.673  29.146 -10.928  1.00  0.00    -0.329 OA
BRANCH  12  15
HETATM   15  N2  UNL     1       2.661  30.167 -14.039  1.00  0.00    -0.070 N 
ATOM     16  H23 UNL     1       2.212  31.049 -13.793  1.00  0.00     0.274 HD
ATOM     17  H22 UNL     1       3.106  30.447 -14.914  1.00  0.00     0.274 HD
ATOM     18  H21 UNL     1       1.968  29.435 -14.198  1.00  0.00     0.274 HD
ENDBRANCH  12  15
BRANCH  13  19
HETATM   19  O7  UNL     1       4.072  27.666 -11.988  1.00  0.00    -0.349 OA
BRANCH  19  20
HETATM   20  C19 UNL     1       4.375  27.412 -10.669  1.00  0.00     0.184 C 
HETATM   21  C20 UNL     1       5.758  27.937 -10.296  1.00  0.00     0.105 C 
HETATM   22  C21 UNL     1       6.301  26.799  -9.462  1.00  0.00     0.170 C 
HETATM   23  O9  UNL     1       5.839  25.680 -10.145  1.00  0.00    -0.323 OA
HETATM   24  C25 UNL     1       4.503  25.951 -10.372  1.00  0.00     0.289 C 
BRANCH  22  25
HETATM   25  O8  UNL     1       5.749  26.855  -8.203  1.00  0.00    -0.365 OA
ATOM     26  H8  UNL     1       5.649  25.972  -7.866  1.00  0.00     0.213 HD
ENDBRANCH  22  25
BRANCH  22  27
HETATM   27  C22 UNL     1       7.814  26.831  -9.396  1.00  0.00     0.040 C 
HETATM   28  C23 UNL     1       8.407  26.480 -10.738  1.00  0.00     0.015 C 
HETATM   29  C24 UNL     1       8.276  25.811  -8.390  1.00  0.00     0.015 C 
ENDBRANCH  22  27
BRANCH  24  30
HETATM   30  O10 UNL     1       3.794  25.613  -9.206  1.00  0.00    -0.368 OA
ATOM     31  H10 UNL     1       4.372  25.225  -8.559  1.00  0.00     0.212 HD
ENDBRANCH  24  30
ENDBRANCH  19  20
ENDBRANCH  13  19
ENDBRANCH   8   9
ENDBRANCH   6   8
BRANCH   7  32
HETATM   32  O12 UNL     1       0.042  32.247 -11.513  1.00  0.00    -0.390 OA
ATOM     33  H12 UNL     1       0.382  32.736 -10.773  1.00  0.00     0.210 HD
ENDBRANCH   7  32
BRANCH   1  34
HETATM   34  O4  UNL     1      -2.064  30.232 -12.516  1.00  0.00    -0.368 OA
BRANCH  34  35
HETATM   35  C7  UNL     1      -2.320  28.946 -12.909  1.00  0.00     0.200 C 
HETATM   36  C3  UNL     1      -1.643  28.744 -14.251  1.00  0.00     0.123 C 
HETATM   37  N1  UNL     1      -1.903  29.781 -15.191  1.00  0.00    -0.368 N 
HETATM   38  C4  UNL     1      -1.854  27.367 -14.772  1.00  0.00     0.066 C 
HETATM   39  C2  UNL     1      -2.731  29.504 -16.301  1.00  0.00     0.366 C 
ATOM     40  H1  UNL     1      -1.498  30.709 -15.065  1.00  0.00     0.158 HD
HETATM   41  O14 UNL     1      -2.556  28.284 -16.880  1.00  0.00    -0.336 OA
HETATM   42  C27 UNL     1      -1.717  27.397 -16.278  1.00  0.00     0.158 C 
HETATM   43  C5  UNL     1      -3.152  26.823 -14.288  1.00  0.00     0.180 C 
HETATM   44  O2  UNL     1      -4.119  27.758 -14.026  1.00  0.00    -0.358 OA
HETATM   45  C6  UNL     1      -3.791  28.666 -13.054  1.00  0.00     0.287 C 
BRANCH  39  46
HETATM   46  O1  UNL     1      -2.419  30.457 -17.313  1.00  0.00    -0.349 OA
HETATM   47  C1  UNL     1      -1.414  31.315 -16.949  1.00  0.00     0.206 C 
ENDBRANCH  39  46
BRANCH  42  48
HETATM   48  C28 UNL     1      -1.844  26.044 -16.908  1.00  0.00     0.196 C 
BRANCH  48  49
HETATM   49  O13 UNL     1      -0.740  25.284 -16.456  1.00  0.00    -0.398 OA
ATOM     50  H13 UNL     1      -0.664  24.541 -17.044  1.00  0.00     0.209 HD
ENDBRANCH  48  49
ENDBRANCH  42  48
BRANCH  45  51
HETATM   51  O3  UNL     1      -4.535  29.839 -13.303  1.00  0.00    -0.369 OA
ATOM     52  H3  UNL     1      -5.180  29.919 -12.611  1.00  0.00     0.212 HD
ENDBRANCH  45  51
ENDBRANCH  34  35
ENDBRANCH   1  34
BRANCH   2  53
HETATM   53  O5  UNL     1      -3.658  30.988 -10.457  1.00  0.00    -0.393 OA
ATOM     54  H5  UNL     1      -4.185  31.712 -10.775  1.00  0.00     0.210 HD
ENDBRANCH   2  53
TORSDOF 16
ENDMDL
MODEL 4
REMARK VINA RESULT: -8.437289802      2.065      7.899
REMARK  16 active torsions:
REMARK  status: ('A' for Active; 'I' for Inactive)
REMARK    1  A    between atoms: O1_2  and  C2_3 
REMARK    2  A    between atoms: C6_10  and  O3_11 
REMARK    3  A    between atoms: C7_13  and  O4_14 
REMARK    4  A    between atoms: O4_14  and  C8_15 
REMARK    5  A    between atoms: C9_16  and  O5_17 
REMARK    6  A    between atoms: C13_22  and  O6_23 
REMARK    7  A    between atoms: O6_23  and  C14_24 
REMARK    8  A    between atoms: C17_27  and  N2_28 
REMARK    9  A    between atoms: C18_32  and  O7_33 
REMARK   10  A    between atoms: O7_33  and  C19_34 
REMARK   11  A    between atoms: C21_36  and  O8_37 
REMARK   12  A    between atoms: C21_36  and  C22_39 
REMARK   13  A    between atoms: C25_43  and  O10_44 
REMARK   14  A    between atoms: C26_47  and  O12_48 
REMARK   15  A    between atoms: C27_50  and  C28_51 
REMARK   16  A    between atoms: C28_51  and  O13_52 
ROOT
HETATM    1  C8  UNL     1      -1.621  29.926 -11.119  1.00  0.00     0.182 C 
HETATM    2  C9  UNL     1      -2.479  30.114  -9.883  1.00  0.00     0.150 C 
HETATM    3  C10 UNL     1      -1.562  30.491  -8.750  1.00  0.00     0.041 C 
HETATM    4  C11 UNL     1      -0.793  31.753  -9.024  1.00  0.00     0.016 C 
HETATM    5  C12 UNL     1      -1.694  32.936  -8.973  1.00  0.00     0.012 C 
HETATM    6  C13 UNL     1      -0.055  31.585 -10.338  1.00  0.00     0.159 C 
HETATM    7  C26 UNL     1      -1.037  31.269 -11.451  1.00  0.00     0.179 C 
ENDROOT
BRANCH   6   8
HETATM    8  O6  UNL     1       0.783  32.625 -10.615  1.00  0.00    -0.353 OA
BRANCH   8   9
HETATM    9  C14 UNL     1       1.734  32.262 -11.563  1.00  0.00     0.263 C 
HETATM   10  C15 UNL     1       2.864  33.233 -11.656  1.00  0.00     0.063 C 
HETATM   11  C16 UNL     1       3.805  32.794 -12.740  1.00  0.00     0.042 C 
HETATM   12  C17 UNL     1       3.573  31.388 -13.166  1.00  0.00     0.238 C 
HETATM   13  C18 UNL     1       3.061  30.457 -12.124  1.00  0.00     0.293 C 
HETATM   14  O11 UNL     1       2.242  31.025 -11.178  1.00  0.00    -0.329 OA
BRANCH  12  15
HETATM   15  N2  UNL     1       2.786  31.294 -14.396  1.00  0.00    -0.070 N 
ATOM     16  H23 UNL     1       1.982  30.678 -14.270  1.00  0.00     0.274 HD
ATOM     17  H22 UNL     1       2.296  32.169 -14.585  1.00  0.00     0.274 HD
ATOM     18  H21 UNL     1       3.345  31.006 -15.199  1.00  0.00     0.274 HD
ENDBRANCH  12  15
BRANCH  13  19
HETATM   19  O7  UNL     1       4.088  29.704 -11.527  1.00  0.00    -0.349 OA
BRANCH  19  20
HETATM   20  C19 UNL     1       3.615  28.615 -10.829  1.00  0.00     0.184 C 
HETATM   21  C20 UNL     1       4.700  27.985  -9.961  1.00  0.00     0.105 C 
HETATM   22  C21 UNL     1       4.460  26.511 -10.197  1.00  0.00     0.170 C 
HETATM   23  O9  UNL     1       4.155  26.471 -11.552  1.00  0.00    -0.323 OA
HETATM   24  C25 UNL     1       3.224  27.478 -11.720  1.00  0.00     0.289 C 
BRANCH  22  25
HETATM   25  O8  UNL     1       3.381  26.101  -9.449  1.00  0.00    -0.365 OA
ATOM     26  H8  UNL     1       2.658  25.896 -10.030  1.00  0.00     0.213 HD
ENDBRANCH  22  25
BRANCH  22  27
HETATM   27  C22 UNL     1       5.691  25.689  -9.875  1.00  0.00     0.040 C 
HETATM   28  C23 UNL     1       5.997  25.755  -8.400  1.00  0.00     0.015 C 
HETATM   29  C24 UNL     1       6.862  26.257 -10.630  1.00  0.00     0.015 C 
ENDBRANCH  22  27
BRANCH  24  30
HETATM   30  O10 UNL     1       1.967  26.965 -11.353  1.00  0.00    -0.368 OA
ATOM     31  H10 UNL     1       2.014  26.027 -11.210  1.00  0.00     0.212 HD
ENDBRANCH  24  30
ENDBRANCH  19  20
ENDBRANCH  13  19
ENDBRANCH   8   9
ENDBRANCH   6   8
BRANCH   7  32
HETATM   32  O12 UNL     1      -1.976  32.299 -11.443  1.00  0.00    -0.390 OA
ATOM     33  H12 UNL     1      -2.749  32.102 -10.928  1.00  0.00     0.210 HD
ENDBRANCH   7  32
BRANCH   1  34
HETATM   34  O4  UNL     1      -2.302  29.310 -12.121  1.00  0.00    -0.368 OA
BRANCH  34  35
HETATM   35  C7  UNL     1      -1.867  29.527 -13.400  1.00  0.00     0.200 C 
HETATM   36  C3  UNL     1      -2.918  28.957 -14.334  1.00  0.00     0.123 C 
HETATM   37  N1  UNL     1      -3.335  27.639 -13.998  1.00  0.00    -0.368 N 
HETATM   38  C4  UNL     1      -2.545  29.146 -15.762  1.00  0.00     0.066 C 
HETATM   39  C2  UNL     1      -2.949  26.567 -14.834  1.00  0.00     0.366 C 
ATOM     40  H1  UNL     1      -3.903  27.470 -13.168  1.00  0.00     0.158 HD
HETATM   41  O14 UNL     1      -2.983  26.819 -16.172  1.00  0.00    -0.336 OA
HETATM   42  C27 UNL     1      -3.247  28.089 -16.585  1.00  0.00     0.158 C 
HETATM   43  C5  UNL     1      -1.066  29.155 -15.915  1.00  0.00     0.180 C 
HETATM   44  O2  UNL     1      -0.374  28.437 -14.974  1.00  0.00    -0.358 OA
HETATM   45  C6  UNL     1      -0.547  28.863 -13.684  1.00  0.00     0.287 C 
BRANCH  39  46
HETATM   46  O1  UNL     1      -3.875  25.505 -14.620  1.00  0.00    -0.349 OA
HETATM   47  C1  UNL     1      -3.630  24.805 -13.468  1.00  0.00     0.206 C 
ENDBRANCH  39  46
BRANCH  42  48
HETATM   48  C28 UNL     1      -2.997  28.225 -18.055  1.00  0.00     0.196 C 
BRANCH  48  49
HETATM   49  O13 UNL     1      -4.260  28.151 -18.688  1.00  0.00    -0.398 OA
ATOM     50  H13 UNL     1      -4.358  27.257 -18.994  1.00  0.00     0.209 HD
ENDBRANCH  48  49
ENDBRANCH  42  48
BRANCH  45  51
HETATM   51  O3  UNL     1      -0.313  27.759 -12.838  1.00  0.00    -0.369 OA
ATOM     52  H3  UNL     1      -0.657  27.979 -11.981  1.00  0.00     0.212 HD
ENDBRANCH  45  51
ENDBRANCH  34  35
ENDBRANCH   1  34
BRANCH   2  53
HETATM   53  O5  UNL     1      -3.058  28.887  -9.552  1.00  0.00    -0.393 OA
ATOM     54  H5  UNL     1      -3.927  29.046  -9.202  1.00  0.00     0.210 HD
ENDBRANCH   2  53
TORSDOF 16
ENDMDL
MODEL 5
REMARK VINA RESULT: -8.418588141      2.249      7.814
REMARK  16 active torsions:
REMARK  status: ('A' for Active; 'I' for Inactive)
REMARK    1  A    between atoms: O1_2  and  C2_3 
REMARK    2  A    between atoms: C6_10  and  O3_11 
REMARK    3  A    between atoms: C7_13  and  O4_14 
REMARK    4  A    between atoms: O4_14  and  C8_15 
REMARK    5  A    between atoms: C9_16  and  O5_17 
REMARK    6  A    between atoms: C13_22  and  O6_23 
REMARK    7  A    between atoms: O6_23  and  C14_24 
REMARK    8  A    between atoms: C17_27  and  N2_28 
REMARK    9  A    between atoms: C18_32  and  O7_33 
REMARK   10  A    between atoms: O7_33  and  C19_34 
REMARK   11  A    between atoms: C21_36  and  O8_37 
REMARK   12  A    between atoms: C21_36  and  C22_39 
REMARK   13  A    between atoms: C25_43  and  O10_44 
REMARK   14  A    between atoms: C26_47  and  O12_48 
REMARK   15  A    between atoms: C27_50  and  C28_51 
REMARK   16  A    between atoms: C28_51  and  O13_52 
ROOT
HETATM    1  C8  UNL     1      -1.843  30.146 -11.117  1.00  0.00     0.182 C 
HETATM    2  C9  UNL     1      -2.751  30.138  -9.903  1.00  0.00     0.150 C 
HETATM    3  C10 UNL     1      -2.018  30.838  -8.788  1.00  0.00     0.041 C 
HETATM    4  C11 UNL     1      -1.656  32.255  -9.135  1.00  0.00     0.016 C 
HETATM    5  C12 UNL     1      -2.872  33.113  -9.166  1.00  0.00     0.012 C 
HETATM    6  C13 UNL     1      -0.868  32.241 -10.430  1.00  0.00     0.159 C 
HETATM    7  C26 UNL     1      -1.680  31.580 -11.529  1.00  0.00     0.179 C 
ENDROOT
BRANCH   6   8
HETATM    8  O6  UNL     1      -0.374  33.467 -10.766  1.00  0.00    -0.353 OA
BRANCH   8   9
HETATM    9  C14 UNL     1       0.982  33.395 -11.068  1.00  0.00     0.263 C 
HETATM   10  C15 UNL     1       1.786  34.458 -10.396  1.00  0.00     0.063 C 
HETATM   11  C16 UNL     1       3.220  34.339 -10.825  1.00  0.00     0.042 C 
HETATM   12  C17 UNL     1       3.515  33.038 -11.483  1.00  0.00     0.238 C 
HETATM   13  C18 UNL     1       2.715  31.868 -11.026  1.00  0.00     0.293 C 
HETATM   14  O11 UNL     1       1.431  32.153 -10.628  1.00  0.00    -0.329 OA
BRANCH  12  15
HETATM   15  N2  UNL     1       3.529  33.135 -12.943  1.00  0.00    -0.070 N 
ATOM     16  H23 UNL     1       2.854  33.827 -13.271  1.00  0.00     0.274 HD
ATOM     17  H22 UNL     1       4.389  33.574 -13.272  1.00  0.00     0.274 HD
ATOM     18  H21 UNL     1       3.379  32.234 -13.399  1.00  0.00     0.274 HD
ENDBRANCH  12  15
BRANCH  13  19
HETATM   19  O7  UNL     1       3.392  31.100 -10.064  1.00  0.00    -0.349 OA
BRANCH  19  20
HETATM   20  C19 UNL     1       3.716  29.840 -10.517  1.00  0.00     0.184 C 
HETATM   21  C20 UNL     1       5.196  29.730 -10.870  1.00  0.00     0.105 C 
HETATM   22  C21 UNL     1       5.144  28.948 -12.163  1.00  0.00     0.170 C 
HETATM   23  O9  UNL     1       4.032  29.492 -12.796  1.00  0.00    -0.323 OA
HETATM   24  C25 UNL     1       3.057  29.503 -11.817  1.00  0.00     0.289 C 
BRANCH  22  25
HETATM   25  O8  UNL     1       4.933  27.618 -11.881  1.00  0.00    -0.365 OA
ATOM     26  H8  UNL     1       5.636  27.103 -12.258  1.00  0.00     0.213 HD
ENDBRANCH  22  25
BRANCH  22  27
HETATM   27  C22 UNL     1       6.405  29.139 -12.980  1.00  0.00     0.040 C 
HETATM   28  C23 UNL     1       7.578  28.481 -12.299  1.00  0.00     0.015 C 
HETATM   29  C24 UNL     1       6.686  30.613 -13.096  1.00  0.00     0.015 C 
ENDBRANCH  22  27
BRANCH  24  30
HETATM   30  O10 UNL     1       2.484  28.220 -11.769  1.00  0.00    -0.368 OA
ATOM     31  H10 UNL     1       2.985  27.606 -12.295  1.00  0.00     0.212 HD
ENDBRANCH  24  30
ENDBRANCH  19  20
ENDBRANCH  13  19
ENDBRANCH   8   9
ENDBRANCH   6   8
BRANCH   7  32
HETATM   32  O12 UNL     1      -2.885  32.279 -11.593  1.00  0.00    -0.390 OA
ATOM     33  H12 UNL     1      -3.631  31.774 -11.294  1.00  0.00     0.210 HD
ENDBRANCH   7  32
BRANCH   1  34
HETATM   34  O4  UNL     1      -2.282  29.296 -12.084  1.00  0.00    -0.368 OA
BRANCH  34  35
HETATM   35  C7  UNL     1      -1.857  29.530 -13.364  1.00  0.00     0.200 C 
HETATM   36  C3  UNL     1      -2.901  28.946 -14.297  1.00  0.00     0.123 C 
HETATM   37  N1  UNL     1      -3.290  27.618 -13.968  1.00  0.00    -0.368 N 
HETATM   38  C4  UNL     1      -2.538  29.152 -15.725  1.00  0.00     0.066 C 
HETATM   39  C2  UNL     1      -2.888  26.559 -14.813  1.00  0.00     0.366 C 
ATOM     40  H1  UNL     1      -3.851  27.432 -13.136  1.00  0.00     0.158 HD
HETATM   41  O14 UNL     1      -2.933  26.819 -16.148  1.00  0.00    -0.336 OA
HETATM   42  C27 UNL     1      -3.223  28.086 -16.551  1.00  0.00     0.158 C 
HETATM   43  C5  UNL     1      -1.059  29.191 -15.884  1.00  0.00     0.180 C 
HETATM   44  O2  UNL     1      -0.350  28.480 -14.951  1.00  0.00    -0.358 OA
HETATM   45  C6  UNL     1      -0.525  28.894 -13.658  1.00  0.00     0.287 C 
BRANCH  39  46
HETATM   46  O1  UNL     1      -3.792  25.479 -14.602  1.00  0.00    -0.349 OA
HETATM   47  C1  UNL     1      -3.600  24.845 -13.401  1.00  0.00     0.206 C 
ENDBRANCH  39  46
BRANCH  42  48
HETATM   48  C28 UNL     1      -2.982  28.237 -18.022  1.00  0.00     0.196 C 
BRANCH  48  49
HETATM   49  O13 UNL     1      -4.251  28.185 -18.646  1.00  0.00    -0.398 OA
ATOM     50  H13 UNL     1      -4.521  27.274 -18.634  1.00  0.00     0.209 HD
ENDBRANCH  48  49
ENDBRANCH  42  48
BRANCH  45  51
HETATM   51  O3  UNL     1      -0.266  27.788 -12.820  1.00  0.00    -0.369 OA
ATOM     52  H3  UNL     1      -0.903  27.809 -12.117  1.00  0.00     0.212 HD
ENDBRANCH  45  51
ENDBRANCH  34  35
ENDBRANCH   1  34
BRANCH   2  53
HETATM   53  O5  UNL     1      -2.943  28.814  -9.499  1.00  0.00    -0.393 OA
ATOM     54  H5  UNL     1      -3.762  28.759  -9.022  1.00  0.00     0.210 HD
ENDBRANCH   2  53
TORSDOF 16
ENDMDL
