MODEL 1
REMARK VINA RESULT: -8.772971035      0.000      0.000
REMARK  16 active torsions:
REMARK  status: ('A' for Active; 'I' for Inactive)
REMARK    1  A    between atoms: C4_5  and  O2_6 
REMARK    2  A    between atoms: O2_6  and  C5_7 
REMARK    3  A    between atoms: C8_11  and  O4_12 
REMARK    4  A    between atoms: C9_14  and  O5_15 
REMARK    5  A    between atoms: O5_15  and  C10_16 
REMARK    6  A    between atoms: C13_20  and  O7_21 
REMARK    7  A    between atoms: C14_23  and  O8_24 
REMARK    8  A    between atoms: O8_24  and  C15_25 
REMARK    9  A    between atoms: C18_29  and  O10_30 
REMARK   10  A    between atoms: C19_32  and  O11_33 
REMARK   11  A    between atoms: C20_35  and  O12_36 
REMARK   12  A    between atoms: C21_38  and  O13_39 
REMARK   13  A    between atoms: O13_39  and  C22_40 
REMARK   14  A    between atoms: C25_44  and  O15_45 
REMARK   15  A    between atoms: C26_47  and  O16_48 
REMARK   16  A    between atoms: C27_50  and  O17_51 
ROOT
HETATM    1  C10 UNL     1       3.577  29.929 -12.517  1.00  0.00     0.292 C 
HETATM    2  O6  UNL     1       4.259  29.132 -11.564  1.00  0.00    -0.351 OA
HETATM    3  C11 UNL     1       3.422  28.045 -11.348  1.00  0.00     0.152 C 
HETATM    4  C12 UNL     1       3.794  27.449  -9.999  1.00  0.00     0.042 C 
HETATM    5  C13 UNL     1       2.011  28.525 -11.246  1.00  0.00     0.178 C 
HETATM    6  C14 UNL     1       1.877  29.947 -10.735  1.00  0.00     0.189 C 
HETATM    7  C21 UNL     1       2.687  30.827 -11.685  1.00  0.00     0.211 C 
ENDROOT
BRANCH   1   8
HETATM    8  O5  UNL     1       4.535  30.577 -13.249  1.00  0.00    -0.346 OA
BRANCH   8   9
HETATM    9  C9  UNL     1       4.915  29.855 -14.344  1.00  0.00     0.211 C 
HETATM   10  C5  UNL     1       6.291  29.268 -14.263  1.00  0.00     0.295 C 
HETATM   11  O3  UNL     1       6.449  28.745 -15.548  1.00  0.00    -0.351 OA
HETATM   12  C6  UNL     1       5.946  29.685 -16.429  1.00  0.00     0.152 C 
HETATM   13  C7  UNL     1       5.015  28.982 -17.392  1.00  0.00     0.042 C 
HETATM   14  C8  UNL     1       5.092  30.667 -15.617  1.00  0.00     0.180 C 
BRANCH  10  15
HETATM   15  O2  UNL     1       6.509  28.375 -13.260  1.00  0.00    -0.326 OA
BRANCH  15  16
HETATM   16  C4  UNL     1       7.580  28.703 -12.435  1.00  0.00     0.294 C 
HETATM   17  O1  UNL     1       8.339  27.542 -12.290  1.00  0.00    -0.358 OA
HETATM   18  C3  UNL     1       7.807  26.815 -11.224  1.00  0.00     0.178 C 
HETATM   19  C2  UNL     1       8.267  27.361  -9.889  1.00  0.00     0.037 C 
HETATM   20  C1  UNL     1       9.608  26.841  -9.472  1.00  0.00     0.015 C 
HETATM   21  C27 UNL     1       8.289  28.883 -10.045  1.00  0.00     0.157 C 
HETATM   22  C26 UNL     1       7.183  29.177 -11.069  1.00  0.00     0.202 C 
BRANCH  21  23
HETATM   23  O17 UNL     1       9.526  29.264 -10.564  1.00  0.00    -0.392 OA
ATOM     24  H17 UNL     1       9.835  30.027 -10.090  1.00  0.00     0.210 HD
ENDBRANCH  21  23
BRANCH  22  25
HETATM   25  O16 UNL     1       7.003  30.558 -11.142  1.00  0.00    -0.388 OA
ATOM     26  H16 UNL     1       6.458  30.813 -10.407  1.00  0.00     0.210 HD
ENDBRANCH  22  25
ENDBRANCH  15  16
ENDBRANCH  10  15
BRANCH  14  27
HETATM   27  O4  UNL     1       5.855  31.801 -15.346  1.00  0.00    -0.390 OA
ATOM     28  H4  UNL     1       5.359  32.370 -14.771  1.00  0.00     0.210 HD
ENDBRANCH  14  27
ENDBRANCH   8   9
ENDBRANCH   1   8
BRANCH   7  29
HETATM   29  O13 UNL     1       3.553  31.654 -10.986  1.00  0.00    -0.345 OA
BRANCH  29  30
HETATM   30  C22 UNL     1       3.321  32.982 -11.029  1.00  0.00     0.298 C 
HETATM   31  O14 UNL     1       2.344  33.436 -10.106  1.00  0.00    -0.330 OA
HETATM   32  C23 UNL     1       2.489  34.837 -10.117  1.00  0.00     0.137 C 
HETATM   33  C24 UNL     1       3.719  35.153 -10.466  1.00  0.00     0.033 C 
HETATM   34  C25 UNL     1       4.457  33.887 -10.709  1.00  0.00     0.198 C 
BRANCH  34  35
HETATM   35  O15 UNL     1       5.087  33.578  -9.507  1.00  0.00    -0.387 OA
ATOM     36  H15 UNL     1       5.695  34.249  -9.217  1.00  0.00     0.210 HD
ENDBRANCH  34  35
ENDBRANCH  29  30
ENDBRANCH   7  29
BRANCH   6  37
HETATM   37  O8  UNL     1       0.529  30.233 -10.736  1.00  0.00    -0.348 OA
BRANCH  37  38
HETATM   38  C15 UNL     1      -0.002  30.583  -9.514  1.00  0.00     0.292 C 
HETATM   39  O9  UNL     1      -0.666  29.596  -8.856  1.00  0.00    -0.351 OA
HETATM   40  C16 UNL     1      -1.987  29.399  -9.125  1.00  0.00     0.152 C 
HETATM   41  C17 UNL     1      -2.142  28.973 -10.568  1.00  0.00     0.042 C 
HETATM   42  C18 UNL     1      -2.768  30.675  -8.934  1.00  0.00     0.178 C 
HETATM   43  C19 UNL     1      -2.167  31.757  -9.764  1.00  0.00     0.183 C 
HETATM   44  C20 UNL     1      -0.701  31.882  -9.418  1.00  0.00     0.204 C 
BRANCH  42  45
HETATM   45  O10 UNL     1      -4.118  30.494  -9.227  1.00  0.00    -0.390 OA
ATOM     46  H10 UNL     1      -4.637  30.404  -8.437  1.00  0.00     0.210 HD
ENDBRANCH  42  45
BRANCH  43  47
HETATM   47  O11 UNL     1      -2.784  32.963  -9.316  1.00  0.00    -0.390 OA
ATOM     48  H11 UNL     1      -2.863  33.507 -10.090  1.00  0.00     0.210 HD
ENDBRANCH  43  47
BRANCH  44  49
HETATM   49  O12 UNL     1      -0.682  32.343  -8.077  1.00  0.00    -0.388 OA
ATOM     50  H12 UNL     1      -0.356  33.235  -8.047  1.00  0.00     0.210 HD
ENDBRANCH  44  49
ENDBRANCH  37  38
ENDBRANCH   6  37
BRANCH   5  51
HETATM   51  O7  UNL     1       1.347  27.615 -10.419  1.00  0.00    -0.390 OA
ATOM     52  H7  UNL     1       0.655  28.103  -9.988  1.00  0.00     0.210 HD
ENDBRANCH   5  51
TORSDOF 16
ENDMDL
MODEL 2
REMARK VINA RESULT: -8.396802668      1.601      8.568
REMARK  16 active torsions:
REMARK  status: ('A' for Active; 'I' for Inactive)
REMARK    1  A    between atoms: C4_5  and  O2_6 
REMARK    2  A    between atoms: O2_6  and  C5_7 
REMARK    3  A    between atoms: C8_11  and  O4_12 
REMARK    4  A    between atoms: C9_14  and  O5_15 
REMARK    5  A    between atoms: O5_15  and  C10_16 
REMARK    6  A    between atoms: C13_20  and  O7_21 
REMARK    7  A    between atoms: C14_23  and  O8_24 
REMARK    8  A    between atoms: O8_24  and  C15_25 
REMARK    9  A    between atoms: C18_29  and  O10_30 
REMARK   10  A    between atoms: C19_32  and  O11_33 
REMARK   11  A    between atoms: C20_35  and  O12_36 
REMARK   12  A    between atoms: C21_38  and  O13_39 
REMARK   13  A    between atoms: O13_39  and  C22_40 
REMARK   14  A    between atoms: C25_44  and  O15_45 
REMARK   15  A    between atoms: C26_47  and  O16_48 
REMARK   16  A    between atoms: C27_50  and  O17_51 
ROOT
HETATM    1  C10 UNL     1       3.650  31.383 -11.023  1.00  0.00     0.292 C 
HETATM    2  O6  UNL     1       2.814  30.494 -11.742  1.00  0.00    -0.351 OA
HETATM    3  C11 UNL     1       2.606  29.427 -10.879  1.00  0.00     0.152 C 
HETATM    4  C12 UNL     1       2.196  28.232 -11.727  1.00  0.00     0.042 C 
HETATM    5  C13 UNL     1       3.897  29.076 -10.214  1.00  0.00     0.178 C 
HETATM    6  C14 UNL     1       5.127  29.411 -11.036  1.00  0.00     0.189 C 
HETATM    7  C21 UNL     1       5.054  30.907 -11.334  1.00  0.00     0.211 C 
ENDROOT
BRANCH   1   8
HETATM    8  O5  UNL     1       3.355  32.646 -11.460  1.00  0.00    -0.346 OA
BRANCH   8   9
HETATM    9  C9  UNL     1       3.004  33.471 -10.430  1.00  0.00     0.211 C 
HETATM   10  C5  UNL     1       1.532  33.557 -10.167  1.00  0.00     0.295 C 
HETATM   11  O3  UNL     1       1.477  34.565  -9.201  1.00  0.00    -0.351 OA
HETATM   12  C6  UNL     1       2.357  35.554  -9.603  1.00  0.00     0.152 C 
HETATM   13  C7  UNL     1       3.231  35.918  -8.424  1.00  0.00     0.042 C 
HETATM   14  C8  UNL     1       3.275  34.947 -10.672  1.00  0.00     0.180 C 
BRANCH  10  15
HETATM   15  O2  UNL     1       0.913  32.399  -9.809  1.00  0.00    -0.326 OA
BRANCH  15  16
HETATM   16  C4  UNL     1      -0.307  32.586  -9.167  1.00  0.00     0.294 C 
HETATM   17  O1  UNL     1      -0.575  31.406  -8.475  1.00  0.00    -0.358 OA
HETATM   18  C3  UNL     1      -1.228  30.537  -9.351  1.00  0.00     0.178 C 
HETATM   19  C2  UNL     1      -2.697  30.873  -9.481  1.00  0.00     0.037 C 
HETATM   20  C1  UNL     1      -3.536  30.277  -8.391  1.00  0.00     0.015 C 
HETATM   21  C27 UNL     1      -2.781  32.400  -9.468  1.00  0.00     0.157 C 
HETATM   22  C26 UNL     1      -1.454  32.859 -10.092  1.00  0.00     0.202 C 
BRANCH  21  23
HETATM   23  O17 UNL     1      -2.855  32.835  -8.146  1.00  0.00    -0.392 OA
ATOM     24  H17 UNL     1      -2.666  33.766  -8.119  1.00  0.00     0.210 HD
ENDBRANCH  21  23
BRANCH  22  25
HETATM   25  O16 UNL     1      -1.512  34.237 -10.291  1.00  0.00    -0.388 OA
ATOM     26  H16 UNL     1      -1.538  34.389 -11.229  1.00  0.00     0.210 HD
ENDBRANCH  22  25
ENDBRANCH  15  16
ENDBRANCH  10  15
BRANCH  14  27
HETATM   27  O4  UNL     1       2.796  35.312 -11.928  1.00  0.00    -0.390 OA
ATOM     28  H4  UNL     1       3.390  35.949 -12.307  1.00  0.00     0.210 HD
ENDBRANCH  14  27
ENDBRANCH   8   9
ENDBRANCH   1   8
BRANCH   7  29
HETATM   29  O13 UNL     1       5.234  31.159 -12.685  1.00  0.00    -0.345 OA
BRANCH  29  30
HETATM   30  C22 UNL     1       5.416  30.099 -13.500  1.00  0.00     0.298 C 
HETATM   31  O14 UNL     1       4.249  29.688 -14.195  1.00  0.00    -0.330 OA
HETATM   32  C23 UNL     1       4.733  28.801 -15.177  1.00  0.00     0.137 C 
HETATM   33  C24 UNL     1       5.984  29.097 -15.465  1.00  0.00     0.033 C 
HETATM   34  C25 UNL     1       6.376  30.257 -14.625  1.00  0.00     0.198 C 
BRANCH  34  35
HETATM   35  O15 UNL     1       6.137  31.387 -15.401  1.00  0.00    -0.387 OA
ATOM     36  H15 UNL     1       6.897  31.673 -15.895  1.00  0.00     0.210 HD
ENDBRANCH  34  35
ENDBRANCH  29  30
ENDBRANCH   7  29
BRANCH   6  37
HETATM   37  O8  UNL     1       6.215  29.056 -10.268  1.00  0.00    -0.348 OA
BRANCH  37  38
HETATM   38  C15 UNL     1       7.071  28.143 -10.841  1.00  0.00     0.292 C 
HETATM   39  O9  UNL     1       6.727  26.836 -10.688  1.00  0.00    -0.351 OA
HETATM   40  C16 UNL     1       7.130  26.177  -9.567  1.00  0.00     0.152 C 
HETATM   41  C17 UNL     1       6.484  26.814  -8.357  1.00  0.00     0.042 C 
HETATM   42  C18 UNL     1       8.626  26.274  -9.396  1.00  0.00     0.178 C 
HETATM   43  C19 UNL     1       9.036  27.706  -9.400  1.00  0.00     0.183 C 
HETATM   44  C20 UNL     1       8.523  28.360 -10.663  1.00  0.00     0.204 C 
BRANCH  42  45
HETATM   45  O10 UNL     1       9.049  25.623  -8.240  1.00  0.00    -0.390 OA
ATOM     46  H10 UNL     1       8.313  25.352  -7.704  1.00  0.00     0.210 HD
ENDBRANCH  42  45
BRANCH  43  47
HETATM   47  O11 UNL     1      10.459  27.690  -9.513  1.00  0.00    -0.390 OA
ATOM     48  H11 UNL     1      10.707  28.591  -9.684  1.00  0.00     0.210 HD
ENDBRANCH  43  47
BRANCH  44  49
HETATM   49  O12 UNL     1       9.237  27.731 -11.714  1.00  0.00    -0.388 OA
ATOM     50  H12 UNL     1      10.172  27.842 -11.581  1.00  0.00     0.210 HD
ENDBRANCH  44  49
ENDBRANCH  37  38
ENDBRANCH   6  37
BRANCH   5  51
HETATM   51  O7  UNL     1       3.829  27.710  -9.923  1.00  0.00    -0.390 OA
ATOM     52  H7  UNL     1       4.507  27.293 -10.442  1.00  0.00     0.210 HD
ENDBRANCH   5  51
TORSDOF 16
ENDMDL
MODEL 3
REMARK VINA RESULT: -8.338684109      2.451      7.567
REMARK  16 active torsions:
REMARK  status: ('A' for Active; 'I' for Inactive)
REMARK    1  A    between atoms: C4_5  and  O2_6 
REMARK    2  A    between atoms: O2_6  and  C5_7 
REMARK    3  A    between atoms: C8_11  and  O4_12 
REMARK    4  A    between atoms: C9_14  and  O5_15 
REMARK    5  A    between atoms: O5_15  and  C10_16 
REMARK    6  A    between atoms: C13_20  and  O7_21 
REMARK    7  A    between atoms: C14_23  and  O8_24 
REMARK    8  A    between atoms: O8_24  and  C15_25 
REMARK    9  A    between atoms: C18_29  and  O10_30 
REMARK   10  A    between atoms: C19_32  and  O11_33 
REMARK   11  A    between atoms: C20_35  and  O12_36 
REMARK   12  A    between atoms: C21_38  and  O13_39 
REMARK   13  A    between atoms: O13_39  and  C22_40 
REMARK   14  A    between atoms: C25_44  and  O15_45 
REMARK   15  A    between atoms: C26_47  and  O16_48 
REMARK   16  A    between atoms: C27_50  and  O17_51 
ROOT
HETATM    1  C10 UNL     1       2.729  28.337 -13.640  1.00  0.00     0.292 C 
HETATM    2  O6  UNL     1       2.896  29.482 -14.457  1.00  0.00    -0.351 OA
HETATM    3  C11 UNL     1       4.023  29.210 -15.221  1.00  0.00     0.152 C 
HETATM    4  C12 UNL     1       4.573  30.543 -15.706  1.00  0.00     0.042 C 
HETATM    5  C13 UNL     1       5.067  28.591 -14.351  1.00  0.00     0.178 C 
HETATM    6  C14 UNL     1       4.981  29.000 -12.894  1.00  0.00     0.189 C 
HETATM    7  C21 UNL     1       3.579  28.622 -12.420  1.00  0.00     0.211 C 
ENDROOT
BRANCH   1   8
HETATM    8  O5  UNL     1       1.387  28.216 -13.397  1.00  0.00    -0.346 OA
BRANCH   8   9
HETATM    9  C9  UNL     1       0.655  29.100 -14.137  1.00  0.00     0.211 C 
HETATM   10  C5  UNL     1      -0.472  29.756 -13.399  1.00  0.00     0.295 C 
HETATM   11  O3  UNL     1      -1.111  30.454 -14.426  1.00  0.00    -0.351 OA
HETATM   12  C6  UNL     1      -1.152  29.610 -15.520  1.00  0.00     0.152 C 
HETATM   13  C7  UNL     1      -0.659  30.375 -16.728  1.00  0.00     0.042 C 
HETATM   14  C8  UNL     1      -0.149  28.477 -15.267  1.00  0.00     0.180 C 
BRANCH  10  15
HETATM   15  O2  UNL     1      -0.127  30.519 -12.326  1.00  0.00    -0.326 OA
BRANCH  15  16
HETATM   16  C4  UNL     1      -0.405  29.926 -11.099  1.00  0.00     0.294 C 
HETATM   17  O1  UNL     1      -1.770  29.643 -11.096  1.00  0.00    -0.358 OA
HETATM   18  C3  UNL     1      -2.440  30.780 -10.639  1.00  0.00     0.178 C 
HETATM   19  C2  UNL     1      -2.391  30.891  -9.131  1.00  0.00     0.037 C 
HETATM   20  C1  UNL     1      -3.455  30.086  -8.448  1.00  0.00     0.015 C 
HETATM   21  C27 UNL     1      -0.995  30.419  -8.721  1.00  0.00     0.157 C 
HETATM   22  C26 UNL     1      -0.102  30.792  -9.914  1.00  0.00     0.202 C 
BRANCH  21  23
HETATM   23  O17 UNL     1      -1.017  29.034  -8.563  1.00  0.00    -0.392 OA
ATOM     24  H17 UNL     1      -1.279  28.636  -9.385  1.00  0.00     0.210 HD
ENDBRANCH  21  23
BRANCH  22  25
HETATM   25  O16 UNL     1       1.227  30.565  -9.559  1.00  0.00    -0.388 OA
ATOM     26  H16 UNL     1       1.372  30.980  -8.717  1.00  0.00     0.210 HD
ENDBRANCH  22  25
ENDBRANCH  15  16
ENDBRANCH  10  15
BRANCH  14  27
HETATM   27  O4  UNL     1      -0.844  27.367 -14.790  1.00  0.00    -0.390 OA
ATOM     28  H4  UNL     1      -0.354  26.990 -14.069  1.00  0.00     0.210 HD
ENDBRANCH  14  27
ENDBRANCH   8   9
ENDBRANCH   1   8
BRANCH   7  29
HETATM   29  O13 UNL     1       2.960  29.688 -11.784  1.00  0.00    -0.345 OA
BRANCH  29  30
HETATM   30  C22 UNL     1       3.537  30.903 -11.894  1.00  0.00     0.298 C 
HETATM   31  O14 UNL     1       2.634  31.992 -11.778  1.00  0.00    -0.330 OA
HETATM   32  C23 UNL     1       3.472  33.113 -11.620  1.00  0.00     0.137 C 
HETATM   33  C24 UNL     1       4.620  32.739 -11.093  1.00  0.00     0.033 C 
HETATM   34  C25 UNL     1       4.559  31.271 -10.879  1.00  0.00     0.198 C 
BRANCH  34  35
HETATM   35  O15 UNL     1       4.124  31.095  -9.569  1.00  0.00    -0.387 OA
ATOM     36  H15 UNL     1       4.774  30.688  -9.007  1.00  0.00     0.210 HD
ENDBRANCH  34  35
ENDBRANCH  29  30
ENDBRANCH   7  29
BRANCH   6  37
HETATM   37  O8  UNL     1       5.985  28.319 -12.240  1.00  0.00    -0.348 OA
BRANCH  37  38
HETATM   38  C15 UNL     1       5.948  28.388 -10.865  1.00  0.00     0.292 C 
HETATM   39  O9  UNL     1       7.017  28.987 -10.276  1.00  0.00    -0.351 OA
HETATM   40  C16 UNL     1       8.116  28.237  -9.988  1.00  0.00     0.152 C 
HETATM   41  C17 UNL     1       8.717  27.721 -11.277  1.00  0.00     0.042 C 
HETATM   42  C18 UNL     1       7.744  27.045  -9.142  1.00  0.00     0.178 C 
HETATM   43  C19 UNL     1       6.676  26.262  -9.826  1.00  0.00     0.183 C 
HETATM   44  C20 UNL     1       5.514  27.180 -10.130  1.00  0.00     0.204 C 
BRANCH  42  45
HETATM   45  O10 UNL     1       8.856  26.255  -8.859  1.00  0.00    -0.390 OA
ATOM     46  H10 UNL     1       9.070  26.275  -7.933  1.00  0.00     0.210 HD
ENDBRANCH  42  45
BRANCH  43  47
HETATM   47  O11 UNL     1       6.203  25.336  -8.848  1.00  0.00    -0.390 OA
ATOM     48  H11 UNL     1       6.841  24.632  -8.841  1.00  0.00     0.210 HD
ENDBRANCH  43  47
BRANCH  44  49
HETATM   49  O12 UNL     1       4.999  27.547  -8.861  1.00  0.00    -0.388 OA
ATOM     50  H12 UNL     1       5.140  26.843  -8.239  1.00  0.00     0.210 HD
ENDBRANCH  44  49
ENDBRANCH  37  38
ENDBRANCH   6  37
BRANCH   5  51
HETATM   51  O7  UNL     1       6.300  28.937 -14.912  1.00  0.00    -0.390 OA
ATOM     52  H7  UNL     1       6.933  28.905 -14.204  1.00  0.00     0.210 HD
ENDBRANCH   5  51
TORSDOF 16
ENDMDL
MODEL 4
REMARK VINA RESULT: -8.328226205      3.430      5.500
REMARK  16 active torsions:
REMARK  status: ('A' for Active; 'I' for Inactive)
REMARK    1  A    between atoms: C4_5  and  O2_6 
REMARK    2  A    between atoms: O2_6  and  C5_7 
REMARK    3  A    between atoms: C8_11  and  O4_12 
REMARK    4  A    between atoms: C9_14  and  O5_15 
REMARK    5  A    between atoms: O5_15  and  C10_16 
REMARK    6  A    between atoms: C13_20  and  O7_21 
REMARK    7  A    between atoms: C14_23  and  O8_24 
REMARK    8  A    between atoms: O8_24  and  C15_25 
REMARK    9  A    between atoms: C18_29  and  O10_30 
REMARK   10  A    between atoms: C19_32  and  O11_33 
REMARK   11  A    between atoms: C20_35  and  O12_36 
REMARK   12  A    between atoms: C21_38  and  O13_39 
REMARK   13  A    between atoms: O13_39  and  C22_40 
REMARK   14  A    between atoms: C25_44  and  O15_45 
REMARK   15  A    between atoms: C26_47  and  O16_48 
REMARK   16  A    between atoms: C27_50  and  O17_51 
ROOT
HETATM    1  C10 UNL     1       3.387  29.689 -13.637  1.00  0.00     0.292 C 
HETATM    2  O6  UNL     1       3.953  28.517 -14.195  1.00  0.00    -0.351 OA
HETATM    3  C11 UNL     1       4.056  28.785 -15.553  1.00  0.00     0.152 C 
HETATM    4  C12 UNL     1       4.134  27.448 -16.275  1.00  0.00     0.042 C 
HETATM    5  C13 UNL     1       2.809  29.465 -16.015  1.00  0.00     0.178 C 
HETATM    6  C14 UNL     1       1.577  29.112 -15.204  1.00  0.00     0.189 C 
HETATM    7  C21 UNL     1       1.893  29.474 -13.755  1.00  0.00     0.211 C 
ENDROOT
BRANCH   1   8
HETATM    8  O5  UNL     1       3.861  29.787 -12.357  1.00  0.00    -0.346 OA
BRANCH   8   9
HETATM    9  C9  UNL     1       4.176  31.075 -12.028  1.00  0.00     0.211 C 
HETATM   10  C5  UNL     1       5.268  31.215 -11.013  1.00  0.00     0.295 C 
HETATM   11  O3  UNL     1       5.251  32.590 -10.770  1.00  0.00    -0.351 OA
HETATM   12  C6  UNL     1       3.924  32.967 -10.689  1.00  0.00     0.152 C 
HETATM   13  C7  UNL     1       3.720  34.181 -11.569  1.00  0.00     0.042 C 
HETATM   14  C8  UNL     1       3.084  31.832 -11.289  1.00  0.00     0.180 C 
BRANCH  10  15
HETATM   15  O2  UNL     1       6.486  30.719 -11.364  1.00  0.00    -0.326 OA
BRANCH  15  16
HETATM   16  C4  UNL     1       6.593  29.338 -11.227  1.00  0.00     0.294 C 
HETATM   17  O1  UNL     1       7.189  29.108  -9.988  1.00  0.00    -0.358 OA
HETATM   18  C3  UNL     1       8.573  29.146 -10.167  1.00  0.00     0.178 C 
HETATM   19  C2  UNL     1       9.100  27.847 -10.736  1.00  0.00     0.037 C 
HETATM   20  C1  UNL     1       9.343  26.802  -9.690  1.00  0.00     0.015 C 
HETATM   21  C27 UNL     1       8.055  27.379 -11.750  1.00  0.00     0.157 C 
HETATM   22  C26 UNL     1       7.431  28.679 -12.281  1.00  0.00     0.202 C 
BRANCH  21  23
HETATM   23  O17 UNL     1       7.086  26.630 -11.084  1.00  0.00    -0.392 OA
ATOM     24  H17 UNL     1       6.673  26.041 -11.705  1.00  0.00     0.210 HD
ENDBRANCH  21  23
BRANCH  22  25
HETATM   25  O16 UNL     1       6.590  28.363 -13.347  1.00  0.00    -0.388 OA
ATOM     26  H16 UNL     1       6.386  27.438 -13.284  1.00  0.00     0.210 HD
ENDBRANCH  22  25
ENDBRANCH  15  16
ENDBRANCH  10  15
BRANCH  14  27
HETATM   27  O4  UNL     1       2.591  31.046 -10.249  1.00  0.00    -0.390 OA
ATOM     28  H4  UNL     1       2.882  30.152 -10.382  1.00  0.00     0.210 HD
ENDBRANCH  14  27
ENDBRANCH   8   9
ENDBRANCH   1   8
BRANCH   7  29
HETATM   29  O13 UNL     1       1.607  28.420 -12.900  1.00  0.00    -0.345 OA
BRANCH  29  30
HETATM   30  C22 UNL     1       0.853  28.683 -11.813  1.00  0.00     0.298 C 
HETATM   31  O14 UNL     1       0.158  29.920 -11.868  1.00  0.00    -0.330 OA
HETATM   32  C23 UNL     1      -0.767  29.838 -10.808  1.00  0.00     0.137 C 
HETATM   33  C24 UNL     1      -1.046  28.575 -10.560  1.00  0.00     0.033 C 
HETATM   34  C25 UNL     1      -0.260  27.745 -11.509  1.00  0.00     0.198 C 
BRANCH  34  35
HETATM   35  O15 UNL     1      -1.099  27.512 -12.594  1.00  0.00    -0.387 OA
ATOM     36  H15 UNL     1      -1.706  28.224 -12.762  1.00  0.00     0.210 HD
ENDBRANCH  34  35
ENDBRANCH  29  30
ENDBRANCH   7  29
BRANCH   6  37
HETATM   37  O8  UNL     1       0.538  29.844 -15.740  1.00  0.00    -0.348 OA
BRANCH  37  38
HETATM   38  C15 UNL     1      -0.707  29.572 -15.218  1.00  0.00     0.292 C 
HETATM   39  O9  UNL     1      -1.161  28.304 -15.408  1.00  0.00    -0.351 OA
HETATM   40  C16 UNL     1      -1.823  28.008 -16.562  1.00  0.00     0.152 C 
HETATM   41  C17 UNL     1      -0.882  28.182 -17.733  1.00  0.00     0.042 C 
HETATM   42  C18 UNL     1      -2.990  28.940 -16.764  1.00  0.00     0.178 C 
HETATM   43  C19 UNL     1      -2.514  30.352 -16.720  1.00  0.00     0.183 C 
HETATM   44  C20 UNL     1      -1.770  30.578 -15.424  1.00  0.00     0.204 C 
BRANCH  42  45
HETATM   45  O10 UNL     1      -3.663  28.663 -17.952  1.00  0.00    -0.390 OA
ATOM     46  H10 UNL     1      -3.830  29.455 -18.450  1.00  0.00     0.210 HD
ENDBRANCH  42  45
BRANCH  43  47
HETATM   47  O11 UNL     1      -3.697  31.146 -16.643  1.00  0.00    -0.390 OA
ATOM     48  H11 UNL     1      -3.530  31.899 -17.198  1.00  0.00     0.210 HD
ENDBRANCH  43  47
BRANCH  44  49
HETATM   49  O12 UNL     1      -2.756  30.452 -14.413  1.00  0.00    -0.388 OA
ATOM     50  H12 UNL     1      -3.620  30.596 -14.783  1.00  0.00     0.210 HD
ENDBRANCH  44  49
ENDBRANCH  37  38
ENDBRANCH   6  37
BRANCH   5  51
HETATM   51  O7  UNL     1       2.653  29.126 -17.362  1.00  0.00    -0.390 OA
ATOM     52  H7  UNL     1       2.518  29.943 -17.828  1.00  0.00     0.210 HD
ENDBRANCH   5  51
TORSDOF 16
ENDMDL
MODEL 5
REMARK VINA RESULT: -8.203990176      3.032      8.444
REMARK  16 active torsions:
REMARK  status: ('A' for Active; 'I' for Inactive)
REMARK    1  A    between atoms: C4_5  and  O2_6 
REMARK    2  A    between atoms: O2_6  and  C5_7 
REMARK    3  A    between atoms: C8_11  and  O4_12 
REMARK    4  A    between atoms: C9_14  and  O5_15 
REMARK    5  A    between atoms: O5_15  and  C10_16 
REMARK    6  A    between atoms: C13_20  and  O7_21 
REMARK    7  A    between atoms: C14_23  and  O8_24 
REMARK    8  A    between atoms: O8_24  and  C15_25 
REMARK    9  A    between atoms: C18_29  and  O10_30 
REMARK   10  A    between atoms: C19_32  and  O11_33 
REMARK   11  A    between atoms: C20_35  and  O12_36 
REMARK   12  A    between atoms: C21_38  and  O13_39 
REMARK   13  A    between atoms: O13_39  and  C22_40 
REMARK   14  A    between atoms: C25_44  and  O15_45 
REMARK   15  A    between atoms: C26_47  and  O16_48 
REMARK   16  A    between atoms: C27_50  and  O17_51 
ROOT
HETATM    1  C10 UNL     1       3.363  28.083 -12.560  1.00  0.00     0.292 C 
HETATM    2  O6  UNL     1       2.168  28.368 -11.854  1.00  0.00    -0.351 OA
HETATM    3  C11 UNL     1       2.452  29.514 -11.125  1.00  0.00     0.152 C 
HETATM    4  C12 UNL     1       1.462  29.575  -9.972  1.00  0.00     0.042 C 
HETATM    5  C13 UNL     1       3.817  29.390 -10.529  1.00  0.00     0.178 C 
HETATM    6  C14 UNL     1       4.248  27.961 -10.265  1.00  0.00     0.189 C 
HETATM    7  C21 UNL     1       4.166  27.229 -11.602  1.00  0.00     0.211 C 
ENDROOT
BRANCH   1   8
HETATM    8  O5  UNL     1       2.997  27.463 -13.725  1.00  0.00    -0.346 OA
BRANCH   8   9
HETATM    9  C9  UNL     1       2.817  28.357 -14.741  1.00  0.00     0.211 C 
HETATM   10  C5  UNL     1       1.961  27.864 -15.868  1.00  0.00     0.295 C 
HETATM   11  O3  UNL     1       2.092  28.901 -16.795  1.00  0.00    -0.351 OA
HETATM   12  C6  UNL     1       3.425  29.268 -16.800  1.00  0.00     0.152 C 
HETATM   13  C7  UNL     1       3.503  30.773 -16.679  1.00  0.00     0.042 C 
HETATM   14  C8  UNL     1       4.070  28.682 -15.537  1.00  0.00     0.180 C 
BRANCH  10  15
HETATM   15  O2  UNL     1       0.675  27.546 -15.555  1.00  0.00    -0.326 OA
BRANCH  15  16
HETATM   16  C4  UNL     1      -0.016  28.565 -14.907  1.00  0.00     0.294 C 
HETATM   17  O1  UNL     1      -0.614  27.987 -13.787  1.00  0.00    -0.358 OA
HETATM   18  C3  UNL     1      -1.849  27.470 -14.183  1.00  0.00     0.178 C 
HETATM   19  C2  UNL     1      -2.905  28.550 -14.272  1.00  0.00     0.037 C 
HETATM   20  C1  UNL     1      -3.545  28.857 -12.952  1.00  0.00     0.015 C 
HETATM   21  C27 UNL     1      -2.198  29.781 -14.842  1.00  0.00     0.157 C 
HETATM   22  C26 UNL     1      -1.089  29.204 -15.735  1.00  0.00     0.202 C 
BRANCH  21  23
HETATM   23  O17 UNL     1      -1.630  30.501 -13.791  1.00  0.00    -0.392 OA
ATOM     24  H17 UNL     1      -2.173  30.395 -13.019  1.00  0.00     0.210 HD
ENDBRANCH  21  23
BRANCH  22  25
HETATM   25  O16 UNL     1      -0.503  30.251 -16.444  1.00  0.00    -0.388 OA
ATOM     26  H16 UNL     1       0.438  30.115 -16.425  1.00  0.00     0.210 HD
ENDBRANCH  22  25
ENDBRANCH  15  16
ENDBRANCH  10  15
BRANCH  14  27
HETATM   27  O4  UNL     1       4.726  27.502 -15.880  1.00  0.00    -0.390 OA
ATOM     28  H4  UNL     1       4.691  26.910 -15.138  1.00  0.00     0.210 HD
ENDBRANCH  14  27
ENDBRANCH   8   9
ENDBRANCH   1   8
BRANCH   7  29
HETATM   29  O13 UNL     1       3.453  26.045 -11.484  1.00  0.00    -0.345 OA
BRANCH  29  30
HETATM   30  C22 UNL     1       4.069  25.001 -10.891  1.00  0.00     0.298 C 
HETATM   31  O14 UNL     1       3.737  24.826  -9.522  1.00  0.00    -0.330 OA
HETATM   32  C23 UNL     1       4.237  23.546  -9.211  1.00  0.00     0.137 C 
HETATM   33  C24 UNL     1       4.284  22.811 -10.303  1.00  0.00     0.033 C 
HETATM   34  C25 UNL     1       3.785  23.643 -11.427  1.00  0.00     0.198 C 
BRANCH  34  35
HETATM   35  O15 UNL     1       2.426  23.364 -11.534  1.00  0.00    -0.387 OA
ATOM     36  H15 UNL     1       2.156  22.606 -11.029  1.00  0.00     0.210 HD
ENDBRANCH  34  35
ENDBRANCH  29  30
ENDBRANCH   7  29
BRANCH   6  37
HETATM   37  O8  UNL     1       5.526  28.030  -9.754  1.00  0.00    -0.348 OA
BRANCH  37  38
HETATM   38  C15 UNL     1       6.539  27.975 -10.685  1.00  0.00     0.292 C 
HETATM   39  O9  UNL     1       7.091  26.748 -10.883  1.00  0.00    -0.351 OA
HETATM   40  C16 UNL     1       8.111  26.346 -10.075  1.00  0.00     0.152 C 
HETATM   41  C17 UNL     1       7.605  26.236  -8.654  1.00  0.00     0.042 C 
HETATM   42  C18 UNL     1       9.233  27.353 -10.089  1.00  0.00     0.178 C 
HETATM   43  C19 UNL     1       8.702  28.696  -9.721  1.00  0.00     0.183 C 
HETATM   44  C20 UNL     1       7.561  29.043 -10.649  1.00  0.00     0.204 C 
BRANCH  42  45
HETATM   45  O10 UNL     1      10.275  26.967  -9.248  1.00  0.00    -0.390 OA
ATOM     46  H10 UNL     1      10.684  27.717  -8.834  1.00  0.00     0.210 HD
ENDBRANCH  42  45
BRANCH  43  47
HETATM   47  O11 UNL     1       9.753  29.613 -10.026  1.00  0.00    -0.390 OA
ATOM     48  H11 UNL     1       9.613  30.355  -9.449  1.00  0.00     0.210 HD
ENDBRANCH  43  47
BRANCH  44  49
HETATM   49  O12 UNL     1       8.160  29.181 -11.927  1.00  0.00    -0.388 OA
ATOM     50  H12 UNL     1       8.888  29.790 -11.879  1.00  0.00     0.210 HD
ENDBRANCH  44  49
ENDBRANCH  37  38
ENDBRANCH   6  37
BRANCH   5  51
HETATM   51  O7  UNL     1       3.803  30.150  -9.356  1.00  0.00    -0.390 OA
ATOM     52  H7  UNL     1       4.326  30.922  -9.533  1.00  0.00     0.210 HD
ENDBRANCH   5  51
TORSDOF 16
ENDMDL
