MODEL 1
REMARK VINA RESULT: -8.216528221      0.000      0.000
REMARK  16 active torsions:
REMARK  status: ('A' for Active; 'I' for Inactive)
REMARK    1  A    between atoms: O1_1  and  C1_3 
REMARK    2  A    between atoms: C1_3  and  C2_4 
REMARK    3  A    between atoms: C3_6  and  O3_7 
REMARK    4  A    between atoms: O3_7  and  C4_8 
REMARK    5  A    between atoms: C5_10  and  O5_11 
REMARK    6  A    between atoms: O5_11  and  C6_12 
REMARK    7  A    between atoms: C10_17  and  O7_18 
REMARK    8  A    between atoms: C15_26  and  C16_27 
REMARK    9  A    between atoms: C15_26  and  O11_30 
REMARK   10  A    between atoms: C16_27  and  O10_28 
REMARK   11  A    between atoms: O11_30  and  C17_31 
REMARK   12  A    between atoms: C18_33  and  C19_34 
REMARK   13  A    between atoms: C19_34  and  O13_35 
REMARK   14  A    between atoms: C20_37  and  O14_38 
REMARK   15  A    between atoms: C22_41  and  O15_42 
REMARK   16  A    between atoms: C27_49  and  O17_50 
ROOT
HETATM    1  C4  UNL     1      -0.606  29.088 -12.731  1.00  0.00     0.321 C 
HETATM    2  O4  UNL     1      -0.792  30.361 -12.308  1.00  0.00    -0.323 OA
HETATM    3  C5  UNL     1      -1.076  30.633 -11.020  1.00  0.00     0.302 C 
HETATM    4  C10 UNL     1       0.037  30.246 -10.031  1.00  0.00     0.150 C 
HETATM    5  C11 UNL     1      -0.098  28.819  -9.604  1.00  0.00     0.216 C 
HETATM    6  O8  UNL     1      -0.991  28.234 -10.539  1.00  0.00    -0.353 OA
HETATM    7  C12 UNL     1      -0.337  28.027 -11.752  1.00  0.00     0.315 C 
HETATM    8  O9  UNL     1       0.963  27.742 -11.458  1.00  0.00    -0.348 OA
HETATM    9  C13 UNL     1       1.925  28.018 -12.366  1.00  0.00     0.160 C 
HETATM   10  C14 UNL     1       3.250  27.369 -11.922  1.00  0.00     0.078 C 
HETATM   11  C15 UNL     1       3.921  28.652 -12.244  1.00  0.00     0.116 C 
HETATM   12  C23 UNL     1       2.577  29.334 -12.068  1.00  0.00     0.187 C 
HETATM   13  O16 UNL     1       2.280  29.661 -10.749  1.00  0.00    -0.377 OA
HETATM   14  C24 UNL     1       1.337  30.639 -10.623  1.00  0.00     0.213 C 
ENDROOT
BRANCH  11  15
HETATM   15  C16 UNL     1       4.375  28.697 -13.706  1.00  0.00     0.205 C 
BRANCH  15  16
HETATM   16  O10 UNL     1       4.669  30.027 -13.990  1.00  0.00    -0.398 OA
ATOM     17  H10 UNL     1       5.222  30.023 -14.763  1.00  0.00     0.209 HD
ENDBRANCH  15  16
ENDBRANCH  11  15
BRANCH  11  18
HETATM   18  O11 UNL     1       4.818  29.172 -11.353  1.00  0.00    -0.343 OA
BRANCH  18  19
HETATM   19  C17 UNL     1       6.028  28.520 -11.285  1.00  0.00     0.290 C 
HETATM   20  O12 UNL     1       6.207  28.173  -9.925  1.00  0.00    -0.349 OA
HETATM   21  C18 UNL     1       7.178  27.190  -9.876  1.00  0.00     0.177 C 
HETATM   22  C20 UNL     1       8.507  27.858 -10.178  1.00  0.00     0.151 C 
HETATM   23  C21 UNL     1       8.461  28.593 -11.487  1.00  0.00     0.071 C 
HETATM   24  C22 UNL     1       7.195  29.407 -11.649  1.00  0.00     0.175 C 
BRANCH  21  25
HETATM   25  C19 UNL     1       7.245  26.635  -8.467  1.00  0.00     0.198 C 
BRANCH  25  26
HETATM   26  O13 UNL     1       6.036  26.950  -7.844  1.00  0.00    -0.398 OA
ATOM     27  H13 UNL     1       6.146  26.772  -6.917  1.00  0.00     0.209 HD
ENDBRANCH  25  26
ENDBRANCH  21  25
BRANCH  22  28
HETATM   28  O14 UNL     1       9.498  26.906 -10.194  1.00  0.00    -0.393 OA
ATOM     29  H14 UNL     1       9.303  26.265 -10.868  1.00  0.00     0.210 HD
ENDBRANCH  22  28
BRANCH  24  30
HETATM   30  O15 UNL     1       7.178  30.512 -10.791  1.00  0.00    -0.391 OA
ATOM     31  H15 UNL     1       7.241  31.296 -11.325  1.00  0.00     0.210 HD
ENDBRANCH  24  30
ENDBRANCH  18  19
ENDBRANCH  11  18
BRANCH   4  32
HETATM   32  O7  UNL     1      -0.195  31.033  -8.879  1.00  0.00    -0.380 OA
ATOM     33  H7  UNL     1       0.181  31.883  -9.074  1.00  0.00     0.211 HD
ENDBRANCH   4  32
BRANCH   1  34
HETATM   34  O3  UNL     1      -1.697  28.730 -13.511  1.00  0.00    -0.326 OA
BRANCH  34  35
HETATM   35  C3  UNL     1      -1.579  28.975 -14.865  1.00  0.00     0.264 C 
HETATM   36  O2  UNL     1      -2.762  29.139 -15.516  1.00  0.00    -0.351 OA
HETATM   37  C2  UNL     1      -3.324  28.006 -15.964  1.00  0.00     0.176 C 
HETATM   38  C27 UNL     1      -2.518  27.296 -17.031  1.00  0.00     0.149 C 
HETATM   39  C26 UNL     1      -1.061  27.678 -16.943  1.00  0.00     0.039 C 
HETATM   40  C25 UNL     1      -0.642  28.100 -15.584  1.00  0.00     0.063 C 
BRANCH  37  41
HETATM   41  C1  UNL     1      -3.650  27.071 -14.825  1.00  0.00     0.198 C 
BRANCH  41  42
HETATM   42  O1  UNL     1      -3.558  25.751 -15.215  1.00  0.00    -0.398 OA
ATOM     43  H1  UNL     1      -3.188  25.210 -14.526  1.00  0.00     0.209 HD
ENDBRANCH  41  42
ENDBRANCH  37  41
BRANCH  38  44
HETATM   44  O17 UNL     1      -3.067  27.631 -18.259  1.00  0.00    -0.393 OA
ATOM     45  H17 UNL     1      -2.348  27.792 -18.858  1.00  0.00     0.210 HD
ENDBRANCH  38  44
ENDBRANCH  34  35
ENDBRANCH   1  34
BRANCH   3  46
HETATM   46  O5  UNL     1      -2.313  30.209 -10.549  1.00  0.00    -0.350 OA
BRANCH  46  47
HETATM   47  C6  UNL     1      -3.328  31.132 -10.750  1.00  0.00     0.150 C 
HETATM   48  C7  UNL     1      -4.009  30.818 -12.074  1.00  0.00     0.060 C 
HETATM   49  C8  UNL     1      -4.111  32.144 -12.779  1.00  0.00     0.170 C 
HETATM   50  O6  UNL     1      -3.720  33.122 -11.900  1.00  0.00    -0.389 OA
HETATM   51  C9  UNL     1      -2.873  32.535 -10.967  1.00  0.00     0.199 C 
ENDBRANCH  46  47
ENDBRANCH   3  46
TORSDOF 16
ENDMDL
MODEL 2
REMARK VINA RESULT: -8.057789933      1.955      4.967
REMARK  16 active torsions:
REMARK  status: ('A' for Active; 'I' for Inactive)
REMARK    1  A    between atoms: O1_1  and  C1_3 
REMARK    2  A    between atoms: C1_3  and  C2_4 
REMARK    3  A    between atoms: C3_6  and  O3_7 
REMARK    4  A    between atoms: O3_7  and  C4_8 
REMARK    5  A    between atoms: C5_10  and  O5_11 
REMARK    6  A    between atoms: O5_11  and  C6_12 
REMARK    7  A    between atoms: C10_17  and  O7_18 
REMARK    8  A    between atoms: C15_26  and  C16_27 
REMARK    9  A    between atoms: C15_26  and  O11_30 
REMARK   10  A    between atoms: C16_27  and  O10_28 
REMARK   11  A    between atoms: O11_30  and  C17_31 
REMARK   12  A    between atoms: C18_33  and  C19_34 
REMARK   13  A    between atoms: C19_34  and  O13_35 
REMARK   14  A    between atoms: C20_37  and  O14_38 
REMARK   15  A    between atoms: C22_41  and  O15_42 
REMARK   16  A    between atoms: C27_49  and  O17_50 
ROOT
HETATM    1  C4  UNL     1       0.940  29.145 -12.366  1.00  0.00     0.321 C 
HETATM    2  O4  UNL     1       0.785  28.285 -13.401  1.00  0.00    -0.323 OA
HETATM    3  C5  UNL     1       1.122  28.639 -14.656  1.00  0.00     0.302 C 
HETATM    4  C10 UNL     1       2.619  28.933 -14.853  1.00  0.00     0.150 C 
HETATM    5  C11 UNL     1       2.932  30.358 -14.527  1.00  0.00     0.216 C 
HETATM    6  O8  UNL     1       1.802  30.833 -13.811  1.00  0.00    -0.353 OA
HETATM    7  C12 UNL     1       1.810  30.318 -12.517  1.00  0.00     0.315 C 
HETATM    8  O9  UNL     1       3.117  30.197 -12.147  1.00  0.00    -0.348 OA
HETATM    9  C13 UNL     1       3.463  29.271 -11.225  1.00  0.00     0.160 C 
HETATM   10  C14 UNL     1       4.920  29.507 -10.784  1.00  0.00     0.078 C 
HETATM   11  C15 UNL     1       5.143  28.048 -10.931  1.00  0.00     0.116 C 
HETATM   12  C23 UNL     1       3.963  28.023 -11.886  1.00  0.00     0.187 C 
HETATM   13  O16 UNL     1       4.295  28.345 -13.198  1.00  0.00    -0.377 OA
HETATM   14  C24 UNL     1       3.391  27.903 -14.120  1.00  0.00     0.213 C 
ENDROOT
BRANCH  11  15
HETATM   15  C16 UNL     1       4.819  27.297  -9.635  1.00  0.00     0.205 C 
BRANCH  15  16
HETATM   16  O10 UNL     1       4.516  25.989 -10.000  1.00  0.00    -0.398 OA
ATOM     17  H10 UNL     1       5.207  25.704 -10.586  1.00  0.00     0.209 HD
ENDBRANCH  15  16
ENDBRANCH  11  15
BRANCH  11  18
HETATM   18  O11 UNL     1       6.264  27.611 -11.578  1.00  0.00    -0.343 OA
BRANCH  18  19
HETATM   19  C17 UNL     1       7.326  27.287 -10.765  1.00  0.00     0.290 C 
HETATM   20  O12 UNL     1       8.064  28.481 -10.593  1.00  0.00    -0.349 OA
HETATM   21  C18 UNL     1       8.879  28.308  -9.490  1.00  0.00     0.177 C 
HETATM   22  C20 UNL     1       9.981  27.346  -9.896  1.00  0.00     0.151 C 
HETATM   23  C21 UNL     1       9.414  26.064 -10.433  1.00  0.00     0.071 C 
HETATM   24  C22 UNL     1       8.273  26.296 -11.400  1.00  0.00     0.175 C 
BRANCH  21  25
HETATM   25  C19 UNL     1       9.523  29.634  -9.140  1.00  0.00     0.198 C 
BRANCH  25  26
HETATM   26  O13 UNL     1      10.606  29.805 -10.002  1.00  0.00    -0.398 OA
ATOM     27  H13 UNL     1      10.998  28.949 -10.132  1.00  0.00     0.209 HD
ENDBRANCH  25  26
ENDBRANCH  21  25
BRANCH  22  28
HETATM   28  O14 UNL     1      10.787  27.100  -8.810  1.00  0.00    -0.393 OA
ATOM     29  H14 UNL     1      10.871  26.161  -8.690  1.00  0.00     0.210 HD
ENDBRANCH  22  28
BRANCH  24  30
HETATM   30  O15 UNL     1       8.722  26.845 -12.606  1.00  0.00    -0.391 OA
ATOM     31  H15 UNL     1       8.207  26.464 -13.308  1.00  0.00     0.210 HD
ENDBRANCH  24  30
ENDBRANCH  18  19
ENDBRANCH  11  18
BRANCH   4  32
HETATM   32  O7  UNL     1       2.854  28.777 -16.238  1.00  0.00    -0.380 OA
ATOM     33  H7  UNL     1       3.797  28.822 -16.341  1.00  0.00     0.211 HD
ENDBRANCH   4  32
BRANCH   1  34
HETATM   34  O3  UNL     1      -0.321  29.556 -11.957  1.00  0.00    -0.326 OA
BRANCH  34  35
HETATM   35  C3  UNL     1      -0.451  29.865 -10.616  1.00  0.00     0.264 C 
HETATM   36  O2  UNL     1      -1.032  28.891  -9.865  1.00  0.00    -0.351 OA
HETATM   37  C2  UNL     1      -2.372  28.941  -9.811  1.00  0.00     0.176 C 
HETATM   38  C27 UNL     1      -2.917  30.177  -9.129  1.00  0.00     0.149 C 
HETATM   39  C26 UNL     1      -1.913  31.303  -9.181  1.00  0.00     0.039 C 
HETATM   40  C25 UNL     1      -0.976  31.206 -10.326  1.00  0.00     0.063 C 
BRANCH  37  41
HETATM   41  C1  UNL     1      -2.981  28.770 -11.181  1.00  0.00     0.198 C 
BRANCH  41  42
HETATM   42  O1  UNL     1      -2.651  27.548 -11.731  1.00  0.00    -0.398 OA
ATOM     43  H1  UNL     1      -3.296  26.885 -11.516  1.00  0.00     0.209 HD
ENDBRANCH  41  42
ENDBRANCH  37  41
BRANCH  38  44
HETATM   44  O17 UNL     1      -3.234  29.828  -7.826  1.00  0.00    -0.393 OA
ATOM     45  H17 UNL     1      -3.589  30.600  -7.402  1.00  0.00     0.210 HD
ENDBRANCH  38  44
ENDBRANCH  34  35
ENDBRANCH   1  34
BRANCH   3  46
HETATM   46  O5  UNL     1       0.350  29.628 -15.257  1.00  0.00    -0.350 OA
BRANCH  46  47
HETATM   47  C6  UNL     1      -0.718  29.130 -15.986  1.00  0.00     0.150 C 
HETATM   48  C7  UNL     1      -1.972  29.221 -15.127  1.00  0.00     0.060 C 
HETATM   49  C8  UNL     1      -2.628  27.873 -15.260  1.00  0.00     0.170 C 
HETATM   50  O6  UNL     1      -1.951  27.164 -16.219  1.00  0.00    -0.389 OA
HETATM   51  C9  UNL     1      -0.657  27.670 -16.281  1.00  0.00     0.199 C 
ENDBRANCH  46  47
ENDBRANCH   3  46
TORSDOF 16
ENDMDL
MODEL 3
REMARK VINA RESULT: -8.046087572      1.417      1.713
REMARK  16 active torsions:
REMARK  status: ('A' for Active; 'I' for Inactive)
REMARK    1  A    between atoms: O1_1  and  C1_3 
REMARK    2  A    between atoms: C1_3  and  C2_4 
REMARK    3  A    between atoms: C3_6  and  O3_7 
REMARK    4  A    between atoms: O3_7  and  C4_8 
REMARK    5  A    between atoms: C5_10  and  O5_11 
REMARK    6  A    between atoms: O5_11  and  C6_12 
REMARK    7  A    between atoms: C10_17  and  O7_18 
REMARK    8  A    between atoms: C15_26  and  C16_27 
REMARK    9  A    between atoms: C15_26  and  O11_30 
REMARK   10  A    between atoms: C16_27  and  O10_28 
REMARK   11  A    between atoms: O11_30  and  C17_31 
REMARK   12  A    between atoms: C18_33  and  C19_34 
REMARK   13  A    between atoms: C19_34  and  O13_35 
REMARK   14  A    between atoms: C20_37  and  O14_38 
REMARK   15  A    between atoms: C22_41  and  O15_42 
REMARK   16  A    between atoms: C27_49  and  O17_50 
ROOT
HETATM    1  C4  UNL     1      -1.293  29.574 -11.815  1.00  0.00     0.321 C 
HETATM    2  O4  UNL     1      -1.218  30.926 -11.809  1.00  0.00    -0.323 OA
HETATM    3  C5  UNL     1      -1.244  31.620 -10.655  1.00  0.00     0.302 C 
HETATM    4  C10 UNL     1      -0.055  31.343  -9.721  1.00  0.00     0.150 C 
HETATM    5  C11 UNL     1      -0.327  30.163  -8.843  1.00  0.00     0.216 C 
HETATM    6  O8  UNL     1      -1.437  29.507  -9.436  1.00  0.00    -0.353 OA
HETATM    7  C12 UNL     1      -1.028  28.824 -10.580  1.00  0.00     0.315 C 
HETATM    8  O9  UNL     1       0.246  28.397 -10.352  1.00  0.00    -0.348 OA
HETATM    9  C13 UNL     1       1.078  28.198 -11.399  1.00  0.00     0.160 C 
HETATM   10  C14 UNL     1       2.346  27.471 -10.914  1.00  0.00     0.078 C 
HETATM   11  C15 UNL     1       3.139  28.444 -11.705  1.00  0.00     0.116 C 
HETATM   12  C23 UNL     1       1.956  29.392 -11.615  1.00  0.00     0.187 C 
HETATM   13  O16 UNL     1       1.931  30.150 -10.449  1.00  0.00    -0.377 OA
HETATM   14  C24 UNL     1       1.175  31.283 -10.545  1.00  0.00     0.213 C 
ENDROOT
BRANCH  11  15
HETATM   15  C16 UNL     1       3.349  27.961 -13.143  1.00  0.00     0.205 C 
BRANCH  15  16
HETATM   16  O10 UNL     1       3.685  29.083 -13.894  1.00  0.00    -0.398 OA
ATOM     17  H10 UNL     1       3.771  29.804 -13.281  1.00  0.00     0.209 HD
ENDBRANCH  15  16
ENDBRANCH  11  15
BRANCH  11  18
HETATM   18  O11 UNL     1       4.235  29.026 -11.132  1.00  0.00    -0.343 OA
BRANCH  18  19
HETATM   19  C17 UNL     1       5.404  28.306 -11.232  1.00  0.00     0.290 C 
HETATM   20  O12 UNL     1       5.760  27.957  -9.909  1.00  0.00    -0.349 OA
HETATM   21  C18 UNL     1       6.671  26.920  -9.987  1.00  0.00     0.177 C 
HETATM   22  C20 UNL     1       7.977  27.509 -10.488  1.00  0.00     0.151 C 
HETATM   23  C21 UNL     1       7.781  28.239 -11.786  1.00  0.00     0.071 C 
HETATM   24  C22 UNL     1       6.553  29.123 -11.774  1.00  0.00     0.175 C 
BRANCH  21  25
HETATM   25  C19 UNL     1       6.911  26.369  -8.596  1.00  0.00     0.198 C 
BRANCH  25  26
HETATM   26  O13 UNL     1       5.875  26.836  -7.785  1.00  0.00    -0.398 OA
ATOM     27  H13 UNL     1       6.193  26.820  -6.890  1.00  0.00     0.209 HD
ENDBRANCH  25  26
ENDBRANCH  21  25
BRANCH  22  28
HETATM   28  O14 UNL     1       8.900  26.502 -10.635  1.00  0.00    -0.393 OA
ATOM     29  H14 UNL     1       9.736  26.793 -10.290  1.00  0.00     0.210 HD
ENDBRANCH  22  28
BRANCH  24  30
HETATM   30  O15 UNL     1       6.723  30.231 -10.937  1.00  0.00    -0.391 OA
ATOM     31  H15 UNL     1       7.648  30.450 -10.927  1.00  0.00     0.210 HD
ENDBRANCH  24  30
ENDBRANCH  18  19
ENDBRANCH  11  18
BRANCH   4  32
HETATM   32  O7  UNL     1       0.024  32.467  -8.868  1.00  0.00    -0.380 OA
ATOM     33  H7  UNL     1      -0.818  32.900  -8.942  1.00  0.00     0.211 HD
ENDBRANCH   4  32
BRANCH   1  34
HETATM   34  O3  UNL     1      -2.537  29.214 -12.313  1.00  0.00    -0.326 OA
BRANCH  34  35
HETATM   35  C3  UNL     1      -2.586  28.922 -13.663  1.00  0.00     0.264 C 
HETATM   36  O2  UNL     1      -3.642  28.150 -14.037  1.00  0.00    -0.351 OA
HETATM   37  C2  UNL     1      -3.436  26.828 -13.952  1.00  0.00     0.176 C 
HETATM   38  C27 UNL     1      -2.368  26.308 -14.890  1.00  0.00     0.149 C 
HETATM   39  C26 UNL     1      -1.409  27.409 -15.272  1.00  0.00     0.039 C 
HETATM   40  C25 UNL     1      -1.315  28.488 -14.259  1.00  0.00     0.063 C 
BRANCH  37  41
HETATM   41  C1  UNL     1      -3.152  26.409 -12.530  1.00  0.00     0.198 C 
BRANCH  41  42
HETATM   42  O1  UNL     1      -3.704  25.177 -12.247  1.00  0.00    -0.398 OA
ATOM     43  H1  UNL     1      -3.033  24.514 -12.129  1.00  0.00     0.209 HD
ENDBRANCH  41  42
ENDBRANCH  37  41
BRANCH  38  44
HETATM   44  O17 UNL     1      -3.010  25.774 -15.997  1.00  0.00    -0.393 OA
ATOM     45  H17 UNL     1      -2.374  25.252 -16.472  1.00  0.00     0.210 HD
ENDBRANCH  38  44
ENDBRANCH  34  35
ENDBRANCH   1  34
BRANCH   3  46
HETATM   46  O5  UNL     1      -2.437  31.603  -9.941  1.00  0.00    -0.350 OA
BRANCH  46  47
HETATM   47  C6  UNL     1      -3.164  32.778 -10.050  1.00  0.00     0.150 C 
HETATM   48  C7  UNL     1      -2.526  33.642 -11.128  1.00  0.00     0.060 C 
HETATM   49  C8  UNL     1      -2.425  35.012 -10.514  1.00  0.00     0.170 C 
HETATM   50  O6  UNL     1      -3.093  34.990  -9.316  1.00  0.00    -0.389 OA
HETATM   51  C9  UNL     1      -3.098  33.676  -8.862  1.00  0.00     0.199 C 
ENDBRANCH  46  47
ENDBRANCH   3  46
TORSDOF 16
ENDMDL
MODEL 4
REMARK VINA RESULT: -8.032568116      0.853      1.331
REMARK  16 active torsions:
REMARK  status: ('A' for Active; 'I' for Inactive)
REMARK    1  A    between atoms: O1_1  and  C1_3 
REMARK    2  A    between atoms: C1_3  and  C2_4 
REMARK    3  A    between atoms: C3_6  and  O3_7 
REMARK    4  A    between atoms: O3_7  and  C4_8 
REMARK    5  A    between atoms: C5_10  and  O5_11 
REMARK    6  A    between atoms: O5_11  and  C6_12 
REMARK    7  A    between atoms: C10_17  and  O7_18 
REMARK    8  A    between atoms: C15_26  and  C16_27 
REMARK    9  A    between atoms: C15_26  and  O11_30 
REMARK   10  A    between atoms: C16_27  and  O10_28 
REMARK   11  A    between atoms: O11_30  and  C17_31 
REMARK   12  A    between atoms: C18_33  and  C19_34 
REMARK   13  A    between atoms: C19_34  and  O13_35 
REMARK   14  A    between atoms: C20_37  and  O14_38 
REMARK   15  A    between atoms: C22_41  and  O15_42 
REMARK   16  A    between atoms: C27_49  and  O17_50 
ROOT
HETATM    1  C4  UNL     1      -0.398  29.811 -12.813  1.00  0.00     0.321 C 
HETATM    2  O4  UNL     1      -0.589  30.867 -11.986  1.00  0.00    -0.323 OA
HETATM    3  C5  UNL     1      -0.961  30.689 -10.704  1.00  0.00     0.302 C 
HETATM    4  C10 UNL     1       0.066  29.935  -9.844  1.00  0.00     0.150 C 
HETATM    5  C11 UNL     1      -0.129  28.456  -9.949  1.00  0.00     0.216 C 
HETATM    6  O8  UNL     1      -0.962  28.271 -11.083  1.00  0.00    -0.353 OA
HETATM    7  C12 UNL     1      -0.225  28.466 -12.249  1.00  0.00     0.315 C 
HETATM    8  O9  UNL     1       1.043  28.039 -11.993  1.00  0.00    -0.348 OA
HETATM    9  C13 UNL     1       2.076  28.568 -12.686  1.00  0.00     0.160 C 
HETATM   10  C14 UNL     1       3.350  27.746 -12.414  1.00  0.00     0.078 C 
HETATM   11  C15 UNL     1       4.071  29.030 -12.227  1.00  0.00     0.116 C 
HETATM   12  C23 UNL     1       2.731  29.669 -11.909  1.00  0.00     0.187 C 
HETATM   13  O16 UNL     1       2.345  29.533 -10.579  1.00  0.00    -0.377 OA
HETATM   14  C24 UNL     1       1.415  30.449 -10.180  1.00  0.00     0.213 C 
ENDROOT
BRANCH  11  15
HETATM   15  C16 UNL     1       4.632  29.556 -13.551  1.00  0.00     0.205 C 
BRANCH  15  16
HETATM   16  O10 UNL     1       5.048  30.863 -13.314  1.00  0.00    -0.398 OA
ATOM     17  H10 UNL     1       5.261  31.237 -14.161  1.00  0.00     0.209 HD
ENDBRANCH  15  16
ENDBRANCH  11  15
BRANCH  11  18
HETATM   18  O11 UNL     1       4.909  29.169 -11.157  1.00  0.00    -0.343 OA
BRANCH  18  19
HETATM   19  C17 UNL     1       6.000  28.330 -11.149  1.00  0.00     0.290 C 
HETATM   20  O12 UNL     1       6.161  27.912  -9.808  1.00  0.00    -0.349 OA
HETATM   21  C18 UNL     1       6.963  26.786  -9.821  1.00  0.00     0.177 C 
HETATM   22  C20 UNL     1       8.373  27.244 -10.149  1.00  0.00     0.151 C 
HETATM   23  C21 UNL     1       8.406  28.022 -11.432  1.00  0.00     0.071 C 
HETATM   24  C22 UNL     1       7.284  29.032 -11.527  1.00  0.00     0.175 C 
BRANCH  21  25
HETATM   25  C19 UNL     1       6.981  26.178  -8.433  1.00  0.00     0.198 C 
BRANCH  25  26
HETATM   26  O13 UNL     1       5.958  26.788  -7.705  1.00  0.00    -0.398 OA
ATOM     27  H13 UNL     1       5.717  27.580  -8.172  1.00  0.00     0.209 HD
ENDBRANCH  25  26
ENDBRANCH  21  25
BRANCH  22  28
HETATM   28  O14 UNL     1       9.197  26.147 -10.227  1.00  0.00    -0.393 OA
ATOM     29  H14 UNL     1       8.694  25.365 -10.027  1.00  0.00     0.210 HD
ENDBRANCH  22  28
BRANCH  24  30
HETATM   30  O15 UNL     1       7.469  30.095 -10.636  1.00  0.00    -0.391 OA
ATOM     31  H15 UNL     1       8.277  30.536 -10.873  1.00  0.00     0.210 HD
ENDBRANCH  24  30
ENDBRANCH  18  19
ENDBRANCH  11  18
BRANCH   4  32
HETATM   32  O7  UNL     1      -0.233  30.285  -8.507  1.00  0.00    -0.380 OA
ATOM     33  H7  UNL     1      -1.167  30.457  -8.494  1.00  0.00     0.211 HD
ENDBRANCH   4  32
BRANCH   1  34
HETATM   34  O3  UNL     1      -1.436  29.794 -13.735  1.00  0.00    -0.326 OA
BRANCH  34  35
HETATM   35  C3  UNL     1      -1.648  28.593 -14.383  1.00  0.00     0.264 C 
HETATM   36  O2  UNL     1      -1.124  28.526 -15.637  1.00  0.00    -0.351 OA
HETATM   37  C2  UNL     1      -1.929  28.977 -16.612  1.00  0.00     0.176 C 
HETATM   38  C27 UNL     1      -3.191  28.163 -16.797  1.00  0.00     0.149 C 
HETATM   39  C26 UNL     1      -3.537  27.417 -15.531  1.00  0.00     0.039 C 
HETATM   40  C25 UNL     1      -3.018  28.067 -14.303  1.00  0.00     0.063 C 
BRANCH  37  41
HETATM   41  C1  UNL     1      -2.254  30.438 -16.419  1.00  0.00     0.198 C 
BRANCH  41  42
HETATM   42  O1  UNL     1      -3.527  30.733 -16.864  1.00  0.00    -0.398 OA
ATOM     43  H1  UNL     1      -3.522  31.469 -17.466  1.00  0.00     0.209 HD
ENDBRANCH  41  42
ENDBRANCH  37  41
BRANCH  38  44
HETATM   44  O17 UNL     1      -2.978  27.301 -17.862  1.00  0.00    -0.393 OA
ATOM     45  H17 UNL     1      -2.081  27.420 -18.150  1.00  0.00     0.210 HD
ENDBRANCH  38  44
ENDBRANCH  34  35
ENDBRANCH   1  34
BRANCH   3  46
HETATM   46  O5  UNL     1      -2.239  30.185 -10.487  1.00  0.00    -0.350 OA
BRANCH  46  47
HETATM   47  C6  UNL     1      -3.240  31.133 -10.633  1.00  0.00     0.150 C 
HETATM   48  C7  UNL     1      -3.978  30.858 -11.936  1.00  0.00     0.060 C 
HETATM   49  C8  UNL     1      -4.077  32.199 -12.612  1.00  0.00     0.170 C 
HETATM   50  O6  UNL     1      -3.632  33.152 -11.732  1.00  0.00    -0.389 OA
HETATM   51  C9  UNL     1      -2.763  32.529 -10.842  1.00  0.00     0.199 C 
ENDBRANCH  46  47
ENDBRANCH   3  46
TORSDOF 16
ENDMDL
MODEL 5
REMARK VINA RESULT: -7.999429655      2.309      4.609
REMARK  16 active torsions:
REMARK  status: ('A' for Active; 'I' for Inactive)
REMARK    1  A    between atoms: O1_1  and  C1_3 
REMARK    2  A    between atoms: C1_3  and  C2_4 
REMARK    3  A    between atoms: C3_6  and  O3_7 
REMARK    4  A    between atoms: O3_7  and  C4_8 
REMARK    5  A    between atoms: C5_10  and  O5_11 
REMARK    6  A    between atoms: O5_11  and  C6_12 
REMARK    7  A    between atoms: C10_17  and  O7_18 
REMARK    8  A    between atoms: C15_26  and  C16_27 
REMARK    9  A    between atoms: C15_26  and  O11_30 
REMARK   10  A    between atoms: C16_27  and  O10_28 
REMARK   11  A    between atoms: O11_30  and  C17_31 
REMARK   12  A    between atoms: C18_33  and  C19_34 
REMARK   13  A    between atoms: C19_34  and  O13_35 
REMARK   14  A    between atoms: C20_37  and  O14_38 
REMARK   15  A    between atoms: C22_41  and  O15_42 
REMARK   16  A    between atoms: C27_49  and  O17_50 
ROOT
HETATM    1  C4  UNL     1       0.919  28.806 -12.880  1.00  0.00     0.321 C 
HETATM    2  O4  UNL     1       0.968  28.083 -14.024  1.00  0.00    -0.323 OA
HETATM    3  C5  UNL     1       1.373  28.638 -15.183  1.00  0.00     0.302 C 
HETATM    4  C10 UNL     1       2.833  29.120 -15.179  1.00  0.00     0.150 C 
HETATM    5  C11 UNL     1       2.937  30.514 -14.648  1.00  0.00     0.216 C 
HETATM    6  O8  UNL     1       1.696  30.760 -14.005  1.00  0.00    -0.353 OA
HETATM    7  C12 UNL     1       1.649  30.078 -12.790  1.00  0.00     0.315 C 
HETATM    8  O9  UNL     1       2.920  30.053 -12.300  1.00  0.00    -0.348 OA
HETATM    9  C13 UNL     1       3.292  29.054 -11.468  1.00  0.00     0.160 C 
HETATM   10  C14 UNL     1       4.662  29.388 -10.848  1.00  0.00     0.078 C 
HETATM   11  C15 UNL     1       5.075  27.996 -11.149  1.00  0.00     0.116 C 
HETATM   12  C23 UNL     1       4.001  27.970 -12.221  1.00  0.00     0.187 C 
HETATM   13  O16 UNL     1       4.410  28.502 -13.440  1.00  0.00    -0.377 OA
HETATM   14  C24 UNL     1       3.656  28.091 -14.501  1.00  0.00     0.213 C 
ENDROOT
BRANCH  11  15
HETATM   15  C16 UNL     1       4.729  27.046  -9.998  1.00  0.00     0.205 C 
BRANCH  15  16
HETATM   16  O10 UNL     1       4.705  25.763 -10.537  1.00  0.00    -0.398 OA
ATOM     17  H10 UNL     1       5.598  25.557 -10.786  1.00  0.00     0.209 HD
ENDBRANCH  15  16
ENDBRANCH  11  15
BRANCH  11  18
HETATM   18  O11 UNL     1       6.297  27.777 -11.721  1.00  0.00    -0.343 OA
BRANCH  18  19
HETATM   19  C17 UNL     1       7.296  27.402 -10.852  1.00  0.00     0.290 C 
HETATM   20  O12 UNL     1       8.080  28.559 -10.637  1.00  0.00    -0.349 OA
HETATM   21  C18 UNL     1       8.825  28.345  -9.492  1.00  0.00     0.177 C 
HETATM   22  C20 UNL     1       9.900  27.331  -9.840  1.00  0.00     0.151 C 
HETATM   23  C21 UNL     1       9.301  26.079 -10.412  1.00  0.00     0.071 C 
HETATM   24  C22 UNL     1       8.227  26.367 -11.439  1.00  0.00     0.175 C 
BRANCH  21  25
HETATM   25  C19 UNL     1       9.512  29.638  -9.102  1.00  0.00     0.198 C 
BRANCH  25  26
HETATM   26  O13 UNL     1      10.645  29.760  -9.907  1.00  0.00    -0.398 OA
ATOM     27  H13 UNL     1      10.592  30.605 -10.338  1.00  0.00     0.209 HD
ENDBRANCH  25  26
ENDBRANCH  21  25
BRANCH  22  28
HETATM   28  O14 UNL     1      10.633  27.046  -8.713  1.00  0.00    -0.393 OA
ATOM     29  H14 UNL     1      11.553  27.201  -8.893  1.00  0.00     0.210 HD
ENDBRANCH  22  28
BRANCH  24  30
HETATM   30  O15 UNL     1       8.767  26.894 -12.617  1.00  0.00    -0.391 OA
ATOM     31  H15 UNL     1       8.615  26.267 -13.314  1.00  0.00     0.210 HD
ENDBRANCH  24  30
ENDBRANCH  18  19
ENDBRANCH  11  18
BRANCH   4  32
HETATM   32  O7  UNL     1       3.212  29.180 -16.540  1.00  0.00    -0.380 OA
ATOM     33  H7  UNL     1       3.197  30.102 -16.766  1.00  0.00     0.211 HD
ENDBRANCH   4  32
BRANCH   1  34
HETATM   34  O3  UNL     1      -0.415  29.017 -12.561  1.00  0.00    -0.326 OA
BRANCH  34  35
HETATM   35  C3  UNL     1      -0.995  28.074 -11.734  1.00  0.00     0.264 C 
HETATM   36  O2  UNL     1      -1.344  26.915 -12.355  1.00  0.00    -0.351 OA
HETATM   37  C2  UNL     1      -2.570  26.912 -12.901  1.00  0.00     0.176 C 
HETATM   38  C27 UNL     1      -3.695  27.037 -11.896  1.00  0.00     0.149 C 
HETATM   39  C26 UNL     1      -3.208  27.693 -10.628  1.00  0.00     0.039 C 
HETATM   40  C25 UNL     1      -2.039  28.583 -10.834  1.00  0.00     0.063 C 
BRANCH  37  41
HETATM   41  C1  UNL     1      -2.691  27.964 -13.977  1.00  0.00     0.198 C 
BRANCH  41  42
HETATM   42  O1  UNL     1      -3.957  28.511 -14.007  1.00  0.00    -0.398 OA
ATOM     43  H1  UNL     1      -4.627  27.837 -14.029  1.00  0.00     0.209 HD
ENDBRANCH  41  42
ENDBRANCH  37  41
BRANCH  38  44
HETATM   44  O17 UNL     1      -4.186  25.762 -11.662  1.00  0.00    -0.393 OA
ATOM     45  H17 UNL     1      -5.134  25.809 -11.708  1.00  0.00     0.210 HD
ENDBRANCH  38  44
ENDBRANCH  34  35
ENDBRANCH   1  34
BRANCH   3  46
HETATM   46  O5  UNL     1       0.543  29.608 -15.735  1.00  0.00    -0.350 OA
BRANCH  46  47
HETATM   47  C6  UNL     1      -0.009  29.237 -16.951  1.00  0.00     0.150 C 
HETATM   48  C7  UNL     1      -1.335  29.965 -17.121  1.00  0.00     0.060 C 
HETATM   49  C8  UNL     1      -2.304  28.902 -17.564  1.00  0.00     0.170 C 
HETATM   50  O6  UNL     1      -1.593  27.754 -17.807  1.00  0.00    -0.389 OA
HETATM   51  C9  UNL     1      -0.432  27.810 -17.044  1.00  0.00     0.199 C 
ENDBRANCH  46  47
ENDBRANCH   3  46
TORSDOF 16
ENDMDL
