MODEL 1
REMARK VINA RESULT: -9.138591919      0.000      0.000
REMARK  17 active torsions:
REMARK  status: ('A' for Active; 'I' for Inactive)
REMARK    1  A    between atoms: O1_2  and  C2_3 
REMARK    2  A    between atoms: C4_5  and  O2_6 
REMARK    3  A    between atoms: C5_8  and  O3_9 
REMARK    4  A    between atoms: C7_13  and  O5_14 
REMARK    5  A    between atoms: O5_14  and  C8_15 
REMARK    6  A    between atoms: C8_15  and  O6_16 
REMARK    7  A    between atoms: C8_15  and  C9_18 
REMARK    8  A    between atoms: C10_19  and  C11_20 
REMARK    9  A    between atoms: C12_22  and  O8_23 
REMARK   10  A    between atoms: O8_23  and  C13_24 
REMARK   11  A    between atoms: C15_27  and  O10_28 
REMARK   12  A    between atoms: C16_30  and  O11_31 
REMARK   13  A    between atoms: C17_33  and  O12_34 
REMARK   14  A    between atoms: O12_34  and  C18_35 
REMARK   15  A    between atoms: C21_39  and  O14_40 
REMARK   16  A    between atoms: C22_42  and  O15_43 
REMARK   17  A    between atoms: C23_45  and  O16_46 
ROOT
HETATM    1  C9  UNL     1      -0.683  29.898 -10.245  1.00  0.00    -0.005 C 
HETATM    2  C10 UNL     1       0.505  29.591 -10.822  1.00  0.00     0.042 C 
HETATM    3  C12 UNL     1       1.637  30.476 -10.560  1.00  0.00     0.301 C 
HETATM    4  O17 UNL     1       1.277  31.826 -10.766  1.00  0.00    -0.351 OA
HETATM    5  C24 UNL     1       0.070  32.187 -10.261  1.00  0.00     0.129 C 
HETATM    6  C25 UNL     1      -0.847  32.755 -11.321  1.00  0.00     0.040 C 
HETATM    7  C26 UNL     1      -0.556  31.134  -9.424  1.00  0.00     0.045 C 
HETATM    8  C27 UNL     1      -1.869  31.610  -8.872  1.00  0.00     0.017 C 
ENDROOT
BRANCH   3   9
HETATM    9  O8  UNL     1       2.795  30.246 -11.223  1.00  0.00    -0.324 OA
BRANCH   9  10
HETATM   10  C13 UNL     1       3.789  29.691 -10.418  1.00  0.00     0.294 C 
HETATM   11  O9  UNL     1       4.587  30.815 -10.038  1.00  0.00    -0.356 OA
HETATM   12  C14 UNL     1       4.950  31.476 -11.215  1.00  0.00     0.205 C 
HETATM   13  C15 UNL     1       5.955  30.642 -11.993  1.00  0.00     0.173 C 
HETATM   14  C16 UNL     1       5.322  29.319 -12.309  1.00  0.00     0.182 C 
HETATM   15  C17 UNL     1       4.673  28.721 -11.107  1.00  0.00     0.211 C 
BRANCH  13  16
HETATM   16  O10 UNL     1       7.172  30.576 -11.361  1.00  0.00    -0.391 OA
ATOM     17  H10 UNL     1       7.173  29.942 -10.652  1.00  0.00     0.210 HD
ENDBRANCH  13  16
BRANCH  14  18
HETATM   18  O11 UNL     1       6.240  28.437 -12.905  1.00  0.00    -0.390 OA
ATOM     19  H11 UNL     1       6.994  28.288 -12.347  1.00  0.00     0.210 HD
ENDBRANCH  14  18
BRANCH  15  20
HETATM   20  O12 UNL     1       5.641  28.279 -10.199  1.00  0.00    -0.346 OA
BRANCH  20  21
HETATM   21  C18 UNL     1       5.775  26.889 -10.171  1.00  0.00     0.292 C 
HETATM   22  O13 UNL     1       7.005  26.406 -10.484  1.00  0.00    -0.351 OA
HETATM   23  C19 UNL     1       7.960  26.593  -9.493  1.00  0.00     0.152 C 
HETATM   24  C20 UNL     1       8.251  28.054  -9.248  1.00  0.00     0.042 C 
HETATM   25  C21 UNL     1       7.592  25.954  -8.173  1.00  0.00     0.178 C 
HETATM   26  C22 UNL     1       6.222  25.326  -8.310  1.00  0.00     0.183 C 
HETATM   27  C23 UNL     1       5.229  26.282  -8.917  1.00  0.00     0.204 C 
BRANCH  25  28
HETATM   28  O14 UNL     1       8.519  25.017  -7.742  1.00  0.00    -0.390 OA
ATOM     29  H14 UNL     1       8.121  24.246  -7.354  1.00  0.00     0.210 HD
ENDBRANCH  25  28
BRANCH  26  30
HETATM   30  O15 UNL     1       5.809  24.998  -6.995  1.00  0.00    -0.390 OA
ATOM     31  H15 UNL     1       5.566  24.080  -7.019  1.00  0.00     0.210 HD
ENDBRANCH  26  30
BRANCH  27  32
HETATM   32  O16 UNL     1       4.055  25.538  -9.148  1.00  0.00    -0.388 OA
ATOM     33  H16 UNL     1       3.841  24.966  -8.421  1.00  0.00     0.210 HD
ENDBRANCH  27  32
ENDBRANCH  20  21
ENDBRANCH  15  20
ENDBRANCH   9  10
ENDBRANCH   3   9
BRANCH   2  34
HETATM   34  C11 UNL     1       0.638  28.443 -11.670  1.00  0.00     0.271 C 
HETATM   35  O7  UNL     1       1.106  27.366 -11.208  1.00  0.00    -0.302 OA
ENDBRANCH   2  34
BRANCH   1  36
HETATM   36  C8  UNL     1      -1.883  29.124 -10.428  1.00  0.00     0.292 C 
BRANCH  36  37
HETATM   37  O5  UNL     1      -2.516  29.363 -11.661  1.00  0.00    -0.325 OA
BRANCH  37  38
HETATM   38  C7  UNL     1      -2.655  28.237 -12.428  1.00  0.00     0.292 C 
HETATM   39  C2  UNL     1      -2.588  28.641 -13.883  1.00  0.00     0.178 C 
HETATM   40  C3  UNL     1      -3.461  27.737 -14.737  1.00  0.00     0.071 C 
HETATM   41  C4  UNL     1      -2.959  26.316 -14.591  1.00  0.00     0.151 C 
HETATM   42  C5  UNL     1      -3.817  25.596 -13.600  1.00  0.00     0.170 C 
HETATM   43  C6  UNL     1      -3.742  26.200 -12.214  1.00  0.00     0.205 C 
HETATM   44  O4  UNL     1      -3.864  27.581 -12.239  1.00  0.00    -0.356 OA
BRANCH  39  45
HETATM   45  O1  UNL     1      -1.310  28.597 -14.409  1.00  0.00    -0.386 OA
HETATM   46  C1  UNL     1      -0.937  29.787 -14.998  1.00  0.00     0.202 C 
ENDBRANCH  39  45
BRANCH  41  47
HETATM   47  O2  UNL     1      -3.085  25.690 -15.821  1.00  0.00    -0.393 OA
ATOM     48  H2  UNL     1      -3.313  24.781 -15.665  1.00  0.00     0.210 HD
ENDBRANCH  41  47
BRANCH  42  49
HETATM   49  O3  UNL     1      -3.320  24.278 -13.487  1.00  0.00    -0.391 OA
ATOM     50  H3  UNL     1      -3.000  24.168 -12.599  1.00  0.00     0.210 HD
ENDBRANCH  42  49
ENDBRANCH  37  38
ENDBRANCH  36  37
BRANCH  36  51
HETATM   51  O6  UNL     1      -1.642  27.729 -10.286  1.00  0.00    -0.367 OA
ATOM     52  H6  UNL     1      -1.454  27.534  -9.375  1.00  0.00     0.213 HD
ENDBRANCH  36  51
ENDBRANCH   1  36
TORSDOF 17
ENDMDL
MODEL 2
REMARK VINA RESULT: -8.908362084      1.109      1.334
REMARK  17 active torsions:
REMARK  status: ('A' for Active; 'I' for Inactive)
REMARK    1  A    between atoms: O1_2  and  C2_3 
REMARK    2  A    between atoms: C4_5  and  O2_6 
REMARK    3  A    between atoms: C5_8  and  O3_9 
REMARK    4  A    between atoms: C7_13  and  O5_14 
REMARK    5  A    between atoms: O5_14  and  C8_15 
REMARK    6  A    between atoms: C8_15  and  O6_16 
REMARK    7  A    between atoms: C8_15  and  C9_18 
REMARK    8  A    between atoms: C10_19  and  C11_20 
REMARK    9  A    between atoms: C12_22  and  O8_23 
REMARK   10  A    between atoms: O8_23  and  C13_24 
REMARK   11  A    between atoms: C15_27  and  O10_28 
REMARK   12  A    between atoms: C16_30  and  O11_31 
REMARK   13  A    between atoms: C17_33  and  O12_34 
REMARK   14  A    between atoms: O12_34  and  C18_35 
REMARK   15  A    between atoms: C21_39  and  O14_40 
REMARK   16  A    between atoms: C22_42  and  O15_43 
REMARK   17  A    between atoms: C23_45  and  O16_46 
ROOT
HETATM    1  C9  UNL     1      -0.473  29.309 -10.912  1.00  0.00    -0.005 C 
HETATM    2  C10 UNL     1       0.788  29.508 -11.370  1.00  0.00     0.042 C 
HETATM    3  C12 UNL     1       1.681  30.336 -10.565  1.00  0.00     0.301 C 
HETATM    4  O17 UNL     1       1.050  31.545 -10.198  1.00  0.00    -0.351 OA
HETATM    5  C24 UNL     1      -0.236  31.424  -9.782  1.00  0.00     0.129 C 
HETATM    6  C25 UNL     1      -1.185  32.265 -10.604  1.00  0.00     0.040 C 
HETATM    7  C26 UNL     1      -0.670  30.014  -9.616  1.00  0.00     0.045 C 
HETATM    8  C27 UNL     1      -2.088  29.953  -9.124  1.00  0.00     0.017 C 
ENDROOT
BRANCH   3   9
HETATM    9  O8  UNL     1       2.901  30.638 -11.069  1.00  0.00    -0.324 OA
BRANCH   9  10
HETATM   10  C13 UNL     1       3.949  30.054 -10.359  1.00  0.00     0.294 C 
HETATM   11  O9  UNL     1       4.875  31.127 -10.173  1.00  0.00    -0.356 OA
HETATM   12  C14 UNL     1       5.125  31.676 -11.433  1.00  0.00     0.205 C 
HETATM   13  C15 UNL     1       5.949  30.710 -12.269  1.00  0.00     0.173 C 
HETATM   14  C16 UNL     1       5.180  29.429 -12.398  1.00  0.00     0.182 C 
HETATM   15  C17 UNL     1       4.656  28.968 -11.080  1.00  0.00     0.211 C 
BRANCH  13  16
HETATM   16  O10 UNL     1       7.231  30.581 -11.796  1.00  0.00    -0.391 OA
ATOM     17  H10 UNL     1       7.549  29.688 -11.862  1.00  0.00     0.210 HD
ENDBRANCH  13  16
BRANCH  14  18
HETATM   18  O11 UNL     1       5.939  28.433 -13.039  1.00  0.00    -0.390 OA
ATOM     19  H11 UNL     1       5.791  27.579 -12.652  1.00  0.00     0.210 HD
ENDBRANCH  14  18
BRANCH  15  20
HETATM   20  O12 UNL     1       5.701  28.505 -10.274  1.00  0.00    -0.346 OA
BRANCH  20  21
HETATM   21  C18 UNL     1       5.816  27.113 -10.268  1.00  0.00     0.292 C 
HETATM   22  O13 UNL     1       7.036  26.618 -10.600  1.00  0.00    -0.351 OA
HETATM   23  C19 UNL     1       8.002  26.777  -9.616  1.00  0.00     0.152 C 
HETATM   24  C20 UNL     1       8.316  28.230  -9.353  1.00  0.00     0.042 C 
HETATM   25  C21 UNL     1       7.639  26.124  -8.302  1.00  0.00     0.178 C 
HETATM   26  C22 UNL     1       6.259  25.517  -8.435  1.00  0.00     0.183 C 
HETATM   27  C23 UNL     1       5.274  26.496  -9.017  1.00  0.00     0.204 C 
BRANCH  25  28
HETATM   28  O14 UNL     1       8.557  25.168  -7.894  1.00  0.00    -0.390 OA
ATOM     29  H14 UNL     1       9.140  24.887  -8.589  1.00  0.00     0.210 HD
ENDBRANCH  25  28
BRANCH  26  30
HETATM   30  O15 UNL     1       5.855  25.175  -7.120  1.00  0.00    -0.390 OA
ATOM     31  H15 UNL     1       4.911  25.073  -7.155  1.00  0.00     0.210 HD
ENDBRANCH  26  30
BRANCH  27  32
HETATM   32  O16 UNL     1       4.087  25.771  -9.248  1.00  0.00    -0.388 OA
ATOM     33  H16 UNL     1       3.886  25.172  -8.539  1.00  0.00     0.210 HD
ENDBRANCH  27  32
ENDBRANCH  20  21
ENDBRANCH  15  20
ENDBRANCH   9  10
ENDBRANCH   3   9
BRANCH   2  34
HETATM   34  C11 UNL     1       1.221  28.934 -12.610  1.00  0.00     0.271 C 
HETATM   35  O7  UNL     1       1.810  27.817 -12.620  1.00  0.00    -0.302 OA
ENDBRANCH   2  34
BRANCH   1  36
HETATM   36  C8  UNL     1      -1.461  28.528 -11.610  1.00  0.00     0.292 C 
BRANCH  36  37
HETATM   37  O5  UNL     1      -1.986  29.178 -12.741  1.00  0.00    -0.325 OA
BRANCH  37  38
HETATM   38  C7  UNL     1      -1.933  28.417 -13.878  1.00  0.00     0.292 C 
HETATM   39  C2  UNL     1      -1.916  29.344 -15.072  1.00  0.00     0.178 C 
HETATM   40  C3  UNL     1      -2.622  28.712 -16.260  1.00  0.00     0.071 C 
HETATM   41  C4  UNL     1      -1.901  27.429 -16.614  1.00  0.00     0.151 C 
HETATM   42  C5  UNL     1      -2.643  26.273 -16.023  1.00  0.00     0.170 C 
HETATM   43  C6  UNL     1      -2.682  26.315 -14.511  1.00  0.00     0.205 C 
HETATM   44  O4  UNL     1      -3.023  27.571 -14.031  1.00  0.00    -0.356 OA
BRANCH  39  45
HETATM   45  O1  UNL     1      -0.641  29.686 -15.485  1.00  0.00    -0.386 OA
HETATM   46  C1  UNL     1      -0.365  31.024 -15.298  1.00  0.00     0.202 C 
ENDBRANCH  39  45
BRANCH  41  47
HETATM   47  O2  UNL     1      -1.911  27.301 -17.995  1.00  0.00    -0.393 OA
ATOM     48  H2  UNL     1      -2.639  26.739 -18.231  1.00  0.00     0.210 HD
ENDBRANCH  41  47
BRANCH  42  49
HETATM   49  O3  UNL     1      -1.942  25.097 -16.371  1.00  0.00    -0.391 OA
ATOM     50  H3  UNL     1      -2.561  24.377 -16.345  1.00  0.00     0.210 HD
ENDBRANCH  42  49
ENDBRANCH  37  38
ENDBRANCH  36  37
BRANCH  36  51
HETATM   51  O6  UNL     1      -0.960  27.252 -11.991  1.00  0.00    -0.367 OA
ATOM     52  H6  UNL     1      -1.684  26.643 -12.077  1.00  0.00     0.213 HD
ENDBRANCH  36  51
ENDBRANCH   1  36
TORSDOF 17
ENDMDL
MODEL 3
REMARK VINA RESULT: -8.868562679      1.223      2.149
REMARK  17 active torsions:
REMARK  status: ('A' for Active; 'I' for Inactive)
REMARK    1  A    between atoms: O1_2  and  C2_3 
REMARK    2  A    between atoms: C4_5  and  O2_6 
REMARK    3  A    between atoms: C5_8  and  O3_9 
REMARK    4  A    between atoms: C7_13  and  O5_14 
REMARK    5  A    between atoms: O5_14  and  C8_15 
REMARK    6  A    between atoms: C8_15  and  O6_16 
REMARK    7  A    between atoms: C8_15  and  C9_18 
REMARK    8  A    between atoms: C10_19  and  C11_20 
REMARK    9  A    between atoms: C12_22  and  O8_23 
REMARK   10  A    between atoms: O8_23  and  C13_24 
REMARK   11  A    between atoms: C15_27  and  O10_28 
REMARK   12  A    between atoms: C16_30  and  O11_31 
REMARK   13  A    between atoms: C17_33  and  O12_34 
REMARK   14  A    between atoms: O12_34  and  C18_35 
REMARK   15  A    between atoms: C21_39  and  O14_40 
REMARK   16  A    between atoms: C22_42  and  O15_43 
REMARK   17  A    between atoms: C23_45  and  O16_46 
ROOT
HETATM    1  C9  UNL     1      -0.828  30.624 -11.300  1.00  0.00    -0.005 C 
HETATM    2  C10 UNL     1       0.436  30.650 -11.789  1.00  0.00     0.042 C 
HETATM    3  C12 UNL     1       1.525  30.308 -10.878  1.00  0.00     0.301 C 
HETATM    4  O17 UNL     1       1.408  31.021  -9.665  1.00  0.00    -0.351 OA
HETATM    5  C24 UNL     1       0.155  31.082  -9.148  1.00  0.00     0.129 C 
HETATM    6  C25 UNL     1      -0.313  32.506  -8.947  1.00  0.00     0.040 C 
HETATM    7  C26 UNL     1      -0.821  30.224  -9.866  1.00  0.00     0.045 C 
HETATM    8  C27 UNL     1      -2.175  30.313  -9.223  1.00  0.00     0.017 C 
ENDROOT
BRANCH   3   9
HETATM    9  O8  UNL     1       2.797  30.444 -11.322  1.00  0.00    -0.324 OA
BRANCH   9  10
HETATM   10  C13 UNL     1       3.740  29.859 -10.478  1.00  0.00     0.294 C 
HETATM   11  O9  UNL     1       4.569  30.955 -10.082  1.00  0.00    -0.356 OA
HETATM   12  C14 UNL     1       4.997  31.588 -11.252  1.00  0.00     0.205 C 
HETATM   13  C15 UNL     1       5.995  30.706 -11.987  1.00  0.00     0.173 C 
HETATM   14  C16 UNL     1       5.321  29.407 -12.311  1.00  0.00     0.182 C 
HETATM   15  C17 UNL     1       4.608  28.848 -11.126  1.00  0.00     0.211 C 
BRANCH  13  16
HETATM   16  O10 UNL     1       7.185  30.599 -11.312  1.00  0.00    -0.391 OA
ATOM     17  H10 UNL     1       7.608  29.761 -11.463  1.00  0.00     0.210 HD
ENDBRANCH  13  16
BRANCH  14  18
HETATM   18  O11 UNL     1       6.222  28.482 -12.867  1.00  0.00    -0.390 OA
ATOM     19  H11 UNL     1       5.974  28.241 -13.751  1.00  0.00     0.210 HD
ENDBRANCH  14  18
BRANCH  15  20
HETATM   20  O12 UNL     1       5.526  28.377 -10.181  1.00  0.00    -0.346 OA
BRANCH  20  21
HETATM   21  C18 UNL     1       5.668  26.988 -10.195  1.00  0.00     0.292 C 
HETATM   22  O13 UNL     1       6.901  26.522 -10.523  1.00  0.00    -0.351 OA
HETATM   23  C19 UNL     1       7.854  26.684  -9.526  1.00  0.00     0.152 C 
HETATM   24  C20 UNL     1       8.136  28.138  -9.237  1.00  0.00     0.042 C 
HETATM   25  C21 UNL     1       7.489  26.003  -8.226  1.00  0.00     0.178 C 
HETATM   26  C22 UNL     1       6.122  25.372  -8.383  1.00  0.00     0.183 C 
HETATM   27  C23 UNL     1       5.125  26.341  -8.960  1.00  0.00     0.204 C 
BRANCH  25  28
HETATM   28  O14 UNL     1       8.422  25.059  -7.823  1.00  0.00    -0.390 OA
ATOM     29  H14 UNL     1       8.597  24.399  -8.484  1.00  0.00     0.210 HD
ENDBRANCH  25  28
BRANCH  26  30
HETATM   30  O15 UNL     1       5.712  25.002  -7.078  1.00  0.00    -0.390 OA
ATOM     31  H15 UNL     1       6.097  24.149  -6.915  1.00  0.00     0.210 HD
ENDBRANCH  26  30
BRANCH  27  32
HETATM   32  O16 UNL     1       3.955  25.597  -9.215  1.00  0.00    -0.388 OA
ATOM     33  H16 UNL     1       3.586  25.784 -10.069  1.00  0.00     0.210 HD
ENDBRANCH  27  32
ENDBRANCH  20  21
ENDBRANCH  15  20
ENDBRANCH   9  10
ENDBRANCH   3   9
BRANCH   2  34
HETATM   34  C11 UNL     1       0.692  31.014 -13.152  1.00  0.00     0.271 C 
HETATM   35  O7  UNL     1       0.937  30.122 -14.011  1.00  0.00    -0.302 OA
ENDBRANCH   2  34
BRANCH   1  36
HETATM   36  C8  UNL     1      -1.993  30.952 -12.080  1.00  0.00     0.292 C 
BRANCH  36  37
HETATM   37  O5  UNL     1      -3.026  30.005 -11.963  1.00  0.00    -0.325 OA
BRANCH  37  38
HETATM   38  C7  UNL     1      -3.208  29.256 -13.094  1.00  0.00     0.292 C 
HETATM   39  C2  UNL     1      -3.025  27.799 -12.735  1.00  0.00     0.178 C 
HETATM   40  C3  UNL     1      -2.436  27.023 -13.901  1.00  0.00     0.071 C 
HETATM   41  C4  UNL     1      -3.388  27.133 -15.073  1.00  0.00     0.151 C 
HETATM   42  C5  UNL     1      -2.896  28.194 -16.005  1.00  0.00     0.170 C 
HETATM   43  C6  UNL     1      -2.873  29.567 -15.368  1.00  0.00     0.205 C 
HETATM   44  O4  UNL     1      -2.301  29.547 -14.104  1.00  0.00    -0.356 OA
BRANCH  39  45
HETATM   45  O1  UNL     1      -4.201  27.170 -12.373  1.00  0.00    -0.386 OA
HETATM   46  C1  UNL     1      -3.987  26.050 -11.596  1.00  0.00     0.202 C 
ENDBRANCH  39  45
BRANCH  41  47
HETATM   47  O2  UNL     1      -3.381  25.919 -15.743  1.00  0.00    -0.393 OA
ATOM     48  H2  UNL     1      -3.785  25.270 -15.178  1.00  0.00     0.210 HD
ENDBRANCH  41  47
BRANCH  42  49
HETATM   49  O3  UNL     1      -3.807  28.269 -17.082  1.00  0.00    -0.391 OA
ATOM     50  H3  UNL     1      -3.892  29.185 -17.320  1.00  0.00     0.210 HD
ENDBRANCH  42  49
ENDBRANCH  37  38
ENDBRANCH  36  37
BRANCH  36  51
HETATM   51  O6  UNL     1      -2.500  32.243 -11.763  1.00  0.00    -0.367 OA
ATOM     52  H6  UNL     1      -2.425  32.806 -12.525  1.00  0.00     0.213 HD
ENDBRANCH  36  51
ENDBRANCH   1  36
TORSDOF 17
ENDMDL
MODEL 4
REMARK VINA RESULT: -8.755277502      1.873      8.416
REMARK  17 active torsions:
REMARK  status: ('A' for Active; 'I' for Inactive)
REMARK    1  A    between atoms: O1_2  and  C2_3 
REMARK    2  A    between atoms: C4_5  and  O2_6 
REMARK    3  A    between atoms: C5_8  and  O3_9 
REMARK    4  A    between atoms: C7_13  and  O5_14 
REMARK    5  A    between atoms: O5_14  and  C8_15 
REMARK    6  A    between atoms: C8_15  and  O6_16 
REMARK    7  A    between atoms: C8_15  and  C9_18 
REMARK    8  A    between atoms: C10_19  and  C11_20 
REMARK    9  A    between atoms: C12_22  and  O8_23 
REMARK   10  A    between atoms: O8_23  and  C13_24 
REMARK   11  A    between atoms: C15_27  and  O10_28 
REMARK   12  A    between atoms: C16_30  and  O11_31 
REMARK   13  A    between atoms: C17_33  and  O12_34 
REMARK   14  A    between atoms: O12_34  and  C18_35 
REMARK   15  A    between atoms: C21_39  and  O14_40 
REMARK   16  A    between atoms: C22_42  and  O15_43 
REMARK   17  A    between atoms: C23_45  and  O16_46 
ROOT
HETATM    1  C9  UNL     1       4.510  30.933 -12.785  1.00  0.00    -0.005 C 
HETATM    2  C10 UNL     1       3.637  31.346 -11.833  1.00  0.00     0.042 C 
HETATM    3  C12 UNL     1       2.222  31.409 -12.189  1.00  0.00     0.301 C 
HETATM    4  O17 UNL     1       2.042  32.092 -13.411  1.00  0.00    -0.351 OA
HETATM    5  C24 UNL     1       2.920  31.766 -14.393  1.00  0.00     0.129 C 
HETATM    6  C25 UNL     1       3.678  32.969 -14.907  1.00  0.00     0.040 C 
HETATM    7  C26 UNL     1       3.787  30.612 -14.046  1.00  0.00     0.045 C 
HETATM    8  C27 UNL     1       4.710  30.284 -15.185  1.00  0.00     0.017 C 
ENDROOT
BRANCH   3   9
HETATM    9  O8  UNL     1       1.358  31.932 -11.287  1.00  0.00    -0.324 OA
BRANCH   9  10
HETATM   10  C13 UNL     1       0.038  31.536 -11.496  1.00  0.00     0.294 C 
HETATM   11  O9  UNL     1      -0.730  32.650 -11.034  1.00  0.00    -0.356 OA
HETATM   12  C14 UNL     1      -0.299  32.933  -9.736  1.00  0.00     0.205 C 
HETATM   13  C15 UNL     1      -0.754  31.839  -8.784  1.00  0.00     0.173 C 
HETATM   14  C16 UNL     1      -0.176  30.538  -9.256  1.00  0.00     0.182 C 
HETATM   15  C17 UNL     1      -0.382  30.345 -10.720  1.00  0.00     0.211 C 
BRANCH  13  16
HETATM   16  O10 UNL     1      -2.115  31.846  -8.601  1.00  0.00    -0.391 OA
ATOM     17  H10 UNL     1      -2.366  32.301  -7.805  1.00  0.00     0.210 HD
ENDBRANCH  13  16
BRANCH  14  18
HETATM   18  O11 UNL     1      -0.668  29.453  -8.508  1.00  0.00    -0.390 OA
ATOM     19  H11 UNL     1      -0.935  28.735  -9.069  1.00  0.00     0.210 HD
ENDBRANCH  14  18
BRANCH  15  20
HETATM   20  O12 UNL     1      -1.730  30.087 -10.994  1.00  0.00    -0.346 OA
BRANCH  20  21
HETATM   21  C18 UNL     1      -1.970  28.766 -11.377  1.00  0.00     0.292 C 
HETATM   22  O13 UNL     1      -3.268  28.447 -11.620  1.00  0.00    -0.351 OA
HETATM   23  C19 UNL     1      -3.767  28.961 -12.810  1.00  0.00     0.152 C 
HETATM   24  C20 UNL     1      -3.811  30.470 -12.806  1.00  0.00     0.042 C 
HETATM   25  C21 UNL     1      -2.998  28.512 -14.031  1.00  0.00     0.178 C 
HETATM   26  C22 UNL     1      -1.839  27.651 -13.577  1.00  0.00     0.183 C 
HETATM   27  C23 UNL     1      -1.057  28.307 -12.469  1.00  0.00     0.204 C 
BRANCH  25  28
HETATM   28  O14 UNL     1      -3.781  27.833 -14.952  1.00  0.00    -0.390 OA
ATOM     29  H14 UNL     1      -3.936  28.326 -15.749  1.00  0.00     0.210 HD
ENDBRANCH  25  28
BRANCH  26  30
HETATM   30  O15 UNL     1      -1.001  27.494 -14.710  1.00  0.00    -0.390 OA
ATOM     31  H15 UNL     1      -0.705  26.592 -14.693  1.00  0.00     0.210 HD
ENDBRANCH  26  30
BRANCH  27  32
HETATM   32  O16 UNL     1      -0.126  27.348 -12.023  1.00  0.00    -0.388 OA
ATOM     33  H16 UNL     1      -0.293  26.486 -12.383  1.00  0.00     0.210 HD
ENDBRANCH  27  32
ENDBRANCH  20  21
ENDBRANCH  15  20
ENDBRANCH   9  10
ENDBRANCH   3   9
BRANCH   2  34
HETATM   34  C11 UNL     1       4.093  31.721 -10.527  1.00  0.00     0.271 C 
HETATM   35  O7  UNL     1       4.094  30.876  -9.589  1.00  0.00    -0.302 OA
ENDBRANCH   2  34
BRANCH   1  36
HETATM   36  C8  UNL     1       5.931  30.837 -12.576  1.00  0.00     0.292 C 
BRANCH  36  37
HETATM   37  O5  UNL     1       6.413  29.517 -12.628  1.00  0.00    -0.325 OA
BRANCH  37  38
HETATM   38  C7  UNL     1       5.822  28.686 -11.715  1.00  0.00     0.292 C 
HETATM   39  C2  UNL     1       6.910  28.000 -10.920  1.00  0.00     0.178 C 
HETATM   40  C3  UNL     1       6.480  26.603 -10.506  1.00  0.00     0.071 C 
HETATM   41  C4  UNL     1       5.237  26.723  -9.651  1.00  0.00     0.151 C 
HETATM   42  C5  UNL     1       4.034  26.447 -10.495  1.00  0.00     0.170 C 
HETATM   43  C6  UNL     1       3.860  27.454 -11.611  1.00  0.00     0.205 C 
HETATM   44  O4  UNL     1       5.045  27.690 -12.292  1.00  0.00    -0.356 OA
BRANCH  39  45
HETATM   45  O1  UNL     1       7.263  28.681  -9.770  1.00  0.00    -0.386 OA
HETATM   46  C1  UNL     1       8.623  28.665  -9.540  1.00  0.00     0.202 C 
ENDBRANCH  39  45
BRANCH  41  47
HETATM   47  O2  UNL     1       5.309  25.759  -8.656  1.00  0.00    -0.393 OA
ATOM     48  H2  UNL     1       5.704  26.159  -7.890  1.00  0.00     0.210 HD
ENDBRANCH  41  47
BRANCH  42  49
HETATM   49  O3  UNL     1       2.897  26.569  -9.667  1.00  0.00    -0.391 OA
ATOM     50  H3  UNL     1       2.462  25.724  -9.652  1.00  0.00     0.210 HD
ENDBRANCH  42  49
ENDBRANCH  37  38
ENDBRANCH  36  37
BRANCH  36  51
HETATM   51  O6  UNL     1       6.660  31.640 -13.498  1.00  0.00    -0.367 OA
ATOM     52  H6  UNL     1       6.608  31.251 -14.363  1.00  0.00     0.213 HD
ENDBRANCH  36  51
ENDBRANCH   1  36
TORSDOF 17
ENDMDL
MODEL 5
REMARK VINA RESULT: -8.734502875      1.836      9.028
REMARK  17 active torsions:
REMARK  status: ('A' for Active; 'I' for Inactive)
REMARK    1  A    between atoms: O1_2  and  C2_3 
REMARK    2  A    between atoms: C4_5  and  O2_6 
REMARK    3  A    between atoms: C5_8  and  O3_9 
REMARK    4  A    between atoms: C7_13  and  O5_14 
REMARK    5  A    between atoms: O5_14  and  C8_15 
REMARK    6  A    between atoms: C8_15  and  O6_16 
REMARK    7  A    between atoms: C8_15  and  C9_18 
REMARK    8  A    between atoms: C10_19  and  C11_20 
REMARK    9  A    between atoms: C12_22  and  O8_23 
REMARK   10  A    between atoms: O8_23  and  C13_24 
REMARK   11  A    between atoms: C15_27  and  O10_28 
REMARK   12  A    between atoms: C16_30  and  O11_31 
REMARK   13  A    between atoms: C17_33  and  O12_34 
REMARK   14  A    between atoms: O12_34  and  C18_35 
REMARK   15  A    between atoms: C21_39  and  O14_40 
REMARK   16  A    between atoms: C22_42  and  O15_43 
REMARK   17  A    between atoms: C23_45  and  O16_46 
ROOT
HETATM    1  C9  UNL     1       4.331  29.890 -12.560  1.00  0.00    -0.005 C 
HETATM    2  C10 UNL     1       3.497  30.588 -11.751  1.00  0.00     0.042 C 
HETATM    3  C12 UNL     1       2.184  30.950 -12.277  1.00  0.00     0.301 C 
HETATM    4  O17 UNL     1       2.300  31.536 -13.556  1.00  0.00    -0.351 OA
HETATM    5  C24 UNL     1       3.165  30.919 -14.401  1.00  0.00     0.129 C 
HETATM    6  C25 UNL     1       4.243  31.853 -14.901  1.00  0.00     0.040 C 
HETATM    7  C26 UNL     1       3.681  29.630 -13.874  1.00  0.00     0.045 C 
HETATM    8  C27 UNL     1       4.603  28.986 -14.869  1.00  0.00     0.017 C 
ENDROOT
BRANCH   3   9
HETATM    9  O8  UNL     1       1.390  31.746 -11.523  1.00  0.00    -0.324 OA
BRANCH   9  10
HETATM   10  C13 UNL     1       0.042  31.393 -11.581  1.00  0.00     0.294 C 
HETATM   11  O9  UNL     1      -0.640  32.575 -11.155  1.00  0.00    -0.356 OA
HETATM   12  C14 UNL     1      -0.083  32.949  -9.930  1.00  0.00     0.205 C 
HETATM   13  C15 UNL     1      -0.490  31.961  -8.848  1.00  0.00     0.173 C 
HETATM   14  C16 UNL     1      -0.005  30.601  -9.250  1.00  0.00     0.182 C 
HETATM   15  C17 UNL     1      -0.349  30.293 -10.669  1.00  0.00     0.211 C 
BRANCH  13  16
HETATM   16  O10 UNL     1      -1.827  32.044  -8.549  1.00  0.00    -0.391 OA
ATOM     17  H10 UNL     1      -1.990  32.583  -7.784  1.00  0.00     0.210 HD
ENDBRANCH  13  16
BRANCH  14  18
HETATM   18  O11 UNL     1      -0.466  29.607  -8.369  1.00  0.00    -0.390 OA
ATOM     19  H11 UNL     1       0.139  28.876  -8.320  1.00  0.00     0.210 HD
ENDBRANCH  14  18
BRANCH  15  20
HETATM   20  O12 UNL     1      -1.724  30.072 -10.800  1.00  0.00    -0.346 OA
BRANCH  20  21
HETATM   21  C18 UNL     1      -2.035  28.783 -11.237  1.00  0.00     0.292 C 
HETATM   22  O13 UNL     1      -3.338  28.563 -11.553  1.00  0.00    -0.351 OA
HETATM   23  C19 UNL     1      -3.741  29.146 -12.747  1.00  0.00     0.152 C 
HETATM   24  C20 UNL     1      -3.682  30.653 -12.695  1.00  0.00     0.042 C 
HETATM   25  C21 UNL     1      -2.944  28.681 -13.945  1.00  0.00     0.178 C 
HETATM   26  C22 UNL     1      -1.871  27.727 -13.465  1.00  0.00     0.183 C 
HETATM   27  C23 UNL     1      -1.103  28.294 -12.300  1.00  0.00     0.204 C 
BRANCH  25  28
HETATM   28  O14 UNL     1      -3.726  28.086 -14.924  1.00  0.00    -0.390 OA
ATOM     29  H14 UNL     1      -3.225  27.558 -15.535  1.00  0.00     0.210 HD
ENDBRANCH  25  28
BRANCH  26  30
HETATM   30  O15 UNL     1      -0.991  27.546 -14.561  1.00  0.00    -0.390 OA
ATOM     31  H15 UNL     1      -0.545  26.722 -14.405  1.00  0.00     0.210 HD
ENDBRANCH  26  30
BRANCH  27  32
HETATM   32  O16 UNL     1      -0.262  27.260 -11.842  1.00  0.00    -0.388 OA
ATOM     33  H16 UNL     1       0.652  27.422 -12.040  1.00  0.00     0.210 HD
ENDBRANCH  27  32
ENDBRANCH  20  21
ENDBRANCH  15  20
ENDBRANCH   9  10
ENDBRANCH   3   9
BRANCH   2  34
HETATM   34  C11 UNL     1       3.899  30.967 -10.428  1.00  0.00     0.271 C 
HETATM   35  O7  UNL     1       3.598  30.239  -9.442  1.00  0.00    -0.302 OA
ENDBRANCH   2  34
BRANCH   1  36
HETATM   36  C8  UNL     1       5.657  29.481 -12.177  1.00  0.00     0.292 C 
BRANCH  36  37
HETATM   37  O5  UNL     1       5.871  28.096 -12.306  1.00  0.00    -0.325 OA
BRANCH  37  38
HETATM   38  C7  UNL     1       6.797  27.605 -11.426  1.00  0.00     0.292 C 
HETATM   39  C2  UNL     1       6.075  26.776 -10.388  1.00  0.00     0.178 C 
HETATM   40  C3  UNL     1       6.777  26.858  -9.043  1.00  0.00     0.071 C 
HETATM   41  C4  UNL     1       8.186  26.332  -9.210  1.00  0.00     0.151 C 
HETATM   42  C5  UNL     1       9.124  27.486  -9.360  1.00  0.00     0.170 C 
HETATM   43  C6  UNL     1       8.847  28.309 -10.600  1.00  0.00     0.205 C 
HETATM   44  O4  UNL     1       7.497  28.593 -10.747  1.00  0.00    -0.356 OA
BRANCH  39  45
HETATM   45  O1  UNL     1       5.979  25.437 -10.722  1.00  0.00    -0.386 OA
HETATM   46  C1  UNL     1       4.774  24.882 -10.347  1.00  0.00     0.202 C 
ENDBRANCH  39  45
BRANCH  41  47
HETATM   47  O2  UNL     1       8.521  25.637  -8.058  1.00  0.00    -0.393 OA
ATOM     48  H2  UNL     1       8.071  24.800  -8.080  1.00  0.00     0.210 HD
ENDBRANCH  41  47
BRANCH  42  49
HETATM   49  O3  UNL     1      10.426  26.959  -9.515  1.00  0.00    -0.391 OA
ATOM     50  H3  UNL     1      11.017  27.690  -9.649  1.00  0.00     0.210 HD
ENDBRANCH  42  49
ENDBRANCH  37  38
ENDBRANCH  36  37
BRANCH  36  51
HETATM   51  O6  UNL     1       6.661  30.181 -12.901  1.00  0.00    -0.367 OA
ATOM     52  H6  UNL     1       6.411  31.094 -12.981  1.00  0.00     0.213 HD
ENDBRANCH  36  51
ENDBRANCH   1  36
TORSDOF 17
ENDMDL
