MODEL 1
REMARK VINA RESULT: -9.006749766      0.000      0.000
REMARK  17 active torsions:
REMARK  status: ('A' for Active; 'I' for Inactive)
REMARK    1  A    between atoms: C3_4  and  O2_5 
REMARK    2  A    between atoms: O2_5  and  C4_6 
REMARK    3  A    between atoms: C7_9  and  O3_10 
REMARK    4  A    between atoms: O3_10  and  C8_11 
REMARK    5  A    between atoms: C11_15  and  O5_16 
REMARK    6  A    between atoms: C12_18  and  O6_19 
REMARK    7  A    between atoms: C13_21  and  O7_22 
REMARK    8  A    between atoms: C15_25  and  O8_26 
REMARK    9  A    between atoms: O8_26  and  C16_27 
REMARK   10  A    between atoms: C17_29  and  O10_30 
REMARK   11  A    between atoms: C17_29  and  C18_32 
REMARK   12  A    between atoms: C21_35  and  O11_36 
REMARK   13  A    between atoms: C22_38  and  O12_39 
REMARK   14  A    between atoms: C23_41  and  O13_42 
REMARK   15  A    between atoms: C24_45  and  C25_46 
REMARK   16  A    between atoms: C25_46  and  O15_47 
REMARK   17  A    between atoms: C27_50  and  O16_51 
ROOT
HETATM    1  O15 UNL     1       3.820  35.495  -7.733  1.00  0.00    -0.281 OA
HETATM    2  C26 UNL     1       5.008  35.094  -7.348  1.00  0.00     0.228 C 
HETATM    3  N1  UNL     1       6.036  34.717  -7.013  1.00  0.00    -0.164 NA
ENDROOT
BRANCH   1   4
HETATM    4  C25 UNL     1       3.257  36.128  -8.789  1.00  0.00     0.224 C 
BRANCH   4   5
HETATM    5  C24 UNL     1       2.732  35.203  -9.853  1.00  0.00     0.183 C 
HETATM    6  O14 UNL     1       3.810  34.527 -10.451  1.00  0.00    -0.329 OA
HETATM    7  C3  UNL     1       3.354  33.885 -11.588  1.00  0.00     0.414 C 
HETATM    8  O1  UNL     1       3.261  34.906 -12.565  1.00  0.00    -0.331 OA
HETATM    9  C2  UNL     1       2.083  35.567 -12.276  1.00  0.00     0.154 C 
HETATM   10  C1  UNL     1       1.955  36.794 -13.156  1.00  0.00     0.042 C 
HETATM   11  C27 UNL     1       1.892  35.928 -10.832  1.00  0.00     0.178 C 
BRANCH   7  12
HETATM   12  O2  UNL     1       4.255  32.918 -11.940  1.00  0.00    -0.330 OA
BRANCH  12  13
HETATM   13  C4  UNL     1       3.663  31.648 -12.161  1.00  0.00     0.164 C 
HETATM   14  C5  UNL     1       2.257  31.638 -11.703  1.00  0.00     0.042 C 
HETATM   15  C6  UNL     1       1.368  31.365 -12.930  1.00  0.00     0.015 C 
HETATM   16  C7  UNL     1       1.850  30.701 -10.646  1.00  0.00     0.133 C 
HETATM   17  C14 UNL     1       2.926  29.888 -10.012  1.00  0.00     0.067 C 
HETATM   18  C15 UNL     1       3.922  29.386 -11.067  1.00  0.00     0.158 C 
HETATM   19  C23 UNL     1       4.596  30.663 -11.567  1.00  0.00     0.176 C 
BRANCH  16  20
HETATM   20  O3  UNL     1       1.219  31.418  -9.609  1.00  0.00    -0.353 OA
BRANCH  20  21
HETATM   21  C8  UNL     1       0.085  30.808  -9.134  1.00  0.00     0.291 C 
HETATM   22  O4  UNL     1      -0.451  30.049 -10.199  1.00  0.00    -0.351 OA
HETATM   23  C9  UNL     1      -1.504  29.260  -9.771  1.00  0.00     0.152 C 
HETATM   24  C10 UNL     1      -2.393  28.974 -10.961  1.00  0.00     0.042 C 
HETATM   25  C11 UNL     1      -2.351  29.959  -8.731  1.00  0.00     0.178 C 
HETATM   26  C12 UNL     1      -2.318  31.442  -9.055  1.00  0.00     0.183 C 
HETATM   27  C13 UNL     1      -0.907  31.924  -8.782  1.00  0.00     0.204 C 
BRANCH  25  28
HETATM   28  O5  UNL     1      -3.689  29.535  -8.777  1.00  0.00    -0.390 OA
ATOM     29  H5  UNL     1      -3.801  28.680  -8.380  1.00  0.00     0.210 HD
ENDBRANCH  25  28
BRANCH  26  30
HETATM   30  O6  UNL     1      -3.261  32.162  -8.336  1.00  0.00    -0.390 OA
ATOM     31  H6  UNL     1      -3.166  33.100  -8.450  1.00  0.00     0.210 HD
ENDBRANCH  26  30
BRANCH  27  32
HETATM   32  O7  UNL     1      -0.696  33.014  -9.653  1.00  0.00    -0.388 OA
ATOM     33  H7  UNL     1       0.225  33.248  -9.636  1.00  0.00     0.210 HD
ENDBRANCH  27  32
ENDBRANCH  20  21
ENDBRANCH  16  20
BRANCH  18  34
HETATM   34  O8  UNL     1       4.918  28.637 -10.474  1.00  0.00    -0.350 OA
BRANCH  34  35
HETATM   35  C16 UNL     1       5.222  27.465 -11.110  1.00  0.00     0.295 C 
HETATM   36  O9  UNL     1       6.620  27.384 -11.311  1.00  0.00    -0.320 OA
HETATM   37  C17 UNL     1       7.187  27.305 -10.051  1.00  0.00     0.196 C 
HETATM   38  C21 UNL     1       6.175  26.748  -9.106  1.00  0.00     0.214 C 
HETATM   39  C22 UNL     1       5.060  26.337 -10.078  1.00  0.00     0.207 C 
BRANCH  37  40
HETATM   40  O10 UNL     1       7.505  28.618  -9.668  1.00  0.00    -0.363 OA
ATOM     41  H10 UNL     1       7.011  28.798  -8.876  1.00  0.00     0.213 HD
ENDBRANCH  37  40
BRANCH  37  42
HETATM   42  C18 UNL     1       8.468  26.533 -10.097  1.00  0.00     0.043 C 
HETATM   43  C19 UNL     1       9.590  27.146  -9.325  1.00  0.00     0.015 C 
HETATM   44  C20 UNL     1       8.856  26.228 -11.536  1.00  0.00     0.015 C 
ENDBRANCH  37  42
BRANCH  38  45
HETATM   45  O11 UNL     1       6.606  25.707  -8.329  1.00  0.00    -0.387 OA
ATOM     46  H11 UNL     1       6.589  25.864  -7.392  1.00  0.00     0.210 HD
ENDBRANCH  38  45
BRANCH  39  47
HETATM   47  O12 UNL     1       3.819  26.349  -9.484  1.00  0.00    -0.388 OA
ATOM     48  H12 UNL     1       3.468  25.474  -9.367  1.00  0.00     0.210 HD
ENDBRANCH  39  47
ENDBRANCH  34  35
ENDBRANCH  18  34
BRANCH  19  49
HETATM   49  O13 UNL     1       5.181  31.244 -10.417  1.00  0.00    -0.390 OA
ATOM     50  H13 UNL     1       6.061  31.525 -10.639  1.00  0.00     0.210 HD
ENDBRANCH  19  49
ENDBRANCH  12  13
ENDBRANCH   7  12
BRANCH  11  51
HETATM   51  O16 UNL     1       0.546  35.599 -10.528  1.00  0.00    -0.390 OA
ATOM     52  H16 UNL     1       0.586  34.818  -9.989  1.00  0.00     0.210 HD
ENDBRANCH  11  51
ENDBRANCH   4   5
ENDBRANCH   1   4
TORSDOF 17
ENDMDL
MODEL 2
REMARK VINA RESULT: -8.921349258      2.662      4.200
REMARK  17 active torsions:
REMARK  status: ('A' for Active; 'I' for Inactive)
REMARK    1  A    between atoms: C3_4  and  O2_5 
REMARK    2  A    between atoms: O2_5  and  C4_6 
REMARK    3  A    between atoms: C7_9  and  O3_10 
REMARK    4  A    between atoms: O3_10  and  C8_11 
REMARK    5  A    between atoms: C11_15  and  O5_16 
REMARK    6  A    between atoms: C12_18  and  O6_19 
REMARK    7  A    between atoms: C13_21  and  O7_22 
REMARK    8  A    between atoms: C15_25  and  O8_26 
REMARK    9  A    between atoms: O8_26  and  C16_27 
REMARK   10  A    between atoms: C17_29  and  O10_30 
REMARK   11  A    between atoms: C17_29  and  C18_32 
REMARK   12  A    between atoms: C21_35  and  O11_36 
REMARK   13  A    between atoms: C22_38  and  O12_39 
REMARK   14  A    between atoms: C23_41  and  O13_42 
REMARK   15  A    between atoms: C24_45  and  C25_46 
REMARK   16  A    between atoms: C25_46  and  O15_47 
REMARK   17  A    between atoms: C27_50  and  O16_51 
ROOT
HETATM    1  O15 UNL     1       2.137  35.187  -9.883  1.00  0.00    -0.281 OA
HETATM    2  C26 UNL     1       2.826  35.524  -8.818  1.00  0.00     0.228 C 
HETATM    3  N1  UNL     1       3.432  35.843  -7.901  1.00  0.00    -0.164 NA
ENDROOT
BRANCH   1   4
HETATM    4  C25 UNL     1       0.874  34.813 -10.195  1.00  0.00     0.224 C 
BRANCH   4   5
HETATM    5  C24 UNL     1       0.461  33.490  -9.609  1.00  0.00     0.183 C 
HETATM    6  O14 UNL     1       0.325  32.548 -10.644  1.00  0.00    -0.329 OA
HETATM    7  C3  UNL     1      -0.300  31.423 -10.137  1.00  0.00     0.414 C 
HETATM    8  O1  UNL     1      -1.671  31.770 -10.073  1.00  0.00    -0.331 OA
HETATM    9  C2  UNL     1      -1.789  32.540  -8.933  1.00  0.00     0.154 C 
HETATM   10  C1  UNL     1      -3.189  33.115  -8.845  1.00  0.00     0.042 C 
HETATM   11  C27 UNL     1      -0.761  33.623  -8.785  1.00  0.00     0.178 C 
BRANCH   7  12
HETATM   12  O2  UNL     1      -0.075  30.373 -10.986  1.00  0.00    -0.330 OA
BRANCH  12  13
HETATM   13  C4  UNL     1       1.112  30.511 -11.751  1.00  0.00     0.164 C 
HETATM   14  C5  UNL     1       0.885  30.089 -13.150  1.00  0.00     0.042 C 
HETATM   15  C6  UNL     1       1.127  31.313 -14.052  1.00  0.00     0.015 C 
HETATM   16  C7  UNL     1       1.668  28.973 -13.702  1.00  0.00     0.133 C 
HETATM   17  C14 UNL     1       2.572  28.252 -12.763  1.00  0.00     0.067 C 
HETATM   18  C15 UNL     1       3.293  29.239 -11.834  1.00  0.00     0.158 C 
HETATM   19  C23 UNL     1       2.168  29.819 -10.977  1.00  0.00     0.176 C 
BRANCH  16  20
HETATM   20  O3  UNL     1       0.789  28.011 -14.238  1.00  0.00    -0.353 OA
BRANCH  20  21
HETATM   21  C8  UNL     1      -0.534  28.364 -14.141  1.00  0.00     0.291 C 
HETATM   22  O4  UNL     1      -1.082  27.619 -13.072  1.00  0.00    -0.351 OA
HETATM   23  C9  UNL     1      -2.371  28.029 -12.785  1.00  0.00     0.152 C 
HETATM   24  C10 UNL     1      -3.097  26.877 -12.124  1.00  0.00     0.042 C 
HETATM   25  C11 UNL     1      -3.143  28.394 -14.033  1.00  0.00     0.178 C 
HETATM   26  C12 UNL     1      -2.636  27.496 -15.146  1.00  0.00     0.183 C 
HETATM   27  C13 UNL     1      -1.211  27.918 -15.444  1.00  0.00     0.204 C 
BRANCH  25  28
HETATM   28  O5  UNL     1      -4.519  28.162 -13.882  1.00  0.00    -0.390 OA
ATOM     29  H5  UNL     1      -5.027  28.953 -14.019  1.00  0.00     0.210 HD
ENDBRANCH  25  28
BRANCH  26  30
HETATM   30  O6  UNL     1      -3.440  27.548 -16.277  1.00  0.00    -0.390 OA
ATOM     31  H6  UNL     1      -3.751  26.691 -16.540  1.00  0.00     0.210 HD
ENDBRANCH  26  30
BRANCH  27  32
HETATM   32  O7  UNL     1      -0.558  26.765 -15.926  1.00  0.00    -0.388 OA
ATOM     33  H7  UNL     1      -0.546  26.792 -16.876  1.00  0.00     0.210 HD
ENDBRANCH  27  32
ENDBRANCH  20  21
ENDBRANCH  16  20
BRANCH  18  34
HETATM   34  O8  UNL     1       4.126  28.566 -10.964  1.00  0.00    -0.350 OA
BRANCH  34  35
HETATM   35  C16 UNL     1       4.552  27.340 -11.396  1.00  0.00     0.295 C 
HETATM   36  O9  UNL     1       5.963  27.335 -11.486  1.00  0.00    -0.320 OA
HETATM   37  C17 UNL     1       6.434  27.479 -10.193  1.00  0.00     0.196 C 
HETATM   38  C21 UNL     1       5.387  26.991  -9.246  1.00  0.00     0.214 C 
HETATM   39  C22 UNL     1       4.380  26.364 -10.221  1.00  0.00     0.207 C 
BRANCH  37  40
HETATM   40  O10 UNL     1       6.637  28.853  -9.987  1.00  0.00    -0.363 OA
ATOM     41  H10 UNL     1       6.232  29.069  -9.155  1.00  0.00     0.213 HD
ENDBRANCH  37  40
BRANCH  37  42
HETATM   42  C18 UNL     1       7.760  26.805 -10.035  1.00  0.00     0.043 C 
HETATM   43  C19 UNL     1       8.750  27.567  -9.215  1.00  0.00     0.015 C 
HETATM   44  C20 UNL     1       8.321  26.406 -11.392  1.00  0.00     0.015 C 
ENDBRANCH  37  42
BRANCH  38  45
HETATM   45  O11 UNL     1       5.820  26.107  -8.296  1.00  0.00    -0.387 OA
ATOM     46  H11 UNL     1       5.737  25.189  -8.525  1.00  0.00     0.210 HD
ENDBRANCH  38  45
BRANCH  39  47
HETATM   47  O12 UNL     1       3.098  26.369  -9.723  1.00  0.00    -0.388 OA
ATOM     48  H12 UNL     1       2.569  25.667 -10.083  1.00  0.00     0.210 HD
ENDBRANCH  39  47
ENDBRANCH  34  35
ENDBRANCH  18  34
BRANCH  19  49
HETATM   49  O13 UNL     1       1.586  28.703 -10.330  1.00  0.00    -0.390 OA
ATOM     50  H13 UNL     1       1.129  28.185 -10.983  1.00  0.00     0.210 HD
ENDBRANCH  19  49
ENDBRANCH  12  13
ENDBRANCH   7  12
BRANCH  11  51
HETATM   51  O16 UNL     1      -0.340  33.573  -7.431  1.00  0.00    -0.390 OA
ATOM     52  H16 UNL     1      -0.885  34.199  -6.969  1.00  0.00     0.210 HD
ENDBRANCH  11  51
ENDBRANCH   4   5
ENDBRANCH   1   4
TORSDOF 17
ENDMDL
MODEL 3
REMARK VINA RESULT: -8.604290711      3.649      8.210
REMARK  17 active torsions:
REMARK  status: ('A' for Active; 'I' for Inactive)
REMARK    1  A    between atoms: C3_4  and  O2_5 
REMARK    2  A    between atoms: O2_5  and  C4_6 
REMARK    3  A    between atoms: C7_9  and  O3_10 
REMARK    4  A    between atoms: O3_10  and  C8_11 
REMARK    5  A    between atoms: C11_15  and  O5_16 
REMARK    6  A    between atoms: C12_18  and  O6_19 
REMARK    7  A    between atoms: C13_21  and  O7_22 
REMARK    8  A    between atoms: C15_25  and  O8_26 
REMARK    9  A    between atoms: O8_26  and  C16_27 
REMARK   10  A    between atoms: C17_29  and  O10_30 
REMARK   11  A    between atoms: C17_29  and  C18_32 
REMARK   12  A    between atoms: C21_35  and  O11_36 
REMARK   13  A    between atoms: C22_38  and  O12_39 
REMARK   14  A    between atoms: C23_41  and  O13_42 
REMARK   15  A    between atoms: C24_45  and  C25_46 
REMARK   16  A    between atoms: C25_46  and  O15_47 
REMARK   17  A    between atoms: C27_50  and  O16_51 
ROOT
HETATM    1  O15 UNL     1       4.631  23.991  -8.110  1.00  0.00    -0.281 OA
HETATM    2  C26 UNL     1       3.965  23.122  -7.387  1.00  0.00     0.228 C 
HETATM    3  N1  UNL     1       3.379  22.383  -6.737  1.00  0.00    -0.164 NA
ENDROOT
BRANCH   1   4
HETATM    4  C25 UNL     1       4.552  24.561  -9.336  1.00  0.00     0.224 C 
BRANCH   4   5
HETATM    5  C24 UNL     1       5.365  25.819  -9.483  1.00  0.00     0.183 C 
HETATM    6  O14 UNL     1       5.822  25.921 -10.809  1.00  0.00    -0.329 OA
HETATM    7  C3  UNL     1       6.772  26.925 -10.872  1.00  0.00     0.414 C 
HETATM    8  O1  UNL     1       7.952  26.337 -10.355  1.00  0.00    -0.331 OA
HETATM    9  C2  UNL     1       7.790  26.363  -8.984  1.00  0.00     0.154 C 
HETATM   10  C1  UNL     1       8.921  25.604  -8.319  1.00  0.00     0.042 C 
HETATM   11  C27 UNL     1       6.461  25.872  -8.490  1.00  0.00     0.178 C 
BRANCH   7  12
HETATM   12  O2  UNL     1       6.920  27.310 -12.177  1.00  0.00    -0.330 OA
BRANCH  12  13
HETATM   13  C4  UNL     1       7.341  28.657 -12.323  1.00  0.00     0.164 C 
HETATM   14  C5  UNL     1       6.986  29.450 -11.128  1.00  0.00     0.042 C 
HETATM   15  C6  UNL     1       8.295  29.959 -10.498  1.00  0.00     0.015 C 
HETATM   16  C7  UNL     1       6.087  30.605 -11.269  1.00  0.00     0.133 C 
HETATM   17  C14 UNL     1       5.490  30.835 -12.615  1.00  0.00     0.067 C 
HETATM   18  C15 UNL     1       6.529  30.599 -13.720  1.00  0.00     0.158 C 
HETATM   19  C23 UNL     1       6.814  29.100 -13.635  1.00  0.00     0.176 C 
BRANCH  16  20
HETATM   20  O3  UNL     1       5.013  30.471 -10.366  1.00  0.00    -0.353 OA
BRANCH  20  21
HETATM   21  C8  UNL     1       3.810  30.226 -10.979  1.00  0.00     0.291 C 
HETATM   22  O4  UNL     1       2.833  30.972 -10.281  1.00  0.00    -0.351 OA
HETATM   23  C9  UNL     1       1.611  30.925 -10.928  1.00  0.00     0.152 C 
HETATM   24  C10 UNL     1       0.526  31.176  -9.904  1.00  0.00     0.042 C 
HETATM   25  C11 UNL     1       1.347  29.570 -11.545  1.00  0.00     0.178 C 
HETATM   26  C12 UNL     1       2.013  28.538 -10.653  1.00  0.00     0.183 C 
HETATM   27  C13 UNL     1       3.510  28.733 -10.791  1.00  0.00     0.204 C 
BRANCH  25  28
HETATM   28  O5  UNL     1      -0.025  29.278 -11.595  1.00  0.00    -0.390 OA
ATOM     29  H5  UNL     1      -0.307  28.780 -10.836  1.00  0.00     0.210 HD
ENDBRANCH  25  28
BRANCH  26  30
HETATM   30  O6  UNL     1       1.627  27.242 -10.963  1.00  0.00    -0.390 OA
ATOM     31  H6  UNL     1       1.015  26.885 -10.331  1.00  0.00     0.210 HD
ENDBRANCH  26  30
BRANCH  27  32
HETATM   32  O7  UNL     1       4.070  28.305  -9.568  1.00  0.00    -0.388 OA
ATOM     33  H7  UNL     1       4.365  27.407  -9.663  1.00  0.00     0.210 HD
ENDBRANCH  27  32
ENDBRANCH  20  21
ENDBRANCH  16  20
BRANCH  18  34
HETATM   34  O8  UNL     1       5.969  30.809 -14.964  1.00  0.00    -0.350 OA
BRANCH  34  35
HETATM   35  C16 UNL     1       4.698  31.315 -14.953  1.00  0.00     0.295 C 
HETATM   36  O9  UNL     1       4.727  32.674 -15.344  1.00  0.00    -0.320 OA
HETATM   37  C17 UNL     1       5.143  32.689 -16.663  1.00  0.00     0.196 C 
HETATM   38  C21 UNL     1       4.815  31.370 -17.282  1.00  0.00     0.214 C 
HETATM   39  C22 UNL     1       3.970  30.728 -16.172  1.00  0.00     0.207 C 
BRANCH  37  40
HETATM   40  O10 UNL     1       6.537  32.857 -16.646  1.00  0.00    -0.363 OA
ATOM     41  H10 UNL     1       6.739  33.384 -15.882  1.00  0.00     0.213 HD
ENDBRANCH  37  40
BRANCH  37  42
HETATM   42  C18 UNL     1       4.563  33.863 -17.387  1.00  0.00     0.043 C 
HETATM   43  C19 UNL     1       5.575  34.807 -17.949  1.00  0.00     0.015 C 
HETATM   44  C20 UNL     1       3.534  34.570 -16.518  1.00  0.00     0.015 C 
ENDBRANCH  37  42
BRANCH  38  45
HETATM   45  O11 UNL     1       4.154  31.430 -18.478  1.00  0.00    -0.387 OA
ATOM     46  H11 UNL     1       3.643  30.661 -18.701  1.00  0.00     0.210 HD
ENDBRANCH  38  45
BRANCH  39  47
HETATM   47  O12 UNL     1       4.027  29.353 -16.201  1.00  0.00    -0.388 OA
ATOM     48  H12 UNL     1       4.285  29.022 -17.053  1.00  0.00     0.210 HD
ENDBRANCH  39  47
ENDBRANCH  34  35
ENDBRANCH  18  34
BRANCH  19  49
HETATM   49  O13 UNL     1       5.562  28.475 -13.845  1.00  0.00    -0.390 OA
ATOM     50  H13 UNL     1       5.658  27.843 -14.548  1.00  0.00     0.210 HD
ENDBRANCH  19  49
ENDBRANCH  12  13
ENDBRANCH   7  12
BRANCH  11  51
HETATM   51  O16 UNL     1       6.055  26.797  -7.493  1.00  0.00    -0.390 OA
ATOM     52  H16 UNL     1       5.196  26.509  -7.208  1.00  0.00     0.210 HD
ENDBRANCH  11  51
ENDBRANCH   4   5
ENDBRANCH   1   4
TORSDOF 17
ENDMDL
MODEL 4
REMARK VINA RESULT: -8.599055000      2.410      3.565
REMARK  17 active torsions:
REMARK  status: ('A' for Active; 'I' for Inactive)
REMARK    1  A    between atoms: C3_4  and  O2_5 
REMARK    2  A    between atoms: O2_5  and  C4_6 
REMARK    3  A    between atoms: C7_9  and  O3_10 
REMARK    4  A    between atoms: O3_10  and  C8_11 
REMARK    5  A    between atoms: C11_15  and  O5_16 
REMARK    6  A    between atoms: C12_18  and  O6_19 
REMARK    7  A    between atoms: C13_21  and  O7_22 
REMARK    8  A    between atoms: C15_25  and  O8_26 
REMARK    9  A    between atoms: O8_26  and  C16_27 
REMARK   10  A    between atoms: C17_29  and  O10_30 
REMARK   11  A    between atoms: C17_29  and  C18_32 
REMARK   12  A    between atoms: C21_35  and  O11_36 
REMARK   13  A    between atoms: C22_38  and  O12_39 
REMARK   14  A    between atoms: C23_41  and  O13_42 
REMARK   15  A    between atoms: C24_45  and  C25_46 
REMARK   16  A    between atoms: C25_46  and  O15_47 
REMARK   17  A    between atoms: C27_50  and  O16_51 
ROOT
HETATM    1  O15 UNL     1      -2.219  32.670  -8.814  1.00  0.00    -0.281 OA
HETATM    2  C26 UNL     1      -2.803  31.518  -9.046  1.00  0.00     0.228 C 
HETATM    3  N1  UNL     1      -3.325  30.524  -9.271  1.00  0.00    -0.164 NA
ENDROOT
BRANCH   1   4
HETATM    4  C25 UNL     1      -0.964  33.169  -8.725  1.00  0.00     0.224 C 
BRANCH   4   5
HETATM    5  C24 UNL     1      -0.140  32.988  -9.971  1.00  0.00     0.183 C 
HETATM    6  O14 UNL     1       1.165  32.608  -9.611  1.00  0.00    -0.329 OA
HETATM    7  C3  UNL     1       1.976  32.698 -10.729  1.00  0.00     0.414 C 
HETATM    8  O1  UNL     1       2.256  34.080 -10.859  1.00  0.00    -0.331 OA
HETATM    9  C2  UNL     1       1.126  34.618 -11.443  1.00  0.00     0.154 C 
HETATM   10  C1  UNL     1       1.238  36.128 -11.483  1.00  0.00     0.042 C 
HETATM   11  C27 UNL     1      -0.174  34.199 -10.821  1.00  0.00     0.178 C 
BRANCH   7  12
HETATM   12  O2  UNL     1       3.109  31.962 -10.512  1.00  0.00    -0.330 OA
BRANCH  12  13
HETATM   13  C4  UNL     1       3.238  30.854 -11.387  1.00  0.00     0.164 C 
HETATM   14  C5  UNL     1       1.928  30.486 -11.964  1.00  0.00     0.042 C 
HETATM   15  C6  UNL     1       2.022  30.669 -13.490  1.00  0.00     0.015 C 
HETATM   16  C7  UNL     1       1.380  29.145 -11.714  1.00  0.00     0.133 C 
HETATM   17  C14 UNL     1       2.142  28.267 -10.782  1.00  0.00     0.067 C 
HETATM   18  C15 UNL     1       3.652  28.387 -11.032  1.00  0.00     0.158 C 
HETATM   19  C23 UNL     1       3.976  29.823 -10.620  1.00  0.00     0.176 C 
BRANCH  16  20
HETATM   20  O3  UNL     1       0.080  29.266 -11.185  1.00  0.00    -0.353 OA
BRANCH  20  21
HETATM   21  C8  UNL     1      -0.907  28.922 -12.076  1.00  0.00     0.291 C 
HETATM   22  O4  UNL     1      -1.728  30.062 -12.241  1.00  0.00    -0.351 OA
HETATM   23  C9  UNL     1      -2.653  29.869 -13.250  1.00  0.00     0.152 C 
HETATM   24  C10 UNL     1      -3.833  30.780 -12.989  1.00  0.00     0.042 C 
HETATM   25  C11 UNL     1      -3.175  28.450 -13.279  1.00  0.00     0.178 C 
HETATM   26  C12 UNL     1      -3.184  27.951 -11.846  1.00  0.00     0.183 C 
HETATM   27  C13 UNL     1      -1.737  27.815 -11.414  1.00  0.00     0.204 C 
BRANCH  25  28
HETATM   28  O5  UNL     1      -4.490  28.387 -13.767  1.00  0.00    -0.390 OA
ATOM     29  H5  UNL     1      -5.096  28.072 -13.108  1.00  0.00     0.210 HD
ENDBRANCH  25  28
BRANCH  26  30
HETATM   30  O6  UNL     1      -3.883  26.760 -11.703  1.00  0.00    -0.390 OA
ATOM     31  H6  UNL     1      -3.307  26.013 -11.593  1.00  0.00     0.210 HD
ENDBRANCH  26  30
BRANCH  27  32
HETATM   32  O7  UNL     1      -1.730  28.012 -10.017  1.00  0.00    -0.388 OA
ATOM     33  H7  UNL     1      -2.090  27.240  -9.596  1.00  0.00     0.210 HD
ENDBRANCH  27  32
ENDBRANCH  20  21
ENDBRANCH  16  20
BRANCH  18  34
HETATM   34  O8  UNL     1       4.353  27.576 -10.163  1.00  0.00    -0.350 OA
BRANCH  34  35
HETATM   35  C16 UNL     1       4.928  26.473 -10.732  1.00  0.00     0.295 C 
HETATM   36  O9  UNL     1       6.274  26.757 -11.060  1.00  0.00    -0.320 OA
HETATM   37  C17 UNL     1       6.930  26.965  -9.860  1.00  0.00     0.196 C 
HETATM   38  C21 UNL     1       6.185  26.252  -8.779  1.00  0.00     0.214 C 
HETATM   39  C22 UNL     1       5.164  25.455  -9.604  1.00  0.00     0.207 C 
BRANCH  37  40
HETATM   40  O10 UNL     1       6.892  28.347  -9.612  1.00  0.00    -0.363 OA
ATOM     41  H10 UNL     1       7.653  28.722 -10.040  1.00  0.00     0.213 HD
ENDBRANCH  37  40
BRANCH  37  42
HETATM   42  C18 UNL     1       8.369  26.573  -9.969  1.00  0.00     0.043 C 
HETATM   43  C19 UNL     1       9.327  27.557  -9.381  1.00  0.00     0.015 C 
HETATM   44  C20 UNL     1       8.717  26.216 -11.406  1.00  0.00     0.015 C 
ENDBRANCH  37  42
BRANCH  38  45
HETATM   45  O11 UNL     1       6.946  25.454  -7.970  1.00  0.00    -0.387 OA
ATOM     46  H11 UNL     1       6.533  25.187  -7.156  1.00  0.00     0.210 HD
ENDBRANCH  38  45
BRANCH  39  47
HETATM   47  O12 UNL     1       4.015  25.187  -8.895  1.00  0.00    -0.388 OA
ATOM     48  H12 UNL     1       3.259  25.088  -9.461  1.00  0.00     0.210 HD
ENDBRANCH  39  47
ENDBRANCH  34  35
ENDBRANCH  18  34
BRANCH  19  49
HETATM   49  O13 UNL     1       3.582  29.913  -9.263  1.00  0.00    -0.390 OA
ATOM     50  H13 UNL     1       4.361  29.846  -8.722  1.00  0.00     0.210 HD
ENDBRANCH  19  49
ENDBRANCH  12  13
ENDBRANCH   7  12
BRANCH  11  51
HETATM   51  O16 UNL     1      -1.042  33.905 -11.904  1.00  0.00    -0.390 OA
ATOM     52  H16 UNL     1      -1.524  33.129 -11.645  1.00  0.00     0.210 HD
ENDBRANCH  11  51
ENDBRANCH   4   5
ENDBRANCH   1   4
TORSDOF 17
ENDMDL
MODEL 5
REMARK VINA RESULT: -8.598156555      2.076      2.463
REMARK  17 active torsions:
REMARK  status: ('A' for Active; 'I' for Inactive)
REMARK    1  A    between atoms: C3_4  and  O2_5 
REMARK    2  A    between atoms: O2_5  and  C4_6 
REMARK    3  A    between atoms: C7_9  and  O3_10 
REMARK    4  A    between atoms: O3_10  and  C8_11 
REMARK    5  A    between atoms: C11_15  and  O5_16 
REMARK    6  A    between atoms: C12_18  and  O6_19 
REMARK    7  A    between atoms: C13_21  and  O7_22 
REMARK    8  A    between atoms: C15_25  and  O8_26 
REMARK    9  A    between atoms: O8_26  and  C16_27 
REMARK   10  A    between atoms: C17_29  and  O10_30 
REMARK   11  A    between atoms: C17_29  and  C18_32 
REMARK   12  A    between atoms: C21_35  and  O11_36 
REMARK   13  A    between atoms: C22_38  and  O12_39 
REMARK   14  A    between atoms: C23_41  and  O13_42 
REMARK   15  A    between atoms: C24_45  and  C25_46 
REMARK   16  A    between atoms: C25_46  and  O15_47 
REMARK   17  A    between atoms: C27_50  and  O16_51 
ROOT
HETATM    1  O15 UNL     1      -0.560  33.560  -8.627  1.00  0.00    -0.281 OA
HETATM    2  C26 UNL     1      -1.867  33.636  -8.546  1.00  0.00     0.228 C 
HETATM    3  N1  UNL     1      -3.006  33.695  -8.448  1.00  0.00    -0.164 NA
ENDROOT
BRANCH   1   4
HETATM    4  C25 UNL     1       0.490  34.380  -8.865  1.00  0.00     0.224 C 
BRANCH   4   5
HETATM    5  C24 UNL     1       1.174  34.138 -10.183  1.00  0.00     0.183 C 
HETATM    6  O14 UNL     1       2.520  33.804  -9.951  1.00  0.00    -0.329 OA
HETATM    7  C3  UNL     1       3.198  33.839 -11.156  1.00  0.00     0.414 C 
HETATM    8  O1  UNL     1       3.429  35.215 -11.398  1.00  0.00    -0.331 OA
HETATM    9  C2  UNL     1       2.228  35.696 -11.882  1.00  0.00     0.154 C 
HETATM   10  C1  UNL     1       2.299  37.204 -12.022  1.00  0.00     0.042 C 
HETATM   11  C27 UNL     1       1.016  35.294 -11.093  1.00  0.00     0.178 C 
BRANCH   7  12
HETATM   12  O2  UNL     1       4.366  33.138 -11.026  1.00  0.00    -0.330 OA
BRANCH  12  13
HETATM   13  C4  UNL     1       4.474  32.049 -11.928  1.00  0.00     0.164 C 
HETATM   14  C5  UNL     1       3.268  31.951 -12.777  1.00  0.00     0.042 C 
HETATM   15  C6  UNL     1       3.709  32.154 -14.238  1.00  0.00     0.015 C 
HETATM   16  C7  UNL     1       2.450  30.730 -12.729  1.00  0.00     0.133 C 
HETATM   17  C14 UNL     1       2.832  29.700 -11.723  1.00  0.00     0.067 C 
HETATM   18  C15 UNL     1       4.357  29.540 -11.659  1.00  0.00     0.158 C 
HETATM   19  C23 UNL     1       4.840  30.877 -11.098  1.00  0.00     0.176 C 
BRANCH  16  20
HETATM   20  O3  UNL     1       1.111  31.080 -12.464  1.00  0.00    -0.353 OA
BRANCH  20  21
HETATM   21  C8  UNL     1       0.457  30.175 -11.666  1.00  0.00     0.291 C 
HETATM   22  O4  UNL     1      -0.290  29.334 -12.524  1.00  0.00    -0.351 OA
HETATM   23  C9  UNL     1      -0.852  28.281 -11.826  1.00  0.00     0.152 C 
HETATM   24  C10 UNL     1      -2.068  27.805 -12.590  1.00  0.00     0.042 C 
HETATM   25  C11 UNL     1      -1.316  28.695 -10.448  1.00  0.00     0.178 C 
HETATM   26  C12 UNL     1      -1.763  30.142 -10.546  1.00  0.00     0.183 C 
HETATM   27  C13 UNL     1      -0.521  30.975 -10.795  1.00  0.00     0.204 C 
BRANCH  25  28
HETATM   28  O5  UNL     1      -2.412  27.932 -10.015  1.00  0.00    -0.390 OA
ATOM     29  H5  UNL     1      -2.366  27.746  -9.084  1.00  0.00     0.210 HD
ENDBRANCH  25  28
BRANCH  26  30
HETATM   30  O6  UNL     1      -2.452  30.562  -9.417  1.00  0.00    -0.390 OA
ATOM     31  H6  UNL     1      -2.263  31.465  -9.192  1.00  0.00     0.210 HD
ENDBRANCH  26  30
BRANCH  27  32
HETATM   32  O7  UNL     1      -0.953  32.108 -11.515  1.00  0.00    -0.388 OA
ATOM     33  H7  UNL     1      -1.406  32.695 -10.922  1.00  0.00     0.210 HD
ENDBRANCH  27  32
ENDBRANCH  20  21
ENDBRANCH  16  20
BRANCH  18  34
HETATM   34  O8  UNL     1       4.705  28.588 -10.723  1.00  0.00    -0.350 OA
BRANCH  34  35
HETATM   35  C16 UNL     1       5.020  27.358 -11.232  1.00  0.00     0.295 C 
HETATM   36  O9  UNL     1       6.422  27.253 -11.384  1.00  0.00    -0.320 OA
HETATM   37  C17 UNL     1       6.954  27.296 -10.107  1.00  0.00     0.196 C 
HETATM   38  C21 UNL     1       5.912  26.837  -9.141  1.00  0.00     0.214 C 
HETATM   39  C22 UNL     1       4.822  26.337 -10.100  1.00  0.00     0.207 C 
BRANCH  37  40
HETATM   40  O10 UNL     1       7.269  28.639  -9.845  1.00  0.00    -0.363 OA
ATOM     41  H10 UNL     1       7.637  28.995 -10.645  1.00  0.00     0.213 HD
ENDBRANCH  37  40
BRANCH  37  42
HETATM   42  C18 UNL     1       8.231  26.518 -10.041  1.00  0.00     0.043 C 
HETATM   43  C19 UNL     1       9.300  27.152  -9.213  1.00  0.00     0.015 C 
HETATM   44  C20 UNL     1       8.715  26.168 -11.440  1.00  0.00     0.015 C 
ENDBRANCH  37  42
BRANCH  38  45
HETATM   45  O11 UNL     1       6.315  25.877  -8.254  1.00  0.00    -0.387 OA
ATOM     46  H11 UNL     1       5.720  25.143  -8.149  1.00  0.00     0.210 HD
ENDBRANCH  38  45
BRANCH  39  47
HETATM   47  O12 UNL     1       3.565  26.411  -9.546  1.00  0.00    -0.388 OA
ATOM     48  H12 UNL     1       3.292  25.586  -9.162  1.00  0.00     0.210 HD
ENDBRANCH  39  47
ENDBRANCH  34  35
ENDBRANCH  18  34
BRANCH  19  49
HETATM   49  O13 UNL     1       4.195  31.003  -9.844  1.00  0.00    -0.390 OA
ATOM     50  H13 UNL     1       3.469  30.392  -9.820  1.00  0.00     0.210 HD
ENDBRANCH  19  49
ENDBRANCH  12  13
ENDBRANCH   7  12
BRANCH  11  51
HETATM   51  O16 UNL     1       0.040  34.920 -12.052  1.00  0.00    -0.390 OA
ATOM     52  H16 UNL     1      -0.800  35.045 -11.627  1.00  0.00     0.210 HD
ENDBRANCH  11  51
ENDBRANCH   4   5
ENDBRANCH   1   4
TORSDOF 17
ENDMDL
