MODEL 1
REMARK VINA RESULT: -7.167138754      0.000      0.000
REMARK  7 active torsions:
REMARK  status: ('A' for Active; 'I' for Inactive)
REMARK    1  A    between atoms: N1_2  and  C2_5 
REMARK    2  A    between atoms: C2_5  and  C3_6 
REMARK    3  A    between atoms: C3_6  and  N2_7 
REMARK    4  A    between atoms: N2_7  and  C4_9 
REMARK    5  A    between atoms: C7_15  and  C8_16 
REMARK    6  A    between atoms: C10_18  and  C11_19 
REMARK    7  A    between atoms: C13_25  and  O1_26 
ROOT
HETATM    1  C4  UNL     1      -3.642   0.506  13.716  1.00  0.00     0.117 A 
HETATM    2  C5  UNL     1      -3.693  -0.755  13.111  1.00  0.00     0.137 A 
HETATM    3  N3  UNL     1      -3.301  -0.932  11.843  1.00  0.00    -0.351 N 
ATOM      4  H3  UNL     1      -3.348  -1.861  11.424  1.00  0.00     0.166 HD
HETATM    5  C6  UNL     1      -2.835   0.129  11.100  1.00  0.00     0.131 A 
HETATM    6 CL1  UNL     1      -2.284  -0.197   9.465  1.00  0.00    -0.062 Cl
HETATM    7  C7  UNL     1      -2.774   1.381  11.660  1.00  0.00     0.085 A 
HETATM    8  N6  UNL     1      -3.191   1.506  12.966  1.00  0.00    -0.338 N 
ATOM      9  H6  UNL     1      -3.150   2.434  13.388  1.00  0.00     0.167 HD
ENDROOT
BRANCH   7  10
HETATM   10  C8  UNL     1      -2.217   2.517  10.941  1.00  0.00     0.017 A 
HETATM   11  C9  UNL     1      -0.909   2.968  11.170  1.00  0.00     0.031 A 
HETATM   12  C10 UNL     1      -0.360   4.070  10.552  1.00  0.00     0.018 A 
HETATM   13  C15 UNL     1      -1.170   4.754   9.656  1.00  0.00     0.048 A 
HETATM   14 CL2  UNL     1      -0.471   6.154   8.875  1.00  0.00    -0.083 Cl
HETATM   15  C16 UNL     1      -2.449   4.352   9.401  1.00  0.00     0.049 A 
HETATM   16  C17 UNL     1      -2.989   3.222  10.048  1.00  0.00     0.048 A 
HETATM   17 CL3  UNL     1      -4.642   2.809   9.753  1.00  0.00    -0.083 Cl
BRANCH  12  18
HETATM   18  C11 UNL     1       1.025   4.489  10.758  1.00  0.00     0.094 A 
HETATM   19  N4  UNL     1       1.464   5.305  11.763  1.00  0.00    -0.297 N 
HETATM   20  N5  UNL     1       2.768   5.479  11.699  1.00  0.00    -0.309 N 
ATOM     21  H4  UNL     1       0.860   5.724  12.470  1.00  0.00     0.187 HD
HETATM   22  C12 UNL     1       3.248   4.788  10.654  1.00  0.00     0.146 A 
ATOM     23  H5  UNL     1       3.322   6.047  12.340  1.00  0.00     0.186 HD
HETATM   24  C13 UNL     1       2.163   4.166  10.060  1.00  0.00     0.114 A 
BRANCH  24  25
HETATM   25  O1  UNL     1       2.248   3.353   8.939  1.00  0.00    -0.352 OA
HETATM   26  C14 UNL     1       2.070   3.802   7.620  1.00  0.00     0.210 C 
ENDBRANCH  24  25
ENDBRANCH  12  18
ENDBRANCH   7  10
BRANCH   1  27
HETATM   27  N2  UNL     1      -4.027   0.615  14.941  1.00  0.00    -0.374 N 
ATOM     28  H2  UNL     1      -4.679  -0.096  15.273  1.00  0.00     0.161 HD
BRANCH  27  29
HETATM   29  C3  UNL     1      -3.648   1.609  15.883  1.00  0.00     0.148 C 
BRANCH  29  30
HETATM   30  C2  UNL     1      -4.764   1.872  16.898  1.00  0.00     0.251 C 
BRANCH  30  31
HETATM   31  N1  UNL     1      -5.547   0.671  17.001  1.00  0.00    -0.077 N 
HETATM   32  C1  UNL     1      -6.968   1.022  16.914  1.00  0.00     0.267 C 
ATOM     33  H12 UNL     1      -5.330   0.136  17.842  1.00  0.00     0.276 HD
ATOM     34  H11 UNL     1      -5.277  -0.031  16.312  1.00  0.00     0.276 HD
ENDBRANCH  30  31
ENDBRANCH  29  30
ENDBRANCH  27  29
ENDBRANCH   1  27
TORSDOF 7
ENDMDL
MODEL 2
REMARK VINA RESULT: -6.891694739      1.365      1.611
REMARK  7 active torsions:
REMARK  status: ('A' for Active; 'I' for Inactive)
REMARK    1  A    between atoms: N1_2  and  C2_5 
REMARK    2  A    between atoms: C2_5  and  C3_6 
REMARK    3  A    between atoms: C3_6  and  N2_7 
REMARK    4  A    between atoms: N2_7  and  C4_9 
REMARK    5  A    between atoms: C7_15  and  C8_16 
REMARK    6  A    between atoms: C10_18  and  C11_19 
REMARK    7  A    between atoms: C13_25  and  O1_26 
ROOT
HETATM    1  C4  UNL     1      -3.531   0.677  13.620  1.00  0.00     0.117 A 
HETATM    2  C5  UNL     1      -3.712  -0.601  13.079  1.00  0.00     0.137 A 
HETATM    3  N3  UNL     1      -3.438  -0.855  11.793  1.00  0.00    -0.351 N 
ATOM      4  H3  UNL     1      -3.579  -1.795  11.423  1.00  0.00     0.166 HD
HETATM    5  C6  UNL     1      -2.969   0.141  10.967  1.00  0.00     0.131 A 
HETATM    6 CL1  UNL     1      -2.578  -0.287   9.310  1.00  0.00    -0.062 Cl
HETATM    7  C7  UNL     1      -2.783   1.408  11.463  1.00  0.00     0.085 A 
HETATM    8  N6  UNL     1      -3.080   1.614  12.790  1.00  0.00    -0.338 N 
ATOM      9  H6  UNL     1      -2.946   2.552  13.164  1.00  0.00     0.167 HD
ENDROOT
BRANCH   7  10
HETATM   10  C8  UNL     1      -2.217   2.474  10.650  1.00  0.00     0.017 A 
HETATM   11  C9  UNL     1      -0.838   2.731  10.623  1.00  0.00     0.031 A 
HETATM   12  C10 UNL     1      -0.265   3.761   9.911  1.00  0.00     0.018 A 
HETATM   13  C15 UNL     1      -1.125   4.576   9.186  1.00  0.00     0.048 A 
HETATM   14 CL2  UNL     1      -0.394   5.885   8.286  1.00  0.00    -0.083 Cl
HETATM   15  C16 UNL     1      -2.473   4.364   9.182  1.00  0.00     0.049 A 
HETATM   16  C17 UNL     1      -3.035   3.304   9.922  1.00  0.00     0.048 A 
HETATM   17 CL3  UNL     1      -4.756   3.134   9.949  1.00  0.00    -0.083 Cl
BRANCH  12  18
HETATM   18  C11 UNL     1       1.179   3.977   9.847  1.00  0.00     0.094 A 
HETATM   19  N4  UNL     1       2.024   3.413   8.932  1.00  0.00    -0.297 N 
HETATM   20  N5  UNL     1       3.263   3.820   9.115  1.00  0.00    -0.309 N 
ATOM     21  H4  UNL     1       1.733   2.762   8.204  1.00  0.00     0.187 HD
HETATM   22  C12 UNL     1       3.293   4.670  10.153  1.00  0.00     0.146 A 
ATOM     23  H5  UNL     1       4.069   3.537   8.558  1.00  0.00     0.186 HD
HETATM   24  C13 UNL     1       1.992   4.772  10.617  1.00  0.00     0.114 A 
BRANCH  24  25
HETATM   25  O1  UNL     1       1.607   5.562  11.691  1.00  0.00    -0.352 OA
HETATM   26  C14 UNL     1       1.053   6.847  11.571  1.00  0.00     0.210 C 
ENDBRANCH  24  25
ENDBRANCH  12  18
ENDBRANCH   7  10
BRANCH   1  27
HETATM   27  N2  UNL     1      -3.804   0.861  14.865  1.00  0.00    -0.374 N 
ATOM     28  H2  UNL     1      -3.955   0.020  15.422  1.00  0.00     0.161 HD
BRANCH  27  29
HETATM   29  C3  UNL     1      -3.920   2.099  15.554  1.00  0.00     0.148 C 
BRANCH  29  30
HETATM   30  C2  UNL     1      -5.382   2.534  15.680  1.00  0.00     0.251 C 
BRANCH  30  31
HETATM   31  N1  UNL     1      -5.809   2.232  17.020  1.00  0.00    -0.077 N 
HETATM   32  C1  UNL     1      -6.696   1.065  16.983  1.00  0.00     0.267 C 
ATOM     33  H12 UNL     1      -6.240   3.033  17.481  1.00  0.00     0.276 HD
ATOM     34  H11 UNL     1      -5.025   2.104  17.659  1.00  0.00     0.276 HD
ENDBRANCH  30  31
ENDBRANCH  29  30
ENDBRANCH  27  29
ENDBRANCH   1  27
TORSDOF 7
ENDMDL
MODEL 3
REMARK VINA RESULT: -6.890574610      2.909      8.040
REMARK  7 active torsions:
REMARK  status: ('A' for Active; 'I' for Inactive)
REMARK    1  A    between atoms: N1_2  and  C2_5 
REMARK    2  A    between atoms: C2_5  and  C3_6 
REMARK    3  A    between atoms: C3_6  and  N2_7 
REMARK    4  A    between atoms: N2_7  and  C4_9 
REMARK    5  A    between atoms: C7_15  and  C8_16 
REMARK    6  A    between atoms: C10_18  and  C11_19 
REMARK    7  A    between atoms: C13_25  and  O1_26 
ROOT
HETATM    1  C4  UNL     1       2.478   4.093   9.430  1.00  0.00     0.117 A 
HETATM    2  C5  UNL     1       2.789   4.905  10.528  1.00  0.00     0.137 A 
HETATM    3  N3  UNL     1       1.879   5.170  11.473  1.00  0.00    -0.351 N 
ATOM      4  H3  UNL     1       2.130   5.765  12.263  1.00  0.00     0.166 HD
HETATM    5  C6  UNL     1       0.608   4.648  11.388  1.00  0.00     0.131 A 
HETATM    6 CL1  UNL     1      -0.508   4.995  12.699  1.00  0.00    -0.062 Cl
HETATM    7  C7  UNL     1       0.267   3.850  10.324  1.00  0.00     0.085 A 
HETATM    8  N6  UNL     1       1.240   3.611   9.381  1.00  0.00    -0.338 N 
ATOM      9  H6  UNL     1       0.993   3.020   8.587  1.00  0.00     0.167 HD
ENDROOT
BRANCH   7  10
HETATM   10  C8  UNL     1      -1.038   3.213  10.230  1.00  0.00     0.017 A 
HETATM   11  C9  UNL     1      -1.238   1.877  10.608  1.00  0.00     0.031 A 
HETATM   12  C10 UNL     1      -2.441   1.219  10.487  1.00  0.00     0.018 A 
HETATM   13  C15 UNL     1      -3.501   1.944   9.957  1.00  0.00     0.048 A 
HETATM   14 CL2  UNL     1      -5.027   1.104   9.802  1.00  0.00    -0.083 Cl
HETATM   15  C16 UNL     1      -3.354   3.246   9.576  1.00  0.00     0.049 A 
HETATM   16  C17 UNL     1      -2.110   3.896   9.708  1.00  0.00     0.048 A 
HETATM   17 CL3  UNL     1      -1.959   5.519   9.129  1.00  0.00    -0.083 Cl
BRANCH  12  18
HETATM   18  C11 UNL     1      -2.646  -0.155  10.942  1.00  0.00     0.094 A 
HETATM   19  N4  UNL     1      -2.140  -1.272  10.338  1.00  0.00    -0.297 N 
HETATM   20  N5  UNL     1      -2.476  -2.362  10.997  1.00  0.00    -0.309 N 
ATOM     21  H4  UNL     1      -1.576  -1.263   9.489  1.00  0.00     0.187 HD
HETATM   22  C12 UNL     1      -3.214  -2.015  12.063  1.00  0.00     0.146 A 
ATOM     23  H5  UNL     1      -2.216  -3.314  10.740  1.00  0.00     0.186 HD
HETATM   24  C13 UNL     1      -3.325  -0.636  12.034  1.00  0.00     0.114 A 
BRANCH  24  25
HETATM   25  O1  UNL     1      -4.020   0.110  12.975  1.00  0.00    -0.352 OA
HETATM   26  C14 UNL     1      -3.771   0.073  14.357  1.00  0.00     0.210 C 
ENDBRANCH  24  25
ENDBRANCH  12  18
ENDBRANCH   7  10
BRANCH   1  27
HETATM   27  N2  UNL     1       3.396   3.866   8.555  1.00  0.00    -0.374 N 
ATOM     28  H2  UNL     1       4.224   3.372   8.888  1.00  0.00     0.161 HD
BRANCH  27  29
HETATM   29  C3  UNL     1       3.390   4.224   7.180  1.00  0.00     0.148 C 
BRANCH  29  30
HETATM   30  C2  UNL     1       3.471   2.988   6.280  1.00  0.00     0.251 C 
BRANCH  30  31
HETATM   31  N1  UNL     1       2.135   2.680   5.846  1.00  0.00    -0.077 N 
HETATM   32  C1  UNL     1       1.479   3.918   5.414  1.00  0.00     0.267 C 
ATOM     33  H12 UNL     1       1.600   2.184   6.559  1.00  0.00     0.276 HD
ATOM     34  H11 UNL     1       2.117   1.958   5.125  1.00  0.00     0.276 HD
ENDBRANCH  30  31
ENDBRANCH  29  30
ENDBRANCH  27  29
ENDBRANCH   1  27
TORSDOF 7
ENDMDL
MODEL 4
REMARK VINA RESULT: -6.810941385      4.625      6.906
REMARK  7 active torsions:
REMARK  status: ('A' for Active; 'I' for Inactive)
REMARK    1  A    between atoms: N1_2  and  C2_5 
REMARK    2  A    between atoms: C2_5  and  C3_6 
REMARK    3  A    between atoms: C3_6  and  N2_7 
REMARK    4  A    between atoms: N2_7  and  C4_9 
REMARK    5  A    between atoms: C7_15  and  C8_16 
REMARK    6  A    between atoms: C10_18  and  C11_19 
REMARK    7  A    between atoms: C13_25  and  O1_26 
ROOT
HETATM    1  C4  UNL     1      -5.052   7.275  13.515  1.00  0.00     0.117 A 
HETATM    2  C5  UNL     1      -5.485   6.902  14.792  1.00  0.00     0.137 A 
HETATM    3  N3  UNL     1      -5.229   5.684  15.284  1.00  0.00    -0.351 N 
ATOM      4  H3  UNL     1      -5.556   5.437  16.218  1.00  0.00     0.166 HD
HETATM    5  C6  UNL     1      -4.528   4.762  14.539  1.00  0.00     0.131 A 
HETATM    6 CL1  UNL     1      -4.182   3.207  15.279  1.00  0.00    -0.062 Cl
HETATM    7  C7  UNL     1      -4.090   5.091  13.281  1.00  0.00     0.085 A 
HETATM    8  N6  UNL     1      -4.382   6.356  12.825  1.00  0.00    -0.338 N 
ATOM      9  H6  UNL     1      -4.061   6.607  11.890  1.00  0.00     0.167 HD
ENDROOT
BRANCH   7  10
HETATM   10  C8  UNL     1      -3.280   4.179  12.488  1.00  0.00     0.017 A 
HETATM   11  C9  UNL     1      -3.857   3.261  11.597  1.00  0.00     0.031 A 
HETATM   12  C10 UNL     1      -3.134   2.344  10.867  1.00  0.00     0.018 A 
HETATM   13  C15 UNL     1      -1.756   2.351  11.043  1.00  0.00     0.048 A 
HETATM   14 CL2  UNL     1      -0.840   1.184  10.117  1.00  0.00    -0.083 Cl
HETATM   15  C16 UNL     1      -1.150   3.226  11.898  1.00  0.00     0.049 A 
HETATM   16  C17 UNL     1      -1.914   4.153  12.636  1.00  0.00     0.048 A 
HETATM   17 CL3  UNL     1      -1.103   5.178  13.768  1.00  0.00    -0.083 Cl
BRANCH  12  18
HETATM   18  C11 UNL     1      -3.746   1.437   9.900  1.00  0.00     0.094 A 
HETATM   19  N4  UNL     1      -4.014   1.737   8.593  1.00  0.00    -0.297 N 
HETATM   20  N5  UNL     1      -4.543   0.705   7.967  1.00  0.00    -0.309 N 
ATOM     21  H4  UNL     1      -3.829   2.641   8.159  1.00  0.00     0.187 HD
HETATM   22  C12 UNL     1      -4.646  -0.319   8.828  1.00  0.00     0.146 A 
ATOM     23  H5  UNL     1      -4.827   0.688   6.988  1.00  0.00     0.186 HD
HETATM   24  C13 UNL     1      -4.150   0.132  10.039  1.00  0.00     0.114 A 
BRANCH  24  25
HETATM   25  O1  UNL     1      -4.086  -0.639  11.191  1.00  0.00    -0.352 OA
HETATM   26  C14 UNL     1      -3.008  -1.475  11.526  1.00  0.00     0.210 C 
ENDBRANCH  24  25
ENDBRANCH  12  18
ENDBRANCH   7  10
BRANCH   1  27
HETATM   27  N2  UNL     1      -5.321   8.463  13.097  1.00  0.00    -0.374 N 
ATOM     28  H2  UNL     1      -4.529   9.100  13.008  1.00  0.00     0.161 HD
BRANCH  27  29
HETATM   29  C3  UNL     1      -6.593   8.991  12.744  1.00  0.00     0.148 C 
BRANCH  29  30
HETATM   30  C2  UNL     1      -6.671   9.310  11.249  1.00  0.00     0.251 C 
BRANCH  30  31
HETATM   31  N1  UNL     1      -7.395   8.241  10.615  1.00  0.00    -0.077 N 
HETATM   32  C1  UNL     1      -6.441   7.360   9.935  1.00  0.00     0.267 C 
ATOM     33  H12 UNL     1      -8.124   8.583   9.989  1.00  0.00     0.276 HD
ATOM     34  H11 UNL     1      -7.994   7.736  11.268  1.00  0.00     0.276 HD
ENDBRANCH  30  31
ENDBRANCH  29  30
ENDBRANCH  27  29
ENDBRANCH   1  27
TORSDOF 7
ENDMDL
MODEL 5
REMARK VINA RESULT: -6.802160053      5.014      7.110
REMARK  7 active torsions:
REMARK  status: ('A' for Active; 'I' for Inactive)
REMARK    1  A    between atoms: N1_2  and  C2_5 
REMARK    2  A    between atoms: C2_5  and  C3_6 
REMARK    3  A    between atoms: C3_6  and  N2_7 
REMARK    4  A    between atoms: N2_7  and  C4_9 
REMARK    5  A    between atoms: C7_15  and  C8_16 
REMARK    6  A    between atoms: C10_18  and  C11_19 
REMARK    7  A    between atoms: C13_25  and  O1_26 
ROOT
HETATM    1  C4  UNL     1      -1.857   2.170  11.197  1.00  0.00     0.117 A 
HETATM    2  C5  UNL     1      -0.514   2.565  11.200  1.00  0.00     0.137 A 
HETATM    3  N3  UNL     1      -0.139   3.742  11.716  1.00  0.00    -0.351 N 
ATOM      4  H3  UNL     1       0.846   4.007  11.707  1.00  0.00     0.166 HD
HETATM    5  C6  UNL     1      -1.071   4.598  12.260  1.00  0.00     0.131 A 
HETATM    6 CL1  UNL     1      -0.491   6.095  12.970  1.00  0.00    -0.062 Cl
HETATM    7  C7  UNL     1      -2.398   4.244  12.271  1.00  0.00     0.085 A 
HETATM    8  N6  UNL     1      -2.728   3.025  11.727  1.00  0.00    -0.338 N 
ATOM      9  H6  UNL     1      -3.712   2.757  11.730  1.00  0.00     0.167 HD
ENDROOT
BRANCH   7  10
HETATM   10  C8  UNL     1      -3.408   5.079  12.902  1.00  0.00     0.017 A 
HETATM   11  C9  UNL     1      -4.054   6.113  12.208  1.00  0.00     0.031 A 
HETATM   12  C10 UNL     1      -4.975   6.961  12.779  1.00  0.00     0.018 A 
HETATM   13  C15 UNL     1      -5.265   6.758  14.123  1.00  0.00     0.048 A 
HETATM   14 CL2  UNL     1      -6.434   7.838  14.847  1.00  0.00    -0.083 Cl
HETATM   15  C16 UNL     1      -4.662   5.765  14.839  1.00  0.00     0.049 A 
HETATM   16  C17 UNL     1      -3.719   4.911  14.231  1.00  0.00     0.048 A 
HETATM   17 CL3  UNL     1      -2.923   3.726  15.207  1.00  0.00    -0.083 Cl
BRANCH  12  18
HETATM   18  C11 UNL     1      -5.682   7.994  12.025  1.00  0.00     0.094 A 
HETATM   19  N4  UNL     1      -6.860   7.818  11.354  1.00  0.00    -0.297 N 
HETATM   20  N5  UNL     1      -7.260   8.940  10.793  1.00  0.00    -0.309 N 
ATOM     21  H4  UNL     1      -7.363   6.933  11.296  1.00  0.00     0.187 HD
HETATM   22  C12 UNL     1      -6.369   9.905  11.068  1.00  0.00     0.146 A 
ATOM     23  H5  UNL     1      -8.110   9.057  10.240  1.00  0.00     0.186 HD
HETATM   24  C13 UNL     1      -5.379   9.320  11.838  1.00  0.00     0.114 A 
BRANCH  24  25
HETATM   25  O1  UNL     1      -4.270   9.996  12.326  1.00  0.00    -0.352 OA
HETATM   26  C14 UNL     1      -4.184  10.552  13.614  1.00  0.00     0.210 C 
ENDBRANCH  24  25
ENDBRANCH  12  18
ENDBRANCH   7  10
BRANCH   1  27
HETATM   27  N2  UNL     1      -2.159   1.024  10.693  1.00  0.00    -0.374 N 
ATOM     28  H2  UNL     1      -1.647   0.752   9.853  1.00  0.00     0.161 HD
BRANCH  27  29
HETATM   29  C3  UNL     1      -3.122   0.093  11.169  1.00  0.00     0.148 C 
BRANCH  29  30
HETATM   30  C2  UNL     1      -4.120  -0.289  10.073  1.00  0.00     0.251 C 
BRANCH  30  31
HETATM   31  N1  UNL     1      -3.513   0.021   8.807  1.00  0.00    -0.077 N 
HETATM   32  C1  UNL     1      -4.569   0.321   7.835  1.00  0.00     0.267 C 
ATOM     33  H12 UNL     1      -2.886  -0.716   8.485  1.00  0.00     0.276 HD
ATOM     34  H11 UNL     1      -2.826   0.772   8.878  1.00  0.00     0.276 HD
ENDBRANCH  30  31
ENDBRANCH  29  30
ENDBRANCH  27  29
ENDBRANCH   1  27
TORSDOF 7
ENDMDL
