MODEL 1
REMARK VINA RESULT: -8.550796670      0.000      0.000
REMARK  6 active torsions:
REMARK  status: ('A' for Active; 'I' for Inactive)
REMARK    1  A    between atoms: O1_2  and  C2_3 
REMARK    2  A    between atoms: C7_8  and  N1_9 
REMARK       I    between atoms: N1_9  and  C8_11 
REMARK       I    between atoms: C8_11  and  N2_13 
REMARK    3  A    between atoms: N2_13  and  C9_15 
REMARK    4  A    between atoms: C9_15  and  N3_16 
REMARK    5  A    between atoms: C9_15  and  C14_26 
REMARK       I    between atoms: N3_16  and  C10_18 
REMARK    6  A    between atoms: C10_18  and  C11_20 
ROOT
HETATM    1  C9  UNL     1      -2.246   4.043  11.550  1.00  0.00     0.243 C 
ENDROOT
BRANCH   1   2
HETATM    2  N2  UNL     1      -2.209   3.731  12.953  1.00  0.00    -0.317 N 
HETATM    3  C8  UNL     1      -3.380   3.254  13.675  1.00  0.00     0.322 C 
HETATM    4  N1  UNL     1      -3.303   2.961  15.044  1.00  0.00    -0.306 N 
HETATM    5  O2  UNL     1      -4.398   3.149  12.952  1.00  0.00    -0.247 OA
ATOM      6  H1  UNL     1      -2.399   3.099  15.495  1.00  0.00     0.171 HD
ATOM      7  H2  UNL     1      -1.333   3.849  13.460  1.00  0.00     0.166 HD
BRANCH   4   8
HETATM    8  C7  UNL     1      -4.351   2.496  15.855  1.00  0.00     0.069 A 
HETATM    9  C2  UNL     1      -4.349   1.138  16.222  1.00  0.00     0.095 A 
HETATM   10  C3  UNL     1      -5.323   0.573  17.012  1.00  0.00     0.039 A 
HETATM   11  C4  UNL     1      -6.360   1.329  17.484  1.00  0.00     0.003 A 
HETATM   12  C5  UNL     1      -6.388   2.655  17.142  1.00  0.00     0.002 A 
HETATM   13  C6  UNL     1      -5.400   3.242  16.337  1.00  0.00     0.032 A 
BRANCH   9  14
HETATM   14  O1  UNL     1      -3.288   0.366  15.740  1.00  0.00    -0.354 OA
HETATM   15  C1  UNL     1      -3.514  -0.398  14.573  1.00  0.00     0.210 C 
ENDBRANCH   9  14
ENDBRANCH   4   8
ENDBRANCH   1   2
BRANCH   1  16
HETATM   16  N3  UNL     1      -2.685   2.920  10.735  1.00  0.00    -0.330 N 
HETATM   17  C10 UNL     1      -3.840   2.990   9.913  1.00  0.00     0.279 C 
HETATM   18  O3  UNL     1      -4.556   4.013   9.831  1.00  0.00    -0.265 OA
ATOM     19  H3  UNL     1      -2.146   2.055  10.756  1.00  0.00     0.165 HD
BRANCH  17  20
HETATM   20  C11 UNL     1      -4.201   1.819   9.134  1.00  0.00     0.167 A 
HETATM   21  C12 UNL     1      -4.811   0.668   9.585  1.00  0.00     0.064 A 
HETATM   22  C13 UNL     1      -4.944  -0.144   8.485  1.00  0.00     0.117 A 
HETATM   23  N4  UNL     1      -4.419   0.526   7.419  1.00  0.00    -0.272 N 
HETATM   24  O4  UNL     1      -3.990   1.684   7.845  1.00  0.00    -0.233 OA
ATOM     25  H4  UNL     1      -4.371   0.184   6.459  1.00  0.00     0.194 HD
ENDBRANCH  17  20
ENDBRANCH   1  16
BRANCH   1  26
HETATM   26  C14 UNL     1      -0.897   4.566  11.079  1.00  0.00     0.226 C 
HETATM   27 CL1  UNL     1      -0.068   5.470  12.339  1.00  0.00    -0.080 Cl
HETATM   28 CL2  UNL     1      -1.155   5.593   9.675  1.00  0.00    -0.080 Cl
HETATM   29 CL3  UNL     1       0.103   3.134  10.692  1.00  0.00    -0.080 Cl
ENDBRANCH   1  26
TORSDOF 6
ENDMDL
MODEL 2
REMARK VINA RESULT: -8.364533902      2.364      6.349
REMARK  6 active torsions:
REMARK  status: ('A' for Active; 'I' for Inactive)
REMARK    1  A    between atoms: O1_2  and  C2_3 
REMARK    2  A    between atoms: C7_8  and  N1_9 
REMARK       I    between atoms: N1_9  and  C8_11 
REMARK       I    between atoms: C8_11  and  N2_13 
REMARK    3  A    between atoms: N2_13  and  C9_15 
REMARK    4  A    between atoms: C9_15  and  N3_16 
REMARK    5  A    between atoms: C9_15  and  C14_26 
REMARK       I    between atoms: N3_16  and  C10_18 
REMARK    6  A    between atoms: C10_18  and  C11_20 
ROOT
HETATM    1  C9  UNL     1      -3.137   4.546  14.554  1.00  0.00     0.243 C 
ENDROOT
BRANCH   1   2
HETATM    2  N2  UNL     1      -2.506   3.985  13.391  1.00  0.00    -0.317 N 
HETATM    3  C8  UNL     1      -3.236   3.186  12.418  1.00  0.00     0.322 C 
HETATM    4  N1  UNL     1      -2.584   2.656  11.296  1.00  0.00    -0.306 N 
HETATM    5  O2  UNL     1      -4.449   3.046  12.703  1.00  0.00    -0.247 OA
ATOM      6  H1  UNL     1      -1.588   2.858  11.203  1.00  0.00     0.171 HD
ATOM      7  H2  UNL     1      -1.511   4.152  13.242  1.00  0.00     0.166 HD
BRANCH   4   8
HETATM    8  C7  UNL     1      -3.168   1.873  10.287  1.00  0.00     0.069 A 
HETATM    9  C2  UNL     1      -3.188   0.478  10.463  1.00  0.00     0.095 A 
HETATM   10  C3  UNL     1      -3.734  -0.387   9.543  1.00  0.00     0.039 A 
HETATM   11  C4  UNL     1      -4.292   0.089   8.388  1.00  0.00     0.003 A 
HETATM   12  C5  UNL     1      -4.285   1.444   8.190  1.00  0.00     0.002 A 
HETATM   13  C6  UNL     1      -3.732   2.336   9.122  1.00  0.00     0.032 A 
BRANCH   9  14
HETATM   14  O1  UNL     1      -2.619  -0.007  11.644  1.00  0.00    -0.354 OA
HETATM   15  C1  UNL     1      -3.488  -0.574  12.602  1.00  0.00     0.210 C 
ENDBRANCH   9  14
ENDBRANCH   4   8
ENDBRANCH   1   2
BRANCH   1  16
HETATM   16  N3  UNL     1      -4.086   3.635  15.175  1.00  0.00    -0.330 N 
HETATM   17  C10 UNL     1      -3.669   2.486  15.898  1.00  0.00     0.279 C 
HETATM   18  O3  UNL     1      -2.465   2.179  16.050  1.00  0.00    -0.265 OA
ATOM     19  H3  UNL     1      -5.084   3.827  15.088  1.00  0.00     0.165 HD
BRANCH  17  20
HETATM   20  C11 UNL     1      -4.688   1.635  16.484  1.00  0.00     0.167 A 
HETATM   21  C12 UNL     1      -6.045   1.871  16.542  1.00  0.00     0.064 A 
HETATM   22  C13 UNL     1      -6.590   0.788  17.187  1.00  0.00     0.117 A 
HETATM   23  N4  UNL     1      -5.565  -0.059  17.495  1.00  0.00    -0.272 N 
HETATM   24  O4  UNL     1      -4.456   0.479  17.062  1.00  0.00    -0.233 OA
ATOM     25  H4  UNL     1      -5.650  -0.953  17.978  1.00  0.00     0.194 HD
ENDBRANCH  17  20
ENDBRANCH   1  16
BRANCH   1  26
HETATM   26  C14 UNL     1      -3.794   5.877  14.221  1.00  0.00     0.226 C 
HETATM   27 CL1  UNL     1      -3.507   6.352  12.553  1.00  0.00    -0.080 Cl
HETATM   28 CL2  UNL     1      -3.160   7.103  15.312  1.00  0.00    -0.080 Cl
HETATM   29 CL3  UNL     1      -5.557   5.644  14.422  1.00  0.00    -0.080 Cl
ENDBRANCH   1  26
TORSDOF 6
ENDMDL
MODEL 3
REMARK VINA RESULT: -7.837678596      2.306      6.648
REMARK  6 active torsions:
REMARK  status: ('A' for Active; 'I' for Inactive)
REMARK    1  A    between atoms: O1_2  and  C2_3 
REMARK    2  A    between atoms: C7_8  and  N1_9 
REMARK       I    between atoms: N1_9  and  C8_11 
REMARK       I    between atoms: C8_11  and  N2_13 
REMARK    3  A    between atoms: N2_13  and  C9_15 
REMARK    4  A    between atoms: C9_15  and  N3_16 
REMARK    5  A    between atoms: C9_15  and  C14_26 
REMARK       I    between atoms: N3_16  and  C10_18 
REMARK    6  A    between atoms: C10_18  and  C11_20 
ROOT
HETATM    1  C9  UNL     1      -3.070   4.549  14.712  1.00  0.00     0.243 C 
ENDROOT
BRANCH   1   2
HETATM    2  N2  UNL     1      -2.352   3.960  13.615  1.00  0.00    -0.317 N 
HETATM    3  C8  UNL     1      -2.989   3.067  12.658  1.00  0.00     0.322 C 
HETATM    4  N1  UNL     1      -2.254   2.512  11.601  1.00  0.00    -0.306 N 
HETATM    5  O2  UNL     1      -4.205   2.874  12.895  1.00  0.00    -0.247 OA
ATOM      6  H1  UNL     1      -1.268   2.766  11.543  1.00  0.00     0.171 HD
ATOM      7  H2  UNL     1      -1.362   4.175  13.503  1.00  0.00     0.166 HD
BRANCH   4   8
HETATM    8  C7  UNL     1      -2.744   1.641  10.615  1.00  0.00     0.069 A 
HETATM    9  C2  UNL     1      -3.552   2.183   9.599  1.00  0.00     0.095 A 
HETATM   10  C3  UNL     1      -4.086   1.426   8.581  1.00  0.00     0.039 A 
HETATM   11  C4  UNL     1      -3.847   0.081   8.516  1.00  0.00     0.003 A 
HETATM   12  C5  UNL     1      -3.063  -0.473   9.494  1.00  0.00     0.002 A 
HETATM   13  C6  UNL     1      -2.513   0.289  10.536  1.00  0.00     0.032 A 
BRANCH   9  14
HETATM   14  O1  UNL     1      -3.795   3.557   9.665  1.00  0.00    -0.354 OA
HETATM   15  C1  UNL     1      -2.890   4.413   8.999  1.00  0.00     0.210 C 
ENDBRANCH   9  14
ENDBRANCH   4   8
ENDBRANCH   1   2
BRANCH   1  16
HETATM   16  N3  UNL     1      -4.035   3.638  15.308  1.00  0.00    -0.330 N 
HETATM   17  C10 UNL     1      -3.640   2.456  15.988  1.00  0.00     0.279 C 
HETATM   18  O3  UNL     1      -2.443   2.118  16.122  1.00  0.00    -0.265 OA
ATOM     19  H3  UNL     1      -5.029   3.856  15.234  1.00  0.00     0.165 HD
BRANCH  17  20
HETATM   20  C11 UNL     1      -4.675   1.608  16.551  1.00  0.00     0.167 A 
HETATM   21  C12 UNL     1      -6.035   1.837  16.556  1.00  0.00     0.064 A 
HETATM   22  C13 UNL     1      -6.596   0.761  17.199  1.00  0.00     0.117 A 
HETATM   23  N4  UNL     1      -5.578  -0.074  17.559  1.00  0.00    -0.272 N 
HETATM   24  O4  UNL     1      -4.458   0.464  17.157  1.00  0.00    -0.233 OA
ATOM     25  H4  UNL     1      -5.676  -0.960  18.054  1.00  0.00     0.194 HD
ENDBRANCH  17  20
ENDBRANCH   1  16
BRANCH   1  26
HETATM   26  C14 UNL     1      -3.735   5.849  14.286  1.00  0.00     0.226 C 
HETATM   27 CL1  UNL     1      -3.384   6.246  12.609  1.00  0.00    -0.080 Cl
HETATM   28 CL2  UNL     1      -3.169   7.139  15.339  1.00  0.00    -0.080 Cl
HETATM   29 CL3  UNL     1      -5.501   5.592  14.424  1.00  0.00    -0.080 Cl
ENDBRANCH   1  26
TORSDOF 6
ENDMDL
MODEL 4
REMARK VINA RESULT: -7.495051122      3.134      7.233
REMARK  6 active torsions:
REMARK  status: ('A' for Active; 'I' for Inactive)
REMARK    1  A    between atoms: O1_2  and  C2_3 
REMARK    2  A    between atoms: C7_8  and  N1_9 
REMARK       I    between atoms: N1_9  and  C8_11 
REMARK       I    between atoms: C8_11  and  N2_13 
REMARK    3  A    between atoms: N2_13  and  C9_15 
REMARK    4  A    between atoms: C9_15  and  N3_16 
REMARK    5  A    between atoms: C9_15  and  C14_26 
REMARK       I    between atoms: N3_16  and  C10_18 
REMARK    6  A    between atoms: C10_18  and  C11_20 
ROOT
HETATM    1  C9  UNL     1      -3.259   1.334  11.870  1.00  0.00     0.243 C 
ENDROOT
BRANCH   1   2
HETATM    2  N2  UNL     1      -1.873   1.704  11.955  1.00  0.00    -0.317 N 
HETATM    3  C8  UNL     1      -1.397   3.031  11.590  1.00  0.00     0.322 C 
HETATM    4  N1  UNL     1      -0.036   3.353  11.688  1.00  0.00    -0.306 N 
HETATM    5  O2  UNL     1      -2.312   3.795  11.202  1.00  0.00    -0.247 OA
ATOM      6  H1  UNL     1       0.588   2.618  12.022  1.00  0.00     0.171 HD
ATOM      7  H2  UNL     1      -1.199   1.013  12.283  1.00  0.00     0.166 HD
BRANCH   4   8
HETATM    8  C7  UNL     1       0.552   4.587  11.370  1.00  0.00     0.069 A 
HETATM    9  C2  UNL     1       1.315   4.671  10.191  1.00  0.00     0.095 A 
HETATM   10  C3  UNL     1       1.935   5.828   9.779  1.00  0.00     0.039 A 
HETATM   11  C4  UNL     1       1.832   6.973  10.520  1.00  0.00     0.003 A 
HETATM   12  C5  UNL     1       1.095   6.920  11.673  1.00  0.00     0.002 A 
HETATM   13  C6  UNL     1       0.458   5.746  12.103  1.00  0.00     0.032 A 
BRANCH   9  14
HETATM   14  O1  UNL     1       1.418   3.501   9.434  1.00  0.00    -0.354 OA
HETATM   15  C1  UNL     1       2.374   3.478   8.395  1.00  0.00     0.210 C 
ENDBRANCH   9  14
ENDBRANCH   4   8
ENDBRANCH   1   2
BRANCH   1  16
HETATM   16  N3  UNL     1      -3.809   0.914  13.149  1.00  0.00    -0.330 N 
HETATM   17  C10 UNL     1      -3.854   1.778  14.275  1.00  0.00     0.279 C 
HETATM   18  O3  UNL     1      -3.426   2.953  14.246  1.00  0.00    -0.265 OA
ATOM     19  H3  UNL     1      -4.176  -0.034  13.241  1.00  0.00     0.165 HD
BRANCH  17  20
HETATM   20  C11 UNL     1      -4.422   1.271  15.510  1.00  0.00     0.167 A 
HETATM   21  C12 UNL     1      -4.848   2.001  16.599  1.00  0.00     0.064 A 
HETATM   22  C13 UNL     1      -5.304   1.085  17.514  1.00  0.00     0.117 A 
HETATM   23  N4  UNL     1      -5.144  -0.154  16.962  1.00  0.00    -0.272 N 
HETATM   24  O4  UNL     1      -4.620   0.000  15.776  1.00  0.00    -0.233 OA
ATOM     25  H4  UNL     1      -5.391  -1.041  17.399  1.00  0.00     0.194 HD
ENDBRANCH  17  20
ENDBRANCH   1  16
BRANCH   1  26
HETATM   26  C14 UNL     1      -3.468   0.267  10.807  1.00  0.00     0.226 C 
HETATM   27 CL1  UNL     1      -2.046   0.065   9.792  1.00  0.00    -0.080 Cl
HETATM   28 CL2  UNL     1      -4.850   0.722   9.820  1.00  0.00    -0.080 Cl
HETATM   29 CL3  UNL     1      -3.737  -1.276  11.674  1.00  0.00    -0.080 Cl
ENDBRANCH   1  26
TORSDOF 6
ENDMDL
MODEL 5
REMARK VINA RESULT: -7.436108837      3.108      4.590
REMARK  6 active torsions:
REMARK  status: ('A' for Active; 'I' for Inactive)
REMARK    1  A    between atoms: O1_2  and  C2_3 
REMARK    2  A    between atoms: C7_8  and  N1_9 
REMARK       I    between atoms: N1_9  and  C8_11 
REMARK       I    between atoms: C8_11  and  N2_13 
REMARK    3  A    between atoms: N2_13  and  C9_15 
REMARK    4  A    between atoms: C9_15  and  N3_16 
REMARK    5  A    between atoms: C9_15  and  C14_26 
REMARK       I    between atoms: N3_16  and  C10_18 
REMARK    6  A    between atoms: C10_18  and  C11_20 
ROOT
HETATM    1  C9  UNL     1      -2.551   0.932  11.342  1.00  0.00     0.243 C 
ENDROOT
BRANCH   1   2
HETATM    2  N2  UNL     1      -3.354   1.884  12.057  1.00  0.00    -0.317 N 
HETATM    3  C8  UNL     1      -3.771   1.672  13.436  1.00  0.00     0.322 C 
HETATM    4  N1  UNL     1      -4.556   2.626  14.099  1.00  0.00    -0.306 N 
HETATM    5  O2  UNL     1      -3.360   0.589  13.915  1.00  0.00    -0.247 OA
ATOM      6  H1  UNL     1      -4.811   3.460  13.571  1.00  0.00     0.171 HD
ATOM      7  H2  UNL     1      -3.643   2.739  11.583  1.00  0.00     0.166 HD
BRANCH   4   8
HETATM    8  C7  UNL     1      -5.023   2.545  15.421  1.00  0.00     0.069 A 
HETATM    9  C2  UNL     1      -5.777   3.621  15.921  1.00  0.00     0.095 A 
HETATM   10  C3  UNL     1      -6.287   3.651  17.199  1.00  0.00     0.039 A 
HETATM   11  C4  UNL     1      -6.073   2.607  18.057  1.00  0.00     0.003 A 
HETATM   12  C5  UNL     1      -5.340   1.545  17.595  1.00  0.00     0.002 A 
HETATM   13  C6  UNL     1      -4.817   1.504  16.294  1.00  0.00     0.032 A 
BRANCH   9  14
HETATM   14  O1  UNL     1      -5.996   4.687  15.044  1.00  0.00    -0.354 OA
HETATM   15  C1  UNL     1      -5.242   5.864  15.245  1.00  0.00     0.210 C 
ENDBRANCH   9  14
ENDBRANCH   4   8
ENDBRANCH   1   2
BRANCH   1  16
HETATM   16  N3  UNL     1      -1.498   1.559  10.558  1.00  0.00    -0.330 N 
HETATM   17  C10 UNL     1      -0.661   2.575  11.090  1.00  0.00     0.279 C 
HETATM   18  O3  UNL     1      -0.769   2.998  12.262  1.00  0.00    -0.265 OA
ATOM     19  H3  UNL     1      -1.356   1.259   9.593  1.00  0.00     0.165 HD
BRANCH  17  20
HETATM   20  C11 UNL     1       0.363   3.141  10.233  1.00  0.00     0.167 A 
HETATM   21  C12 UNL     1       1.181   4.218  10.503  1.00  0.00     0.064 A 
HETATM   22  C13 UNL     1       1.979   4.373   9.396  1.00  0.00     0.117 A 
HETATM   23  N4  UNL     1       1.628   3.403   8.503  1.00  0.00    -0.272 N 
HETATM   24  O4  UNL     1       0.669   2.695   9.036  1.00  0.00    -0.233 OA
ATOM     25  H4  UNL     1       2.042   3.256   7.582  1.00  0.00     0.194 HD
ENDBRANCH  17  20
ENDBRANCH   1  16
BRANCH   1  26
HETATM   26  C14 UNL     1      -3.421   0.036  10.473  1.00  0.00     0.226 C 
HETATM   27 CL1  UNL     1      -2.596  -0.449   8.998  1.00  0.00    -0.080 Cl
HETATM   28 CL2  UNL     1      -4.898   0.906  10.077  1.00  0.00    -0.080 Cl
HETATM   29 CL3  UNL     1      -3.746  -1.444  11.424  1.00  0.00    -0.080 Cl
ENDBRANCH   1  26
TORSDOF 6
ENDMDL
