MODEL 1
REMARK VINA RESULT: -9.009138569      0.000      0.000
REMARK  9 active torsions:
REMARK  status: ('A' for Active; 'I' for Inactive)
REMARK    1  A    between atoms: C2_2  and  N1_4 
REMARK    2  A    between atoms: C2_2  and  C12_16 
REMARK       I    between atoms: N1_4  and  C4_6 
REMARK    3  A    between atoms: C4_6  and  O2_8 
REMARK    4  A    between atoms: O2_8  and  C5_9 
REMARK    5  A    between atoms: C5_9  and  C6_10 
REMARK    6  A    between atoms: C12_16  and  N3_20 
REMARK    7  A    between atoms: N3_20  and  N4_22 
REMARK    8  A    between atoms: C13_24  and  C14_25 
REMARK    9  A    between atoms: C17_28  and  C18_29 
ROOT
HETATM    1  C12 UNL     1      -1.572   2.508  11.434  1.00  0.00     0.117 C 
HETATM    2  N2  UNL     1      -0.791   2.828  10.449  1.00  0.00    -0.386 N 
ATOM      3  H21 UNL     1      -0.249   3.681  10.585  1.00  0.00     0.157 HD
ATOM      4  H22 UNL     1      -0.731   2.249   9.612  1.00  0.00     0.157 HD
ENDROOT
BRANCH   1   5
HETATM    5  C2  UNL     1      -2.361   1.266  11.235  1.00  0.00     0.087 C 
HETATM    6  C1  UNL     1      -1.437   0.211  10.725  1.00  0.00     0.046 C 
HETATM    7  C3  UNL     1      -3.502   1.464  10.290  1.00  0.00     0.046 C 
BRANCH   5   8
HETATM    8  N1  UNL     1      -2.955   0.861  12.543  1.00  0.00    -0.321 N 
HETATM    9  C4  UNL     1      -3.678  -0.411  12.498  1.00  0.00     0.361 C 
HETATM   10  O1  UNL     1      -4.042  -1.284  12.004  1.00  0.00    -0.238 OA
ATOM     11  H1  UNL     1      -2.866   1.421  13.391  1.00  0.00     0.166 HD
BRANCH   9  12
HETATM   12  O2  UNL     1      -4.189  -0.459  13.979  1.00  0.00    -0.299 OA
BRANCH  12  13
HETATM   13  C5  UNL     1      -3.470   0.364  14.883  1.00  0.00     0.219 C 
BRANCH  13  14
HETATM   14  C6  UNL     1      -4.490   1.127  15.648  1.00  0.00    -0.034 A 
HETATM   15  C7  UNL     1      -5.212   0.560  16.669  1.00  0.00     0.009 A 
HETATM   16  C8  UNL     1      -6.166   1.288  17.375  1.00  0.00     0.001 A 
HETATM   17  C9  UNL     1      -6.361   2.592  17.022  1.00  0.00     0.000 A 
HETATM   18  C10 UNL     1      -5.675   3.218  16.012  1.00  0.00     0.001 A 
HETATM   19  C11 UNL     1      -4.724   2.435  15.329  1.00  0.00     0.009 A 
ENDBRANCH  13  14
ENDBRANCH  12  13
ENDBRANCH   9  12
ENDBRANCH   5   8
ENDBRANCH   1   5
BRANCH   1  20
HETATM   20  N3  UNL     1      -1.656   3.303  12.585  1.00  0.00    -0.288 N 
ATOM     21  H3  UNL     1      -0.967   3.125  13.315  1.00  0.00     0.188 HD
BRANCH  20  22
HETATM   22  N4  UNL     1      -2.597   4.328  12.835  1.00  0.00    -0.310 N 
HETATM   23  C13 UNL     1      -2.450   4.966  14.023  1.00  0.00     0.118 C 
ATOM     24  H4  UNL     1      -3.332   4.570  12.171  1.00  0.00     0.186 HD
BRANCH  23  25
HETATM   25  C14 UNL     1      -3.413   5.996  14.303  1.00  0.00    -0.019 A 
HETATM   26  C15 UNL     1      -3.222   7.097  15.087  1.00  0.00     0.013 A 
HETATM   27  C16 UNL     1      -4.218   8.047  15.354  1.00  0.00     0.017 A 
HETATM   28  C17 UNL     1      -5.456   7.860  14.802  1.00  0.00     0.048 A 
HETATM   29  C19 UNL     1      -5.670   6.729  14.002  1.00  0.00     0.017 A 
HETATM   30  C20 UNL     1      -4.682   5.832  13.756  1.00  0.00     0.013 A 
BRANCH  28  31
HETATM   31  C18 UNL     1      -6.606   8.832  14.865  1.00  0.00     0.417 C 
HETATM   32  F1  UNL     1      -6.211   9.997  15.530  1.00  0.00    -0.166 F 
HETATM   33  F2  UNL     1      -6.920   9.194  13.541  1.00  0.00    -0.166 F 
HETATM   34  F3  UNL     1      -7.743   8.296  15.418  1.00  0.00    -0.166 F 
ENDBRANCH  28  31
ENDBRANCH  23  25
ENDBRANCH  20  22
ENDBRANCH   1  20
TORSDOF 9
ENDMDL
MODEL 2
REMARK VINA RESULT: -8.718248441      3.707      5.434
REMARK  9 active torsions:
REMARK  status: ('A' for Active; 'I' for Inactive)
REMARK    1  A    between atoms: C2_2  and  N1_4 
REMARK    2  A    between atoms: C2_2  and  C12_16 
REMARK       I    between atoms: N1_4  and  C4_6 
REMARK    3  A    between atoms: C4_6  and  O2_8 
REMARK    4  A    between atoms: O2_8  and  C5_9 
REMARK    5  A    between atoms: C5_9  and  C6_10 
REMARK    6  A    between atoms: C12_16  and  N3_20 
REMARK    7  A    between atoms: N3_20  and  N4_22 
REMARK    8  A    between atoms: C13_24  and  C14_25 
REMARK    9  A    between atoms: C17_28  and  C18_29 
ROOT
HETATM    1  C12 UNL     1      -0.937   5.686  11.992  1.00  0.00     0.117 C 
HETATM    2  N2  UNL     1      -1.008   6.980  11.954  1.00  0.00    -0.386 N 
ATOM      3  H21 UNL     1      -0.759   7.454  12.822  1.00  0.00     0.157 HD
ATOM      4  H22 UNL     1      -1.285   7.470  11.103  1.00  0.00     0.157 HD
ENDROOT
BRANCH   1   5
HETATM    5  C2  UNL     1      -1.300   4.996  10.728  1.00  0.00     0.087 C 
HETATM    6  C1  UNL     1      -0.313   3.901  10.502  1.00  0.00     0.046 C 
HETATM    7  C3  UNL     1      -1.323   5.929   9.560  1.00  0.00     0.046 C 
BRANCH   5   8
HETATM    8  N1  UNL     1      -2.680   4.446  10.861  1.00  0.00    -0.321 N 
HETATM    9  C4  UNL     1      -3.163   3.755   9.664  1.00  0.00     0.361 C 
HETATM   10  O1  UNL     1      -3.061   3.397   8.664  1.00  0.00    -0.238 OA
ATOM     11  H1  UNL     1      -3.238   4.542  11.711  1.00  0.00     0.166 HD
BRANCH   9  12
HETATM   12  O2  UNL     1      -4.608   3.392  10.151  1.00  0.00    -0.299 OA
BRANCH  12  13
HETATM   13  C5  UNL     1      -5.073   2.118   9.732  1.00  0.00     0.219 C 
BRANCH  13  14
HETATM   14  C6  UNL     1      -4.508   1.136  10.693  1.00  0.00    -0.034 A 
HETATM   15  C7  UNL     1      -4.290   1.446  12.012  1.00  0.00     0.009 A 
HETATM   16  C8  UNL     1      -3.757   0.515  12.899  1.00  0.00     0.001 A 
HETATM   17  C9  UNL     1      -3.459  -0.727  12.415  1.00  0.00     0.000 A 
HETATM   18  C10 UNL     1      -3.651  -1.101  11.108  1.00  0.00     0.001 A 
HETATM   19  C11 UNL     1      -4.189  -0.119  10.255  1.00  0.00     0.009 A 
ENDBRANCH  13  14
ENDBRANCH  12  13
ENDBRANCH   9  12
ENDBRANCH   5   8
ENDBRANCH   1   5
BRANCH   1  20
HETATM   20  N3  UNL     1      -0.556   5.012  13.160  1.00  0.00    -0.288 N 
ATOM     21  H3  UNL     1       0.381   5.202  13.513  1.00  0.00     0.188 HD
BRANCH  20  22
HETATM   22  N4  UNL     1      -1.340   4.096  13.899  1.00  0.00    -0.310 N 
HETATM   23  C13 UNL     1      -2.585   4.529  14.216  1.00  0.00     0.118 C 
ATOM     24  H4  UNL     1      -0.994   3.177  14.174  1.00  0.00     0.186 HD
BRANCH  23  25
HETATM   25  C14 UNL     1      -3.387   3.618  14.986  1.00  0.00    -0.019 A 
HETATM   26  C15 UNL     1      -2.944   2.528  15.677  1.00  0.00     0.013 A 
HETATM   27  C16 UNL     1      -3.786   1.652  16.377  1.00  0.00     0.017 A 
HETATM   28  C17 UNL     1      -5.132   1.899  16.365  1.00  0.00     0.048 A 
HETATM   29  C19 UNL     1      -5.603   3.011  15.652  1.00  0.00     0.017 A 
HETATM   30  C20 UNL     1      -4.761   3.844  14.990  1.00  0.00     0.013 A 
BRANCH  28  31
HETATM   31  C18 UNL     1      -6.173   1.156  17.161  1.00  0.00     0.417 C 
HETATM   32  F1  UNL     1      -5.718  -0.133  17.456  1.00  0.00    -0.166 F 
HETATM   33  F2  UNL     1      -6.327   1.835  18.385  1.00  0.00    -0.166 F 
HETATM   34  F3  UNL     1      -7.405   1.129  16.556  1.00  0.00    -0.166 F 
ENDBRANCH  28  31
ENDBRANCH  23  25
ENDBRANCH  20  22
ENDBRANCH   1  20
TORSDOF 9
ENDMDL
MODEL 3
REMARK VINA RESULT: -8.655769206      3.680      5.554
REMARK  9 active torsions:
REMARK  status: ('A' for Active; 'I' for Inactive)
REMARK    1  A    between atoms: C2_2  and  N1_4 
REMARK    2  A    between atoms: C2_2  and  C12_16 
REMARK       I    between atoms: N1_4  and  C4_6 
REMARK    3  A    between atoms: C4_6  and  O2_8 
REMARK    4  A    between atoms: O2_8  and  C5_9 
REMARK    5  A    between atoms: C5_9  and  C6_10 
REMARK    6  A    between atoms: C12_16  and  N3_20 
REMARK    7  A    between atoms: N3_20  and  N4_22 
REMARK    8  A    between atoms: C13_24  and  C14_25 
REMARK    9  A    between atoms: C17_28  and  C18_29 
ROOT
HETATM    1  C12 UNL     1       0.023   4.701  11.889  1.00  0.00     0.117 C 
HETATM    2  N2  UNL     1       1.149   4.089  11.693  1.00  0.00    -0.386 N 
ATOM      3  H21 UNL     1       1.647   3.815  12.540  1.00  0.00     0.157 HD
ATOM      4  H22 UNL     1       1.490   3.896  10.751  1.00  0.00     0.157 HD
ENDROOT
BRANCH   1   5
HETATM    5  C2  UNL     1      -0.702   5.100  10.655  1.00  0.00     0.087 C 
HETATM    6  C1  UNL     1       0.308   5.304   9.575  1.00  0.00     0.046 C 
HETATM    7  C3  UNL     1      -1.515   6.339  10.851  1.00  0.00     0.046 C 
BRANCH   5   8
HETATM    8  N1  UNL     1      -1.657   4.015  10.288  1.00  0.00    -0.321 N 
HETATM    9  C4  UNL     1      -2.272   4.187   8.971  1.00  0.00     0.361 C 
HETATM   10  O1  UNL     1      -2.424   4.703   8.049  1.00  0.00    -0.238 OA
ATOM     11  H1  UNL     1      -1.864   3.226  10.900  1.00  0.00     0.166 HD
BRANCH   9  12
HETATM   12  O2  UNL     1      -3.220   2.939   8.974  1.00  0.00    -0.299 OA
BRANCH  12  13
HETATM   13  C5  UNL     1      -4.115   2.874  10.074  1.00  0.00     0.219 C 
BRANCH  13  14
HETATM   14  C6  UNL     1      -3.863   1.569  10.736  1.00  0.00    -0.034 A 
HETATM   15  C7  UNL     1      -3.471   0.457  10.033  1.00  0.00     0.009 A 
HETATM   16  C8  UNL     1      -3.241  -0.760  10.669  1.00  0.00     0.001 A 
HETATM   17  C9  UNL     1      -3.414  -0.815  12.022  1.00  0.00     0.000 A 
HETATM   18  C10 UNL     1      -3.805   0.258  12.783  1.00  0.00     0.001 A 
HETATM   19  C11 UNL     1      -4.027   1.463  12.089  1.00  0.00     0.009 A 
ENDBRANCH  13  14
ENDBRANCH  12  13
ENDBRANCH   9  12
ENDBRANCH   5   8
ENDBRANCH   1   5
BRANCH   1  20
HETATM   20  N3  UNL     1      -0.446   4.967  13.182  1.00  0.00    -0.288 N 
ATOM     21  H3  UNL     1      -0.088   5.807  13.635  1.00  0.00     0.188 HD
BRANCH  20  22
HETATM   22  N4  UNL     1      -1.365   4.187  13.923  1.00  0.00    -0.310 N 
HETATM   23  C13 UNL     1      -2.623   4.689  13.987  1.00  0.00     0.118 C 
ATOM     24  H4  UNL     1      -1.100   3.313  14.376  1.00  0.00     0.186 HD
BRANCH  23  25
HETATM   25  C14 UNL     1      -3.564   3.920  14.755  1.00  0.00    -0.019 A 
HETATM   26  C15 UNL     1      -4.887   4.199  14.937  1.00  0.00     0.013 A 
HETATM   27  C16 UNL     1      -5.746   3.429  15.735  1.00  0.00     0.017 A 
HETATM   28  C17 UNL     1      -5.228   2.335  16.373  1.00  0.00     0.048 A 
HETATM   29  C19 UNL     1      -3.868   2.040  16.203  1.00  0.00     0.017 A 
HETATM   30  C20 UNL     1      -3.065   2.802  15.418  1.00  0.00     0.013 A 
BRANCH  28  31
HETATM   31  C18 UNL     1      -6.015   1.318  17.159  1.00  0.00     0.417 C 
HETATM   32  F1  UNL     1      -5.317   0.108  17.209  1.00  0.00    -0.166 F 
HETATM   33  F2  UNL     1      -6.117   1.797  18.479  1.00  0.00    -0.166 F 
HETATM   34  F3  UNL     1      -7.296   1.143  16.693  1.00  0.00    -0.166 F 
ENDBRANCH  28  31
ENDBRANCH  23  25
ENDBRANCH  20  22
ENDBRANCH   1  20
TORSDOF 9
ENDMDL
MODEL 4
REMARK VINA RESULT: -8.491793132      3.762      5.819
REMARK  9 active torsions:
REMARK  status: ('A' for Active; 'I' for Inactive)
REMARK    1  A    between atoms: C2_2  and  N1_4 
REMARK    2  A    between atoms: C2_2  and  C12_16 
REMARK       I    between atoms: N1_4  and  C4_6 
REMARK    3  A    between atoms: C4_6  and  O2_8 
REMARK    4  A    between atoms: O2_8  and  C5_9 
REMARK    5  A    between atoms: C5_9  and  C6_10 
REMARK    6  A    between atoms: C12_16  and  N3_20 
REMARK    7  A    between atoms: N3_20  and  N4_22 
REMARK    8  A    between atoms: C13_24  and  C14_25 
REMARK    9  A    between atoms: C17_28  and  C18_29 
ROOT
HETATM    1  C12 UNL     1      -0.715   6.004  12.883  1.00  0.00     0.117 C 
HETATM    2  N2  UNL     1      -0.806   7.204  13.366  1.00  0.00    -0.386 N 
ATOM      3  H21 UNL     1      -0.658   7.279  14.372  1.00  0.00     0.157 HD
ATOM      4  H22 UNL     1      -1.001   8.003  12.764  1.00  0.00     0.157 HD
ENDROOT
BRANCH   1   5
HETATM    5  C2  UNL     1      -0.930   5.895  11.418  1.00  0.00     0.087 C 
HETATM    6  C1  UNL     1       0.193   6.601  10.735  1.00  0.00     0.046 C 
HETATM    7  C3  UNL     1      -2.244   6.468  10.994  1.00  0.00     0.046 C 
BRANCH   5   8
HETATM    8  N1  UNL     1      -0.953   4.451  11.043  1.00  0.00    -0.321 N 
HETATM    9  C4  UNL     1      -1.099   4.213   9.606  1.00  0.00     0.361 C 
HETATM   10  O1  UNL     1      -1.204   4.532   8.592  1.00  0.00    -0.238 OA
ATOM     11  H1  UNL     1      -0.875   3.697  11.726  1.00  0.00     0.166 HD
BRANCH   9  12
HETATM   12  O2  UNL     1      -1.145   2.647   9.616  1.00  0.00    -0.299 OA
BRANCH  12  13
HETATM   13  C5  UNL     1      -0.727   2.047  10.832  1.00  0.00     0.219 C 
BRANCH  13  14
HETATM   14  C6  UNL     1      -1.781   1.066  11.193  1.00  0.00    -0.034 A 
HETATM   15  C7  UNL     1      -2.892   1.420  11.918  1.00  0.00     0.009 A 
HETATM   16  C8  UNL     1      -3.870   0.487  12.250  1.00  0.00     0.001 A 
HETATM   17  C9  UNL     1      -3.693  -0.799  11.828  1.00  0.00     0.000 A 
HETATM   18  C10 UNL     1      -2.606  -1.220  11.103  1.00  0.00     0.001 A 
HETATM   19  C11 UNL     1      -1.646  -0.236  10.797  1.00  0.00     0.009 A 
ENDBRANCH  13  14
ENDBRANCH  12  13
ENDBRANCH   9  12
ENDBRANCH   5   8
ENDBRANCH   1   5
BRANCH   1  20
HETATM   20  N3  UNL     1      -0.446   4.905  13.711  1.00  0.00    -0.288 N 
ATOM     21  H3  UNL     1       0.527   4.604  13.771  1.00  0.00     0.188 HD
BRANCH  20  22
HETATM   22  N4  UNL     1      -1.386   4.171  14.470  1.00  0.00    -0.310 N 
HETATM   23  C13 UNL     1      -2.683   4.364  14.123  1.00  0.00     0.118 C 
ATOM     24  H4  UNL     1      -1.109   3.542  15.224  1.00  0.00     0.186 HD
BRANCH  23  25
HETATM   25  C14 UNL     1      -3.653   3.642  14.900  1.00  0.00    -0.019 A 
HETATM   26  C15 UNL     1      -4.957   3.988  15.098  1.00  0.00     0.013 A 
HETATM   27  C16 UNL     1      -5.845   3.260  15.904  1.00  0.00     0.017 A 
HETATM   28  C17 UNL     1      -5.377   2.139  16.533  1.00  0.00     0.048 A 
HETATM   29  C19 UNL     1      -4.035   1.776  16.346  1.00  0.00     0.017 A 
HETATM   30  C20 UNL     1      -3.204   2.498  15.553  1.00  0.00     0.013 A 
BRANCH  28  31
HETATM   31  C18 UNL     1      -6.206   1.161  17.325  1.00  0.00     0.417 C 
HETATM   32  F1  UNL     1      -5.522  -0.051  17.453  1.00  0.00    -0.166 F 
HETATM   33  F2  UNL     1      -6.357   1.694  18.619  1.00  0.00    -0.166 F 
HETATM   34  F3  UNL     1      -7.467   0.977  16.813  1.00  0.00    -0.166 F 
ENDBRANCH  28  31
ENDBRANCH  23  25
ENDBRANCH  20  22
ENDBRANCH   1  20
TORSDOF 9
ENDMDL
MODEL 5
REMARK VINA RESULT: -8.441729291      3.480      5.395
REMARK  9 active torsions:
REMARK  status: ('A' for Active; 'I' for Inactive)
REMARK    1  A    between atoms: C2_2  and  N1_4 
REMARK    2  A    between atoms: C2_2  and  C12_16 
REMARK       I    between atoms: N1_4  and  C4_6 
REMARK    3  A    between atoms: C4_6  and  O2_8 
REMARK    4  A    between atoms: O2_8  and  C5_9 
REMARK    5  A    between atoms: C5_9  and  C6_10 
REMARK    6  A    between atoms: C12_16  and  N3_20 
REMARK    7  A    between atoms: N3_20  and  N4_22 
REMARK    8  A    between atoms: C13_24  and  C14_25 
REMARK    9  A    between atoms: C17_28  and  C18_29 
ROOT
HETATM    1  C12 UNL     1      -0.218   5.342  12.061  1.00  0.00     0.117 C 
HETATM    2  N2  UNL     1       0.965   5.797  12.333  1.00  0.00    -0.386 N 
ATOM      3  H21 UNL     1       1.009   6.457  13.109  1.00  0.00     0.157 HD
ATOM      4  H22 UNL     1       1.783   5.495  11.804  1.00  0.00     0.157 HD
ENDROOT
BRANCH   1   5
HETATM    5  C2  UNL     1      -0.280   4.381  10.931  1.00  0.00     0.087 C 
HETATM    6  C1  UNL     1       1.050   4.380  10.254  1.00  0.00     0.046 C 
HETATM    7  C3  UNL     1      -1.363   4.720   9.957  1.00  0.00     0.046 C 
BRANCH   5   8
HETATM    8  N1  UNL     1      -0.600   3.027  11.470  1.00  0.00    -0.321 N 
HETATM    9  C4  UNL     1      -0.409   1.943  10.504  1.00  0.00     0.361 C 
HETATM   10  O1  UNL     1      -0.142   1.555   9.546  1.00  0.00    -0.238 OA
ATOM     11  H1  UNL     1      -0.923   2.871  12.425  1.00  0.00     0.166 HD
BRANCH   9  12
HETATM   12  O2  UNL     1      -0.889   0.738  11.384  1.00  0.00    -0.299 OA
BRANCH  12  13
HETATM   13  C5  UNL     1      -1.699  -0.209  10.704  1.00  0.00     0.219 C 
BRANCH  13  14
HETATM   14  C6  UNL     1      -2.998   0.466  10.449  1.00  0.00    -0.034 A 
HETATM   15  C7  UNL     1      -3.636   1.210  11.411  1.00  0.00     0.009 A 
HETATM   16  C8  UNL     1      -4.854   1.834  11.156  1.00  0.00     0.001 A 
HETATM   17  C9  UNL     1      -5.397   1.687   9.911  1.00  0.00     0.000 A 
HETATM   18  C10 UNL     1      -4.812   0.957   8.907  1.00  0.00     0.001 A 
HETATM   19  C11 UNL     1      -3.583   0.345   9.220  1.00  0.00     0.009 A 
ENDBRANCH  13  14
ENDBRANCH  12  13
ENDBRANCH   9  12
ENDBRANCH   5   8
ENDBRANCH   1   5
BRANCH   1  20
HETATM   20  N3  UNL     1      -1.342   5.756  12.788  1.00  0.00    -0.288 N 
ATOM     21  H3  UNL     1      -1.704   6.687  12.581  1.00  0.00     0.188 HD
BRANCH  20  22
HETATM   22  N4  UNL     1      -2.026   5.015  13.779  1.00  0.00    -0.310 N 
HETATM   23  C13 UNL     1      -3.305   4.686  13.470  1.00  0.00     0.118 C 
ATOM     24  H4  UNL     1      -1.590   4.748  14.661  1.00  0.00     0.186 HD
BRANCH  23  25
HETATM   25  C14 UNL     1      -4.022   3.951  14.476  1.00  0.00    -0.019 A 
HETATM   26  C15 UNL     1      -5.296   4.188  14.905  1.00  0.00     0.013 A 
HETATM   27  C16 UNL     1      -5.926   3.457  15.923  1.00  0.00     0.017 A 
HETATM   28  C17 UNL     1      -5.223   2.451  16.528  1.00  0.00     0.048 A 
HETATM   29  C19 UNL     1      -3.909   2.202  16.104  1.00  0.00     0.017 A 
HETATM   30  C20 UNL     1      -3.331   2.922  15.111  1.00  0.00     0.013 A 
BRANCH  28  31
HETATM   31  C18 UNL     1      -5.770   1.478  17.539  1.00  0.00     0.417 C 
HETATM   32  F1  UNL     1      -5.845   2.086  18.796  1.00  0.00    -0.166 F 
HETATM   33  F2  UNL     1      -7.086   1.165  17.148  1.00  0.00    -0.166 F 
HETATM   34  F3  UNL     1      -5.072   0.296  17.591  1.00  0.00    -0.166 F 
ENDBRANCH  28  31
ENDBRANCH  23  25
ENDBRANCH  20  22
ENDBRANCH   1  20
TORSDOF 9
ENDMDL
