MODEL 1
REMARK VINA RESULT: -7.689782635      0.000      0.000
REMARK  8 active torsions:
REMARK  status: ('A' for Active; 'I' for Inactive)
REMARK    1  A    between atoms: O1_2  and  C2_3 
REMARK    2  A    between atoms: C5_6  and  C6_7 
REMARK    3  A    between atoms: C6_7  and  N2_11 
REMARK    4  A    between atoms: N2_11  and  C7_13 
REMARK    5  A    between atoms: C7_13  and  N3_14 
REMARK    6  A    between atoms: C7_13  and  C12_21 
REMARK       I    between atoms: N3_14  and  C8_16 
REMARK    7  A    between atoms: C8_16  and  C9_18 
REMARK    8  A    between atoms: C14_26  and  N4_27 
ROOT
HETATM    1  C6  UNL     1      -3.881   4.742  13.116  1.00  0.00     0.106 C 
HETATM    2  N1  UNL     1      -4.342   5.844  12.654  1.00  0.00    -0.385 N 
ATOM      3  H11 UNL     1      -3.934   6.346  11.865  1.00  0.00     0.157 HD
ATOM      4  H12 UNL     1      -5.166   6.261  13.086  1.00  0.00     0.157 HD
ENDROOT
BRANCH   1   5
HETATM    5  C5  UNL     1      -4.470   4.017  14.255  1.00  0.00     0.010 A 
HETATM    6  C4  UNL     1      -5.428   4.592  15.064  1.00  0.00     0.018 A 
HETATM    7  C3  UNL     1      -5.971   3.884  16.138  1.00  0.00     0.040 A 
HETATM    8  C2  UNL     1      -5.584   2.596  16.436  1.00  0.00     0.101 A 
HETATM    9  C14 UNL     1      -4.622   2.026  15.620  1.00  0.00     0.137 A 
HETATM   10  C13 UNL     1      -4.081   2.727  14.553  1.00  0.00     0.054 A 
BRANCH   8  11
HETATM   11  O1  UNL     1      -6.131   1.901  17.507  1.00  0.00    -0.353 OA
HETATM   12  C1  UNL     1      -5.637   2.171  18.806  1.00  0.00     0.210 C 
ENDBRANCH   8  11
BRANCH   9  13
HETATM   13  N4  UNL     1      -4.226   0.701  15.928  1.00  0.00    -0.113 N 
HETATM   14  O3  UNL     1      -3.022   0.409  15.943  1.00  0.00    -0.532 OA
HETATM   15  O4  UNL     1      -5.189  -0.226  16.202  1.00  0.00    -0.532 OA
ENDBRANCH   9  13
ENDBRANCH   1   5
BRANCH   1  16
HETATM   16  N2  UNL     1      -2.725   4.157  12.509  1.00  0.00    -0.351 N 
ATOM     17  H2  UNL     1      -1.852   4.051  13.025  1.00  0.00     0.163 HD
BRANCH  16  18
HETATM   18  C7  UNL     1      -2.845   3.721  11.135  1.00  0.00     0.240 C 
BRANCH  18  19
HETATM   19  N3  UNL     1      -2.836   2.283  11.089  1.00  0.00    -0.336 N 
HETATM   20  C8  UNL     1      -4.035   1.522  11.142  1.00  0.00     0.222 C 
HETATM   21  O2  UNL     1      -5.126   2.131  11.231  1.00  0.00    -0.273 OA
ATOM     22  H3  UNL     1      -1.943   1.795  11.016  1.00  0.00     0.164 HD
BRANCH  20  23
HETATM   23  C9  UNL     1      -4.036   0.047  11.095  1.00  0.00     0.070 C 
HETATM   24  C10 UNL     1      -3.008  -0.406  10.088  1.00  0.00     0.019 C 
HETATM   25  C11 UNL     1      -3.571  -0.465  12.462  1.00  0.00     0.019 C 
ENDBRANCH  20  23
ENDBRANCH  18  19
BRANCH  18  26
HETATM   26  C12 UNL     1      -1.717   4.334  10.311  1.00  0.00     0.226 C 
HETATM   27 CL1  UNL     1      -0.445   3.099  10.173  1.00  0.00    -0.080 Cl
HETATM   28 CL2  UNL     1      -1.052   5.751  11.111  1.00  0.00    -0.080 Cl
HETATM   29 CL3  UNL     1      -2.293   4.698   8.664  1.00  0.00    -0.080 Cl
ENDBRANCH  18  26
ENDBRANCH  16  18
ENDBRANCH   1  16
TORSDOF 8
ENDMDL
MODEL 2
REMARK VINA RESULT: -7.668112722      1.125      1.210
REMARK  8 active torsions:
REMARK  status: ('A' for Active; 'I' for Inactive)
REMARK    1  A    between atoms: O1_2  and  C2_3 
REMARK    2  A    between atoms: C5_6  and  C6_7 
REMARK    3  A    between atoms: C6_7  and  N2_11 
REMARK    4  A    between atoms: N2_11  and  C7_13 
REMARK    5  A    between atoms: C7_13  and  N3_14 
REMARK    6  A    between atoms: C7_13  and  C12_21 
REMARK       I    between atoms: N3_14  and  C8_16 
REMARK    7  A    between atoms: C8_16  and  C9_18 
REMARK    8  A    between atoms: C14_26  and  N4_27 
ROOT
HETATM    1  C6  UNL     1      -3.511   4.909  12.728  1.00  0.00     0.106 C 
HETATM    2  N1  UNL     1      -4.028   5.982  12.257  1.00  0.00    -0.385 N 
ATOM      3  H11 UNL     1      -3.592   6.554  11.534  1.00  0.00     0.157 HD
ATOM      4  H12 UNL     1      -4.929   6.300  12.613  1.00  0.00     0.157 HD
ENDROOT
BRANCH   1   5
HETATM    5  C5  UNL     1      -4.140   4.082  13.773  1.00  0.00     0.010 A 
HETATM    6  C4  UNL     1      -5.185   4.554  14.540  1.00  0.00     0.018 A 
HETATM    7  C3  UNL     1      -5.765   3.751  15.525  1.00  0.00     0.040 A 
HETATM    8  C2  UNL     1      -5.330   2.468  15.772  1.00  0.00     0.101 A 
HETATM    9  C14 UNL     1      -4.281   2.001  14.997  1.00  0.00     0.137 A 
HETATM   10  C13 UNL     1      -3.704   2.797  14.020  1.00  0.00     0.054 A 
BRANCH   8  11
HETATM   11  O1  UNL     1      -5.914   1.677  16.753  1.00  0.00    -0.353 OA
HETATM   12  C1  UNL     1      -5.636   1.975  18.109  1.00  0.00     0.210 C 
ENDBRANCH   8  11
BRANCH   9  13
HETATM   13  N4  UNL     1      -3.836   0.680  15.254  1.00  0.00    -0.113 N 
HETATM   14  O3  UNL     1      -2.951   0.486  16.097  1.00  0.00    -0.532 OA
HETATM   15  O4  UNL     1      -4.398  -0.349  14.557  1.00  0.00    -0.532 OA
ENDBRANCH   9  13
ENDBRANCH   1   5
BRANCH   1  16
HETATM   16  N2  UNL     1      -2.247   4.463  12.230  1.00  0.00    -0.351 N 
ATOM     17  H2  UNL     1      -1.430   4.398  12.837  1.00  0.00     0.163 HD
BRANCH  16  18
HETATM   18  C7  UNL     1      -2.173   4.106  10.830  1.00  0.00     0.240 C 
BRANCH  18  19
HETATM   19  N3  UNL     1      -2.798   2.827  10.630  1.00  0.00    -0.336 N 
HETATM   20  C8  UNL     1      -4.156   2.709  10.226  1.00  0.00     0.222 C 
HETATM   21  O2  UNL     1      -4.817   3.757  10.041  1.00  0.00    -0.273 OA
ATOM     22  H3  UNL     1      -2.252   1.979  10.783  1.00  0.00     0.164 HD
BRANCH  20  23
HETATM   23  C9  UNL     1      -4.807   1.401  10.019  1.00  0.00     0.070 C 
HETATM   24  C10 UNL     1      -4.476   0.911   8.631  1.00  0.00     0.019 C 
HETATM   25  C11 UNL     1      -4.181   0.405  11.000  1.00  0.00     0.019 C 
ENDBRANCH  20  23
ENDBRANCH  18  19
BRANCH  18  26
HETATM   26  C12 UNL     1      -0.713   4.114  10.383  1.00  0.00     0.226 C 
HETATM   27 CL1  UNL     1      -0.213   2.416  10.222  1.00  0.00    -0.080 Cl
HETATM   28 CL2  UNL     1       0.307   4.898  11.581  1.00  0.00    -0.080 Cl
HETATM   29 CL3  UNL     1      -0.571   4.872   8.776  1.00  0.00    -0.080 Cl
ENDBRANCH  18  26
ENDBRANCH  16  18
ENDBRANCH   1  16
TORSDOF 8
ENDMDL
MODEL 3
REMARK VINA RESULT: -7.663832527      1.123      1.529
REMARK  8 active torsions:
REMARK  status: ('A' for Active; 'I' for Inactive)
REMARK    1  A    between atoms: O1_2  and  C2_3 
REMARK    2  A    between atoms: C5_6  and  C6_7 
REMARK    3  A    between atoms: C6_7  and  N2_11 
REMARK    4  A    between atoms: N2_11  and  C7_13 
REMARK    5  A    between atoms: C7_13  and  N3_14 
REMARK    6  A    between atoms: C7_13  and  C12_21 
REMARK       I    between atoms: N3_14  and  C8_16 
REMARK    7  A    between atoms: C8_16  and  C9_18 
REMARK    8  A    between atoms: C14_26  and  N4_27 
ROOT
HETATM    1  C6  UNL     1      -3.644   4.823  12.611  1.00  0.00     0.106 C 
HETATM    2  N1  UNL     1      -4.231   5.842  12.105  1.00  0.00    -0.385 N 
ATOM      3  H11 UNL     1      -3.860   6.385  11.325  1.00  0.00     0.157 HD
ATOM      4  H12 UNL     1      -5.125   6.146  12.491  1.00  0.00     0.157 HD
ENDROOT
BRANCH   1   5
HETATM    5  C5  UNL     1      -4.180   4.039  13.737  1.00  0.00     0.010 A 
HETATM    6  C4  UNL     1      -5.121   4.560  14.601  1.00  0.00     0.018 A 
HETATM    7  C3  UNL     1      -5.614   3.796  15.662  1.00  0.00     0.040 A 
HETATM    8  C2  UNL     1      -5.192   2.506  15.892  1.00  0.00     0.101 A 
HETATM    9  C14 UNL     1      -4.247   1.990  15.021  1.00  0.00     0.137 A 
HETATM   10  C13 UNL     1      -3.756   2.746  13.968  1.00  0.00     0.054 A 
BRANCH   8  11
HETATM   11  O1  UNL     1      -5.689   1.756  16.950  1.00  0.00    -0.353 OA
HETATM   12  C1  UNL     1      -6.939   1.112  16.786  1.00  0.00     0.210 C 
ENDBRANCH   8  11
BRANCH   9  13
HETATM   13  N4  UNL     1      -3.814   0.662  15.261  1.00  0.00    -0.113 N 
HETATM   14  O3  UNL     1      -2.929   0.449  16.099  1.00  0.00    -0.532 OA
HETATM   15  O4  UNL     1      -4.390  -0.353  14.555  1.00  0.00    -0.532 OA
ENDBRANCH   9  13
ENDBRANCH   1   5
BRANCH   1  16
HETATM   16  N2  UNL     1      -2.390   4.397  12.071  1.00  0.00    -0.351 N 
ATOM     17  H2  UNL     1      -1.558   4.324  12.655  1.00  0.00     0.163 HD
BRANCH  16  18
HETATM   18  C7  UNL     1      -2.349   4.074  10.661  1.00  0.00     0.240 C 
BRANCH  18  19
HETATM   19  N3  UNL     1      -2.886   2.755  10.460  1.00  0.00    -0.336 N 
HETATM   20  C8  UNL     1      -4.253   2.542  10.133  1.00  0.00     0.222 C 
HETATM   21  O2  UNL     1      -5.003   3.539  10.020  1.00  0.00    -0.273 OA
ATOM     22  H3  UNL     1      -2.268   1.948  10.553  1.00  0.00     0.164 HD
BRANCH  20  23
HETATM   23  C9  UNL     1      -4.814   1.193   9.924  1.00  0.00     0.070 C 
HETATM   24  C10 UNL     1      -4.442   0.724   8.540  1.00  0.00     0.019 C 
HETATM   25  C11 UNL     1      -4.128   0.242  10.911  1.00  0.00     0.019 C 
ENDBRANCH  20  23
ENDBRANCH  18  19
BRANCH  18  26
HETATM   26  C12 UNL     1      -0.915   4.199  10.156  1.00  0.00     0.226 C 
HETATM   27 CL1  UNL     1      -0.030   5.177  11.348  1.00  0.00    -0.080 Cl
HETATM   28 CL2  UNL     1      -0.865   5.014   8.599  1.00  0.00    -0.080 Cl
HETATM   29 CL3  UNL     1      -0.145   2.593  10.100  1.00  0.00    -0.080 Cl
ENDBRANCH  18  26
ENDBRANCH  16  18
ENDBRANCH   1  16
TORSDOF 8
ENDMDL
MODEL 4
REMARK VINA RESULT: -7.411072778      1.129      1.365
REMARK  8 active torsions:
REMARK  status: ('A' for Active; 'I' for Inactive)
REMARK    1  A    between atoms: O1_2  and  C2_3 
REMARK    2  A    between atoms: C5_6  and  C6_7 
REMARK    3  A    between atoms: C6_7  and  N2_11 
REMARK    4  A    between atoms: N2_11  and  C7_13 
REMARK    5  A    between atoms: C7_13  and  N3_14 
REMARK    6  A    between atoms: C7_13  and  C12_21 
REMARK       I    between atoms: N3_14  and  C8_16 
REMARK    7  A    between atoms: C8_16  and  C9_18 
REMARK    8  A    between atoms: C14_26  and  N4_27 
ROOT
HETATM    1  C6  UNL     1      -3.921   5.019  12.996  1.00  0.00     0.106 C 
HETATM    2  N1  UNL     1      -4.256   6.252  12.905  1.00  0.00    -0.385 N 
ATOM      3  H11 UNL     1      -3.903   6.888  12.190  1.00  0.00     0.157 HD
ATOM      4  H12 UNL     1      -4.916   6.641  13.579  1.00  0.00     0.157 HD
ENDROOT
BRANCH   1   5
HETATM    5  C5  UNL     1      -4.432   4.101  14.028  1.00  0.00     0.010 A 
HETATM    6  C4  UNL     1      -5.443   4.470  14.892  1.00  0.00     0.018 A 
HETATM    7  C3  UNL     1      -5.910   3.582  15.863  1.00  0.00     0.040 A 
HETATM    8  C2  UNL     1      -5.393   2.313  16.001  1.00  0.00     0.101 A 
HETATM    9  C14 UNL     1      -4.379   1.949  15.131  1.00  0.00     0.137 A 
HETATM   10  C13 UNL     1      -3.914   2.830  14.167  1.00  0.00     0.054 A 
BRANCH   8  11
HETATM   11  O1  UNL     1      -5.866   1.437  16.970  1.00  0.00    -0.353 OA
HETATM   12  C1  UNL     1      -5.610   1.738  18.330  1.00  0.00     0.210 C 
ENDBRANCH   8  11
BRANCH   9  13
HETATM   13  N4  UNL     1      -3.850   0.643  15.276  1.00  0.00    -0.113 N 
HETATM   14  O3  UNL     1      -2.922   0.443  16.070  1.00  0.00    -0.532 OA
HETATM   15  O4  UNL     1      -4.382  -0.368  14.530  1.00  0.00    -0.532 OA
ENDBRANCH   9  13
ENDBRANCH   1   5
BRANCH   1  16
HETATM   16  N2  UNL     1      -2.996   4.474  12.051  1.00  0.00    -0.351 N 
ATOM     17  H2  UNL     1      -2.082   4.127  12.343  1.00  0.00     0.163 HD
BRANCH  16  18
HETATM   18  C7  UNL     1      -3.408   4.432  10.665  1.00  0.00     0.240 C 
BRANCH  18  19
HETATM   19  N3  UNL     1      -3.246   3.095  10.160  1.00  0.00    -0.336 N 
HETATM   20  C8  UNL     1      -4.225   2.088  10.373  1.00  0.00     0.222 C 
HETATM   21  O2  UNL     1      -5.255   2.383  11.022  1.00  0.00    -0.273 OA
ATOM     22  H3  UNL     1      -2.404   2.864   9.632  1.00  0.00     0.164 HD
BRANCH  20  23
HETATM   23  C9  UNL     1      -4.069   0.714   9.859  1.00  0.00     0.070 C 
HETATM   24  C10 UNL     1      -4.433   0.701   8.395  1.00  0.00     0.019 C 
HETATM   25  C11 UNL     1      -2.584   0.346   9.948  1.00  0.00     0.019 C 
ENDBRANCH  20  23
ENDBRANCH  18  19
BRANCH  18  26
HETATM   26  C12 UNL     1      -2.603   5.455   9.868  1.00  0.00     0.226 C 
HETATM   27 CL1  UNL     1      -1.117   5.776  10.790  1.00  0.00    -0.080 Cl
HETATM   28 CL2  UNL     1      -3.498   6.957   9.687  1.00  0.00    -0.080 Cl
HETATM   29 CL3  UNL     1      -2.122   4.763   8.297  1.00  0.00    -0.080 Cl
ENDBRANCH  18  26
ENDBRANCH  16  18
ENDBRANCH   1  16
TORSDOF 8
ENDMDL
MODEL 5
REMARK VINA RESULT: -7.395286565      3.694      6.911
REMARK  8 active torsions:
REMARK  status: ('A' for Active; 'I' for Inactive)
REMARK    1  A    between atoms: O1_2  and  C2_3 
REMARK    2  A    between atoms: C5_6  and  C6_7 
REMARK    3  A    between atoms: C6_7  and  N2_11 
REMARK    4  A    between atoms: N2_11  and  C7_13 
REMARK    5  A    between atoms: C7_13  and  N3_14 
REMARK    6  A    between atoms: C7_13  and  C12_21 
REMARK       I    between atoms: N3_14  and  C8_16 
REMARK    7  A    between atoms: C8_16  and  C9_18 
REMARK    8  A    between atoms: C14_26  and  N4_27 
ROOT
HETATM    1  C6  UNL     1      -3.747   0.568  14.390  1.00  0.00     0.106 C 
HETATM    2  N1  UNL     1      -3.654  -0.460  15.148  1.00  0.00    -0.385 N 
ATOM      3  H11 UNL     1      -3.719  -0.426  16.165  1.00  0.00     0.157 HD
ATOM      4  H12 UNL     1      -3.505  -1.378  14.729  1.00  0.00     0.157 HD
ENDROOT
BRANCH   1   5
HETATM    5  C5  UNL     1      -3.652   0.518  12.920  1.00  0.00     0.010 A 
HETATM    6  C4  UNL     1      -3.745  -0.672  12.227  1.00  0.00     0.018 A 
HETATM    7  C3  UNL     1      -3.652  -0.693  10.834  1.00  0.00     0.040 A 
HETATM    8  C2  UNL     1      -3.468   0.455  10.096  1.00  0.00     0.101 A 
HETATM    9  C14 UNL     1      -3.376   1.645  10.798  1.00  0.00     0.137 A 
HETATM   10  C13 UNL     1      -3.468   1.668  12.181  1.00  0.00     0.054 A 
BRANCH   8  11
HETATM   11  O1  UNL     1      -3.377   0.422   8.710  1.00  0.00    -0.353 OA
HETATM   12  C1  UNL     1      -4.573   0.311   7.962  1.00  0.00     0.210 C 
ENDBRANCH   8  11
BRANCH   9  13
HETATM   13  N4  UNL     1      -3.187   2.824  10.036  1.00  0.00    -0.113 N 
HETATM   14  O3  UNL     1      -4.160   3.540   9.765  1.00  0.00    -0.532 OA
HETATM   15  O4  UNL     1      -1.928   3.141   9.617  1.00  0.00    -0.532 OA
ENDBRANCH   9  13
ENDBRANCH   1   5
BRANCH   1  16
HETATM   16  N2  UNL     1      -3.955   1.855  14.977  1.00  0.00    -0.351 N 
ATOM     17  H2  UNL     1      -3.179   2.397  15.356  1.00  0.00     0.163 HD
BRANCH  16  18
HETATM   18  C7  UNL     1      -5.312   2.358  15.011  1.00  0.00     0.240 C 
BRANCH  18  19
HETATM   19  N3  UNL     1      -5.336   3.696  14.484  1.00  0.00    -0.336 N 
HETATM   20  C8  UNL     1      -4.202   4.550  14.548  1.00  0.00     0.222 C 
HETATM   21  O2  UNL     1      -3.155   4.114  15.081  1.00  0.00    -0.273 OA
ATOM     22  H3  UNL     1      -6.193   4.043  14.052  1.00  0.00     0.164 HD
BRANCH  20  23
HETATM   23  C9  UNL     1      -4.217   5.924  14.011  1.00  0.00     0.070 C 
HETATM   24  C10 UNL     1      -5.641   6.423  13.997  1.00  0.00     0.019 C 
HETATM   25  C11 UNL     1      -3.446   6.818  14.987  1.00  0.00     0.019 C 
ENDBRANCH  20  23
ENDBRANCH  18  19
BRANCH  18  26
HETATM   26  C12 UNL     1      -5.840   2.288  16.441  1.00  0.00     0.226 C 
HETATM   27 CL1  UNL     1      -4.468   1.837  17.478  1.00  0.00    -0.080 Cl
HETATM   28 CL2  UNL     1      -7.093   1.065  16.589  1.00  0.00    -0.080 Cl
HETATM   29 CL3  UNL     1      -6.403   3.897  16.963  1.00  0.00    -0.080 Cl
ENDBRANCH  18  26
ENDBRANCH  16  18
ENDBRANCH   1  16
TORSDOF 8
ENDMDL
