MODEL 1
REMARK VINA RESULT: -7.462269299      0.000      0.000
REMARK  10 active torsions:
REMARK  status: ('A' for Active; 'I' for Inactive)
REMARK       I    between atoms: N1_2  and  C2_4 
REMARK    1  A    between atoms: C2_4  and  C3_6 
REMARK    2  A    between atoms: C6_9  and  N2_10 
REMARK    3  A    between atoms: N2_10  and  C7_12 
REMARK    4  A    between atoms: C8_15  and  O2_16 
REMARK    5  A    between atoms: O2_16  and  C9_17 
REMARK    6  A    between atoms: C9_17  and  N4_18 
REMARK    7  A    between atoms: C9_17  and  C13_25 
REMARK    8  A    between atoms: C10_20  and  N5_22 
REMARK    9  A    between atoms: C13_25  and  O3_26 
REMARK   10  A    between atoms: C16_34  and  O4_35 
ROOT
HETATM    1  C7  UNL     1      -4.866   5.877  12.889  1.00  0.00     0.684 A 
HETATM    2  N3  UNL     1      -4.832   4.531  12.837  1.00  0.00    -0.168 N 
ATOM      3  H3  UNL     1      -4.553   4.083  11.964  1.00  0.00     0.186 HD
HETATM    4  C8  UNL     1      -5.151   3.754  13.887  1.00  0.00     0.183 A 
HETATM    5  C14 UNL     1      -5.535   4.338  15.089  1.00  0.00     0.101 A 
HETATM    6 CL1  UNL     1      -5.961   3.356  16.487  1.00  0.00    -0.078 Cl
HETATM    7  C15 UNL     1      -5.564   5.716  15.122  1.00  0.00     0.134 A 
HETATM    8  N6  UNL     1      -5.234   6.443  14.039  1.00  0.00    -0.200 N 
ATOM      9  H6  UNL     1      -5.267   7.461  14.099  1.00  0.00     0.183 HD
ENDROOT
BRANCH   1  10
HETATM   10  N2  UNL     1      -4.544   6.536  11.833  1.00  0.00    -0.189 N 
ATOM     11  H2  UNL     1      -3.681   6.262  11.365  1.00  0.00     0.184 HD
BRANCH  10  12
HETATM   12  C6  UNL     1      -5.253   7.581  11.267  1.00  0.00     0.082 A 
HETATM   13  C5  UNL     1      -6.253   7.347  10.356  1.00  0.00     0.034 A 
HETATM   14  C4  UNL     1      -6.987   8.336   9.765  1.00  0.00     0.019 A 
HETATM   15  C3  UNL     1      -6.711   9.662  10.101  1.00  0.00     0.034 A 
HETATM   16  C18 UNL     1      -5.720   9.933  11.006  1.00  0.00     0.056 A 
HETATM   17  C16 UNL     1      -4.998   8.893  11.583  1.00  0.00     0.096 A 
BRANCH  15  18
HETATM   18  C2  UNL     1      -7.455  10.749   9.500  1.00  0.00     0.251 C 
HETATM   19  N1  UNL     1      -8.358  10.528   8.455  1.00  0.00    -0.361 N 
HETATM   20  C1  UNL     1      -9.072  11.681   7.900  1.00  0.00     0.149 C 
ATOM     21  H1  UNL     1      -8.516   9.589   8.088  1.00  0.00     0.162 HD
HETATM   22  O1  UNL     1      -7.276  11.910   9.935  1.00  0.00    -0.268 OA
ENDBRANCH  15  18
BRANCH  17  23
HETATM   23  O4  UNL     1      -4.010   9.186  12.487  1.00  0.00    -0.354 OA
HETATM   24  C17 UNL     1      -4.270  10.018  13.599  1.00  0.00     0.210 C 
ENDBRANCH  17  23
ENDBRANCH  10  12
ENDBRANCH   1  10
BRANCH   4  25
HETATM   25  O2  UNL     1      -5.117   2.387  13.836  1.00  0.00    -0.302 OA
BRANCH  25  26
HETATM   26  C9  UNL     1      -3.974   1.594  14.030  1.00  0.00     0.290 C 
BRANCH  26  27
HETATM   27  N4  UNL     1      -3.673   0.764  12.896  1.00  0.00    -0.349 N 
HETATM   28  C10 UNL     1      -2.882   1.109  11.967  1.00  0.00     0.070 C 
HETATM   29  C11 UNL     1      -2.672   0.127  10.847  1.00  0.00     0.088 C 
ATOM     30  H4  UNL     1      -4.120  -0.150  12.835  1.00  0.00     0.163 HD
BRANCH  28  31
HETATM   31  N5  UNL     1      -2.180   2.326  11.882  1.00  0.00    -0.385 N 
HETATM   32  C12 UNL     1      -2.266   3.243  10.768  1.00  0.00     0.147 C 
ATOM     33  H5  UNL     1      -1.569   2.577  12.660  1.00  0.00     0.160 HD
ENDBRANCH  28  31
ENDBRANCH  26  27
BRANCH  26  34
HETATM   34  C13 UNL     1      -4.198   0.782  15.292  1.00  0.00     0.354 C 
HETATM   35  F1  UNL     1      -3.203   1.178  16.190  1.00  0.00    -0.215 F 
BRANCH  34  36
HETATM   36  O3  UNL     1      -4.045  -0.574  15.094  1.00  0.00    -0.364 OA
ATOM     37  H3  UNL     1      -4.865  -1.019  14.918  1.00  0.00     0.213 HD
ENDBRANCH  34  36
ENDBRANCH  26  34
ENDBRANCH  25  26
ENDBRANCH   4  25
TORSDOF 10
ENDMDL
MODEL 2
REMARK VINA RESULT: -7.324641736      4.629      6.641
REMARK  10 active torsions:
REMARK  status: ('A' for Active; 'I' for Inactive)
REMARK       I    between atoms: N1_2  and  C2_4 
REMARK    1  A    between atoms: C2_4  and  C3_6 
REMARK    2  A    between atoms: C6_9  and  N2_10 
REMARK    3  A    between atoms: N2_10  and  C7_12 
REMARK    4  A    between atoms: C8_15  and  O2_16 
REMARK    5  A    between atoms: O2_16  and  C9_17 
REMARK    6  A    between atoms: C9_17  and  N4_18 
REMARK    7  A    between atoms: C9_17  and  C13_25 
REMARK    8  A    between atoms: C10_20  and  N5_22 
REMARK    9  A    between atoms: C13_25  and  O3_26 
REMARK   10  A    between atoms: C16_34  and  O4_35 
ROOT
HETATM    1  C7  UNL     1      -0.963   5.190  13.136  1.00  0.00     0.684 A 
HETATM    2  N3  UNL     1      -1.494   4.166  13.831  1.00  0.00    -0.168 N 
ATOM      3  H3  UNL     1      -0.943   3.316  13.947  1.00  0.00     0.186 HD
HETATM    4  C8  UNL     1      -2.722   4.218  14.377  1.00  0.00     0.183 A 
HETATM    5  C14 UNL     1      -3.495   5.364  14.234  1.00  0.00     0.101 A 
HETATM    6 CL1  UNL     1      -5.108   5.472  14.935  1.00  0.00    -0.078 Cl
HETATM    7  C15 UNL     1      -2.934   6.401  13.520  1.00  0.00     0.134 A 
HETATM    8  N6  UNL     1      -1.700   6.293  12.994  1.00  0.00    -0.200 N 
ATOM      9  H6  UNL     1      -1.316   7.079  12.471  1.00  0.00     0.183 HD
ENDROOT
BRANCH   1  10
HETATM   10  N2  UNL     1       0.220   5.048  12.649  1.00  0.00    -0.189 N 
ATOM     11  H2  UNL     1       0.999   5.152  13.298  1.00  0.00     0.184 HD
BRANCH  10  12
HETATM   12  C6  UNL     1       0.539   4.768  11.332  1.00  0.00     0.082 A 
HETATM   13  C5  UNL     1       1.066   5.733  10.511  1.00  0.00     0.034 A 
HETATM   14  C4  UNL     1       1.401   5.517   9.204  1.00  0.00     0.019 A 
HETATM   15  C3  UNL     1       1.199   4.246   8.667  1.00  0.00     0.034 A 
HETATM   16  C18 UNL     1       0.674   3.258   9.457  1.00  0.00     0.056 A 
HETATM   17  C16 UNL     1       0.347   3.525  10.783  1.00  0.00     0.096 A 
BRANCH  15  18
HETATM   18  C2  UNL     1       1.531   3.963   7.287  1.00  0.00     0.251 C 
HETATM   19  N1  UNL     1       0.721   4.403   6.234  1.00  0.00    -0.361 N 
HETATM   20  C1  UNL     1       1.126   4.076   4.864  1.00  0.00     0.149 C 
ATOM     21  H1  UNL     1      -0.129   4.938   6.414  1.00  0.00     0.162 HD
HETATM   22  O1  UNL     1       2.570   3.307   7.042  1.00  0.00    -0.268 OA
ENDBRANCH  15  18
BRANCH  17  23
HETATM   23  O4  UNL     1      -0.176   2.522  11.557  1.00  0.00    -0.354 OA
HETATM   24  C17 UNL     1      -0.727   1.363  10.965  1.00  0.00     0.210 C 
ENDBRANCH  17  23
ENDBRANCH  10  12
ENDBRANCH   1  10
BRANCH   4  25
HETATM   25  O2  UNL     1      -3.264   3.178  15.084  1.00  0.00    -0.302 OA
BRANCH  25  26
HETATM   26  C9  UNL     1      -3.645   1.939  14.544  1.00  0.00     0.290 C 
BRANCH  26  27
HETATM   27  N4  UNL     1      -4.130   2.046  13.196  1.00  0.00    -0.349 N 
HETATM   28  C10 UNL     1      -4.047   1.108  12.347  1.00  0.00     0.070 C 
HETATM   29  C11 UNL     1      -4.601   1.376  10.974  1.00  0.00     0.088 C 
ATOM     30  H4  UNL     1      -4.563   2.922  12.906  1.00  0.00     0.163 HD
BRANCH  28  31
HETATM   31  N5  UNL     1      -3.484  -0.164  12.565  1.00  0.00    -0.385 N 
HETATM   32  C12 UNL     1      -3.404  -1.204  11.564  1.00  0.00     0.147 C 
ATOM     33  H5  UNL     1      -3.107  -0.364  13.491  1.00  0.00     0.160 HD
ENDBRANCH  28  31
ENDBRANCH  26  27
BRANCH  26  34
HETATM   34  C13 UNL     1      -4.679   1.339  15.479  1.00  0.00     0.354 C 
HETATM   35  F1  UNL     1      -4.416   1.873  16.743  1.00  0.00    -0.215 F 
BRANCH  34  36
HETATM   36  O3  UNL     1      -4.573  -0.031  15.591  1.00  0.00    -0.364 OA
ATOM     37  H3  UNL     1      -5.013  -0.376  16.359  1.00  0.00     0.213 HD
ENDBRANCH  34  36
ENDBRANCH  26  34
ENDBRANCH  25  26
ENDBRANCH   4  25
TORSDOF 10
ENDMDL
MODEL 3
REMARK VINA RESULT: -7.182882354      2.910      4.400
REMARK  10 active torsions:
REMARK  status: ('A' for Active; 'I' for Inactive)
REMARK       I    between atoms: N1_2  and  C2_4 
REMARK    1  A    between atoms: C2_4  and  C3_6 
REMARK    2  A    between atoms: C6_9  and  N2_10 
REMARK    3  A    between atoms: N2_10  and  C7_12 
REMARK    4  A    between atoms: C8_15  and  O2_16 
REMARK    5  A    between atoms: O2_16  and  C9_17 
REMARK    6  A    between atoms: C9_17  and  N4_18 
REMARK    7  A    between atoms: C9_17  and  C13_25 
REMARK    8  A    between atoms: C10_20  and  N5_22 
REMARK    9  A    between atoms: C13_25  and  O3_26 
REMARK   10  A    between atoms: C16_34  and  O4_35 
ROOT
HETATM    1  C7  UNL     1      -5.432   4.056  13.872  1.00  0.00     0.684 A 
HETATM    2  N3  UNL     1      -4.932   3.285  12.887  1.00  0.00    -0.168 N 
ATOM      3  H3  UNL     1      -4.948   3.642  11.931  1.00  0.00     0.186 HD
HETATM    4  C8  UNL     1      -4.413   2.065  13.110  1.00  0.00     0.183 A 
HETATM    5  C14 UNL     1      -4.378   1.554  14.402  1.00  0.00     0.101 A 
HETATM    6 CL1  UNL     1      -3.707  -0.040  14.737  1.00  0.00    -0.078 Cl
HETATM    7  C15 UNL     1      -4.894   2.357  15.397  1.00  0.00     0.134 A 
HETATM    8  N6  UNL     1      -5.402   3.571  15.114  1.00  0.00    -0.200 N 
ATOM      9  H6  UNL     1      -5.776   4.139  15.874  1.00  0.00     0.183 HD
ENDROOT
BRANCH   1  10
HETATM   10  N2  UNL     1      -5.908   5.210  13.562  1.00  0.00    -0.189 N 
ATOM     11  H2  UNL     1      -6.896   5.247  13.311  1.00  0.00     0.184 HD
BRANCH  10  12
HETATM   12  C6  UNL     1      -5.214   6.406  13.535  1.00  0.00     0.082 A 
HETATM   13  C5  UNL     1      -4.733   6.972  14.690  1.00  0.00     0.034 A 
HETATM   14  C4  UNL     1      -4.041   8.149  14.726  1.00  0.00     0.019 A 
HETATM   15  C3  UNL     1      -3.806   8.821  13.527  1.00  0.00     0.034 A 
HETATM   16  C18 UNL     1      -4.271   8.287  12.355  1.00  0.00     0.056 A 
HETATM   17  C16 UNL     1      -4.972   7.084  12.366  1.00  0.00     0.096 A 
BRANCH  15  18
HETATM   18  C2  UNL     1      -3.083  10.075  13.509  1.00  0.00     0.251 C 
HETATM   19  N1  UNL     1      -1.746  10.155  13.916  1.00  0.00    -0.361 N 
HETATM   20  C1  UNL     1      -1.084  11.461  13.869  1.00  0.00     0.149 C 
ATOM     21  H1  UNL     1      -1.245   9.326  14.237  1.00  0.00     0.162 HD
HETATM   22  O1  UNL     1      -3.678  11.105  13.120  1.00  0.00    -0.268 OA
ENDBRANCH  15  18
BRANCH  17  23
HETATM   23  O4  UNL     1      -5.429   6.567  11.182  1.00  0.00    -0.354 OA
HETATM   24  C17 UNL     1      -6.275   7.323  10.339  1.00  0.00     0.210 C 
ENDBRANCH  17  23
ENDBRANCH  10  12
ENDBRANCH   1  10
BRANCH   4  25
HETATM   25  O2  UNL     1      -3.904   1.281  12.110  1.00  0.00    -0.302 OA
BRANCH  25  26
HETATM   26  C9  UNL     1      -2.582   1.320  11.639  1.00  0.00     0.290 C 
BRANCH  26  27
HETATM   27  N4  UNL     1      -2.317   2.472  10.822  1.00  0.00    -0.349 N 
HETATM   28  C10 UNL     1      -1.692   3.495  11.237  1.00  0.00     0.070 C 
HETATM   29  C11 UNL     1      -1.495   4.620  10.258  1.00  0.00     0.088 C 
ATOM     30  H4  UNL     1      -2.648   2.468   9.858  1.00  0.00     0.163 HD
BRANCH  28  31
HETATM   31  N5  UNL     1      -1.164   3.679  12.528  1.00  0.00    -0.385 N 
HETATM   32  C12 UNL     1      -1.654   4.651  13.480  1.00  0.00     0.147 C 
ATOM     33  H5  UNL     1      -0.383   3.087  12.812  1.00  0.00     0.160 HD
ENDBRANCH  28  31
ENDBRANCH  26  27
BRANCH  26  34
HETATM   34  C13 UNL     1      -2.329   0.021  10.897  1.00  0.00     0.354 C 
HETATM   35  F1  UNL     1      -0.941  -0.119  10.822  1.00  0.00    -0.215 F 
BRANCH  34  36
HETATM   36  O3  UNL     1      -2.803   0.038   9.603  1.00  0.00    -0.364 OA
ATOM     37  H3  UNL     1      -2.204   0.454   8.993  1.00  0.00     0.213 HD
ENDBRANCH  34  36
ENDBRANCH  26  34
ENDBRANCH  25  26
ENDBRANCH   4  25
TORSDOF 10
ENDMDL
MODEL 4
REMARK VINA RESULT: -7.163278376      2.372      3.044
REMARK  10 active torsions:
REMARK  status: ('A' for Active; 'I' for Inactive)
REMARK       I    between atoms: N1_2  and  C2_4 
REMARK    1  A    between atoms: C2_4  and  C3_6 
REMARK    2  A    between atoms: C6_9  and  N2_10 
REMARK    3  A    between atoms: N2_10  and  C7_12 
REMARK    4  A    between atoms: C8_15  and  O2_16 
REMARK    5  A    between atoms: O2_16  and  C9_17 
REMARK    6  A    between atoms: C9_17  and  N4_18 
REMARK    7  A    between atoms: C9_17  and  C13_25 
REMARK    8  A    between atoms: C10_20  and  N5_22 
REMARK    9  A    between atoms: C13_25  and  O3_26 
REMARK   10  A    between atoms: C16_34  and  O4_35 
ROOT
HETATM    1  C7  UNL     1      -4.985   5.286  14.820  1.00  0.00     0.684 A 
HETATM    2  N3  UNL     1      -3.882   4.875  14.165  1.00  0.00    -0.168 N 
ATOM      3  H3  UNL     1      -3.281   5.577  13.732  1.00  0.00     0.186 HD
HETATM    4  C8  UNL     1      -3.540   3.579  14.058  1.00  0.00     0.183 A 
HETATM    5  C14 UNL     1      -4.340   2.602  14.639  1.00  0.00     0.101 A 
HETATM    6 CL1  UNL     1      -3.927   0.894  14.522  1.00  0.00    -0.078 Cl
HETATM    7  C15 UNL     1      -5.465   3.043  15.305  1.00  0.00     0.134 A 
HETATM    8  N6  UNL     1      -5.758   4.354  15.379  1.00  0.00    -0.200 N 
ATOM      9  H6  UNL     1      -6.598   4.644  15.879  1.00  0.00     0.183 HD
ENDROOT
BRANCH   1  10
HETATM   10  N2  UNL     1      -5.231   6.548  14.869  1.00  0.00    -0.189 N 
ATOM     11  H2  UNL     1      -5.141   6.999  15.779  1.00  0.00     0.184 HD
BRANCH  10  12
HETATM   12  C6  UNL     1      -5.605   7.355  13.809  1.00  0.00     0.082 A 
HETATM   13  C5  UNL     1      -6.483   6.907  12.854  1.00  0.00     0.034 A 
HETATM   14  C4  UNL     1      -6.888   7.657  11.786  1.00  0.00     0.019 A 
HETATM   15  C3  UNL     1      -6.387   8.951  11.652  1.00  0.00     0.034 A 
HETATM   16  C18 UNL     1      -5.509   9.431  12.586  1.00  0.00     0.056 A 
HETATM   17  C16 UNL     1      -5.122   8.631  13.657  1.00  0.00     0.096 A 
BRANCH  15  18
HETATM   18  C2  UNL     1      -6.780   9.786  10.537  1.00  0.00     0.251 C 
HETATM   19  N1  UNL     1      -6.278  11.084  10.382  1.00  0.00    -0.361 N 
HETATM   20  C1  UNL     1      -6.725  11.866   9.226  1.00  0.00     0.149 C 
ATOM     21  H1  UNL     1      -5.619  11.475  11.055  1.00  0.00     0.162 HD
HETATM   22  O1  UNL     1      -7.589   9.326   9.698  1.00  0.00    -0.268 OA
ENDBRANCH  15  18
BRANCH  17  23
HETATM   23  O4  UNL     1      -4.242   9.132  14.581  1.00  0.00    -0.354 OA
HETATM   24  C17 UNL     1      -3.275  10.094  14.213  1.00  0.00     0.210 C 
ENDBRANCH  17  23
ENDBRANCH  10  12
ENDBRANCH   1  10
BRANCH   4  25
HETATM   25  O2  UNL     1      -2.419   3.160  13.393  1.00  0.00    -0.302 OA
BRANCH  25  26
HETATM   26  C9  UNL     1      -2.295   3.048  11.999  1.00  0.00     0.290 C 
BRANCH  26  27
HETATM   27  N4  UNL     1      -1.936   1.723  11.577  1.00  0.00    -0.349 N 
HETATM   28  C10 UNL     1      -2.773   0.877  11.139  1.00  0.00     0.070 C 
HETATM   29  C11 UNL     1      -2.237  -0.471  10.737  1.00  0.00     0.088 C 
ATOM     30  H4  UNL     1      -0.955   1.447  11.633  1.00  0.00     0.163 HD
BRANCH  28  31
HETATM   31  N5  UNL     1      -4.158   1.077  10.992  1.00  0.00    -0.385 N 
HETATM   32  C12 UNL     1      -4.881   0.908   9.751  1.00  0.00     0.147 C 
ATOM     33  H5  UNL     1      -4.687   1.361  11.817  1.00  0.00     0.160 HD
ENDBRANCH  28  31
ENDBRANCH  26  27
BRANCH  26  34
HETATM   34  C13 UNL     1      -1.283   4.087  11.552  1.00  0.00     0.354 C 
HETATM   35  F1  UNL     1      -0.732   3.605  10.362  1.00  0.00    -0.215 F 
BRANCH  34  36
HETATM   36  O3  UNL     1      -0.243   4.243  12.443  1.00  0.00    -0.364 OA
ATOM     37  H3  UNL     1      -0.062   5.153  12.646  1.00  0.00     0.213 HD
ENDBRANCH  34  36
ENDBRANCH  26  34
ENDBRANCH  25  26
ENDBRANCH   4  25
TORSDOF 10
ENDMDL
MODEL 5
REMARK VINA RESULT: -7.134544161      3.144      4.617
REMARK  10 active torsions:
REMARK  status: ('A' for Active; 'I' for Inactive)
REMARK       I    between atoms: N1_2  and  C2_4 
REMARK    1  A    between atoms: C2_4  and  C3_6 
REMARK    2  A    between atoms: C6_9  and  N2_10 
REMARK    3  A    between atoms: N2_10  and  C7_12 
REMARK    4  A    between atoms: C8_15  and  O2_16 
REMARK    5  A    between atoms: O2_16  and  C9_17 
REMARK    6  A    between atoms: C9_17  and  N4_18 
REMARK    7  A    between atoms: C9_17  and  C13_25 
REMARK    8  A    between atoms: C10_20  and  N5_22 
REMARK    9  A    between atoms: C13_25  and  O3_26 
REMARK   10  A    between atoms: C16_34  and  O4_35 
ROOT
HETATM    1  C7  UNL     1      -5.356   4.357  15.021  1.00  0.00     0.684 A 
HETATM    2  N3  UNL     1      -4.513   3.975  14.042  1.00  0.00    -0.168 N 
ATOM      3  H3  UNL     1      -4.233   4.662  13.343  1.00  0.00     0.186 HD
HETATM    4  C8  UNL     1      -4.026   2.725  13.949  1.00  0.00     0.183 A 
HETATM    5  C14 UNL     1      -4.391   1.768  14.889  1.00  0.00     0.101 A 
HETATM    6 CL1  UNL     1      -3.774   0.121  14.803  1.00  0.00    -0.078 Cl
HETATM    7  C15 UNL     1      -5.254   2.179  15.883  1.00  0.00     0.134 A 
HETATM    8  N6  UNL     1      -5.711   3.443  15.926  1.00  0.00    -0.200 N 
ATOM      9  H6  UNL     1      -6.349   3.713  16.674  1.00  0.00     0.183 HD
ENDROOT
BRANCH   1  10
HETATM   10  N2  UNL     1      -5.771   5.575  15.027  1.00  0.00    -0.189 N 
ATOM     11  H2  UNL     1      -6.741   5.729  15.301  1.00  0.00     0.184 HD
BRANCH  10  12
HETATM   12  C6  UNL     1      -5.031   6.697  14.700  1.00  0.00     0.082 A 
HETATM   13  C5  UNL     1      -3.930   7.059  15.435  1.00  0.00     0.034 A 
HETATM   14  C4  UNL     1      -3.161   8.154  15.161  1.00  0.00     0.019 A 
HETATM   15  C3  UNL     1      -3.508   8.956  14.073  1.00  0.00     0.034 A 
HETATM   16  C18 UNL     1      -4.600   8.626  13.317  1.00  0.00     0.056 A 
HETATM   17  C16 UNL     1      -5.355   7.500  13.635  1.00  0.00     0.096 A 
BRANCH  15  18
HETATM   18  C2  UNL     1      -2.731  10.131  13.741  1.00  0.00     0.251 C 
HETATM   19  N1  UNL     1      -1.513  10.406  14.374  1.00  0.00    -0.361 N 
HETATM   20  C1  UNL     1      -0.786  11.617  13.982  1.00  0.00     0.149 C 
ATOM     21  H1  UNL     1      -1.140   9.781  15.088  1.00  0.00     0.162 HD
HETATM   22  O1  UNL     1      -3.170  10.913  12.867  1.00  0.00    -0.268 OA
ENDBRANCH  15  18
BRANCH  17  23
HETATM   23  O4  UNL     1      -6.445   7.188  12.864  1.00  0.00    -0.354 OA
HETATM   24  C17 UNL     1      -6.589   7.720  11.563  1.00  0.00     0.210 C 
ENDBRANCH  17  23
ENDBRANCH  10  12
ENDBRANCH   1  10
BRANCH   4  25
HETATM   25  O2  UNL     1      -3.168   2.335  12.956  1.00  0.00    -0.302 OA
BRANCH  25  26
HETATM   26  C9  UNL     1      -3.017   2.975  11.715  1.00  0.00     0.290 C 
BRANCH  26  27
HETATM   27  N4  UNL     1      -3.837   2.395  10.687  1.00  0.00    -0.349 N 
HETATM   28  C10 UNL     1      -4.067   1.151  10.594  1.00  0.00     0.070 C 
HETATM   29  C11 UNL     1      -4.948   0.701   9.460  1.00  0.00     0.088 C 
ATOM     30  H4  UNL     1      -4.257   3.016   9.996  1.00  0.00     0.163 HD
BRANCH  28  31
HETATM   31  N5  UNL     1      -3.577   0.149  11.451  1.00  0.00    -0.385 N 
HETATM   32  C12 UNL     1      -2.845  -1.017  11.010  1.00  0.00     0.147 C 
ATOM     33  H5  UNL     1      -3.749   0.252  12.451  1.00  0.00     0.160 HD
ENDBRANCH  28  31
ENDBRANCH  26  27
BRANCH  26  34
HETATM   34  C13 UNL     1      -1.542   2.933  11.363  1.00  0.00     0.354 C 
HETATM   35  F1  UNL     1      -1.471   3.044   9.972  1.00  0.00    -0.215 F 
BRANCH  34  36
HETATM   36  O3  UNL     1      -0.941   1.739  11.702  1.00  0.00    -0.364 OA
ATOM     37  H3  UNL     1      -0.166   1.854  12.240  1.00  0.00     0.213 HD
ENDBRANCH  34  36
ENDBRANCH  26  34
ENDBRANCH  25  26
ENDBRANCH   4  25
TORSDOF 10
ENDMDL
