MODEL 1
REMARK VINA RESULT: -8.148422274      0.000      0.000
REMARK  10 active torsions:
REMARK  status: ('A' for Active; 'I' for Inactive)
REMARK    1  A    between atoms: N1_2  and  C2_4 
REMARK    2  A    between atoms: C3_7  and  N3_8 
REMARK    3  A    between atoms: N3_8  and  C4_10 
REMARK    4  A    between atoms: C4_10  and  C5_11 
REMARK    5  A    between atoms: C5_11  and  O1_12 
REMARK    6  A    between atoms: O1_12  and  C6_13 
REMARK    7  A    between atoms: C10_17  and  O2_18 
REMARK    8  A    between atoms: O2_18  and  C11_19 
REMARK    9  A    between atoms: C13_26  and  N5_27 
REMARK   10  A    between atoms: N5_27  and  C14_29 
ROOT
HETATM    1  C14 UNL     1      -1.830   5.075  13.097  1.00  0.00     0.049 A 
HETATM    2  C15 UNL     1      -2.558   5.442  11.985  1.00  0.00     0.031 A 
HETATM    3  C16 UNL     1      -3.651   6.273  12.123  1.00  0.00     0.025 A 
HETATM    4  C17 UNL     1      -4.061   6.765  13.340  1.00  0.00     0.044 A 
HETATM    5  C18 UNL     1      -5.218   7.639  13.453  1.00  0.00     0.099 C 
HETATM    6  N6  UNL     1      -6.128   8.350  13.552  1.00  0.00    -0.191 NA
HETATM    7  C19 UNL     1      -3.334   6.400  14.455  1.00  0.00     0.025 A 
HETATM    8  C20 UNL     1      -2.246   5.573  14.322  1.00  0.00     0.031 A 
ENDROOT
BRANCH   1   9
HETATM    9  N5  UNL     1      -0.711   4.230  12.989  1.00  0.00    -0.191 N 
ATOM     10  H5  UNL     1      -0.052   4.164  13.764  1.00  0.00     0.184 HD
BRANCH   9  11
HETATM   11  C13 UNL     1      -0.506   3.531  11.911  1.00  0.00     0.711 A 
HETATM   12  N4  UNL     1      -1.034   2.302  11.789  1.00  0.00    -0.021 N 
HETATM   13  C3  UNL     1      -0.854   1.539  10.701  1.00  0.00     0.707 A 
ATOM     14  H4  UNL     1      -1.596   1.932  12.556  1.00  0.00     0.203 HD
HETATM   15  N2  UNL     1      -0.111   2.045   9.701  1.00  0.00    -0.022 N 
HETATM   16  C2  UNL     1       0.453   3.278   9.758  1.00  0.00     0.706 A 
ATOM     17  H2  UNL     1       0.036   1.478   8.866  1.00  0.00     0.203 HD
HETATM   18  N7  UNL     1       0.231   3.989  10.883  1.00  0.00    -0.021 N 
ATOM     19  H7  UNL     1       0.642   4.919  10.958  1.00  0.00     0.203 HD
BRANCH  13  20
HETATM   20  N3  UNL     1      -1.382   0.361  10.625  1.00  0.00    -0.223 N 
ATOM     21  H3  UNL     1      -0.824  -0.472  10.814  1.00  0.00     0.177 HD
BRANCH  20  22
HETATM   22  C4  UNL     1      -2.790   0.248  10.262  1.00  0.00     0.164 C 
BRANCH  22  23
HETATM   23  C5  UNL     1      -3.573  -0.312  11.400  1.00  0.00     0.196 C 
BRANCH  23  24
HETATM   24  O1  UNL     1      -3.312   0.186  12.653  1.00  0.00    -0.349 OA
BRANCH  24  25
HETATM   25  C6  UNL     1      -3.901   1.188  13.377  1.00  0.00     0.071 A 
HETATM   26  C7  UNL     1      -4.554   2.285  12.864  1.00  0.00     0.037 A 
HETATM   27  C8  UNL     1      -5.121   3.258  13.683  1.00  0.00     0.005 A 
HETATM   28  C9  UNL     1      -5.035   3.131  15.047  1.00  0.00     0.037 A 
HETATM   29  C10 UNL     1      -4.388   2.044  15.569  1.00  0.00     0.081 A 
HETATM   30  C12 UNL     1      -3.829   1.085  14.777  1.00  0.00     0.073 A 
BRANCH  29  31
HETATM   31  O2  UNL     1      -4.303   1.918  16.946  1.00  0.00    -0.255 OA
BRANCH  31  32
HETATM   32  C11 UNL     1      -5.401   1.322  17.612  1.00  0.00     0.530 C 
HETATM   33  F1  UNL     1      -5.609   1.887  18.854  1.00  0.00    -0.144 F 
HETATM   34  F2  UNL     1      -5.139  -0.030  17.830  1.00  0.00    -0.144 F 
HETATM   35  F3  UNL     1      -6.565   1.405  16.889  1.00  0.00    -0.144 F 
ENDBRANCH  31  32
ENDBRANCH  29  31
ENDBRANCH  24  25
ENDBRANCH  23  24
ENDBRANCH  22  23
ENDBRANCH  20  22
ENDBRANCH  13  20
BRANCH  16  36
HETATM   36  N1  UNL     1       1.169   3.753   8.787  1.00  0.00    -0.229 N 
HETATM   37  C1  UNL     1       0.703   3.509   7.432  1.00  0.00     0.165 C 
ATOM     38  H1  UNL     1       2.025   4.278   8.968  1.00  0.00     0.177 HD
ENDBRANCH  16  36
ENDBRANCH   9  11
ENDBRANCH   1   9
TORSDOF 10
ENDMDL
MODEL 2
REMARK VINA RESULT: -7.912663169      3.301      5.592
REMARK  10 active torsions:
REMARK  status: ('A' for Active; 'I' for Inactive)
REMARK    1  A    between atoms: N1_2  and  C2_4 
REMARK    2  A    between atoms: C3_7  and  N3_8 
REMARK    3  A    between atoms: N3_8  and  C4_10 
REMARK    4  A    between atoms: C4_10  and  C5_11 
REMARK    5  A    between atoms: C5_11  and  O1_12 
REMARK    6  A    between atoms: O1_12  and  C6_13 
REMARK    7  A    between atoms: C10_17  and  O2_18 
REMARK    8  A    between atoms: O2_18  and  C11_19 
REMARK    9  A    between atoms: C13_26  and  N5_27 
REMARK   10  A    between atoms: N5_27  and  C14_29 
ROOT
HETATM    1  C14 UNL     1      -5.410   5.518  13.839  1.00  0.00     0.049 A 
HETATM    2  C15 UNL     1      -5.346   6.397  12.777  1.00  0.00     0.031 A 
HETATM    3  C16 UNL     1      -4.791   7.648  12.953  1.00  0.00     0.025 A 
HETATM    4  C17 UNL     1      -4.287   8.074  14.160  1.00  0.00     0.044 A 
HETATM    5  C18 UNL     1      -3.709   9.399  14.313  1.00  0.00     0.099 C 
HETATM    6  N6  UNL     1      -3.231  10.447  14.442  1.00  0.00    -0.191 NA
HETATM    7  C19 UNL     1      -4.350   7.197  15.224  1.00  0.00     0.025 A 
HETATM    8  C20 UNL     1      -4.902   5.952  15.053  1.00  0.00     0.031 A 
ENDROOT
BRANCH   1   9
HETATM    9  N5  UNL     1      -5.970   4.237  13.691  1.00  0.00    -0.191 N 
ATOM     10  H5  UNL     1      -6.983   4.132  13.636  1.00  0.00     0.184 HD
BRANCH   9  11
HETATM   11  C13 UNL     1      -5.211   3.182  13.624  1.00  0.00     0.711 A 
HETATM   12  N4  UNL     1      -4.747   2.755  12.438  1.00  0.00    -0.021 N 
HETATM   13  C3  UNL     1      -3.963   1.675  12.313  1.00  0.00     0.707 A 
ATOM     14  H4  UNL     1      -5.001   3.274  11.597  1.00  0.00     0.203 HD
HETATM   15  N2  UNL     1      -3.640   1.005  13.432  1.00  0.00    -0.022 N 
HETATM   16  C2  UNL     1      -4.074   1.380  14.662  1.00  0.00     0.706 A 
ATOM     17  H2  UNL     1      -3.043   0.181  13.355  1.00  0.00     0.203 HD
HETATM   18  N7  UNL     1      -4.860   2.476  14.713  1.00  0.00    -0.021 N 
ATOM     19  H7  UNL     1      -5.205   2.783  15.623  1.00  0.00     0.203 HD
BRANCH  13  20
HETATM   20  N3  UNL     1      -3.537   1.299  11.151  1.00  0.00    -0.223 N 
ATOM     21  H3  UNL     1      -3.720   1.863  10.322  1.00  0.00     0.177 HD
BRANCH  20  22
HETATM   22  C4  UNL     1      -2.788   0.050  11.052  1.00  0.00     0.164 C 
BRANCH  22  23
HETATM   23  C5  UNL     1      -1.350   0.331  10.779  1.00  0.00     0.196 C 
BRANCH  23  24
HETATM   24  O1  UNL     1      -1.059   1.340   9.894  1.00  0.00    -0.349 OA
BRANCH  24  25
HETATM   25  C6  UNL     1      -0.494   2.574  10.072  1.00  0.00     0.071 A 
HETATM   26  C7  UNL     1       0.174   3.307   9.118  1.00  0.00     0.037 A 
HETATM   27  C8  UNL     1       0.721   4.557   9.394  1.00  0.00     0.005 A 
HETATM   28  C9  UNL     1       0.595   5.089  10.653  1.00  0.00     0.037 A 
HETATM   29  C10 UNL     1      -0.068   4.370  11.610  1.00  0.00     0.081 A 
HETATM   30  C12 UNL     1      -0.607   3.145  11.351  1.00  0.00     0.073 A 
BRANCH  29  31
HETATM   31  O2  UNL     1      -0.194   4.910  12.880  1.00  0.00    -0.255 OA
BRANCH  31  32
HETATM   32  C11 UNL     1      -1.476   5.372  13.265  1.00  0.00     0.530 C 
HETATM   33  F1  UNL     1      -2.252   5.688  12.169  1.00  0.00    -0.144 F 
HETATM   34  F2  UNL     1      -1.347   6.542  14.011  1.00  0.00    -0.144 F 
HETATM   35  F3  UNL     1      -2.153   4.462  14.038  1.00  0.00    -0.144 F 
ENDBRANCH  31  32
ENDBRANCH  29  31
ENDBRANCH  24  25
ENDBRANCH  23  24
ENDBRANCH  22  23
ENDBRANCH  20  22
ENDBRANCH  13  20
BRANCH  16  36
HETATM   36  N1  UNL     1      -3.756   0.725  15.735  1.00  0.00    -0.229 N 
HETATM   37  C1  UNL     1      -4.801   0.514  16.724  1.00  0.00     0.165 C 
ATOM     38  H1  UNL     1      -2.810   0.371  15.879  1.00  0.00     0.177 HD
ENDBRANCH  16  36
ENDBRANCH   9  11
ENDBRANCH   1   9
TORSDOF 10
ENDMDL
MODEL 3
REMARK VINA RESULT: -7.750741312      3.495      6.117
REMARK  10 active torsions:
REMARK  status: ('A' for Active; 'I' for Inactive)
REMARK    1  A    between atoms: N1_2  and  C2_4 
REMARK    2  A    between atoms: C3_7  and  N3_8 
REMARK    3  A    between atoms: N3_8  and  C4_10 
REMARK    4  A    between atoms: C4_10  and  C5_11 
REMARK    5  A    between atoms: C5_11  and  O1_12 
REMARK    6  A    between atoms: O1_12  and  C6_13 
REMARK    7  A    between atoms: C10_17  and  O2_18 
REMARK    8  A    between atoms: O2_18  and  C11_19 
REMARK    9  A    between atoms: C13_26  and  N5_27 
REMARK   10  A    between atoms: N5_27  and  C14_29 
ROOT
HETATM    1  C14 UNL     1      -4.408   4.322  14.636  1.00  0.00     0.049 A 
HETATM    2  C15 UNL     1      -3.395   3.397  14.784  1.00  0.00     0.031 A 
HETATM    3  C16 UNL     1      -3.639   2.212  15.447  1.00  0.00     0.025 A 
HETATM    4  C17 UNL     1      -4.867   1.896  15.979  1.00  0.00     0.044 A 
HETATM    5  C18 UNL     1      -5.092   0.638  16.672  1.00  0.00     0.099 C 
HETATM    6  N6  UNL     1      -5.287  -0.369  17.212  1.00  0.00    -0.191 NA
HETATM    7  C19 UNL     1      -5.883   2.820  15.833  1.00  0.00     0.025 A 
HETATM    8  C20 UNL     1      -5.644   4.000  15.175  1.00  0.00     0.031 A 
ENDROOT
BRANCH   1   9
HETATM    9  N5  UNL     1      -4.191   5.539  13.966  1.00  0.00    -0.191 N 
ATOM     10  H5  UNL     1      -4.968   5.999  13.491  1.00  0.00     0.184 HD
BRANCH   9  11
HETATM   11  C13 UNL     1      -3.011   6.086  13.944  1.00  0.00     0.711 A 
HETATM   12  N4  UNL     1      -2.028   5.549  13.203  1.00  0.00    -0.021 N 
HETATM   13  C3  UNL     1      -0.795   6.072  13.145  1.00  0.00     0.707 A 
ATOM     14  H4  UNL     1      -2.228   4.708  12.661  1.00  0.00     0.203 HD
HETATM   15  N2  UNL     1      -0.553   7.180  13.866  1.00  0.00    -0.022 N 
HETATM   16  C2  UNL     1      -1.499   7.775  14.636  1.00  0.00     0.706 A 
ATOM     17  H2  UNL     1       0.380   7.591  13.832  1.00  0.00     0.203 HD
HETATM   18  N7  UNL     1      -2.716   7.194  14.648  1.00  0.00    -0.021 N 
ATOM     19  H7  UNL     1      -3.449   7.615  15.219  1.00  0.00     0.203 HD
BRANCH  13  20
HETATM   20  N3  UNL     1       0.122   5.522  12.417  1.00  0.00    -0.223 N 
ATOM     21  H3  UNL     1       1.091   5.496  12.734  1.00  0.00     0.177 HD
BRANCH  20  22
HETATM   22  C4  UNL     1      -0.258   4.941  11.135  1.00  0.00     0.164 C 
BRANCH  22  23
HETATM   23  C5  UNL     1      -0.186   3.453  11.201  1.00  0.00     0.196 C 
BRANCH  23  24
HETATM   24  O1  UNL     1      -1.199   2.799  11.858  1.00  0.00    -0.349 OA
BRANCH  24  25
HETATM   25  C6  UNL     1      -2.223   2.013  11.404  1.00  0.00     0.071 A 
HETATM   26  C7  UNL     1      -3.556   2.355  11.368  1.00  0.00     0.037 A 
HETATM   27  C8  UNL     1      -4.530   1.484  10.889  1.00  0.00     0.005 A 
HETATM   28  C9  UNL     1      -4.165   0.242  10.433  1.00  0.00     0.037 A 
HETATM   29  C10 UNL     1      -2.842  -0.109  10.463  1.00  0.00     0.081 A 
HETATM   30  C12 UNL     1      -1.880   0.736  10.930  1.00  0.00     0.073 A 
BRANCH  29  31
HETATM   31  O2  UNL     1      -2.477  -1.364  10.002  1.00  0.00    -0.255 OA
BRANCH  31  32
HETATM   32  C11 UNL     1      -2.058  -2.312  10.966  1.00  0.00     0.530 C 
HETATM   33  F1  UNL     1      -2.306  -3.604  10.548  1.00  0.00    -0.144 F 
HETATM   34  F2  UNL     1      -2.778  -2.131  12.145  1.00  0.00    -0.144 F 
HETATM   35  F3  UNL     1      -0.726  -2.196  11.275  1.00  0.00    -0.144 F 
ENDBRANCH  31  32
ENDBRANCH  29  31
ENDBRANCH  24  25
ENDBRANCH  23  24
ENDBRANCH  22  23
ENDBRANCH  20  22
ENDBRANCH  13  20
BRANCH  16  36
HETATM   36  N1  UNL     1      -1.252   8.843  15.328  1.00  0.00    -0.229 N 
HETATM   37  C1  UNL     1      -0.053   9.594  14.993  1.00  0.00     0.165 C 
ATOM     38  H1  UNL     1      -1.875   9.145  16.077  1.00  0.00     0.177 HD
ENDBRANCH  16  36
ENDBRANCH   9  11
ENDBRANCH   1   9
TORSDOF 10
ENDMDL
MODEL 4
REMARK VINA RESULT: -7.628975805      3.443      6.259
REMARK  10 active torsions:
REMARK  status: ('A' for Active; 'I' for Inactive)
REMARK    1  A    between atoms: N1_2  and  C2_4 
REMARK    2  A    between atoms: C3_7  and  N3_8 
REMARK    3  A    between atoms: N3_8  and  C4_10 
REMARK    4  A    between atoms: C4_10  and  C5_11 
REMARK    5  A    between atoms: C5_11  and  O1_12 
REMARK    6  A    between atoms: O1_12  and  C6_13 
REMARK    7  A    between atoms: C10_17  and  O2_18 
REMARK    8  A    between atoms: O2_18  and  C11_19 
REMARK    9  A    between atoms: C13_26  and  N5_27 
REMARK   10  A    between atoms: N5_27  and  C14_29 
ROOT
HETATM    1  C14 UNL     1      -5.267   4.478  15.181  1.00  0.00     0.049 A 
HETATM    2  C15 UNL     1      -6.072   4.123  16.244  1.00  0.00     0.031 A 
HETATM    3  C16 UNL     1      -6.066   2.823  16.705  1.00  0.00     0.025 A 
HETATM    4  C17 UNL     1      -5.283   1.840  16.149  1.00  0.00     0.044 A 
HETATM    5  C18 UNL     1      -5.300   0.478  16.658  1.00  0.00     0.099 C 
HETATM    6  N6  UNL     1      -5.293  -0.606  17.067  1.00  0.00    -0.191 NA
HETATM    7  C19 UNL     1      -4.476   2.191  15.084  1.00  0.00     0.025 A 
HETATM    8  C20 UNL     1      -4.479   3.484  14.622  1.00  0.00     0.031 A 
ENDROOT
BRANCH   1   9
HETATM    9  N5  UNL     1      -5.251   5.795  14.687  1.00  0.00    -0.191 N 
ATOM     10  H5  UNL     1      -5.521   6.565  15.299  1.00  0.00     0.184 HD
BRANCH   9  11
HETATM   11  C13 UNL     1      -4.895   6.042  13.461  1.00  0.00     0.711 A 
HETATM   12  N4  UNL     1      -3.600   6.002  13.109  1.00  0.00    -0.021 N 
HETATM   13  C3  UNL     1      -3.180   6.250  11.860  1.00  0.00     0.707 A 
ATOM     14  H4  UNL     1      -2.906   5.774  13.821  1.00  0.00     0.203 HD
HETATM   15  N2  UNL     1      -4.110   6.549  10.936  1.00  0.00    -0.022 N 
HETATM   16  C2  UNL     1      -5.435   6.607  11.223  1.00  0.00     0.706 A 
ATOM     17  H2  UNL     1      -3.807   6.739   9.981  1.00  0.00     0.203 HD
HETATM   18  N7  UNL     1      -5.786   6.348  12.500  1.00  0.00    -0.021 N 
ATOM     19  H7  UNL     1      -6.774   6.385  12.749  1.00  0.00     0.203 HD
BRANCH  13  20
HETATM   20  N3  UNL     1      -1.922   6.200  11.563  1.00  0.00    -0.223 N 
ATOM     21  H3  UNL     1      -1.551   6.732  10.776  1.00  0.00     0.177 HD
BRANCH  20  22
HETATM   22  C4  UNL     1      -1.045   5.366  12.378  1.00  0.00     0.164 C 
BRANCH  22  23
HETATM   23  C5  UNL     1      -0.792   4.064  11.699  1.00  0.00     0.196 C 
BRANCH  23  24
HETATM   24  O1  UNL     1      -1.499   2.973  12.141  1.00  0.00    -0.349 OA
BRANCH  24  25
HETATM   25  C6  UNL     1      -2.437   2.185  11.529  1.00  0.00     0.071 A 
HETATM   26  C7  UNL     1      -3.761   2.504  11.329  1.00  0.00     0.037 A 
HETATM   27  C8  UNL     1      -4.644   1.632  10.698  1.00  0.00     0.005 A 
HETATM   28  C9  UNL     1      -4.194   0.415  10.254  1.00  0.00     0.037 A 
HETATM   29  C10 UNL     1      -2.880   0.087  10.446  1.00  0.00     0.081 A 
HETATM   30  C12 UNL     1      -2.006   0.931  11.064  1.00  0.00     0.073 A 
BRANCH  29  31
HETATM   31  O2  UNL     1      -2.428  -1.144   9.997  1.00  0.00    -0.255 OA
BRANCH  31  32
HETATM   32  C11 UNL     1      -2.073  -2.102  10.977  1.00  0.00     0.530 C 
HETATM   33  F1  UNL     1      -0.731  -2.034  11.292  1.00  0.00    -0.144 F 
HETATM   34  F2  UNL     1      -2.300  -3.385  10.482  1.00  0.00    -0.144 F 
HETATM   35  F3  UNL     1      -2.804  -1.970  12.131  1.00  0.00    -0.144 F 
ENDBRANCH  31  32
ENDBRANCH  29  31
ENDBRANCH  24  25
ENDBRANCH  23  24
ENDBRANCH  22  23
ENDBRANCH  20  22
ENDBRANCH  13  20
BRANCH  16  36
HETATM   36  N1  UNL     1      -6.322   6.898  10.323  1.00  0.00    -0.229 N 
HETATM   37  C1  UNL     1      -7.034   8.157  10.469  1.00  0.00     0.165 C 
ATOM     38  H1  UNL     1      -6.514   6.267   9.545  1.00  0.00     0.177 HD
ENDBRANCH  16  36
ENDBRANCH   9  11
ENDBRANCH   1   9
TORSDOF 10
ENDMDL
MODEL 5
REMARK VINA RESULT: -7.555417457      3.745      6.104
REMARK  10 active torsions:
REMARK  status: ('A' for Active; 'I' for Inactive)
REMARK    1  A    between atoms: N1_2  and  C2_4 
REMARK    2  A    between atoms: C3_7  and  N3_8 
REMARK    3  A    between atoms: N3_8  and  C4_10 
REMARK    4  A    between atoms: C4_10  and  C5_11 
REMARK    5  A    between atoms: C5_11  and  O1_12 
REMARK    6  A    between atoms: O1_12  and  C6_13 
REMARK    7  A    between atoms: C10_17  and  O2_18 
REMARK    8  A    between atoms: O2_18  and  C11_19 
REMARK    9  A    between atoms: C13_26  and  N5_27 
REMARK   10  A    between atoms: N5_27  and  C14_29 
ROOT
HETATM    1  C14 UNL     1      -5.376   5.472  13.902  1.00  0.00     0.049 A 
HETATM    2  C15 UNL     1      -5.983   6.578  13.343  1.00  0.00     0.031 A 
HETATM    3  C16 UNL     1      -5.414   7.825  13.501  1.00  0.00     0.025 A 
HETATM    4  C17 UNL     1      -4.249   8.029  14.201  1.00  0.00     0.044 A 
HETATM    5  C18 UNL     1      -3.675   9.356  14.349  1.00  0.00     0.099 C 
HETATM    6  N6  UNL     1      -3.201  10.408  14.459  1.00  0.00    -0.191 NA
HETATM    7  C19 UNL     1      -3.639   6.923  14.761  1.00  0.00     0.025 A 
HETATM    8  C20 UNL     1      -4.201   5.681  14.607  1.00  0.00     0.031 A 
ENDROOT
BRANCH   1   9
HETATM    9  N5  UNL     1      -5.930   4.187  13.759  1.00  0.00    -0.191 N 
ATOM     10  H5  UNL     1      -6.944   4.075  13.742  1.00  0.00     0.184 HD
BRANCH   9  11
HETATM   11  C13 UNL     1      -5.167   3.141  13.647  1.00  0.00     0.711 A 
HETATM   12  N4  UNL     1      -4.667   2.790  12.450  1.00  0.00    -0.021 N 
HETATM   13  C3  UNL     1      -3.876   1.721  12.279  1.00  0.00     0.707 A 
ATOM     14  H4  UNL     1      -4.899   3.361  11.637  1.00  0.00     0.203 HD
HETATM   15  N2  UNL     1      -3.583   0.982  13.363  1.00  0.00    -0.022 N 
HETATM   16  C2  UNL     1      -4.054   1.278  14.601  1.00  0.00     0.706 A 
ATOM     17  H2  UNL     1      -2.982   0.166  13.251  1.00  0.00     0.203 HD
HETATM   18  N7  UNL     1      -4.845   2.367  14.699  1.00  0.00    -0.021 N 
ATOM     19  H7  UNL     1      -5.217   2.616  15.616  1.00  0.00     0.203 HD
BRANCH  13  20
HETATM   20  N3  UNL     1      -3.415   1.420  11.109  1.00  0.00    -0.223 N 
ATOM     21  H3  UNL     1      -3.706   1.946  10.285  1.00  0.00     0.177 HD
BRANCH  20  22
HETATM   22  C4  UNL     1      -2.472   0.314  10.993  1.00  0.00     0.164 C 
BRANCH  22  23
HETATM   23  C5  UNL     1      -1.085   0.834  10.822  1.00  0.00     0.196 C 
BRANCH  23  24
HETATM   24  O1  UNL     1      -0.855   1.688   9.772  1.00  0.00    -0.349 OA
BRANCH  24  25
HETATM   25  C6  UNL     1      -0.447   2.994   9.731  1.00  0.00     0.071 A 
HETATM   26  C7  UNL     1       0.856   3.437   9.693  1.00  0.00     0.037 A 
HETATM   27  C8  UNL     1       1.175   4.792   9.657  1.00  0.00     0.005 A 
HETATM   28  C9  UNL     1       0.170   5.726   9.656  1.00  0.00     0.037 A 
HETATM   29  C10 UNL     1      -1.129   5.298   9.692  1.00  0.00     0.081 A 
HETATM   30  C12 UNL     1      -1.454   3.974   9.729  1.00  0.00     0.073 A 
BRANCH  29  31
HETATM   31  O2  UNL     1      -2.142   6.243   9.691  1.00  0.00    -0.255 OA
BRANCH  31  32
HETATM   32  C11 UNL     1      -2.820   6.469  10.913  1.00  0.00     0.530 C 
HETATM   33  F1  UNL     1      -3.966   5.706  11.005  1.00  0.00    -0.144 F 
HETATM   34  F2  UNL     1      -3.223   7.801  10.987  1.00  0.00    -0.144 F 
HETATM   35  F3  UNL     1      -2.032   6.215  12.008  1.00  0.00    -0.144 F 
ENDBRANCH  31  32
ENDBRANCH  29  31
ENDBRANCH  24  25
ENDBRANCH  23  24
ENDBRANCH  22  23
ENDBRANCH  20  22
ENDBRANCH  13  20
BRANCH  16  36
HETATM   36  N1  UNL     1      -3.765   0.557  15.639  1.00  0.00    -0.229 N 
HETATM   37  C1  UNL     1      -4.766   0.464  16.689  1.00  0.00     0.165 C 
ATOM     38  H1  UNL     1      -2.870   0.073  15.715  1.00  0.00     0.177 HD
ENDBRANCH  16  36
ENDBRANCH   9  11
ENDBRANCH   1   9
TORSDOF 10
ENDMDL
