MODEL 1
REMARK VINA RESULT: -8.109543522      0.000      0.000
REMARK  9 active torsions:
REMARK  status: ('A' for Active; 'I' for Inactive)
REMARK    1  A    between atoms: C2_2  and  O1_3 
REMARK    2  A    between atoms: O1_3  and  C3_4 
REMARK    3  A    between atoms: C4_5  and  C5_6 
REMARK    4  A    between atoms: C6_10  and  N1_11 
REMARK    5  A    between atoms: N1_11  and  C7_13 
REMARK    6  A    between atoms: C10_18  and  N3_19 
REMARK    7  A    between atoms: C13_23  and  C14_24 
REMARK    8  A    between atoms: C15_25  and  N4_26 
REMARK    9  A    between atoms: N8_37  and  O2_38 
ROOT
HETATM    1  C7  UNL     1      -2.979   4.067  11.282  1.00  0.00     0.684 A 
HETATM    2  N2  UNL     1      -2.500   3.681  10.084  1.00  0.00    -0.202 N 
ATOM      3  H2  UNL     1      -3.012   2.994   9.532  1.00  0.00     0.183 HD
HETATM    4  C8  UNL     1      -1.352   4.195   9.613  1.00  0.00     0.110 A 
HETATM    5  C9  UNL     1      -0.687   5.119  10.385  1.00  0.00     0.067 A 
HETATM    6  C10 UNL     1      -1.161   5.530  11.620  1.00  0.00     0.123 A 
HETATM    7  N7  UNL     1      -2.312   4.981  12.036  1.00  0.00    -0.176 N 
ATOM      8  H7  UNL     1      -2.697   5.257  12.939  1.00  0.00     0.186 HD
ENDROOT
BRANCH   1   9
HETATM    9  N1  UNL     1      -4.086   3.579  11.743  1.00  0.00    -0.191 N 
ATOM     10  H1  UNL     1      -4.981   3.986  11.476  1.00  0.00     0.184 HD
BRANCH   9  11
HETATM   11  C6  UNL     1      -4.034   2.474  12.620  1.00  0.00     0.070 A 
HETATM   12  C4  UNL     1      -4.303   2.654  13.951  1.00  0.00     0.128 A 
HETATM   13  C3  UNL     1      -4.274   1.615  14.878  1.00  0.00     0.186 A 
HETATM   14  N8  UNL     1      -3.971   0.374  14.464  1.00  0.00    -0.212 N 
HETATM   15  C19 UNL     1      -3.701   0.171  13.149  1.00  0.00     0.128 A 
HETATM   16  C18 UNL     1      -3.726   1.196  12.217  1.00  0.00     0.051 A 
BRANCH  12  17
HETATM   17  C5  UNL     1      -4.638   4.006  14.452  1.00  0.00     0.423 C 
HETATM   18  F1  UNL     1      -3.597   4.657  15.043  1.00  0.00    -0.166 F 
HETATM   19  F2  UNL     1      -5.260   4.777  13.484  1.00  0.00    -0.166 F 
HETATM   20  F3  UNL     1      -5.602   3.817  15.449  1.00  0.00    -0.166 F 
ENDBRANCH  12  17
BRANCH  13  21
HETATM   21  O1  UNL     1      -4.557   1.886  16.192  1.00  0.00    -0.334 OA
BRANCH  21  22
HETATM   22  C2  UNL     1      -5.210   1.057  17.090  1.00  0.00     0.173 C 
HETATM   23  C1  UNL     1      -6.712   1.023  16.861  1.00  0.00     0.034 C 
ENDBRANCH  21  22
ENDBRANCH  13  21
BRANCH  14  24
HETATM   24  O2  UNL     1      -3.917  -0.716  15.304  1.00  0.00    -0.281 OA
ATOM     25  H2  UNL     1      -4.319  -1.553  15.104  1.00  0.00     0.245 HD
ENDBRANCH  14  24
ENDBRANCH   9  11
ENDBRANCH   1   9
BRANCH   6  26
HETATM   26  N3  UNL     1      -0.440   6.484  12.377  1.00  0.00    -0.327 N 
HETATM   27  C11 UNL     1      -0.963   7.171  13.338  1.00  0.00     0.123 A 
HETATM   28  C12 UNL     1      -2.268   7.073  13.751  1.00  0.00     0.080 A 
HETATM   29  N6  UNL     1      -0.414   8.089  14.128  1.00  0.00    -0.285 N 
HETATM   30  C13 UNL     1      -2.475   7.967  14.817  1.00  0.00     0.053 A 
HETATM   31  N5  UNL     1      -1.315   8.561  15.008  1.00  0.00    -0.299 N 
ATOM     32  H5  UNL     1      -1.129   9.272  15.715  1.00  0.00     0.187 HD
ATOM     33  H6  UNL     1       0.559   8.392  14.075  1.00  0.00     0.188 HD
ATOM     34  H3  UNL     1       0.543   6.637  12.152  1.00  0.00     0.169 HD
BRANCH  30  35
HETATM   35  C14 UNL     1      -3.724   8.154  15.520  1.00  0.00     0.048 C 
HETATM   36  C15 UNL     1      -4.814   8.663  15.100  1.00  0.00     0.086 C 
BRANCH  36  37
HETATM   37  N4  UNL     1      -5.163   9.192  13.869  1.00  0.00    -0.398 N 
HETATM   38  C16 UNL     1      -6.258   8.598  13.087  1.00  0.00     0.148 C 
HETATM   39  C17 UNL     1      -4.463  10.322  13.238  1.00  0.00     0.148 C 
ENDBRANCH  36  37
ENDBRANCH  30  35
ENDBRANCH   6  26
TORSDOF 9
ENDMDL
MODEL 2
REMARK VINA RESULT: -7.846926734      2.084      4.616
REMARK  9 active torsions:
REMARK  status: ('A' for Active; 'I' for Inactive)
REMARK    1  A    between atoms: C2_2  and  O1_3 
REMARK    2  A    between atoms: O1_3  and  C3_4 
REMARK    3  A    between atoms: C4_5  and  C5_6 
REMARK    4  A    between atoms: C6_10  and  N1_11 
REMARK    5  A    between atoms: N1_11  and  C7_13 
REMARK    6  A    between atoms: C10_18  and  N3_19 
REMARK    7  A    between atoms: C13_23  and  C14_24 
REMARK    8  A    between atoms: C15_25  and  N4_26 
REMARK    9  A    between atoms: N8_37  and  O2_38 
ROOT
HETATM    1  C7  UNL     1      -5.388   6.101  13.476  1.00  0.00     0.684 A 
HETATM    2  N2  UNL     1      -6.473   6.898  13.476  1.00  0.00    -0.202 N 
ATOM      3  H2  UNL     1      -7.304   6.622  12.955  1.00  0.00     0.183 HD
HETATM    4  C8  UNL     1      -6.466   8.056  14.159  1.00  0.00     0.110 A 
HETATM    5  C9  UNL     1      -5.326   8.396  14.850  1.00  0.00     0.067 A 
HETATM    6  C10 UNL     1      -4.199   7.591  14.863  1.00  0.00     0.123 A 
HETATM    7  N7  UNL     1      -4.268   6.449  14.163  1.00  0.00    -0.176 N 
ATOM      8  H7  UNL     1      -3.461   5.826  14.147  1.00  0.00     0.186 HD
ENDROOT
BRANCH   1   9
HETATM    9  N1  UNL     1      -5.387   4.982  12.823  1.00  0.00    -0.191 N 
ATOM     10  H1  UNL     1      -5.669   4.954  11.844  1.00  0.00     0.184 HD
BRANCH   9  11
HETATM   11  C6  UNL     1      -4.989   3.803  13.488  1.00  0.00     0.070 A 
HETATM   12  C4  UNL     1      -4.218   2.882  12.828  1.00  0.00     0.128 A 
HETATM   13  C3  UNL     1      -3.784   1.696  13.415  1.00  0.00     0.186 A 
HETATM   14  N8  UNL     1      -4.127   1.428  14.685  1.00  0.00    -0.212 N 
HETATM   15  C19 UNL     1      -4.890   2.325  15.360  1.00  0.00     0.128 A 
HETATM   16  C18 UNL     1      -5.330   3.508  14.787  1.00  0.00     0.051 A 
BRANCH  12  17
HETATM   17  C5  UNL     1      -3.818   3.135  11.425  1.00  0.00     0.423 C 
HETATM   18  F1  UNL     1      -4.404   2.303  10.519  1.00  0.00    -0.166 F 
HETATM   19  F2  UNL     1      -3.955   4.470  11.081  1.00  0.00    -0.166 F 
HETATM   20  F3  UNL     1      -2.444   2.878  11.366  1.00  0.00    -0.166 F 
ENDBRANCH  12  17
BRANCH  13  21
HETATM   21  O1  UNL     1      -3.014   0.831  12.680  1.00  0.00    -0.334 OA
BRANCH  21  22
HETATM   22  C2  UNL     1      -3.440  -0.322  12.039  1.00  0.00     0.173 C 
HETATM   23  C1  UNL     1      -2.680  -0.582  10.749  1.00  0.00     0.034 C 
ENDBRANCH  21  22
ENDBRANCH  13  21
BRANCH  14  24
HETATM   24  O2  UNL     1      -3.747   0.283  15.351  1.00  0.00    -0.281 OA
ATOM     25  H2  UNL     1      -3.531   0.261  16.276  1.00  0.00     0.245 HD
ENDBRANCH  14  24
ENDBRANCH   9  11
ENDBRANCH   1   9
BRANCH   6  26
HETATM   26  N3  UNL     1      -3.051   7.986  15.590  1.00  0.00    -0.327 N 
HETATM   27  C11 UNL     1      -1.952   8.369  15.030  1.00  0.00     0.123 A 
HETATM   28  C12 UNL     1      -1.748   8.444  13.675  1.00  0.00     0.080 A 
HETATM   29  N6  UNL     1      -0.808   8.767  15.578  1.00  0.00    -0.285 N 
HETATM   30  C13 UNL     1      -0.439   8.902  13.437  1.00  0.00     0.053 A 
HETATM   31  N5  UNL     1       0.091   9.083  14.629  1.00  0.00    -0.299 N 
ATOM     32  H5  UNL     1       1.040   9.414  14.805  1.00  0.00     0.187 HD
ATOM     33  H6  UNL     1      -0.635   8.823  16.582  1.00  0.00     0.188 HD
ATOM     34  H3  UNL     1      -3.094   7.966  16.609  1.00  0.00     0.169 HD
BRANCH  30  35
HETATM   35  C14 UNL     1       0.149   9.111  12.134  1.00  0.00     0.048 C 
HETATM   36  C15 UNL     1       0.560   8.248  11.290  1.00  0.00     0.086 C 
BRANCH  36  37
HETATM   37  N4  UNL     1       0.581   6.865  11.332  1.00  0.00    -0.398 N 
HETATM   38  C16 UNL     1       1.809   6.149  11.713  1.00  0.00     0.148 C 
HETATM   39  C17 UNL     1      -0.567   6.020  10.966  1.00  0.00     0.148 C 
ENDBRANCH  36  37
ENDBRANCH  30  35
ENDBRANCH   6  26
TORSDOF 9
ENDMDL
MODEL 3
REMARK VINA RESULT: -7.823276603      3.324      5.447
REMARK  9 active torsions:
REMARK  status: ('A' for Active; 'I' for Inactive)
REMARK    1  A    between atoms: C2_2  and  O1_3 
REMARK    2  A    between atoms: O1_3  and  C3_4 
REMARK    3  A    between atoms: C4_5  and  C5_6 
REMARK    4  A    between atoms: C6_10  and  N1_11 
REMARK    5  A    between atoms: N1_11  and  C7_13 
REMARK    6  A    between atoms: C10_18  and  N3_19 
REMARK    7  A    between atoms: C13_23  and  C14_24 
REMARK    8  A    between atoms: C15_25  and  N4_26 
REMARK    9  A    between atoms: N8_37  and  O2_38 
ROOT
HETATM    1  C7  UNL     1      -4.329   6.075  13.773  1.00  0.00     0.684 A 
HETATM    2  N2  UNL     1      -4.561   6.833  14.861  1.00  0.00    -0.202 N 
ATOM      3  H2  UNL     1      -3.944   6.761  15.670  1.00  0.00     0.183 HD
HETATM    4  C8  UNL     1      -5.601   7.684  14.888  1.00  0.00     0.110 A 
HETATM    5  C9  UNL     1      -6.412   7.755  13.780  1.00  0.00     0.067 A 
HETATM    6  C10 UNL     1      -6.192   6.984  12.650  1.00  0.00     0.123 A 
HETATM    7  N7  UNL     1      -5.138   6.155  12.684  1.00  0.00    -0.176 N 
ATOM      8  H7  UNL     1      -4.940   5.570  11.873  1.00  0.00     0.186 HD
ENDROOT
BRANCH   1   9
HETATM    9  N1  UNL     1      -3.328   5.255  13.737  1.00  0.00    -0.191 N 
ATOM     10  H1  UNL     1      -2.382   5.600  13.575  1.00  0.00     0.184 HD
BRANCH   9  11
HETATM   11  C6  UNL     1      -3.565   3.877  13.925  1.00  0.00     0.070 A 
HETATM   12  C4  UNL     1      -3.187   2.987  12.955  1.00  0.00     0.128 A 
HETATM   13  C3  UNL     1      -3.385   1.612  13.067  1.00  0.00     0.186 A 
HETATM   14  N8  UNL     1      -3.971   1.122  14.171  1.00  0.00    -0.212 N 
HETATM   15  C19 UNL     1      -4.354   1.984  15.146  1.00  0.00     0.128 A 
HETATM   16  C18 UNL     1      -4.164   3.353  15.047  1.00  0.00     0.051 A 
BRANCH  12  17
HETATM   17  C5  UNL     1      -2.540   3.484  11.720  1.00  0.00     0.423 C 
HETATM   18  F1  UNL     1      -1.686   2.595  11.139  1.00  0.00    -0.166 F 
HETATM   19  F2  UNL     1      -3.463   3.992  10.821  1.00  0.00    -0.166 F 
HETATM   20  F3  UNL     1      -1.763   4.581  12.109  1.00  0.00    -0.166 F 
ENDBRANCH  12  17
BRANCH  13  21
HETATM   21  O1  UNL     1      -2.974   0.794  12.046  1.00  0.00    -0.334 OA
BRANCH  21  22
HETATM   22  C2  UNL     1      -3.779   0.017  11.228  1.00  0.00     0.173 C 
HETATM   23  C1  UNL     1      -4.515   0.844  10.186  1.00  0.00     0.034 C 
ENDBRANCH  21  22
ENDBRANCH  13  21
BRANCH  14  24
HETATM   24  O2  UNL     1      -4.210  -0.220  14.373  1.00  0.00    -0.281 OA
ATOM     25  H2  UNL     1      -4.976  -0.554  14.825  1.00  0.00     0.245 HD
ENDBRANCH  14  24
ENDBRANCH   9  11
ENDBRANCH   1   9
BRANCH   6  26
HETATM   26  N3  UNL     1      -7.056   7.093  11.535  1.00  0.00    -0.327 N 
HETATM   27  C11 UNL     1      -7.090   8.127  10.760  1.00  0.00     0.123 A 
HETATM   28  C12 UNL     1      -6.307   9.243  10.910  1.00  0.00     0.080 A 
HETATM   29  N6  UNL     1      -7.838   8.365   9.687  1.00  0.00    -0.285 N 
HETATM   30  C13 UNL     1      -6.616  10.156   9.885  1.00  0.00     0.053 A 
HETATM   31  N5  UNL     1      -7.555   9.573   9.167  1.00  0.00    -0.299 N 
ATOM     32  H5  UNL     1      -7.999   9.977   8.343  1.00  0.00     0.187 HD
ATOM     33  H6  UNL     1      -8.532   7.720   9.309  1.00  0.00     0.188 HD
ATOM     34  H3  UNL     1      -7.685   6.316  11.332  1.00  0.00     0.169 HD
BRANCH  30  35
HETATM   35  C14 UNL     1      -6.001  11.451   9.705  1.00  0.00     0.048 C 
HETATM   36  C15 UNL     1      -6.554  12.593   9.586  1.00  0.00     0.086 C 
BRANCH  36  37
HETATM   37  N4  UNL     1      -7.886  12.971   9.588  1.00  0.00    -0.398 N 
HETATM   38  C16 UNL     1      -8.730  12.732   8.407  1.00  0.00     0.148 C 
HETATM   39  C17 UNL     1      -8.535  13.661  10.713  1.00  0.00     0.148 C 
ENDBRANCH  36  37
ENDBRANCH  30  35
ENDBRANCH   6  26
TORSDOF 9
ENDMDL
MODEL 4
REMARK VINA RESULT: -7.812817511      3.128      5.251
REMARK  9 active torsions:
REMARK  status: ('A' for Active; 'I' for Inactive)
REMARK    1  A    between atoms: C2_2  and  O1_3 
REMARK    2  A    between atoms: O1_3  and  C3_4 
REMARK    3  A    between atoms: C4_5  and  C5_6 
REMARK    4  A    between atoms: C6_10  and  N1_11 
REMARK    5  A    between atoms: N1_11  and  C7_13 
REMARK    6  A    between atoms: C10_18  and  N3_19 
REMARK    7  A    between atoms: C13_23  and  C14_24 
REMARK    8  A    between atoms: C15_25  and  N4_26 
REMARK    9  A    between atoms: N8_37  and  O2_38 
ROOT
HETATM    1  C7  UNL     1      -4.199   5.644  13.434  1.00  0.00     0.684 A 
HETATM    2  N2  UNL     1      -4.075   6.307  14.599  1.00  0.00    -0.202 N 
ATOM      3  H2  UNL     1      -3.324   6.064  15.243  1.00  0.00     0.183 HD
HETATM    4  C8  UNL     1      -4.936   7.289  14.918  1.00  0.00     0.110 A 
HETATM    5  C9  UNL     1      -5.938   7.590  14.024  1.00  0.00     0.067 A 
HETATM    6  C10 UNL     1      -6.084   6.920  12.821  1.00  0.00     0.123 A 
HETATM    7  N7  UNL     1      -5.193   5.952  12.560  1.00  0.00    -0.176 N 
ATOM      8  H7  UNL     1      -5.264   5.434  11.684  1.00  0.00     0.186 HD
ENDROOT
BRANCH   1   9
HETATM    9  N1  UNL     1      -3.372   4.700  13.117  1.00  0.00    -0.191 N 
ATOM     10  H1  UNL     1      -2.571   4.893  12.516  1.00  0.00     0.184 HD
BRANCH   9  11
HETATM   11  C6  UNL     1      -3.594   3.399  13.618  1.00  0.00     0.070 A 
HETATM   12  C4  UNL     1      -3.694   2.347  12.746  1.00  0.00     0.128 A 
HETATM   13  C3  UNL     1      -3.911   1.035  13.161  1.00  0.00     0.186 A 
HETATM   14  N8  UNL     1      -4.030   0.773  14.473  1.00  0.00    -0.212 N 
HETATM   15  C19 UNL     1      -3.935   1.799  15.356  1.00  0.00     0.128 A 
HETATM   16  C18 UNL     1      -3.720   3.109  14.956  1.00  0.00     0.051 A 
BRANCH  12  17
HETATM   17  C5  UNL     1      -3.572   2.590  11.290  1.00  0.00     0.423 C 
HETATM   18  F1  UNL     1      -3.892   3.857  10.907  1.00  0.00    -0.166 F 
HETATM   19  F2  UNL     1      -2.341   2.186  10.800  1.00  0.00    -0.166 F 
HETATM   20  F3  UNL     1      -4.506   1.745  10.681  1.00  0.00    -0.166 F 
ENDBRANCH  12  17
BRANCH  13  21
HETATM   21  O1  UNL     1      -3.996   0.043  12.218  1.00  0.00    -0.334 OA
BRANCH  21  22
HETATM   22  C2  UNL     1      -3.103  -0.998  12.023  1.00  0.00     0.173 C 
HETATM   23  C1  UNL     1      -2.469  -0.967  10.642  1.00  0.00     0.034 C 
ENDBRANCH  21  22
ENDBRANCH  13  21
BRANCH  14  24
HETATM   24  O2  UNL     1      -4.246  -0.489  14.980  1.00  0.00    -0.281 OA
ATOM     25  H2  UNL     1      -4.729  -0.657  15.781  1.00  0.00     0.245 HD
ENDBRANCH  14  24
ENDBRANCH   9  11
ENDBRANCH   1   9
BRANCH   6  26
HETATM   26  N3  UNL     1      -7.132   7.268  11.936  1.00  0.00    -0.327 N 
HETATM   27  C11 UNL     1      -6.999   8.125  10.979  1.00  0.00     0.123 A 
HETATM   28  C12 UNL     1      -5.843   8.806  10.693  1.00  0.00     0.080 A 
HETATM   29  N6  UNL     1      -7.884   8.543  10.078  1.00  0.00    -0.285 N 
HETATM   30  C13 UNL     1      -6.072   9.647   9.588  1.00  0.00     0.053 A 
HETATM   31  N5  UNL     1      -7.330   9.449   9.251  1.00  0.00    -0.299 N 
ATOM     32  H5  UNL     1      -7.812   9.912   8.481  1.00  0.00     0.187 HD
ATOM     33  H6  UNL     1      -8.850   8.221  10.022  1.00  0.00     0.188 HD
ATOM     34  H3  UNL     1      -8.039   6.819  12.060  1.00  0.00     0.169 HD
BRANCH  30  35
HETATM   35  C14 UNL     1      -5.093  10.525   8.988  1.00  0.00     0.048 C 
HETATM   36  C15 UNL     1      -5.039  11.798   9.006  1.00  0.00     0.086 C 
BRANCH  36  37
HETATM   37  N4  UNL     1      -5.869  12.742   9.586  1.00  0.00    -0.398 N 
HETATM   38  C16 UNL     1      -7.129  13.128   8.932  1.00  0.00     0.148 C 
HETATM   39  C17 UNL     1      -5.550  13.449  10.836  1.00  0.00     0.148 C 
ENDBRANCH  36  37
ENDBRANCH  30  35
ENDBRANCH   6  26
TORSDOF 9
ENDMDL
MODEL 5
REMARK VINA RESULT: -7.794117904      3.262      5.408
REMARK  9 active torsions:
REMARK  status: ('A' for Active; 'I' for Inactive)
REMARK    1  A    between atoms: C2_2  and  O1_3 
REMARK    2  A    between atoms: O1_3  and  C3_4 
REMARK    3  A    between atoms: C4_5  and  C5_6 
REMARK    4  A    between atoms: C6_10  and  N1_11 
REMARK    5  A    between atoms: N1_11  and  C7_13 
REMARK    6  A    between atoms: C10_18  and  N3_19 
REMARK    7  A    between atoms: C13_23  and  C14_24 
REMARK    8  A    between atoms: C15_25  and  N4_26 
REMARK    9  A    between atoms: N8_37  and  O2_38 
ROOT
HETATM    1  C7  UNL     1      -4.269   5.729  13.335  1.00  0.00     0.684 A 
HETATM    2  N2  UNL     1      -4.182   6.419  14.487  1.00  0.00    -0.202 N 
ATOM      3  H2  UNL     1      -3.440   6.203  15.153  1.00  0.00     0.183 HD
HETATM    4  C8  UNL     1      -5.066   7.392  14.766  1.00  0.00     0.110 A 
HETATM    5  C9  UNL     1      -6.054   7.656  13.845  1.00  0.00     0.067 A 
HETATM    6  C10 UNL     1      -6.162   6.958  12.654  1.00  0.00     0.123 A 
HETATM    7  N7  UNL     1      -5.249   6.000  12.433  1.00  0.00    -0.176 N 
ATOM      8  H7  UNL     1      -5.292   5.462  11.568  1.00  0.00     0.186 HD
ENDROOT
BRANCH   1   9
HETATM    9  N1  UNL     1      -3.419   4.793  13.057  1.00  0.00    -0.191 N 
ATOM     10  H1  UNL     1      -2.604   4.989  12.476  1.00  0.00     0.184 HD
BRANCH   9  11
HETATM   11  C6  UNL     1      -3.636   3.496  13.570  1.00  0.00     0.070 A 
HETATM   12  C4  UNL     1      -3.732   2.435  12.709  1.00  0.00     0.128 A 
HETATM   13  C3  UNL     1      -3.944   1.127  13.138  1.00  0.00     0.186 A 
HETATM   14  N8  UNL     1      -4.062   0.878  14.452  1.00  0.00    -0.212 N 
HETATM   15  C19 UNL     1      -3.971   1.913  15.325  1.00  0.00     0.128 A 
HETATM   16  C18 UNL     1      -3.761   3.219  14.912  1.00  0.00     0.051 A 
BRANCH  12  17
HETATM   17  C5  UNL     1      -3.611   2.664  11.252  1.00  0.00     0.423 C 
HETATM   18  F1  UNL     1      -3.944   3.923  10.854  1.00  0.00    -0.166 F 
HETATM   19  F2  UNL     1      -2.375   2.267  10.767  1.00  0.00    -0.166 F 
HETATM   20  F3  UNL     1      -4.537   1.803  10.650  1.00  0.00    -0.166 F 
ENDBRANCH  12  17
BRANCH  13  21
HETATM   21  O1  UNL     1      -4.026   0.125  12.205  1.00  0.00    -0.334 OA
BRANCH  21  22
HETATM   22  C2  UNL     1      -3.141  -0.928  12.036  1.00  0.00     0.173 C 
HETATM   23  C1  UNL     1      -2.458  -0.900  10.679  1.00  0.00     0.034 C 
ENDBRANCH  21  22
ENDBRANCH  13  21
BRANCH  14  24
HETATM   24  O2  UNL     1      -4.274  -0.380  14.972  1.00  0.00    -0.281 OA
ATOM     25  H2  UNL     1      -4.858  -0.556  15.700  1.00  0.00     0.245 HD
ENDBRANCH  14  24
ENDBRANCH   9  11
ENDBRANCH   1   9
BRANCH   6  26
HETATM   26  N3  UNL     1      -7.196   7.268  11.739  1.00  0.00    -0.327 N 
HETATM   27  C11 UNL     1      -7.076   8.147  10.801  1.00  0.00     0.123 A 
HETATM   28  C12 UNL     1      -5.947   8.892  10.566  1.00  0.00     0.080 A 
HETATM   29  N6  UNL     1      -7.950   8.536   9.878  1.00  0.00    -0.285 N 
HETATM   30  C13 UNL     1      -6.182   9.739   9.467  1.00  0.00     0.053 A 
HETATM   31  N5  UNL     1      -7.417   9.483   9.085  1.00  0.00    -0.299 N 
ATOM     32  H5  UNL     1      -7.895   9.935   8.306  1.00  0.00     0.187 HD
ATOM     33  H6  UNL     1      -8.896   8.167   9.784  1.00  0.00     0.188 HD
ATOM     34  H3  UNL     1      -8.083   6.771  11.826  1.00  0.00     0.169 HD
BRANCH  30  35
HETATM   35  C14 UNL     1      -5.231  10.676   8.916  1.00  0.00     0.048 C 
HETATM   36  C15 UNL     1      -4.219  10.451   8.174  1.00  0.00     0.086 C 
BRANCH  36  37
HETATM   37  N4  UNL     1      -3.705   9.273   7.660  1.00  0.00    -0.398 N 
HETATM   38  C16 UNL     1      -4.211   8.731   6.389  1.00  0.00     0.148 C 
HETATM   39  C17 UNL     1      -2.679   8.466   8.339  1.00  0.00     0.148 C 
ENDBRANCH  36  37
ENDBRANCH  30  35
ENDBRANCH   6  26
TORSDOF 9
ENDMDL
