MODEL 1
REMARK VINA RESULT: -7.702438877      0.000      0.000
REMARK  9 active torsions:
REMARK  status: ('A' for Active; 'I' for Inactive)
REMARK    1  A    between atoms: C3_4  and  C4_5 
REMARK    2  A    between atoms: N2_11  and  C7_12 
REMARK    3  A    between atoms: C7_12  and  O3_13 
REMARK    4  A    between atoms: C7_12  and  C8_15 
REMARK    5  A    between atoms: C9_16  and  C10_17 
REMARK    6  A    between atoms: C10_17  and  N3_18 
REMARK    7  A    between atoms: C10_17  and  C14_26 
REMARK    8  A    between atoms: N3_18  and  C11_20 
REMARK    9  A    between atoms: C11_20  and  C13_22 
ROOT
HETATM    1  C7  UNL     1      -5.178   5.086  13.825  1.00  0.00     0.242 C 
ENDROOT
BRANCH   1   2
HETATM    2  N2  UNL     1      -4.075   5.873  13.508  1.00  0.00    -0.347 N 
HETATM    3  C3  UNL     1      -3.372   6.569  14.505  1.00  0.00     0.282 C 
HETATM    4  O1  UNL     1      -2.007   6.488  14.206  1.00  0.00    -0.354 OA
HETATM    5  C2  UNL     1      -1.847   5.784  13.045  1.00  0.00     0.142 C 
HETATM    6  C1  UNL     1      -1.087   4.485  13.236  1.00  0.00     0.042 C 
HETATM    7  C15 UNL     1      -3.219   5.531  12.440  1.00  0.00     0.109 C 
HETATM    8  C16 UNL     1      -3.431   6.592  11.350  1.00  0.00     0.035 C 
BRANCH   3   9
HETATM    9  C4  UNL     1      -3.840   7.984  14.560  1.00  0.00     0.118 A 
HETATM   10  C5  UNL     1      -4.959   8.440  15.222  1.00  0.00     0.126 A 
HETATM   11  N1  UNL     1      -5.008   9.753  15.017  1.00  0.00    -0.354 N 
HETATM   12  C6  UNL     1      -3.964  10.129  14.255  1.00  0.00     0.233 A 
ATOM     13  H1  UNL     1      -5.726  10.379  15.382  1.00  0.00     0.166 HD
HETATM   14  O2  UNL     1      -3.269   9.031  13.991  1.00  0.00    -0.304 OA
ENDBRANCH   3   9
ENDBRANCH   1   2
BRANCH   1  15
HETATM   15  O3  UNL     1      -6.379   5.570  13.265  1.00  0.00    -0.373 OA
ATOM     16  H3  UNL     1      -6.992   5.885  13.919  1.00  0.00     0.212 HD
ENDBRANCH   1  15
BRANCH   1  17
HETATM   17  C8  UNL     1      -5.072   3.625  13.546  1.00  0.00     0.024 C 
HETATM   18  C9  UNL     1      -4.383   2.821  14.315  1.00  0.00     0.009 C 
BRANCH  18  19
HETATM   19  C10 UNL     1      -4.230   1.326  14.092  1.00  0.00     0.202 C 
BRANCH  19  20
HETATM   20  N3  UNL     1      -3.330   1.101  13.036  1.00  0.00    -0.397 N 
ATOM     21  H3  UNL     1      -2.379   1.471  13.048  1.00  0.00     0.154 HD
BRANCH  20  22
HETATM   22  C11 UNL     1      -3.816   0.341  11.967  1.00  0.00     0.128 C 
HETATM   23  C12 UNL     1      -3.417  -1.109  12.058  1.00  0.00     0.036 C 
BRANCH  22  24
HETATM   24  C13 UNL     1      -3.454   0.904  10.598  1.00  0.00     0.207 C 
HETATM   25 CL1  UNL     1      -2.148  -0.114   9.898  1.00  0.00    -0.082 Cl
HETATM   26 CL2  UNL     1      -2.878   2.559  10.666  1.00  0.00    -0.082 Cl
HETATM   27 CL3  UNL     1      -4.865   0.727   9.498  1.00  0.00    -0.082 Cl
ENDBRANCH  22  24
ENDBRANCH  20  22
ENDBRANCH  19  20
BRANCH  19  28
HETATM   28  C14 UNL     1      -3.878   0.728  15.411  1.00  0.00     0.200 C 
HETATM   29  O4  UNL     1      -3.039   1.227  16.195  1.00  0.00    -0.646 OA
HETATM   30  O5  UNL     1      -4.503  -0.454  15.822  1.00  0.00    -0.646 OA
ENDBRANCH  19  28
ENDBRANCH  18  19
ENDBRANCH   1  17
TORSDOF 9
ENDMDL
MODEL 2
REMARK VINA RESULT: -7.484950802      1.053      1.322
REMARK  9 active torsions:
REMARK  status: ('A' for Active; 'I' for Inactive)
REMARK    1  A    between atoms: C3_4  and  C4_5 
REMARK    2  A    between atoms: N2_11  and  C7_12 
REMARK    3  A    between atoms: C7_12  and  O3_13 
REMARK    4  A    between atoms: C7_12  and  C8_15 
REMARK    5  A    between atoms: C9_16  and  C10_17 
REMARK    6  A    between atoms: C10_17  and  N3_18 
REMARK    7  A    between atoms: C10_17  and  C14_26 
REMARK    8  A    between atoms: N3_18  and  C11_20 
REMARK    9  A    between atoms: C11_20  and  C13_22 
ROOT
HETATM    1  C7  UNL     1      -3.486   5.083  14.644  1.00  0.00     0.242 C 
ENDROOT
BRANCH   1   2
HETATM    2  N2  UNL     1      -2.977   6.065  13.801  1.00  0.00    -0.347 N 
HETATM    3  C3  UNL     1      -2.272   7.167  14.315  1.00  0.00     0.282 C 
HETATM    4  O1  UNL     1      -1.204   7.436  13.452  1.00  0.00    -0.354 OA
HETATM    5  C2  UNL     1      -1.240   6.550  12.410  1.00  0.00     0.142 C 
HETATM    6  C1  UNL     1      -0.032   5.635  12.364  1.00  0.00     0.042 C 
HETATM    7  C15 UNL     1      -2.530   5.749  12.502  1.00  0.00     0.109 C 
HETATM    8  C16 UNL     1      -3.526   6.390  11.524  1.00  0.00     0.035 C 
BRANCH   3   9
HETATM    9  C4  UNL     1      -3.187   8.338  14.440  1.00  0.00     0.118 A 
HETATM   10  C5  UNL     1      -2.889   9.637  14.094  1.00  0.00     0.126 A 
HETATM   11  N1  UNL     1      -3.976  10.356  14.362  1.00  0.00    -0.354 N 
HETATM   12  C6  UNL     1      -4.935   9.554  14.860  1.00  0.00     0.233 A 
ATOM     13  H1  UNL     1      -4.067  11.362  14.213  1.00  0.00     0.166 HD
HETATM   14  O2  UNL     1      -4.427   8.330  14.897  1.00  0.00    -0.304 OA
ENDBRANCH   3   9
ENDBRANCH   1   2
BRANCH   1  15
HETATM   15  O3  UNL     1      -4.813   5.338  15.049  1.00  0.00    -0.373 OA
ATOM     16  H3  UNL     1      -5.456   4.868  14.530  1.00  0.00     0.212 HD
ENDBRANCH   1  15
BRANCH   1  17
HETATM   17  C8  UNL     1      -3.389   3.670  14.177  1.00  0.00     0.024 C 
HETATM   18  C9  UNL     1      -4.222   2.747  14.586  1.00  0.00     0.009 C 
BRANCH  18  19
HETATM   19  C10 UNL     1      -4.182   1.290  14.154  1.00  0.00     0.202 C 
BRANCH  19  20
HETATM   20  N3  UNL     1      -3.325   1.155  13.047  1.00  0.00    -0.397 N 
ATOM     21  H3  UNL     1      -2.390   1.561  13.034  1.00  0.00     0.154 HD
BRANCH  20  22
HETATM   22  C11 UNL     1      -3.834   0.430  11.964  1.00  0.00     0.128 C 
HETATM   23  C12 UNL     1      -3.441  -1.024  12.004  1.00  0.00     0.036 C 
BRANCH  22  24
HETATM   24  C13 UNL     1      -3.492   1.033  10.606  1.00  0.00     0.207 C 
HETATM   25 CL1  UNL     1      -2.017   0.216   9.983  1.00  0.00    -0.082 Cl
HETATM   26 CL2  UNL     1      -3.171   2.755  10.681  1.00  0.00    -0.082 Cl
HETATM   27 CL3  UNL     1      -4.805   0.641   9.443  1.00  0.00    -0.082 Cl
ENDBRANCH  22  24
ENDBRANCH  20  22
ENDBRANCH  19  20
BRANCH  19  28
HETATM   28  C14 UNL     1      -3.841   0.492  15.365  1.00  0.00     0.200 C 
HETATM   29  O4  UNL     1      -4.384  -0.601  15.650  1.00  0.00    -0.646 OA
HETATM   30  O5  UNL     1      -2.867   0.964  16.251  1.00  0.00    -0.646 OA
ENDBRANCH  19  28
ENDBRANCH  18  19
ENDBRANCH   1  17
TORSDOF 9
ENDMDL
MODEL 3
REMARK VINA RESULT: -7.278647047      1.509      3.005
REMARK  9 active torsions:
REMARK  status: ('A' for Active; 'I' for Inactive)
REMARK    1  A    between atoms: C3_4  and  C4_5 
REMARK    2  A    between atoms: N2_11  and  C7_12 
REMARK    3  A    between atoms: C7_12  and  O3_13 
REMARK    4  A    between atoms: C7_12  and  C8_15 
REMARK    5  A    between atoms: C9_16  and  C10_17 
REMARK    6  A    between atoms: C10_17  and  N3_18 
REMARK    7  A    between atoms: C10_17  and  C14_26 
REMARK    8  A    between atoms: N3_18  and  C11_20 
REMARK    9  A    between atoms: C11_20  and  C13_22 
ROOT
HETATM    1  C7  UNL     1      -4.459   5.281  14.651  1.00  0.00     0.242 C 
ENDROOT
BRANCH   1   2
HETATM    2  N2  UNL     1      -4.084   6.242  13.718  1.00  0.00    -0.347 N 
HETATM    3  C3  UNL     1      -3.579   5.872  12.460  1.00  0.00     0.282 C 
HETATM    4  O1  UNL     1      -4.107   6.752  11.508  1.00  0.00    -0.354 OA
HETATM    5  C2  UNL     1      -4.904   7.666  12.141  1.00  0.00     0.142 C 
HETATM    6  C1  UNL     1      -6.360   7.574  11.725  1.00  0.00     0.042 C 
HETATM    7  C15 UNL     1      -4.752   7.482  13.643  1.00  0.00     0.109 C 
HETATM    8  C16 UNL     1      -3.757   8.548  14.125  1.00  0.00     0.035 C 
BRANCH   3   9
HETATM    9  C4  UNL     1      -2.088   5.916  12.483  1.00  0.00     0.118 A 
HETATM   10  C5  UNL     1      -1.254   4.867  12.801  1.00  0.00     0.126 A 
HETATM   11  N1  UNL     1      -0.011   5.330  12.696  1.00  0.00    -0.354 N 
HETATM   12  C6  UNL     1      -0.042   6.624  12.325  1.00  0.00     0.233 A 
ATOM     13  H1  UNL     1       0.836   4.788  12.870  1.00  0.00     0.166 HD
HETATM   14  O2  UNL     1      -1.321   6.954  12.203  1.00  0.00    -0.304 OA
ENDBRANCH   3   9
ENDBRANCH   1   2
BRANCH   1  15
HETATM   15  O3  UNL     1      -5.589   5.658  15.407  1.00  0.00    -0.373 OA
ATOM     16  H3  UNL     1      -6.229   4.961  15.489  1.00  0.00     0.212 HD
ENDBRANCH   1  15
BRANCH   1  17
HETATM   17  C8  UNL     1      -4.657   3.890  14.151  1.00  0.00     0.024 C 
HETATM   18  C9  UNL     1      -3.944   2.887  14.594  1.00  0.00     0.009 C 
BRANCH  18  19
HETATM   19  C10 UNL     1      -4.090   1.446  14.130  1.00  0.00     0.202 C 
BRANCH  19  20
HETATM   20  N3  UNL     1      -3.273   1.233  13.007  1.00  0.00    -0.397 N 
ATOM     21  H3  UNL     1      -2.318   1.588  12.957  1.00  0.00     0.154 HD
BRANCH  20  22
HETATM   22  C11 UNL     1      -3.849   0.506  11.959  1.00  0.00     0.128 C 
HETATM   23  C12 UNL     1      -3.526  -0.964  12.028  1.00  0.00     0.036 C 
BRANCH  22  24
HETATM   24  C13 UNL     1      -3.520   1.056  10.576  1.00  0.00     0.207 C 
HETATM   25 CL1  UNL     1      -2.066   0.197   9.960  1.00  0.00    -0.082 Cl
HETATM   26 CL2  UNL     1      -3.175   2.775  10.584  1.00  0.00    -0.082 Cl
HETATM   27 CL3  UNL     1      -4.856   0.642   9.447  1.00  0.00    -0.082 Cl
ENDBRANCH  22  24
ENDBRANCH  20  22
ENDBRANCH  19  20
BRANCH  19  28
HETATM   28  C14 UNL     1      -3.833   0.584  15.318  1.00  0.00     0.200 C 
HETATM   29  O4  UNL     1      -4.398  -0.518  15.509  1.00  0.00    -0.646 OA
HETATM   30  O5  UNL     1      -2.918   1.002  16.289  1.00  0.00    -0.646 OA
ENDBRANCH  19  28
ENDBRANCH  18  19
ENDBRANCH   1  17
TORSDOF 9
ENDMDL
MODEL 4
REMARK VINA RESULT: -7.170866168      1.599      2.493
REMARK  9 active torsions:
REMARK  status: ('A' for Active; 'I' for Inactive)
REMARK    1  A    between atoms: C3_4  and  C4_5 
REMARK    2  A    between atoms: N2_11  and  C7_12 
REMARK    3  A    between atoms: C7_12  and  O3_13 
REMARK    4  A    between atoms: C7_12  and  C8_15 
REMARK    5  A    between atoms: C9_16  and  C10_17 
REMARK    6  A    between atoms: C10_17  and  N3_18 
REMARK    7  A    between atoms: C10_17  and  C14_26 
REMARK    8  A    between atoms: N3_18  and  C11_20 
REMARK    9  A    between atoms: C11_20  and  C13_22 
ROOT
HETATM    1  C7  UNL     1      -4.187   5.550  14.818  1.00  0.00     0.242 C 
ENDROOT
BRANCH   1   2
HETATM    2  N2  UNL     1      -3.529   6.427  13.962  1.00  0.00    -0.347 N 
HETATM    3  C3  UNL     1      -4.100   7.662  13.611  1.00  0.00     0.282 C 
HETATM    4  O1  UNL     1      -3.077   8.617  13.582  1.00  0.00    -0.354 OA
HETATM    5  C2  UNL     1      -1.890   8.007  13.881  1.00  0.00     0.142 C 
HETATM    6  C1  UNL     1      -1.268   8.515  15.168  1.00  0.00     0.042 C 
HETATM    7  C15 UNL     1      -2.121   6.505  13.942  1.00  0.00     0.109 C 
HETATM    8  C16 UNL     1      -1.667   5.928  12.593  1.00  0.00     0.035 C 
BRANCH   3   9
HETATM    9  C4  UNL     1      -4.782   7.545  12.290  1.00  0.00     0.118 A 
HETATM   10  C5  UNL     1      -5.952   6.862  12.042  1.00  0.00     0.126 A 
HETATM   11  N1  UNL     1      -6.207   7.013  10.745  1.00  0.00    -0.354 N 
HETATM   12  C6  UNL     1      -5.243   7.762  10.180  1.00  0.00     0.233 A 
ATOM     13  H1  UNL     1      -7.011   6.620  10.254  1.00  0.00     0.166 HD
HETATM   14  O2  UNL     1      -4.387   8.073  11.144  1.00  0.00    -0.304 OA
ENDBRANCH   3   9
ENDBRANCH   1   2
BRANCH   1  15
HETATM   15  O3  UNL     1      -5.368   6.096  15.364  1.00  0.00    -0.373 OA
ATOM     16  H3  UNL     1      -5.435   7.035  15.238  1.00  0.00     0.212 HD
ENDBRANCH   1  15
BRANCH   1  17
HETATM   17  C8  UNL     1      -4.485   4.186  14.294  1.00  0.00     0.024 C 
HETATM   18  C9  UNL     1      -3.921   3.115  14.791  1.00  0.00     0.009 C 
BRANCH  18  19
HETATM   19  C10 UNL     1      -4.174   1.697  14.308  1.00  0.00     0.202 C 
BRANCH  19  20
HETATM   20  N3  UNL     1      -3.310   1.407  13.238  1.00  0.00    -0.397 N 
ATOM     21  H3  UNL     1      -2.340   1.720  13.226  1.00  0.00     0.154 HD
BRANCH  20  22
HETATM   22  C11 UNL     1      -3.862   0.663  12.189  1.00  0.00     0.128 C 
HETATM   23  C12 UNL     1      -3.491  -0.795  12.254  1.00  0.00     0.036 C 
BRANCH  22  24
HETATM   24  C13 UNL     1      -3.552   1.227  10.807  1.00  0.00     0.207 C 
HETATM   25 CL1  UNL     1      -3.545   3.022  10.920  1.00  0.00    -0.082 Cl
HETATM   26 CL2  UNL     1      -4.731   0.763   9.594  1.00  0.00    -0.082 Cl
HETATM   27 CL3  UNL     1      -1.882   0.753  10.341  1.00  0.00    -0.082 Cl
ENDBRANCH  22  24
ENDBRANCH  20  22
ENDBRANCH  19  20
BRANCH  19  28
HETATM   28  C14 UNL     1      -4.080   0.812  15.504  1.00  0.00     0.200 C 
HETATM   29  O4  UNL     1      -3.007   0.571  16.103  1.00  0.00    -0.646 OA
HETATM   30  O5  UNL     1      -5.235   0.204  16.005  1.00  0.00    -0.646 OA
ENDBRANCH  19  28
ENDBRANCH  18  19
ENDBRANCH   1  17
TORSDOF 9
ENDMDL
MODEL 5
REMARK VINA RESULT: -7.076930194      1.217      2.988
REMARK  9 active torsions:
REMARK  status: ('A' for Active; 'I' for Inactive)
REMARK    1  A    between atoms: C3_4  and  C4_5 
REMARK    2  A    between atoms: N2_11  and  C7_12 
REMARK    3  A    between atoms: C7_12  and  O3_13 
REMARK    4  A    between atoms: C7_12  and  C8_15 
REMARK    5  A    between atoms: C9_16  and  C10_17 
REMARK    6  A    between atoms: C10_17  and  N3_18 
REMARK    7  A    between atoms: C10_17  and  C14_26 
REMARK    8  A    between atoms: N3_18  and  C11_20 
REMARK    9  A    between atoms: C11_20  and  C13_22 
ROOT
HETATM    1  C7  UNL     1      -5.421   5.295  13.945  1.00  0.00     0.242 C 
ENDROOT
BRANCH   1   2
HETATM    2  N2  UNL     1      -4.403   6.235  13.819  1.00  0.00    -0.347 N 
HETATM    3  C3  UNL     1      -3.634   6.316  12.646  1.00  0.00     0.282 C 
HETATM    4  O1  UNL     1      -3.409   7.670  12.371  1.00  0.00    -0.354 OA
HETATM    5  C2  UNL     1      -3.997   8.426  13.348  1.00  0.00     0.142 C 
HETATM    6  C1  UNL     1      -5.116   9.307  12.827  1.00  0.00     0.042 C 
HETATM    7  C15 UNL     1      -4.496   7.496  14.443  1.00  0.00     0.109 C 
HETATM    8  C16 UNL     1      -3.443   7.513  15.560  1.00  0.00     0.035 C 
BRANCH   3   9
HETATM    9  C4  UNL     1      -2.354   5.572  12.830  1.00  0.00     0.118 A 
HETATM   10  C5  UNL     1      -1.916   4.995  14.000  1.00  0.00     0.126 A 
HETATM   11  N1  UNL     1      -0.740   4.437  13.727  1.00  0.00    -0.354 N 
HETATM   12  C6  UNL     1      -0.432   4.645  12.434  1.00  0.00     0.233 A 
ATOM     13  H1  UNL     1      -0.160   3.929  14.396  1.00  0.00     0.166 HD
HETATM   14  O2  UNL     1      -1.433   5.340  11.911  1.00  0.00    -0.304 OA
ENDBRANCH   3   9
ENDBRANCH   1   2
BRANCH   1  15
HETATM   15  O3  UNL     1      -6.602   5.667  13.269  1.00  0.00    -0.373 OA
ATOM     16  H3  UNL     1      -6.439   6.226  12.518  1.00  0.00     0.212 HD
ENDBRANCH   1  15
BRANCH   1  17
HETATM   17  C8  UNL     1      -5.090   3.884  13.594  1.00  0.00     0.024 C 
HETATM   18  C9  UNL     1      -4.774   3.000  14.505  1.00  0.00     0.009 C 
BRANCH  18  19
HETATM   19  C10 UNL     1      -4.424   1.548  14.221  1.00  0.00     0.202 C 
BRANCH  19  20
HETATM   20  N3  UNL     1      -3.527   1.488  13.140  1.00  0.00    -0.397 N 
ATOM     21  H3  UNL     1      -2.665   2.033  13.120  1.00  0.00     0.154 HD
BRANCH  20  22
HETATM   22  C11 UNL     1      -3.888   0.635  12.091  1.00  0.00     0.128 C 
HETATM   23  C12 UNL     1      -3.377  -0.770  12.284  1.00  0.00     0.036 C 
BRANCH  22  24
HETATM   24  C13 UNL     1      -3.497   1.156  10.713  1.00  0.00     0.207 C 
HETATM   25 CL1  UNL     1      -1.946   0.380  10.238  1.00  0.00    -0.082 Cl
HETATM   26 CL2  UNL     1      -3.271   2.894  10.674  1.00  0.00    -0.082 Cl
HETATM   27 CL3  UNL     1      -4.715   0.607   9.510  1.00  0.00    -0.082 Cl
ENDBRANCH  22  24
ENDBRANCH  20  22
ENDBRANCH  19  20
BRANCH  19  28
HETATM   28  C14 UNL     1      -3.961   0.957  15.508  1.00  0.00     0.200 C 
HETATM   29  O4  UNL     1      -3.022   1.430  16.189  1.00  0.00    -0.646 OA
HETATM   30  O5  UNL     1      -4.592  -0.186  16.008  1.00  0.00    -0.646 OA
ENDBRANCH  19  28
ENDBRANCH  18  19
ENDBRANCH   1  17
TORSDOF 9
ENDMDL
