MODEL 1
REMARK VINA RESULT: -8.648818253      0.000      0.000
REMARK  7 active torsions:
REMARK  status: ('A' for Active; 'I' for Inactive)
REMARK    1  A    between atoms: O1_2  and  C2_3 
REMARK    2  A    between atoms: C5_6  and  O2_7 
REMARK    3  A    between atoms: O2_7  and  C6_8 
REMARK    4  A    between atoms: C10_15  and  C11_16 
REMARK    5  A    between atoms: C11_16  and  C13_24 
REMARK    6  A    between atoms: N2_17  and  N3_19 
REMARK    7  A    between atoms: C13_24  and  C14_27 
ROOT
HETATM    1  C6  UNL     1      -3.065   3.992  11.905  1.00  0.00     0.160 A 
HETATM    2  N1  UNL     1      -2.381   4.789  11.017  1.00  0.00    -0.345 N 
ATOM      3  H1  UNL     1      -2.456   4.583  10.020  1.00  0.00     0.167 HD
HETATM    4  C7  UNL     1      -1.626   5.816  11.397  1.00  0.00     0.109 A 
HETATM    5  C8  UNL     1      -1.544   6.071  12.743  1.00  0.00     0.027 A 
HETATM    6 BR1  UNL     1      -0.478   7.526  13.360  1.00  0.00    -0.050 Br
HETATM    7  C9  UNL     1      -2.203   5.319  13.695  1.00  0.00     0.038 A 
HETATM    8  C10 UNL     1      -2.985   4.256  13.233  1.00  0.00     0.047 A 
ENDROOT
BRANCH   8   9
HETATM    9  C11 UNL     1      -3.875   3.590  14.184  1.00  0.00     0.121 C 
HETATM   10  N2  UNL     1      -3.477   2.538  14.826  1.00  0.00    -0.295 N 
ATOM     11  H2  UNL     1      -2.528   2.224  14.623  1.00  0.00     0.187 HD
BRANCH  10  12
HETATM   12  N3  UNL     1      -4.167   1.800  15.737  1.00  0.00    -0.276 N 
HETATM   13  C12 UNL     1      -4.400   0.565  15.831  1.00  0.00     0.215 C 
HETATM   14  N4  UNL     1      -5.187   0.073  16.952  1.00  0.00    -0.065 NA
HETATM   15  N5  UNL     1      -3.972  -0.435  14.942  1.00  0.00    -0.065 NA
ATOM     16  H3  UNL     1      -4.575   2.353  16.489  1.00  0.00     0.189 HD
ENDBRANCH  10  12
BRANCH   9  17
HETATM   17  C13 UNL     1      -5.263   4.000  14.478  1.00  0.00     0.364 C 
HETATM   18  F1  UNL     1      -5.439   3.676  15.850  1.00  0.00    -0.189 F 
HETATM   19  F2  UNL     1      -6.238   3.310  13.813  1.00  0.00    -0.189 F 
BRANCH  17  20
HETATM   20  C14 UNL     1      -5.559   5.435  14.293  1.00  0.00     0.310 C 
HETATM   21  N6  UNL     1      -6.135   5.952  13.111  1.00  0.00    -0.056 NA
HETATM   22  O3  UNL     1      -5.296   6.251  15.218  1.00  0.00    -0.270 OA
ENDBRANCH  17  20
ENDBRANCH   9  17
ENDBRANCH   8   9
BRANCH   1  23
HETATM   23  O2  UNL     1      -3.790   2.959  11.292  1.00  0.00    -0.293 OA
BRANCH  23  24
HETATM   24  C5  UNL     1      -3.118   1.766  11.167  1.00  0.00     0.078 A 
HETATM   25  C4  UNL     1      -1.853   1.496  10.809  1.00  0.00     0.040 A 
HETATM   26  C3  UNL     1      -1.307   0.212  10.730  1.00  0.00     0.039 A 
HETATM   27  C2  UNL     1      -2.088  -0.857  11.032  1.00  0.00     0.068 A 
HETATM   28  C16 UNL     1      -3.393  -0.642  11.405  1.00  0.00     0.039 A 
HETATM   29  C15 UNL     1      -3.905   0.628  11.474  1.00  0.00     0.040 A 
BRANCH  27  30
HETATM   30  O1  UNL     1      -1.643  -2.174  10.985  1.00  0.00    -0.356 OA
HETATM   31  C1  UNL     1      -2.540  -3.268  10.994  1.00  0.00     0.210 C 
ENDBRANCH  27  30
ENDBRANCH  23  24
ENDBRANCH   1  23
TORSDOF 7
ENDMDL
MODEL 2
REMARK VINA RESULT: -8.508074561      2.783      3.958
REMARK  7 active torsions:
REMARK  status: ('A' for Active; 'I' for Inactive)
REMARK    1  A    between atoms: O1_2  and  C2_3 
REMARK    2  A    between atoms: C5_6  and  O2_7 
REMARK    3  A    between atoms: O2_7  and  C6_8 
REMARK    4  A    between atoms: C10_15  and  C11_16 
REMARK    5  A    between atoms: C11_16  and  C13_24 
REMARK    6  A    between atoms: N2_17  and  N3_19 
REMARK    7  A    between atoms: C13_24  and  C14_27 
ROOT
HETATM    1  C6  UNL     1      -1.751   5.382  13.783  1.00  0.00     0.160 A 
HETATM    2  N1  UNL     1      -1.345   6.692  13.682  1.00  0.00    -0.345 N 
ATOM      3  H1  UNL     1      -0.426   6.887  13.284  1.00  0.00     0.167 HD
HETATM    4  C7  UNL     1      -2.095   7.717  14.079  1.00  0.00     0.109 A 
HETATM    5  C8  UNL     1      -3.326   7.426  14.610  1.00  0.00     0.027 A 
HETATM    6 BR1  UNL     1      -4.453   8.845  15.203  1.00  0.00    -0.050 Br
HETATM    7  C9  UNL     1      -3.806   6.138  14.742  1.00  0.00     0.038 A 
HETATM    8  C10 UNL     1      -2.974   5.104  14.302  1.00  0.00     0.047 A 
ENDROOT
BRANCH   8   9
HETATM    9  C11 UNL     1      -3.538   3.757  14.209  1.00  0.00     0.121 C 
HETATM   10  N2  UNL     1      -3.209   2.850  15.074  1.00  0.00    -0.295 N 
ATOM     11  H2  UNL     1      -2.552   3.141  15.798  1.00  0.00     0.187 HD
BRANCH  10  12
HETATM   12  N3  UNL     1      -3.632   1.559  15.137  1.00  0.00    -0.276 N 
HETATM   13  C12 UNL     1      -4.214   0.896  16.037  1.00  0.00     0.215 C 
HETATM   14  N4  UNL     1      -4.543  -0.500  15.793  1.00  0.00    -0.065 NA
HETATM   15  N5  UNL     1      -4.596   1.367  17.305  1.00  0.00    -0.065 NA
ATOM     16  H3  UNL     1      -3.442   1.023  14.291  1.00  0.00     0.189 HD
ENDBRANCH  10  12
BRANCH   9  17
HETATM   17  C13 UNL     1      -4.466   3.296  13.158  1.00  0.00     0.364 C 
HETATM   18  F1  UNL     1      -4.532   4.384  12.247  1.00  0.00    -0.189 F 
HETATM   19  F2  UNL     1      -5.755   3.079  13.559  1.00  0.00    -0.189 F 
BRANCH  17  20
HETATM   20  C14 UNL     1      -4.044   2.090  12.418  1.00  0.00     0.310 C 
HETATM   21  N6  UNL     1      -2.706   1.639  12.386  1.00  0.00    -0.056 NA
HETATM   22  O3  UNL     1      -4.900   1.417  11.780  1.00  0.00    -0.270 OA
ENDBRANCH  17  20
ENDBRANCH   9  17
ENDBRANCH   8   9
BRANCH   1  23
HETATM   23  O2  UNL     1      -0.803   4.460  13.317  1.00  0.00    -0.293 OA
BRANCH  23  24
HETATM   24  C5  UNL     1      -0.774   4.289  11.953  1.00  0.00     0.078 A 
HETATM   25  C4  UNL     1      -1.549   4.795  10.981  1.00  0.00     0.040 A 
HETATM   26  C3  UNL     1      -1.391   4.525   9.619  1.00  0.00     0.039 A 
HETATM   27  C2  UNL     1      -0.392   3.696   9.222  1.00  0.00     0.068 A 
HETATM   28  C16 UNL     1       0.434   3.148  10.173  1.00  0.00     0.039 A 
HETATM   29  C15 UNL     1       0.259   3.428  11.503  1.00  0.00     0.040 A 
BRANCH  27  30
HETATM   30  O1  UNL     1      -0.149   3.363   7.893  1.00  0.00    -0.356 OA
HETATM   31  C1  UNL     1       1.049   3.730   7.236  1.00  0.00     0.210 C 
ENDBRANCH  27  30
ENDBRANCH  23  24
ENDBRANCH   1  23
TORSDOF 7
ENDMDL
MODEL 3
REMARK VINA RESULT: -8.494116320      2.355      5.961
REMARK  7 active torsions:
REMARK  status: ('A' for Active; 'I' for Inactive)
REMARK    1  A    between atoms: O1_2  and  C2_3 
REMARK    2  A    between atoms: C5_6  and  O2_7 
REMARK    3  A    between atoms: O2_7  and  C6_8 
REMARK    4  A    between atoms: C10_15  and  C11_16 
REMARK    5  A    between atoms: C11_16  and  C13_24 
REMARK    6  A    between atoms: N2_17  and  N3_19 
REMARK    7  A    between atoms: C13_24  and  C14_27 
ROOT
HETATM    1  C6  UNL     1      -2.765   4.593  11.033  1.00  0.00     0.160 A 
HETATM    2  N1  UNL     1      -1.978   5.680  10.731  1.00  0.00    -0.345 N 
ATOM      3  H1  UNL     1      -2.433   6.577  10.560  1.00  0.00     0.167 HD
HETATM    4  C7  UNL     1      -0.651   5.615  10.653  1.00  0.00     0.109 A 
HETATM    5  C8  UNL     1      -0.066   4.397  10.889  1.00  0.00     0.027 A 
HETATM    6 BR1  UNL     1       1.830   4.230  10.790  1.00  0.00    -0.050 Br
HETATM    7  C9  UNL     1      -0.787   3.261  11.200  1.00  0.00     0.038 A 
HETATM    8  C10 UNL     1      -2.178   3.393  11.272  1.00  0.00     0.047 A 
ENDROOT
BRANCH   8   9
HETATM    9  C11 UNL     1      -2.948   2.279  11.825  1.00  0.00     0.121 C 
HETATM   10  N2  UNL     1      -2.991   2.086  13.105  1.00  0.00    -0.295 N 
ATOM     11  H2  UNL     1      -2.464   2.748  13.674  1.00  0.00     0.187 HD
BRANCH  10  12
HETATM   12  N3  UNL     1      -3.650   1.109  13.784  1.00  0.00    -0.276 N 
HETATM   13  C12 UNL     1      -3.720   0.822  15.009  1.00  0.00     0.215 C 
HETATM   14  N4  UNL     1      -4.532  -0.310  15.430  1.00  0.00    -0.065 NA
HETATM   15  N5  UNL     1      -3.077   1.495  16.062  1.00  0.00    -0.065 NA
ATOM     16  H3  UNL     1      -4.193   0.488  13.185  1.00  0.00     0.189 HD
ENDBRANCH  10  12
BRANCH   9  17
HETATM   17  C13 UNL     1      -3.695   1.285  11.028  1.00  0.00     0.364 C 
HETATM   18  F1  UNL     1      -3.886   1.917   9.770  1.00  0.00    -0.189 F 
HETATM   19  F2  UNL     1      -4.951   0.987  11.479  1.00  0.00    -0.189 F 
BRANCH  17  20
HETATM   20  C14 UNL     1      -3.008  -0.003  10.807  1.00  0.00     0.310 C 
HETATM   21  N6  UNL     1      -3.145  -1.105  11.680  1.00  0.00    -0.056 NA
HETATM   22  O3  UNL     1      -2.263  -0.148   9.799  1.00  0.00    -0.270 OA
ENDBRANCH  17  20
ENDBRANCH   9  17
ENDBRANCH   8   9
BRANCH   1  23
HETATM   23  O2  UNL     1      -4.138   4.879  11.052  1.00  0.00    -0.293 OA
BRANCH  23  24
HETATM   24  C5  UNL     1      -4.571   5.596  12.141  1.00  0.00     0.078 A 
HETATM   25  C4  UNL     1      -4.413   5.388  13.458  1.00  0.00     0.040 A 
HETATM   26  C3  UNL     1      -4.919   6.221  14.459  1.00  0.00     0.039 A 
HETATM   27  C2  UNL     1      -5.623   7.327  14.106  1.00  0.00     0.068 A 
HETATM   28  C16 UNL     1      -5.817   7.592  12.772  1.00  0.00     0.039 A 
HETATM   29  C15 UNL     1      -5.311   6.759  11.807  1.00  0.00     0.040 A 
BRANCH  27  30
HETATM   30  O1  UNL     1      -6.167   8.220  15.022  1.00  0.00    -0.356 OA
HETATM   31  C1  UNL     1      -5.490   9.400  15.413  1.00  0.00     0.210 C 
ENDBRANCH  27  30
ENDBRANCH  23  24
ENDBRANCH   1  23
TORSDOF 7
ENDMDL
MODEL 4
REMARK VINA RESULT: -8.348724759      1.210      1.591
REMARK  7 active torsions:
REMARK  status: ('A' for Active; 'I' for Inactive)
REMARK    1  A    between atoms: O1_2  and  C2_3 
REMARK    2  A    between atoms: C5_6  and  O2_7 
REMARK    3  A    between atoms: O2_7  and  C6_8 
REMARK    4  A    between atoms: C10_15  and  C11_16 
REMARK    5  A    between atoms: C11_16  and  C13_24 
REMARK    6  A    between atoms: N2_17  and  N3_19 
REMARK    7  A    between atoms: C13_24  and  C14_27 
ROOT
HETATM    1  C6  UNL     1      -2.603   3.621  11.123  1.00  0.00     0.160 A 
HETATM    2  N1  UNL     1      -1.811   4.091  10.102  1.00  0.00    -0.345 N 
ATOM      3  H1  UNL     1      -1.990   3.759   9.154  1.00  0.00     0.167 HD
HETATM    4  C7  UNL     1      -0.820   4.958  10.293  1.00  0.00     0.109 A 
HETATM    5  C8  UNL     1      -0.600   5.389  11.577  1.00  0.00     0.027 A 
HETATM    6 BR1  UNL     1       0.805   6.629  11.925  1.00  0.00    -0.050 Br
HETATM    7  C9  UNL     1      -1.355   4.967  12.653  1.00  0.00     0.038 A 
HETATM    8  C10 UNL     1      -2.385   4.059  12.389  1.00  0.00     0.047 A 
ENDROOT
BRANCH   8   9
HETATM    9  C11 UNL     1      -3.344   3.774  13.455  1.00  0.00     0.121 C 
HETATM   10  N2  UNL     1      -3.030   2.966  14.418  1.00  0.00    -0.295 N 
ATOM     11  H2  UNL     1      -2.095   2.562  14.374  1.00  0.00     0.187 HD
BRANCH  10  12
HETATM   12  N3  UNL     1      -3.793   2.591  15.481  1.00  0.00    -0.276 N 
HETATM   13  C12 UNL     1      -3.890   1.509  16.119  1.00  0.00     0.215 C 
HETATM   14  N4  UNL     1      -4.817   1.422  17.236  1.00  0.00    -0.065 NA
HETATM   15  N5  UNL     1      -3.179   0.324  15.865  1.00  0.00    -0.065 NA
ATOM     16  H3  UNL     1      -4.404   3.329  15.828  1.00  0.00     0.189 HD
ENDBRANCH  10  12
BRANCH   9  17
HETATM   17  C13 UNL     1      -4.715   4.317  13.533  1.00  0.00     0.364 C 
HETATM   18  F1  UNL     1      -5.550   3.171  13.448  1.00  0.00    -0.189 F 
HETATM   19  F2  UNL     1      -5.094   5.121  12.494  1.00  0.00    -0.189 F 
BRANCH  17  20
HETATM   20  C14 UNL     1      -5.044   5.046  14.774  1.00  0.00     0.310 C 
HETATM   21  N6  UNL     1      -4.530   6.329  15.069  1.00  0.00    -0.056 NA
HETATM   22  O3  UNL     1      -5.818   4.521  15.620  1.00  0.00    -0.270 OA
ENDBRANCH  17  20
ENDBRANCH   9  17
ENDBRANCH   8   9
BRANCH   1  23
HETATM   23  O2  UNL     1      -3.580   2.706  10.703  1.00  0.00    -0.293 OA
BRANCH  23  24
HETATM   24  C5  UNL     1      -3.275   1.384  10.920  1.00  0.00     0.078 A 
HETATM   25  C4  UNL     1      -3.954   0.410  11.545  1.00  0.00     0.040 A 
HETATM   26  C3  UNL     1      -3.506  -0.907  11.685  1.00  0.00     0.039 A 
HETATM   27  C2  UNL     1      -2.304  -1.254  11.160  1.00  0.00     0.068 A 
HETATM   28  C16 UNL     1      -1.562  -0.299  10.509  1.00  0.00     0.039 A 
HETATM   29  C15 UNL     1      -2.023   0.987  10.385  1.00  0.00     0.040 A 
BRANCH  27  30
HETATM   30  O1  UNL     1      -1.767  -2.535  11.244  1.00  0.00    -0.356 OA
HETATM   31  C1  UNL     1      -2.527  -3.687  10.929  1.00  0.00     0.210 C 
ENDBRANCH  27  30
ENDBRANCH  23  24
ENDBRANCH   1  23
TORSDOF 7
ENDMDL
MODEL 5
REMARK VINA RESULT: -8.345784789      2.990      6.180
REMARK  7 active torsions:
REMARK  status: ('A' for Active; 'I' for Inactive)
REMARK    1  A    between atoms: O1_2  and  C2_3 
REMARK    2  A    between atoms: C5_6  and  O2_7 
REMARK    3  A    between atoms: O2_7  and  C6_8 
REMARK    4  A    between atoms: C10_15  and  C11_16 
REMARK    5  A    between atoms: C11_16  and  C13_24 
REMARK    6  A    between atoms: N2_17  and  N3_19 
REMARK    7  A    between atoms: C13_24  and  C14_27 
ROOT
HETATM    1  C6  UNL     1      -2.971   5.369  12.543  1.00  0.00     0.160 A 
HETATM    2  N1  UNL     1      -2.232   6.527  12.480  1.00  0.00    -0.345 N 
ATOM      3  H1  UNL     1      -2.660   7.395  12.800  1.00  0.00     0.167 HD
HETATM    4  C7  UNL     1      -0.984   6.566  12.021  1.00  0.00     0.109 A 
HETATM    5  C8  UNL     1      -0.432   5.383  11.598  1.00  0.00     0.027 A 
HETATM    6 BR1  UNL     1       1.352   5.366  10.925  1.00  0.00    -0.050 Br
HETATM    7  C9  UNL     1      -1.108   4.180  11.633  1.00  0.00     0.038 A 
HETATM    8  C10 UNL     1      -2.415   4.202  12.130  1.00  0.00     0.047 A 
ENDROOT
BRANCH   8   9
HETATM    9  C11 UNL     1      -3.072   2.923  12.399  1.00  0.00     0.121 C 
HETATM   10  N2  UNL     1      -3.210   2.503  13.617  1.00  0.00    -0.295 N 
ATOM     11  H2  UNL     1      -2.839   3.114  14.345  1.00  0.00     0.187 HD
BRANCH  10  12
HETATM   12  N3  UNL     1      -3.789   1.349  14.046  1.00  0.00    -0.276 N 
HETATM   13  C12 UNL     1      -3.736   0.725  15.139  1.00  0.00     0.215 C 
HETATM   14  N4  UNL     1      -4.490  -0.510  15.291  1.00  0.00    -0.065 NA
HETATM   15  N5  UNL     1      -3.000   1.097  16.277  1.00  0.00    -0.065 NA
ATOM     16  H3  UNL     1      -4.381   0.902  13.346  1.00  0.00     0.189 HD
ENDBRANCH  10  12
BRANCH   9  17
HETATM   17  C13 UNL     1      -3.592   2.001  11.369  1.00  0.00     0.364 C 
HETATM   18  F1  UNL     1      -3.620   2.783  10.183  1.00  0.00    -0.189 F 
HETATM   19  F2  UNL     1      -4.876   1.571  11.552  1.00  0.00    -0.189 F 
BRANCH  17  20
HETATM   20  C14 UNL     1      -2.774   0.797  11.118  1.00  0.00     0.310 C 
HETATM   21  N6  UNL     1      -1.708   0.775  10.191  1.00  0.00    -0.056 NA
HETATM   22  O3  UNL     1      -3.019  -0.267  11.749  1.00  0.00    -0.270 OA
ENDBRANCH  17  20
ENDBRANCH   9  17
ENDBRANCH   8   9
BRANCH   1  23
HETATM   23  O2  UNL     1      -4.267   5.554  13.048  1.00  0.00    -0.293 OA
BRANCH  23  24
HETATM   24  C5  UNL     1      -5.024   6.492  12.387  1.00  0.00     0.078 A 
HETATM   25  C4  UNL     1      -5.320   6.633  11.086  1.00  0.00     0.040 A 
HETATM   26  C3  UNL     1      -6.117   7.654  10.560  1.00  0.00     0.039 A 
HETATM   27  C2  UNL     1      -6.643   8.581  11.400  1.00  0.00     0.068 A 
HETATM   28  C16 UNL     1      -6.374   8.487  12.744  1.00  0.00     0.039 A 
HETATM   29  C15 UNL     1      -5.588   7.477  13.236  1.00  0.00     0.040 A 
BRANCH  27  30
HETATM   30  O1  UNL     1      -7.448   9.634  10.980  1.00  0.00    -0.356 OA
HETATM   31  C1  UNL     1      -6.934  10.715  10.224  1.00  0.00     0.210 C 
ENDBRANCH  27  30
ENDBRANCH  23  24
ENDBRANCH   1  23
TORSDOF 7
ENDMDL
