MODEL 1
REMARK VINA RESULT: -8.209315651      0.000      0.000
REMARK  10 active torsions:
REMARK  status: ('A' for Active; 'I' for Inactive)
REMARK    1  A    between atoms: C2_2  and  O1_4 
REMARK    2  A    between atoms: O1_4  and  C4_5 
REMARK    3  A    between atoms: C7_8  and  N1_9 
REMARK    4  A    between atoms: N1_9  and  C8_11 
REMARK    5  A    between atoms: C9_14  and  N3_15 
REMARK    6  A    between atoms: N3_15  and  C10_17 
REMARK    7  A    between atoms: C10_17  and  C11_18 
REMARK    8  A    between atoms: C11_18  and  C13_20 
REMARK    9  A    between atoms: C14_26  and  N5_27 
REMARK   10  A    between atoms: N5_27  and  C15_29 
ROOT
HETATM    1  C8  UNL     1      -4.037   5.371  11.984  1.00  0.00     0.711 A 
HETATM    2  N2  UNL     1      -4.359   5.205  13.272  1.00  0.00    -0.021 N 
ATOM      3  H2  UNL     1      -4.294   6.015  13.888  1.00  0.00     0.203 HD
HETATM    4  C9  UNL     1      -4.761   4.042  13.805  1.00  0.00     0.707 A 
HETATM    5  N4  UNL     1      -4.838   2.976  12.958  1.00  0.00    -0.021 N 
ATOM      6  H4  UNL     1      -5.139   2.072  13.322  1.00  0.00     0.203 HD
HETATM    7  C14 UNL     1      -4.528   3.089  11.658  1.00  0.00     0.712 A 
HETATM    8  N8  UNL     1      -4.125   4.300  11.178  1.00  0.00    -0.021 N 
ATOM      9  H8  UNL     1      -3.886   4.394  10.190  1.00  0.00     0.203 HD
ENDROOT
BRANCH   1  10
HETATM   10  N1  UNL     1      -3.663   6.519  11.570  1.00  0.00    -0.191 N 
ATOM     11  H1  UNL     1      -2.673   6.722  11.433  1.00  0.00     0.184 HD
BRANCH  10  12
HETATM   12  C7  UNL     1      -4.641   7.508  11.304  1.00  0.00     0.049 A 
HETATM   13  C6  UNL     1      -5.810   7.245  10.628  1.00  0.00     0.033 A 
HETATM   14  C5  UNL     1      -6.731   8.241  10.396  1.00  0.00     0.039 A 
HETATM   15  C4  UNL     1      -6.535   9.557  10.827  1.00  0.00     0.069 A 
HETATM   16  C20 UNL     1      -5.365   9.799  11.497  1.00  0.00     0.039 A 
HETATM   17  C19 UNL     1      -4.437   8.816  11.737  1.00  0.00     0.033 A 
BRANCH  15  18
HETATM   18  O1  UNL     1      -7.514  10.467  10.543  1.00  0.00    -0.347 OA
BRANCH  18  19
HETATM   19  C2  UNL     1      -7.486  11.500   9.612  1.00  0.00     0.120 C 
HETATM   20  C1  UNL     1      -8.194  11.145   8.331  1.00  0.00     0.040 C 
HETATM   21  C3  UNL     1      -8.255  12.684  10.218  1.00  0.00     0.040 C 
ENDBRANCH  18  19
ENDBRANCH  15  18
ENDBRANCH  10  12
ENDBRANCH   1  10
BRANCH   4  22
HETATM   22  N3  UNL     1      -5.069   3.912  15.055  1.00  0.00    -0.224 N 
ATOM     23  H3  UNL     1      -4.887   4.669  15.714  1.00  0.00     0.177 HD
BRANCH  22  24
HETATM   24  C10 UNL     1      -5.669   2.687  15.502  1.00  0.00     0.151 C 
BRANCH  24  25
HETATM   25  C11 UNL     1      -4.780   1.927  16.463  1.00  0.00     0.107 C 
HETATM   26  C12 UNL     1      -4.200   0.752  15.683  1.00  0.00     0.021 C 
BRANCH  25  27
HETATM   27  C13 UNL     1      -5.559   1.343  17.618  1.00  0.00     0.392 C 
HETATM   28  F1  UNL     1      -4.957   0.134  17.937  1.00  0.00    -0.171 F 
HETATM   29  F2  UNL     1      -6.833   1.055  17.186  1.00  0.00    -0.171 F 
HETATM   30  F3  UNL     1      -5.545   2.151  18.718  1.00  0.00    -0.171 F 
ENDBRANCH  25  27
ENDBRANCH  24  25
ENDBRANCH  22  24
ENDBRANCH   4  22
BRANCH   7  31
HETATM   31  N5  UNL     1      -4.595   2.087  10.853  1.00  0.00    -0.188 N 
ATOM     32  H5  UNL     1      -5.379   1.988  10.208  1.00  0.00     0.184 HD
BRANCH  31  33
HETATM   33  C15 UNL     1      -3.543   1.112  10.882  1.00  0.00     0.083 A 
HETATM   34  C16 UNL     1      -2.193   1.353  10.818  1.00  0.00     0.138 A 
HETATM   35  N6  UNL     1      -1.605   0.149  10.877  1.00  0.00    -0.308 N 
HETATM   36  N7  UNL     1      -2.497  -0.817  10.973  1.00  0.00    -0.306 N 
ATOM     37  H6  UNL     1      -0.596   0.000  10.850  1.00  0.00     0.186 HD
HETATM   38  C17 UNL     1      -2.209  -2.253  11.058  1.00  0.00     0.177 C 
HETATM   39  C18 UNL     1      -3.711  -0.245  10.978  1.00  0.00     0.141 A 
ENDBRANCH  31  33
ENDBRANCH   7  31
TORSDOF 10
ENDMDL
MODEL 2
REMARK VINA RESULT: -7.900382064      3.606      7.121
REMARK  10 active torsions:
REMARK  status: ('A' for Active; 'I' for Inactive)
REMARK    1  A    between atoms: C2_2  and  O1_4 
REMARK    2  A    between atoms: O1_4  and  C4_5 
REMARK    3  A    between atoms: C7_8  and  N1_9 
REMARK    4  A    between atoms: N1_9  and  C8_11 
REMARK    5  A    between atoms: C9_14  and  N3_15 
REMARK    6  A    between atoms: N3_15  and  C10_17 
REMARK    7  A    between atoms: C10_17  and  C11_18 
REMARK    8  A    between atoms: C11_18  and  C13_20 
REMARK    9  A    between atoms: C14_26  and  N5_27 
REMARK   10  A    between atoms: N5_27  and  C15_29 
ROOT
HETATM    1  C8  UNL     1      -1.716   4.577  13.626  1.00  0.00     0.711 A 
HETATM    2  N2  UNL     1      -2.628   3.602  13.720  1.00  0.00    -0.021 N 
ATOM      3  H2  UNL     1      -2.355   2.664  13.427  1.00  0.00     0.203 HD
HETATM    4  C9  UNL     1      -3.877   3.779  14.173  1.00  0.00     0.707 A 
HETATM    5  N4  UNL     1      -4.215   5.043  14.558  1.00  0.00    -0.021 N 
ATOM      6  H4  UNL     1      -5.156   5.222  14.908  1.00  0.00     0.203 HD
HETATM    7  C14 UNL     1      -3.338   6.055  14.485  1.00  0.00     0.712 A 
HETATM    8  N8  UNL     1      -2.082   5.809  14.014  1.00  0.00    -0.021 N 
ATOM      9  H8  UNL     1      -1.409   6.575  13.955  1.00  0.00     0.203 HD
ENDROOT
BRANCH   1  10
HETATM   10  N1  UNL     1      -0.551   4.310  13.179  1.00  0.00    -0.191 N 
ATOM     11  H1  UNL     1       0.244   4.243  13.815  1.00  0.00     0.184 HD
BRANCH  10  12
HETATM   12  C7  UNL     1      -0.376   4.107  11.788  1.00  0.00     0.049 A 
HETATM   13  C6  UNL     1      -0.383   5.136  10.874  1.00  0.00     0.033 A 
HETATM   14  C5  UNL     1      -0.207   4.888   9.532  1.00  0.00     0.039 A 
HETATM   15  C4  UNL     1      -0.013   3.598   9.028  1.00  0.00     0.069 A 
HETATM   16  C20 UNL     1      -0.010   2.588   9.953  1.00  0.00     0.039 A 
HETATM   17  C19 UNL     1      -0.184   2.819  11.296  1.00  0.00     0.033 A 
BRANCH  15  18
HETATM   18  O1  UNL     1       0.151   3.465   7.678  1.00  0.00    -0.347 OA
BRANCH  18  19
HETATM   19  C2  UNL     1       0.958   4.217   6.830  1.00  0.00     0.120 C 
HETATM   20  C1  UNL     1       1.990   3.380   6.120  1.00  0.00     0.040 C 
HETATM   21  C3  UNL     1       0.052   4.805   5.738  1.00  0.00     0.040 C 
ENDBRANCH  18  19
ENDBRANCH  15  18
ENDBRANCH  10  12
ENDBRANCH   1  10
BRANCH   4  22
HETATM   22  N3  UNL     1      -4.738   2.815  14.255  1.00  0.00    -0.224 N 
ATOM     23  H3  UNL     1      -4.931   2.225  13.446  1.00  0.00     0.177 HD
BRANCH  22  24
HETATM   24  C10 UNL     1      -5.415   2.589  15.500  1.00  0.00     0.151 C 
BRANCH  24  25
HETATM   25  C11 UNL     1      -4.631   1.684  16.426  1.00  0.00     0.107 C 
HETATM   26  C12 UNL     1      -4.131   0.521  15.577  1.00  0.00     0.021 C 
BRANCH  25  27
HETATM   27  C13 UNL     1      -5.500   1.093  17.512  1.00  0.00     0.392 C 
HETATM   28  F1  UNL     1      -6.808   1.148  17.053  1.00  0.00    -0.171 F 
HETATM   29  F2  UNL     1      -5.429   1.905  18.620  1.00  0.00    -0.171 F 
HETATM   30  F3  UNL     1      -5.180  -0.205  17.787  1.00  0.00    -0.171 F 
ENDBRANCH  25  27
ENDBRANCH  24  25
ENDBRANCH  22  24
ENDBRANCH   4  22
BRANCH   7  31
HETATM   31  N5  UNL     1      -3.649   7.252  14.843  1.00  0.00    -0.188 N 
ATOM     32  H5  UNL     1      -3.089   7.752  15.532  1.00  0.00     0.184 HD
BRANCH  31  33
HETATM   33  C15 UNL     1      -4.803   7.866  14.250  1.00  0.00     0.083 A 
HETATM   34  C16 UNL     1      -5.947   8.266  14.893  1.00  0.00     0.138 A 
HETATM   35  N6  UNL     1      -6.740   8.779  13.941  1.00  0.00    -0.308 N 
HETATM   36  N7  UNL     1      -6.165   8.723  12.756  1.00  0.00    -0.306 N 
ATOM     37  H6  UNL     1      -7.670   9.163  14.113  1.00  0.00     0.186 HD
HETATM   38  C17 UNL     1      -6.745   9.193  11.492  1.00  0.00     0.177 C 
HETATM   39  C18 UNL     1      -4.959   8.159  12.920  1.00  0.00     0.141 A 
ENDBRANCH  31  33
ENDBRANCH   7  31
TORSDOF 10
ENDMDL
MODEL 3
REMARK VINA RESULT: -7.843125390      3.596      7.019
REMARK  10 active torsions:
REMARK  status: ('A' for Active; 'I' for Inactive)
REMARK    1  A    between atoms: C2_2  and  O1_4 
REMARK    2  A    between atoms: O1_4  and  C4_5 
REMARK    3  A    between atoms: C7_8  and  N1_9 
REMARK    4  A    between atoms: N1_9  and  C8_11 
REMARK    5  A    between atoms: C9_14  and  N3_15 
REMARK    6  A    between atoms: N3_15  and  C10_17 
REMARK    7  A    between atoms: C10_17  and  C11_18 
REMARK    8  A    between atoms: C11_18  and  C13_20 
REMARK    9  A    between atoms: C14_26  and  N5_27 
REMARK   10  A    between atoms: N5_27  and  C15_29 
ROOT
HETATM    1  C8  UNL     1      -1.756   4.556  13.663  1.00  0.00     0.711 A 
HETATM    2  N2  UNL     1      -2.682   3.594  13.744  1.00  0.00    -0.021 N 
ATOM      3  H2  UNL     1      -2.418   2.652  13.453  1.00  0.00     0.203 HD
HETATM    4  C9  UNL     1      -3.935   3.787  14.182  1.00  0.00     0.707 A 
HETATM    5  N4  UNL     1      -4.260   5.055  14.564  1.00  0.00    -0.021 N 
ATOM      6  H4  UNL     1      -5.202   5.246  14.903  1.00  0.00     0.203 HD
HETATM    7  C14 UNL     1      -3.369   6.056  14.503  1.00  0.00     0.712 A 
HETATM    8  N8  UNL     1      -2.110   5.793  14.047  1.00  0.00    -0.021 N 
ATOM      9  H8  UNL     1      -1.427   6.549  13.997  1.00  0.00     0.203 HD
ENDROOT
BRANCH   1  10
HETATM   10  N1  UNL     1      -0.589   4.274  13.230  1.00  0.00    -0.191 N 
ATOM     11  H1  UNL     1       0.197   4.199  13.875  1.00  0.00     0.184 HD
BRANCH  10  12
HETATM   12  C7  UNL     1      -0.401   4.067  11.842  1.00  0.00     0.049 A 
HETATM   13  C6  UNL     1      -0.149   2.829  11.294  1.00  0.00     0.033 A 
HETATM   14  C5  UNL     1       0.025   2.679   9.938  1.00  0.00     0.039 A 
HETATM   15  C4  UNL     1      -0.042   3.758   9.051  1.00  0.00     0.069 A 
HETATM   16  C20 UNL     1      -0.291   4.981   9.614  1.00  0.00     0.039 A 
HETATM   17  C19 UNL     1      -0.468   5.147  10.966  1.00  0.00     0.033 A 
BRANCH  15  18
HETATM   18  O1  UNL     1       0.147   3.497   7.723  1.00  0.00    -0.347 OA
BRANCH  18  19
HETATM   19  C2  UNL     1       0.830   4.262   6.783  1.00  0.00     0.120 C 
HETATM   20  C1  UNL     1       1.721   3.430   5.897  1.00  0.00     0.040 C 
HETATM   21  C3  UNL     1      -0.220   4.902   5.863  1.00  0.00     0.040 C 
ENDBRANCH  18  19
ENDBRANCH  15  18
ENDBRANCH  10  12
ENDBRANCH   1  10
BRANCH   4  22
HETATM   22  N3  UNL     1      -4.809   2.835  14.252  1.00  0.00    -0.224 N 
ATOM     23  H3  UNL     1      -5.003   2.251  13.439  1.00  0.00     0.177 HD
BRANCH  22  24
HETATM   24  C10 UNL     1      -5.500   2.613  15.490  1.00  0.00     0.151 C 
BRANCH  24  25
HETATM   25  C11 UNL     1      -4.690   1.781  16.462  1.00  0.00     0.107 C 
HETATM   26  C12 UNL     1      -4.192   0.567  15.686  1.00  0.00     0.021 C 
BRANCH  25  27
HETATM   27  C13 UNL     1      -5.532   1.257  17.602  1.00  0.00     0.392 C 
HETATM   28  F1  UNL     1      -5.076  -0.024  17.880  1.00  0.00    -0.171 F 
HETATM   29  F2  UNL     1      -6.830   1.135  17.167  1.00  0.00    -0.171 F 
HETATM   30  F3  UNL     1      -5.421   2.023  18.726  1.00  0.00    -0.171 F 
ENDBRANCH  25  27
ENDBRANCH  24  25
ENDBRANCH  22  24
ENDBRANCH   4  22
BRANCH   7  31
HETATM   31  N5  UNL     1      -3.668   7.256  14.858  1.00  0.00    -0.188 N 
ATOM     32  H5  UNL     1      -3.100   7.754  15.544  1.00  0.00     0.184 HD
BRANCH  31  33
HETATM   33  C15 UNL     1      -4.819   7.878  14.270  1.00  0.00     0.083 A 
HETATM   34  C16 UNL     1      -5.955   8.295  14.918  1.00  0.00     0.138 A 
HETATM   35  N6  UNL     1      -6.750   8.808  13.968  1.00  0.00    -0.308 N 
HETATM   36  N7  UNL     1      -6.185   8.736  12.779  1.00  0.00    -0.306 N 
ATOM     37  H6  UNL     1      -7.674   9.204  14.144  1.00  0.00     0.186 HD
HETATM   38  C17 UNL     1      -6.769   9.202  11.516  1.00  0.00     0.177 C 
HETATM   39  C18 UNL     1      -4.983   8.161  12.938  1.00  0.00     0.141 A 
ENDBRANCH  31  33
ENDBRANCH   7  31
TORSDOF 10
ENDMDL
MODEL 4
REMARK VINA RESULT: -7.784321595      1.119      1.495
REMARK  10 active torsions:
REMARK  status: ('A' for Active; 'I' for Inactive)
REMARK    1  A    between atoms: C2_2  and  O1_4 
REMARK    2  A    between atoms: O1_4  and  C4_5 
REMARK    3  A    between atoms: C7_8  and  N1_9 
REMARK    4  A    between atoms: N1_9  and  C8_11 
REMARK    5  A    between atoms: C9_14  and  N3_15 
REMARK    6  A    between atoms: N3_15  and  C10_17 
REMARK    7  A    between atoms: C10_17  and  C11_18 
REMARK    8  A    between atoms: C11_18  and  C13_20 
REMARK    9  A    between atoms: C14_26  and  N5_27 
REMARK   10  A    between atoms: N5_27  and  C15_29 
ROOT
HETATM    1  C8  UNL     1      -4.480   6.756  13.337  1.00  0.00     0.711 A 
HETATM    2  N2  UNL     1      -4.959   6.097  14.398  1.00  0.00    -0.021 N 
ATOM      3  H2  UNL     1      -5.193   6.638  15.230  1.00  0.00     0.203 HD
HETATM    4  C9  UNL     1      -5.150   4.770  14.439  1.00  0.00     0.707 A 
HETATM    5  N4  UNL     1      -4.829   4.072  13.314  1.00  0.00    -0.021 N 
ATOM      6  H4  UNL     1      -4.958   3.060  13.301  1.00  0.00     0.203 HD
HETATM    7  C14 UNL     1      -4.346   4.684  12.222  1.00  0.00     0.712 A 
HETATM    8  N8  UNL     1      -4.174   6.037  12.245  1.00  0.00    -0.021 N 
ATOM      9  H8  UNL     1      -3.806   6.510  11.419  1.00  0.00     0.203 HD
ENDROOT
BRANCH   1  10
HETATM   10  N1  UNL     1      -4.331   8.022  13.396  1.00  0.00    -0.191 N 
ATOM     11  H1  UNL     1      -3.719   8.440  14.097  1.00  0.00     0.184 HD
BRANCH  10  12
HETATM   12  C7  UNL     1      -5.027   8.841  12.473  1.00  0.00     0.049 A 
HETATM   13  C6  UNL     1      -6.341   8.628  12.122  1.00  0.00     0.033 A 
HETATM   14  C5  UNL     1      -6.974   9.453  11.222  1.00  0.00     0.039 A 
HETATM   15  C4  UNL     1      -6.330  10.540  10.621  1.00  0.00     0.069 A 
HETATM   16  C20 UNL     1      -5.024  10.735  10.982  1.00  0.00     0.039 A 
HETATM   17  C19 UNL     1      -4.378   9.921  11.879  1.00  0.00     0.033 A 
BRANCH  15  18
HETATM   18  O1  UNL     1      -7.053  11.294   9.741  1.00  0.00    -0.347 OA
BRANCH  18  19
HETATM   19  C2  UNL     1      -7.995  12.279  10.021  1.00  0.00     0.120 C 
HETATM   20  C1  UNL     1      -7.366  13.622  10.289  1.00  0.00     0.040 C 
HETATM   21  C3  UNL     1      -8.865  12.451   8.767  1.00  0.00     0.040 C 
ENDBRANCH  18  19
ENDBRANCH  15  18
ENDBRANCH  10  12
ENDBRANCH   1  10
BRANCH   4  22
HETATM   22  N3  UNL     1      -5.618   4.160  15.480  1.00  0.00    -0.224 N 
ATOM     23  H3  UNL     1      -5.883   4.687  16.313  1.00  0.00     0.177 HD
BRANCH  22  24
HETATM   24  C10 UNL     1      -5.760   2.732  15.446  1.00  0.00     0.151 C 
BRANCH  24  25
HETATM   25  C11 UNL     1      -4.840   2.039  16.429  1.00  0.00     0.107 C 
HETATM   26  C12 UNL     1      -4.156   0.912  15.665  1.00  0.00     0.021 C 
BRANCH  25  27
HETATM   27  C13 UNL     1      -5.602   1.398  17.566  1.00  0.00     0.392 C 
HETATM   28  F1  UNL     1      -4.963   0.199  17.850  1.00  0.00    -0.171 F 
HETATM   29  F2  UNL     1      -6.866   1.084  17.123  1.00  0.00    -0.171 F 
HETATM   30  F3  UNL     1      -5.613   2.173  18.689  1.00  0.00    -0.171 F 
ENDBRANCH  25  27
ENDBRANCH  24  25
ENDBRANCH  22  24
ENDBRANCH   4  22
BRANCH   7  31
HETATM   31  N5  UNL     1      -4.037   4.032  11.157  1.00  0.00    -0.188 N 
ATOM     32  H5  UNL     1      -4.231   4.419  10.233  1.00  0.00     0.184 HD
BRANCH  31  33
HETATM   33  C15 UNL     1      -3.412   2.748  11.296  1.00  0.00     0.083 A 
HETATM   34  C16 UNL     1      -2.076   2.495  11.484  1.00  0.00     0.138 A 
HETATM   35  N6  UNL     1      -1.963   1.161  11.556  1.00  0.00    -0.308 N 
HETATM   36  N7  UNL     1      -3.136   0.573  11.424  1.00  0.00    -0.306 N 
ATOM     37  H6  UNL     1      -1.083   0.665  11.694  1.00  0.00     0.186 HD
HETATM   38  C17 UNL     1      -3.384  -0.874  11.451  1.00  0.00     0.177 C 
HETATM   39  C18 UNL     1      -4.054   1.537  11.261  1.00  0.00     0.141 A 
ENDBRANCH  31  33
ENDBRANCH   7  31
TORSDOF 10
ENDMDL
MODEL 5
REMARK VINA RESULT: -7.723459842      2.987      3.844
REMARK  10 active torsions:
REMARK  status: ('A' for Active; 'I' for Inactive)
REMARK    1  A    between atoms: C2_2  and  O1_4 
REMARK    2  A    between atoms: O1_4  and  C4_5 
REMARK    3  A    between atoms: C7_8  and  N1_9 
REMARK    4  A    between atoms: N1_9  and  C8_11 
REMARK    5  A    between atoms: C9_14  and  N3_15 
REMARK    6  A    between atoms: N3_15  and  C10_17 
REMARK    7  A    between atoms: C10_17  and  C11_18 
REMARK    8  A    between atoms: C11_18  and  C13_20 
REMARK    9  A    between atoms: C14_26  and  N5_27 
REMARK   10  A    between atoms: N5_27  and  C15_29 
ROOT
HETATM    1  C8  UNL     1      -4.414   5.033  12.763  1.00  0.00     0.711 A 
HETATM    2  N2  UNL     1      -4.210   4.427  13.938  1.00  0.00    -0.021 N 
ATOM      3  H2  UNL     1      -4.407   4.956  14.788  1.00  0.00     0.203 HD
HETATM    4  C9  UNL     1      -3.763   3.170  14.072  1.00  0.00     0.707 A 
HETATM    5  N4  UNL     1      -3.507   2.487  12.920  1.00  0.00    -0.021 N 
ATOM      6  H4  UNL     1      -3.164   1.528  12.975  1.00  0.00     0.203 HD
HETATM    7  C14 UNL     1      -3.695   3.048  11.716  1.00  0.00     0.712 A 
HETATM    8  N8  UNL     1      -4.152   4.331  11.648  1.00  0.00    -0.021 N 
ATOM      9  H8  UNL     1      -4.297   4.765  10.736  1.00  0.00     0.203 HD
ENDROOT
BRANCH   1  10
HETATM   10  N1  UNL     1      -4.841   6.236  12.739  1.00  0.00    -0.191 N 
ATOM     11  H1  UNL     1      -5.773   6.446  12.380  1.00  0.00     0.184 HD
BRANCH  10  12
HETATM   12  C7  UNL     1      -4.005   7.274  13.216  1.00  0.00     0.049 A 
HETATM   13  C6  UNL     1      -2.679   7.392  12.863  1.00  0.00     0.033 A 
HETATM   14  C5  UNL     1      -1.907   8.420  13.353  1.00  0.00     0.039 A 
HETATM   15  C4  UNL     1      -2.417   9.390  14.222  1.00  0.00     0.069 A 
HETATM   16  C20 UNL     1      -3.737   9.255  14.562  1.00  0.00     0.039 A 
HETATM   17  C19 UNL     1      -4.520   8.235  14.082  1.00  0.00     0.033 A 
BRANCH  15  18
HETATM   18  O1  UNL     1      -1.563  10.368  14.648  1.00  0.00    -0.347 OA
BRANCH  18  19
HETATM   19  C2  UNL     1      -0.303  10.687  14.152  1.00  0.00     0.120 C 
HETATM   20  C1  UNL     1      -0.139  12.163  13.894  1.00  0.00     0.040 C 
HETATM   21  C3  UNL     1       0.722  10.322  15.236  1.00  0.00     0.040 C 
ENDBRANCH  18  19
ENDBRANCH  15  18
ENDBRANCH  10  12
ENDBRANCH   1  10
BRANCH   4  22
HETATM   22  N3  UNL     1      -3.577   2.610  15.224  1.00  0.00    -0.224 N 
ATOM     23  H3  UNL     1      -2.903   2.996  15.884  1.00  0.00     0.177 HD
BRANCH  22  24
HETATM   24  C10 UNL     1      -4.333   1.436  15.558  1.00  0.00     0.151 C 
BRANCH  24  25
HETATM   25  C11 UNL     1      -4.793   1.438  17.000  1.00  0.00     0.107 C 
HETATM   26  C12 UNL     1      -5.142  -0.004  17.348  1.00  0.00     0.021 C 
BRANCH  25  27
HETATM   27  C13 UNL     1      -6.050   2.253  17.195  1.00  0.00     0.392 C 
HETATM   28  F1  UNL     1      -6.102   2.593  18.540  1.00  0.00    -0.171 F 
HETATM   29  F2  UNL     1      -7.137   1.448  16.943  1.00  0.00    -0.171 F 
HETATM   30  F3  UNL     1      -6.054   3.394  16.447  1.00  0.00    -0.171 F 
ENDBRANCH  25  27
ENDBRANCH  24  25
ENDBRANCH  22  24
ENDBRANCH   4  22
BRANCH   7  31
HETATM   31  N5  UNL     1      -3.453   2.411  10.624  1.00  0.00    -0.188 N 
ATOM     32  H5  UNL     1      -3.780   2.771   9.727  1.00  0.00     0.184 HD
BRANCH  31  33
HETATM   33  C15 UNL     1      -2.713   1.184  10.695  1.00  0.00     0.083 A 
HETATM   34  C16 UNL     1      -1.352   1.035  10.604  1.00  0.00     0.138 A 
HETATM   35  N6  UNL     1      -1.120  -0.280  10.722  1.00  0.00    -0.308 N 
HETATM   36  N7  UNL     1      -2.244  -0.953  10.880  1.00  0.00    -0.306 N 
ATOM     37  H6  UNL     1      -0.194  -0.706  10.693  1.00  0.00     0.186 HD
HETATM   38  C17 UNL     1      -2.364  -2.407  11.039  1.00  0.00     0.177 C 
HETATM   39  C18 UNL     1      -3.249  -0.066  10.867  1.00  0.00     0.141 A 
ENDBRANCH  31  33
ENDBRANCH   7  31
TORSDOF 10
ENDMDL
