MODEL 1
REMARK VINA RESULT: -8.875546902      0.000      0.000
REMARK  2 active torsions:
REMARK  status: ('A' for Active; 'I' for Inactive)
REMARK    1  A    between atoms: N1_1  and  S1_4 
REMARK    2  A    between atoms: S1_4  and  C1_7 
ROOT
HETATM    1  C1  UNL     1       1.653  21.386  34.921  1.00  0.00     0.092 A 
HETATM    2  C2  UNL     1       0.596  20.874  35.744  1.00  0.00     0.028 A 
HETATM    3  C3  UNL     1      -0.337  21.658  36.358  1.00  0.00     0.029 A 
HETATM    4  C4  UNL     1      -0.303  23.004  36.209  1.00  0.00     0.112 A 
HETATM    5  C5  UNL     1       0.669  23.562  35.450  1.00  0.00     0.111 A 
HETATM    6  C6  UNL     1       1.648  22.755  34.812  1.00  0.00     0.032 A 
HETATM    7  C7  UNL     1       2.668  23.438  34.014  1.00  0.00     0.006 A 
HETATM    8  C8  UNL     1       3.676  22.736  33.447  1.00  0.00     0.014 A 
HETATM    9  C9  UNL     1       4.659  23.427  32.732  1.00  0.00     0.001 A 
HETATM   10  C10 UNL     1       4.618  24.785  32.604  1.00  0.00     0.002 A 
HETATM   11  C11 UNL     1       3.590  25.475  33.193  1.00  0.00     0.032 A 
HETATM   12  C12 UNL     1       2.596  24.826  33.909  1.00  0.00     0.061 A 
HETATM   13  N2  UNL     1       1.589  25.579  34.559  1.00  0.00    -0.278 N 
ATOM     14  H2  UNL     1       1.563  26.594  34.463  1.00  0.00     0.189 HD
HETATM   15  N3  UNL     1       0.633  24.922  35.331  1.00  0.00    -0.184 N 
HETATM   16  N4  UNL     1      -0.401  25.589  36.017  1.00  0.00    -0.201 N 
ATOM     17  H4  UNL     1      -0.588  26.591  36.044  1.00  0.00     0.202 HD
HETATM   18  S2  UNL     1      -1.277  24.340  36.797  1.00  0.00     0.280 S 
HETATM   19  O3  UNL     1      -2.677  24.279  36.282  1.00  0.00    -0.199 OA
HETATM   20  O4  UNL     1      -1.220  24.443  38.290  1.00  0.00    -0.199 OA
ENDROOT
BRANCH   1  21
HETATM   21  S1  UNL     1       2.600  20.312  34.031  1.00  0.00     0.257 S 
HETATM   22  O1  UNL     1       1.841  18.945  34.280  1.00  0.00    -0.201 OA
HETATM   23  O2  UNL     1       3.878  19.740  34.545  1.00  0.00    -0.201 OA
BRANCH  21  24
HETATM   24  N1  UNL     1       2.339  20.176  32.305  1.00  0.00    -0.324 N 
ATOM     25  H12 UNL     1       1.788  19.547  31.720  1.00  0.00     0.169 HD
ATOM     26  H11 UNL     1       2.954  20.970  32.133  1.00  0.00     0.169 HD
ENDBRANCH  21  24
ENDBRANCH   1  21
TORSDOF 2
ENDMDL
MODEL 2
REMARK VINA RESULT: -8.835003926      3.228      6.021
REMARK  2 active torsions:
REMARK  status: ('A' for Active; 'I' for Inactive)
REMARK    1  A    between atoms: N1_1  and  S1_4 
REMARK    2  A    between atoms: S1_4  and  C1_7 
ROOT
HETATM    1  C1  UNL     1      -0.687  23.796  33.957  1.00  0.00     0.092 A 
HETATM    2  C2  UNL     1      -0.111  23.121  32.830  1.00  0.00     0.028 A 
HETATM    3  C3  UNL     1       0.533  21.921  32.910  1.00  0.00     0.029 A 
HETATM    4  C4  UNL     1       0.658  21.292  34.104  1.00  0.00     0.112 A 
HETATM    5  C5  UNL     1       0.143  21.870  35.214  1.00  0.00     0.111 A 
HETATM    6  C6  UNL     1      -0.522  23.122  35.142  1.00  0.00     0.032 A 
HETATM    7  C7  UNL     1      -1.044  23.680  36.390  1.00  0.00     0.006 A 
HETATM    8  C8  UNL     1      -1.617  24.906  36.404  1.00  0.00     0.014 A 
HETATM    9  C9  UNL     1      -2.061  25.429  37.622  1.00  0.00     0.001 A 
HETATM   10  C10 UNL     1      -1.922  24.728  38.786  1.00  0.00     0.002 A 
HETATM   11  C11 UNL     1      -1.332  23.491  38.747  1.00  0.00     0.032 A 
HETATM   12  C12 UNL     1      -0.880  22.938  37.558  1.00  0.00     0.061 A 
HETATM   13  N2  UNL     1      -0.216  21.688  37.570  1.00  0.00    -0.278 N 
ATOM     14  H2  UNL     1      -0.111  21.169  38.441  1.00  0.00     0.189 HD
HETATM   15  N3  UNL     1       0.293  21.173  36.379  1.00  0.00    -0.184 N 
HETATM   16  N4  UNL     1       0.972  19.941  36.295  1.00  0.00    -0.201 N 
ATOM     17  H4  UNL     1       1.174  19.287  37.052  1.00  0.00     0.202 HD
HETATM   18  S2  UNL     1       1.381  19.785  34.639  1.00  0.00     0.280 S 
HETATM   19  O3  UNL     1       0.704  18.597  34.040  1.00  0.00    -0.199 OA
HETATM   20  O4  UNL     1       2.861  19.776  34.411  1.00  0.00    -0.199 OA
ENDROOT
BRANCH   1  21
HETATM   21  S1  UNL     1      -1.655  25.152  33.700  1.00  0.00     0.257 S 
HETATM   22  O1  UNL     1      -1.566  25.307  32.126  1.00  0.00    -0.201 OA
HETATM   23  O2  UNL     1      -1.167  26.547  33.902  1.00  0.00    -0.201 OA
BRANCH  21  24
HETATM   24  N1  UNL     1      -3.392  24.954  33.611  1.00  0.00    -0.324 N 
ATOM     25  H12 UNL     1      -4.021  24.519  32.936  1.00  0.00     0.169 HD
ATOM     26  H11 UNL     1      -3.510  25.444  34.497  1.00  0.00     0.169 HD
ENDBRANCH  21  24
ENDBRANCH   1  21
TORSDOF 2
ENDMDL
MODEL 3
REMARK VINA RESULT: -8.671572954      2.048      2.352
REMARK  2 active torsions:
REMARK  status: ('A' for Active; 'I' for Inactive)
REMARK    1  A    between atoms: N1_1  and  S1_4 
REMARK    2  A    between atoms: S1_4  and  C1_7 
ROOT
HETATM    1  C1  UNL     1       3.522  20.864  35.216  1.00  0.00     0.092 A 
HETATM    2  C2  UNL     1       2.609  19.997  35.904  1.00  0.00     0.028 A 
HETATM    3  C3  UNL     1       1.261  20.202  35.958  1.00  0.00     0.029 A 
HETATM    4  C4  UNL     1       0.708  21.274  35.341  1.00  0.00     0.112 A 
HETATM    5  C5  UNL     1       1.507  22.140  34.675  1.00  0.00     0.111 A 
HETATM    6  C6  UNL     1       2.911  21.939  34.617  1.00  0.00     0.032 A 
HETATM    7  C7  UNL     1       3.704  22.925  33.882  1.00  0.00     0.006 A 
HETATM    8  C8  UNL     1       5.054  22.837  33.858  1.00  0.00     0.014 A 
HETATM    9  C9  UNL     1       5.781  23.824  33.186  1.00  0.00     0.001 A 
HETATM   10  C10 UNL     1       5.155  24.866  32.566  1.00  0.00     0.002 A 
HETATM   11  C11 UNL     1       3.787  24.938  32.610  1.00  0.00     0.032 A 
HETATM   12  C12 UNL     1       3.030  23.978  33.265  1.00  0.00     0.061 A 
HETATM   13  N2  UNL     1       1.624  24.123  33.347  1.00  0.00    -0.278 N 
ATOM     14  H2  UNL     1       1.160  24.905  32.885  1.00  0.00     0.189 HD
HETATM   15  N3  UNL     1       0.880  23.188  34.064  1.00  0.00    -0.184 N 
HETATM   16  N4  UNL     1      -0.521  23.255  34.203  1.00  0.00    -0.201 N 
ATOM     17  H4  UNL     1      -1.153  23.956  33.819  1.00  0.00     0.202 HD
HETATM   18  S2  UNL     1      -0.924  21.893  35.162  1.00  0.00     0.280 S 
HETATM   19  O3  UNL     1      -1.798  20.953  34.398  1.00  0.00    -0.199 OA
HETATM   20  O4  UNL     1      -1.513  22.275  36.484  1.00  0.00    -0.199 OA
ENDROOT
BRANCH   1  21
HETATM   21  S1  UNL     1       5.126  20.385  35.021  1.00  0.00     0.257 S 
HETATM   22  O1  UNL     1       5.114  18.960  35.713  1.00  0.00    -0.201 OA
HETATM   23  O2  UNL     1       6.226  20.851  35.914  1.00  0.00    -0.201 OA
BRANCH  21  24
HETATM   24  N1  UNL     1       5.624  19.672  33.501  1.00  0.00    -0.324 N 
ATOM     25  H12 UNL     1       6.457  19.172  33.193  1.00  0.00     0.169 HD
ATOM     26  H11 UNL     1       4.750  19.961  33.061  1.00  0.00     0.169 HD
ENDBRANCH  21  24
ENDBRANCH   1  21
TORSDOF 2
ENDMDL
MODEL 4
REMARK VINA RESULT: -8.344961177      2.875      5.104
REMARK  2 active torsions:
REMARK  status: ('A' for Active; 'I' for Inactive)
REMARK    1  A    between atoms: N1_1  and  S1_4 
REMARK    2  A    between atoms: S1_4  and  C1_7 
ROOT
HETATM    1  C1  UNL     1       1.670  21.524  33.643  1.00  0.00     0.092 A 
HETATM    2  C2  UNL     1       2.682  20.651  33.122  1.00  0.00     0.028 A 
HETATM    3  C3  UNL     1       3.957  21.048  32.841  1.00  0.00     0.029 A 
HETATM    4  C4  UNL     1       4.335  22.332  33.052  1.00  0.00     0.112 A 
HETATM    5  C5  UNL     1       3.433  23.216  33.538  1.00  0.00     0.111 A 
HETATM    6  C6  UNL     1       2.102  22.815  33.827  1.00  0.00     0.032 A 
HETATM    7  C7  UNL     1       1.188  23.835  34.344  1.00  0.00     0.006 A 
HETATM    8  C8  UNL     1      -0.114  23.538  34.563  1.00  0.00     0.014 A 
HETATM    9  C9  UNL     1      -0.969  24.550  35.011  1.00  0.00     0.001 A 
HETATM   10  C10 UNL     1      -0.514  25.819  35.224  1.00  0.00     0.002 A 
HETATM   11  C11 UNL     1       0.808  26.097  34.988  1.00  0.00     0.032 A 
HETATM   12  C12 UNL     1       1.688  25.120  34.544  1.00  0.00     0.061 A 
HETATM   13  N2  UNL     1       3.029  25.462  34.248  1.00  0.00    -0.278 N 
ATOM     14  H2  UNL     1       3.365  26.412  34.405  1.00  0.00     0.189 HD
HETATM   15  N3  UNL     1       3.887  24.489  33.740  1.00  0.00    -0.184 N 
HETATM   16  N4  UNL     1       5.235  24.737  33.411  1.00  0.00    -0.201 N 
ATOM     17  H4  UNL     1       5.745  25.616  33.496  1.00  0.00     0.202 HD
HETATM   18  S2  UNL     1       5.824  23.235  32.839  1.00  0.00     0.280 S 
HETATM   19  O3  UNL     1       6.916  22.727  33.723  1.00  0.00    -0.199 OA
HETATM   20  O4  UNL     1       6.232  23.288  31.399  1.00  0.00    -0.199 OA
ENDROOT
BRANCH   1  21
HETATM   21  S1  UNL     1       0.207  20.871  34.167  1.00  0.00     0.257 S 
HETATM   22  O1  UNL     1       0.513  19.319  34.096  1.00  0.00    -0.201 OA
HETATM   23  O2  UNL     1      -0.978  20.717  33.275  1.00  0.00    -0.201 OA
BRANCH  21  24
HETATM   24  N1  UNL     1      -0.107  20.758  35.886  1.00  0.00    -0.324 N 
ATOM     25  H12 UNL     1       0.124  20.072  36.604  1.00  0.00     0.169 HD
ATOM     26  H11 UNL     1      -0.608  21.647  35.869  1.00  0.00     0.169 HD
ENDBRANCH  21  24
ENDBRANCH   1  21
TORSDOF 2
ENDMDL
MODEL 5
REMARK VINA RESULT: -8.311169123      1.010      1.052
REMARK  2 active torsions:
REMARK  status: ('A' for Active; 'I' for Inactive)
REMARK    1  A    between atoms: N1_1  and  S1_4 
REMARK    2  A    between atoms: S1_4  and  C1_7 
ROOT
HETATM    1  C1  UNL     1       2.429  21.338  35.415  1.00  0.00     0.092 A 
HETATM    2  C2  UNL     1       1.458  20.659  36.224  1.00  0.00     0.028 A 
HETATM    3  C3  UNL     1       0.245  21.188  36.559  1.00  0.00     0.029 A 
HETATM    4  C4  UNL     1      -0.105  22.423  36.126  1.00  0.00     0.112 A 
HETATM    5  C5  UNL     1       0.762  23.126  35.362  1.00  0.00     0.111 A 
HETATM    6  C6  UNL     1       2.028  22.588  35.012  1.00  0.00     0.032 A 
HETATM    7  C7  UNL     1       2.909  23.417  34.187  1.00  0.00     0.006 A 
HETATM    8  C8  UNL     1       4.160  22.997  33.887  1.00  0.00     0.014 A 
HETATM    9  C9  UNL     1       4.990  23.836  33.138  1.00  0.00     0.001 A 
HETATM   10  C10 UNL     1       4.562  25.061  32.714  1.00  0.00     0.002 A 
HETATM   11  C11 UNL     1       3.293  25.468  33.037  1.00  0.00     0.032 A 
HETATM   12  C12 UNL     1       2.439  24.664  33.777  1.00  0.00     0.061 A 
HETATM   13  N2  UNL     1       1.161  25.146  34.148  1.00  0.00    -0.278 N 
ATOM     14  H2  UNL     1       0.846  26.063  33.832  1.00  0.00     0.189 HD
HETATM   15  N3  UNL     1       0.337  24.357  34.948  1.00  0.00    -0.184 N 
HETATM   16  N4  UNL     1      -0.947  24.756  35.370  1.00  0.00    -0.201 N 
ATOM     17  H4  UNL     1      -1.429  25.630  35.160  1.00  0.00     0.202 HD
HETATM   18  S2  UNL     1      -1.518  23.446  36.313  1.00  0.00     0.280 S 
HETATM   19  O3  UNL     1      -2.733  22.840  35.690  1.00  0.00    -0.199 OA
HETATM   20  O4  UNL     1      -1.737  23.821  37.746  1.00  0.00    -0.199 OA
ENDROOT
BRANCH   1  21
HETATM   21  S1  UNL     1       3.786  20.496  34.875  1.00  0.00     0.257 S 
HETATM   22  O1  UNL     1       3.527  19.058  35.486  1.00  0.00    -0.201 OA
HETATM   23  O2  UNL     1       5.114  20.583  35.548  1.00  0.00    -0.201 OA
BRANCH  21  24
HETATM   24  N1  UNL     1       3.789  19.837  33.253  1.00  0.00    -0.324 N 
ATOM     25  H12 UNL     1       4.500  19.394  32.671  1.00  0.00     0.169 HD
ATOM     26  H11 UNL     1       2.805  20.075  33.137  1.00  0.00     0.169 HD
ENDBRANCH  21  24
ENDBRANCH   1  21
TORSDOF 2
ENDMDL
