MODEL 1
REMARK VINA RESULT: -10.220384126      0.000      0.000
REMARK  1 active torsions:
REMARK  status: ('A' for Active; 'I' for Inactive)
REMARK    1  A    between atoms: N5_21  and  C11_22 
ROOT
HETATM    1  O1  UNL     1      -0.205  21.118  33.926  1.00  0.00    -0.267 OA
HETATM    2  C1  UNL     1      -0.523  22.077  34.663  1.00  0.00     0.264 A 
HETATM    3  N1  UNL     1      -1.733  22.255  35.199  1.00  0.00    -0.320 N 
ATOM      4  H1  UNL     1      -2.462  21.569  35.002  1.00  0.00     0.169 HD
HETATM    5  C2  UNL     1      -2.027  23.301  35.986  1.00  0.00     0.077 A 
HETATM    6  C3  UNL     1      -1.075  24.279  36.296  1.00  0.00     0.021 A 
HETATM    7  C4  UNL     1      -1.395  25.339  37.102  1.00  0.00     0.018 A 
HETATM    8  C5  UNL     1      -2.671  25.450  37.616  1.00  0.00     0.033 A 
HETATM    9  C6  UNL     1      -3.634  24.494  37.323  1.00  0.00     0.062 A 
HETATM   10  N2  UNL     1      -4.917  24.354  37.675  1.00  0.00    -0.350 N 
ATOM     11  H2  UNL     1      -5.438  24.994  38.275  1.00  0.00     0.166 HD
HETATM   12  C7  UNL     1      -5.409  23.242  37.118  1.00  0.00     0.181 A 
HETATM   13  N3  UNL     1      -4.426  22.688  36.415  1.00  0.00    -0.349 N 
ATOM     14  H3  UNL     1      -4.503  21.824  35.876  1.00  0.00     0.167 HD
HETATM   15  C8  UNL     1      -3.313  23.438  36.521  1.00  0.00     0.088 A 
HETATM   16  C9  UNL     1       0.188  24.100  35.742  1.00  0.00     0.070 A 
HETATM   17  N4  UNL     1       1.161  24.975  35.979  1.00  0.00    -0.306 N 
ATOM     18  H4  UNL     1       0.982  25.786  36.572  1.00  0.00     0.171 HD
HETATM   19  C10 UNL     1       2.391  24.793  35.434  1.00  0.00     0.334 A 
HETATM   20  O2  UNL     1       3.288  25.648  35.684  1.00  0.00    -0.246 OA
HETATM   21  N5  UNL     1       2.706  23.763  34.650  1.00  0.00    -0.229 N 
HETATM   22  C17 UNL     1       1.730  22.877  34.408  1.00  0.00     0.274 A 
HETATM   23  O3  UNL     1       1.960  21.887  33.679  1.00  0.00    -0.266 OA
HETATM   24  C18 UNL     1       0.462  23.014  34.936  1.00  0.00     0.128 A 
ENDROOT
BRANCH  21  25
HETATM   25  C11 UNL     1       4.008  23.610  34.099  1.00  0.00     0.047 A 
HETATM   26  C12 UNL     1       4.359  24.314  32.960  1.00  0.00     0.030 A 
HETATM   27  C13 UNL     1       5.615  24.188  32.402  1.00  0.00     0.002 A 
HETATM   28  C14 UNL     1       6.562  23.341  32.979  1.00  0.00     0.000 A 
HETATM   29  C15 UNL     1       6.226  22.630  34.120  1.00  0.00     0.002 A 
HETATM   30  C16 UNL     1       4.960  22.770  34.666  1.00  0.00     0.030 A 
ENDBRANCH  21  25
TORSDOF 1
ENDMDL
MODEL 2
REMARK VINA RESULT: -9.592819800      1.632      1.722
REMARK  1 active torsions:
REMARK  status: ('A' for Active; 'I' for Inactive)
REMARK    1  A    between atoms: N5_21  and  C11_22 
ROOT
HETATM    1  O1  UNL     1       0.565  21.033  36.774  1.00  0.00    -0.267 OA
HETATM    2  C1  UNL     1      -0.088  21.957  36.240  1.00  0.00     0.264 A 
HETATM    3  N1  UNL     1      -1.360  22.252  36.524  1.00  0.00    -0.320 N 
ATOM      4  H1  UNL     1      -1.847  21.693  37.225  1.00  0.00     0.169 HD
HETATM    5  C2  UNL     1      -2.019  23.254  35.924  1.00  0.00     0.077 A 
HETATM    6  C3  UNL     1      -1.410  24.059  34.954  1.00  0.00     0.021 A 
HETATM    7  C4  UNL     1      -2.101  25.078  34.354  1.00  0.00     0.018 A 
HETATM    8  C5  UNL     1      -3.414  25.317  34.705  1.00  0.00     0.033 A 
HETATM    9  C6  UNL     1      -4.041  24.533  35.663  1.00  0.00     0.062 A 
HETATM   10  N2  UNL     1      -5.274  24.540  36.184  1.00  0.00    -0.350 N 
ATOM     11  H2  UNL     1      -6.018  25.190  35.930  1.00  0.00     0.166 HD
HETATM   12  C7  UNL     1      -5.376  23.561  37.090  1.00  0.00     0.181 A 
HETATM   13  N3  UNL     1      -4.200  22.942  37.133  1.00  0.00    -0.349 N 
ATOM     14  H3  UNL     1      -3.975  22.149  37.734  1.00  0.00     0.167 HD
HETATM   15  C8  UNL     1      -3.351  23.519  36.261  1.00  0.00     0.088 A 
HETATM   16  C9  UNL     1      -0.087  23.758  34.654  1.00  0.00     0.070 A 
HETATM   17  N4  UNL     1       0.579  24.467  33.746  1.00  0.00    -0.306 N 
ATOM     18  H4  UNL     1       0.117  25.238  33.264  1.00  0.00     0.171 HD
HETATM   19  C10 UNL     1       1.871  24.166  33.457  1.00  0.00     0.334 A 
HETATM   20  O2  UNL     1       2.467  24.864  32.588  1.00  0.00    -0.246 OA
HETATM   21  N5  UNL     1       2.546  23.176  34.040  1.00  0.00    -0.229 N 
HETATM   22  C17 UNL     1       1.881  22.458  34.956  1.00  0.00     0.274 A 
HETATM   23  O3  UNL     1       2.458  21.515  35.540  1.00  0.00    -0.266 OA
HETATM   24  C18 UNL     1       0.567  22.721  35.287  1.00  0.00     0.128 A 
ENDROOT
BRANCH  21  25
HETATM   25  C11 UNL     1       3.900  22.895  33.708  1.00  0.00     0.047 A 
HETATM   26  C12 UNL     1       4.203  22.327  32.482  1.00  0.00     0.030 A 
HETATM   27  C13 UNL     1       5.508  22.043  32.131  1.00  0.00     0.002 A 
HETATM   28  C14 UNL     1       6.553  22.324  33.011  1.00  0.00     0.000 A 
HETATM   29  C15 UNL     1       6.266  22.893  34.241  1.00  0.00     0.002 A 
HETATM   30  C16 UNL     1       4.951  23.172  34.577  1.00  0.00     0.030 A 
ENDBRANCH  21  25
TORSDOF 1
ENDMDL
MODEL 3
REMARK VINA RESULT: -9.531901725      2.001      2.188
REMARK  1 active torsions:
REMARK  status: ('A' for Active; 'I' for Inactive)
REMARK    1  A    between atoms: N5_21  and  C11_22 
ROOT
HETATM    1  O1  UNL     1      -1.301  24.825  32.154  1.00  0.00    -0.267 OA
HETATM    2  C1  UNL     1      -1.404  24.980  33.392  1.00  0.00     0.264 A 
HETATM    3  N1  UNL     1      -2.545  25.245  34.033  1.00  0.00    -0.320 N 
ATOM      4  H1  UNL     1      -3.403  25.332  33.489  1.00  0.00     0.169 HD
HETATM    5  C2  UNL     1      -2.604  25.403  35.364  1.00  0.00     0.077 A 
HETATM    6  C3  UNL     1      -1.464  25.297  36.170  1.00  0.00     0.021 A 
HETATM    7  C4  UNL     1      -1.548  25.460  37.526  1.00  0.00     0.018 A 
HETATM    8  C5  UNL     1      -2.767  25.733  38.112  1.00  0.00     0.033 A 
HETATM    9  C6  UNL     1      -3.912  25.844  37.335  1.00  0.00     0.062 A 
HETATM   10  N2  UNL     1      -5.193  26.095  37.629  1.00  0.00    -0.350 N 
ATOM     11  H2  UNL     1      -5.562  26.262  38.566  1.00  0.00     0.166 HD
HETATM   12  C7  UNL     1      -5.914  26.094  36.502  1.00  0.00     0.181 A 
HETATM   13  N3  UNL     1      -5.075  25.840  35.501  1.00  0.00    -0.349 N 
ATOM     14  H3  UNL     1      -5.337  25.776  34.517  1.00  0.00     0.167 HD
HETATM   15  C8  UNL     1      -3.828  25.680  35.984  1.00  0.00     0.088 A 
HETATM   16  C9  UNL     1      -0.273  25.020  35.509  1.00  0.00     0.070 A 
HETATM   17  N4  UNL     1       0.864  24.900  36.187  1.00  0.00    -0.306 N 
ATOM     18  H4  UNL     1       0.866  25.011  37.201  1.00  0.00     0.171 HD
HETATM   19  C10 UNL     1       2.024  24.630  35.535  1.00  0.00     0.334 A 
HETATM   20  O2  UNL     1       3.083  24.524  36.217  1.00  0.00    -0.246 OA
HETATM   21  N5  UNL     1       2.108  24.470  34.215  1.00  0.00    -0.229 N 
HETATM   22  C17 UNL     1       0.965  24.590  33.525  1.00  0.00     0.274 A 
HETATM   23  O3  UNL     1       0.976  24.451  32.282  1.00  0.00    -0.266 OA
HETATM   24  C18 UNL     1      -0.241  24.863  34.138  1.00  0.00     0.128 A 
ENDROOT
BRANCH  21  25
HETATM   25  C11 UNL     1       3.344  24.188  33.571  1.00  0.00     0.047 A 
HETATM   26  C12 UNL     1       3.692  22.876  33.297  1.00  0.00     0.030 A 
HETATM   27  C13 UNL     1       4.885  22.570  32.673  1.00  0.00     0.002 A 
HETATM   28  C14 UNL     1       5.769  23.583  32.304  1.00  0.00     0.000 A 
HETATM   29  C15 UNL     1       5.435  24.901  32.570  1.00  0.00     0.002 A 
HETATM   30  C16 UNL     1       4.233  25.190  33.197  1.00  0.00     0.030 A 
ENDBRANCH  21  25
TORSDOF 1
ENDMDL
MODEL 4
REMARK VINA RESULT: -9.509700868      1.472      1.472
REMARK  1 active torsions:
REMARK  status: ('A' for Active; 'I' for Inactive)
REMARK    1  A    between atoms: N5_21  and  C11_22 
ROOT
HETATM    1  O1  UNL     1      -0.473  23.188  32.164  1.00  0.00    -0.267 OA
HETATM    2  C1  UNL     1      -0.708  23.767  33.249  1.00  0.00     0.264 A 
HETATM    3  N1  UNL     1      -1.925  24.097  33.687  1.00  0.00    -0.320 N 
ATOM      4  H1  UNL     1      -2.733  23.868  33.108  1.00  0.00     0.169 HD
HETATM    5  C2  UNL     1      -2.126  24.718  34.859  1.00  0.00     0.077 A 
HETATM    6  C3  UNL     1      -1.063  25.062  35.702  1.00  0.00     0.021 A 
HETATM    7  C4  UNL     1      -1.290  25.695  36.894  1.00  0.00     0.018 A 
HETATM    8  C5  UNL     1      -2.581  26.002  37.274  1.00  0.00     0.033 A 
HETATM    9  C6  UNL     1      -3.653  25.672  36.456  1.00  0.00     0.062 A 
HETATM   10  N2  UNL     1      -4.975  25.845  36.570  1.00  0.00    -0.350 N 
ATOM     11  H2  UNL     1      -5.446  26.291  37.358  1.00  0.00     0.166 HD
HETATM   12  C7  UNL     1      -5.582  25.340  35.490  1.00  0.00     0.181 A 
HETATM   13  N3  UNL     1      -4.631  24.851  34.700  1.00  0.00    -0.349 N 
ATOM     14  H3  UNL     1      -4.790  24.400  33.798  1.00  0.00     0.167 HD
HETATM   15  C8  UNL     1      -3.425  25.041  35.268  1.00  0.00     0.088 A 
HETATM   16  C9  UNL     1       0.207  24.721  35.252  1.00  0.00     0.070 A 
HETATM   17  N4  UNL     1       1.282  25.005  35.983  1.00  0.00    -0.306 N 
ATOM     18  H4  UNL     1       1.176  25.477  36.881  1.00  0.00     0.171 HD
HETATM   19  C10 UNL     1       2.520  24.669  35.537  1.00  0.00     0.334 A 
HETATM   20  O2  UNL     1       3.515  24.957  36.261  1.00  0.00    -0.246 OA
HETATM   21  N5  UNL     1       2.744  24.053  34.377  1.00  0.00    -0.229 N 
HETATM   22  C17 UNL     1       1.665  23.764  33.636  1.00  0.00     0.274 A 
HETATM   23  O3  UNL     1       1.808  23.185  32.536  1.00  0.00    -0.266 OA
HETATM   24  C18 UNL     1       0.385  24.082  34.042  1.00  0.00     0.128 A 
ENDROOT
BRANCH  21  25
HETATM   25  C11 UNL     1       4.058  23.719  33.947  1.00  0.00     0.047 A 
HETATM   26  C12 UNL     1       4.718  24.542  33.052  1.00  0.00     0.030 A 
HETATM   27  C13 UNL     1       5.994  24.245  32.616  1.00  0.00     0.002 A 
HETATM   28  C14 UNL     1       6.647  23.101  33.073  1.00  0.00     0.000 A 
HETATM   29  C15 UNL     1       6.000  22.266  33.970  1.00  0.00     0.002 A 
HETATM   30  C16 UNL     1       4.720  22.580  34.396  1.00  0.00     0.030 A 
ENDBRANCH  21  25
TORSDOF 1
ENDMDL
MODEL 5
REMARK VINA RESULT: -9.488213703      2.055      7.426
REMARK  1 active torsions:
REMARK  status: ('A' for Active; 'I' for Inactive)
REMARK    1  A    between atoms: N5_21  and  C11_22 
ROOT
HETATM    1  O1  UNL     1       1.324  20.528  35.531  1.00  0.00    -0.267 OA
HETATM    2  C1  UNL     1       1.738  21.639  35.129  1.00  0.00     0.264 A 
HETATM    3  N1  UNL     1       2.831  21.819  34.384  1.00  0.00    -0.320 N 
ATOM      4  H1  UNL     1       3.380  21.003  34.114  1.00  0.00     0.169 HD
HETATM    5  C2  UNL     1       3.235  23.032  33.977  1.00  0.00     0.077 A 
HETATM    6  C3  UNL     1       2.528  24.193  34.311  1.00  0.00     0.021 A 
HETATM    7  C4  UNL     1       2.958  25.421  33.884  1.00  0.00     0.018 A 
HETATM    8  C5  UNL     1       4.099  25.521  33.116  1.00  0.00     0.033 A 
HETATM    9  C6  UNL     1       4.818  24.385  32.771  1.00  0.00     0.062 A 
HETATM   10  N2  UNL     1       5.932  24.192  32.055  1.00  0.00    -0.350 N 
ATOM     11  H2  UNL     1       6.480  24.927  31.608  1.00  0.00     0.166 HD
HETATM   12  C7  UNL     1       6.213  22.885  32.020  1.00  0.00     0.181 A 
HETATM   13  N3  UNL     1       5.268  22.261  32.717  1.00  0.00    -0.349 N 
ATOM     14  H3  UNL     1       5.217  21.253  32.867  1.00  0.00     0.167 HD
HETATM   15  C8  UNL     1       4.389  23.162  33.197  1.00  0.00     0.088 A 
HETATM   16  C9  UNL     1       1.389  24.013  35.087  1.00  0.00     0.070 A 
HETATM   17  N4  UNL     1       0.650  25.056  35.455  1.00  0.00    -0.306 N 
ATOM     18  H4  UNL     1       0.920  25.997  35.168  1.00  0.00     0.171 HD
HETATM   19  C10 UNL     1      -0.461  24.873  36.213  1.00  0.00     0.334 A 
HETATM   20  O2  UNL     1      -1.135  25.890  36.542  1.00  0.00    -0.246 OA
HETATM   21  N5  UNL     1      -0.881  23.678  36.630  1.00  0.00    -0.229 N 
HETATM   22  C17 UNL     1      -0.141  22.623  36.261  1.00  0.00     0.274 A 
HETATM   23  O3  UNL     1      -0.482  21.474  36.619  1.00  0.00    -0.266 OA
HETATM   24  C18 UNL     1       0.997  22.754  35.492  1.00  0.00     0.128 A 
ENDROOT
BRANCH  21  25
HETATM   25  C11 UNL     1      -2.052  23.530  37.423  1.00  0.00     0.047 A 
HETATM   26  C12 UNL     1      -1.959  23.587  38.803  1.00  0.00     0.030 A 
HETATM   27  C13 UNL     1      -3.077  23.447  39.600  1.00  0.00     0.002 A 
HETATM   28  C14 UNL     1      -4.332  23.244  39.026  1.00  0.00     0.000 A 
HETATM   29  C15 UNL     1      -4.442  23.186  37.646  1.00  0.00     0.002 A 
HETATM   30  C16 UNL     1      -3.309  23.328  36.862  1.00  0.00     0.030 A 
ENDBRANCH  21  25
TORSDOF 1
ENDMDL
