MODEL 1
REMARK VINA RESULT: -7.418112817      0.000      0.000
REMARK  5 active torsions:
REMARK  status: ('A' for Active; 'I' for Inactive)
REMARK    1  A    between atoms: N1_2  and  C2_4 
REMARK    2  A    between atoms: C5_9  and  C6_10 
REMARK    3  A    between atoms: C7_11  and  C8_12 
REMARK    4  A    between atoms: C10_16  and  S1_17 
REMARK    5  A    between atoms: C15_23  and  N5_24 
ROOT
HETATM    1  C8  UNL     1      -3.306  23.540  36.644  1.00  0.00     0.108 A 
HETATM    2  N3  UNL     1      -4.094  24.074  35.686  1.00  0.00    -0.356 N 
ATOM      3  H3  UNL     1      -3.797  24.041  34.711  1.00  0.00     0.166 HD
HETATM    4  C9  UNL     1      -5.266  24.647  36.007  1.00  0.00     0.107 A 
HETATM    5  C10 UNL     1      -5.687  24.704  37.312  1.00  0.00     0.017 A 
HETATM    6  C12 UNL     1      -4.900  24.167  38.304  1.00  0.00     0.045 A 
HETATM    7  C13 UNL     1      -3.692  23.576  37.975  1.00  0.00     0.081 A 
HETATM    8  C14 UNL     1      -2.827  22.996  38.982  1.00  0.00     0.102 C 
HETATM    9  N4  UNL     1      -2.131  22.516  39.775  1.00  0.00    -0.191 NA
ENDROOT
BRANCH   1  10
HETATM   10  C7  UNL     1      -2.039  22.918  36.310  1.00  0.00    -0.042 C 
HETATM   11  C6  UNL     1      -0.995  22.396  36.015  1.00  0.00    -0.056 C 
BRANCH  11  12
HETATM   12  C5  UNL     1       0.241  21.737  35.690  1.00  0.00     0.064 A 
HETATM   13  C4  UNL     1       0.793  20.838  36.616  1.00  0.00     0.058 A 
HETATM   14  C3  UNL     1       1.973  20.185  36.349  1.00  0.00     0.095 A 
HETATM   15  N2  UNL     1       2.708  19.294  37.038  1.00  0.00    -0.188 N 
HETATM   16  C17 UNL     1       2.655  20.394  35.159  1.00  0.00     0.150 A 
HETATM   17  C2  UNL     1       3.795  18.941  36.354  1.00  0.00     0.679 A 
ATOM     18  H2  UNL     1       2.465  18.936  37.961  1.00  0.00     0.184 HD
HETATM   19  N7  UNL     1       3.764  19.619  35.194  1.00  0.00    -0.174 N 
ATOM     20  H7  UNL     1       4.465  19.558  34.457  1.00  0.00     0.186 HD
HETATM   21  N6  UNL     1       2.120  21.243  34.303  1.00  0.00    -0.325 N 
HETATM   22  C15 UNL     1       0.929  21.931  34.522  1.00  0.00     0.125 A 
ATOM     23  H6  UNL     1       2.610  21.406  33.423  1.00  0.00     0.169 HD
BRANCH  17  24
HETATM   24  N1  UNL     1       4.718  18.097  36.735  1.00  0.00    -0.230 N 
HETATM   25  C1  UNL     1       4.430  17.179  37.816  1.00  0.00     0.165 C 
ATOM     26  H1  UNL     1       5.628  18.086  36.276  1.00  0.00     0.177 HD
ENDBRANCH  17  24
BRANCH  22  27
HETATM   27  N5  UNL     1       0.545  22.701  33.620  1.00  0.00    -0.361 N 
HETATM   28  C16 UNL     1       0.567  22.757  32.254  1.00  0.00     0.120 C 
ATOM     29  H5  UNL     1       0.084  23.522  34.013  1.00  0.00     0.165 HD
ENDBRANCH  22  27
ENDBRANCH  11  12
ENDBRANCH   1  10
BRANCH   5  30
HETATM   30  S1  UNL     1      -7.234  25.460  37.747  1.00  0.00    -0.133 SA
HETATM   31  C11 UNL     1      -7.995  24.583  39.157  1.00  0.00     0.095 C 
ENDBRANCH   5  30
TORSDOF 5
ENDMDL
MODEL 2
REMARK VINA RESULT: -7.284671727      3.240      3.744
REMARK  5 active torsions:
REMARK  status: ('A' for Active; 'I' for Inactive)
REMARK    1  A    between atoms: N1_2  and  C2_4 
REMARK    2  A    between atoms: C5_9  and  C6_10 
REMARK    3  A    between atoms: C7_11  and  C8_12 
REMARK    4  A    between atoms: C10_16  and  S1_17 
REMARK    5  A    between atoms: C15_23  and  N5_24 
ROOT
HETATM    1  C8  UNL     1      -3.791  23.378  36.655  1.00  0.00     0.108 A 
HETATM    2  N3  UNL     1      -4.734  22.501  36.254  1.00  0.00    -0.356 N 
ATOM      3  H3  UNL     1      -4.592  21.960  35.401  1.00  0.00     0.166 HD
HETATM    4  C9  UNL     1      -5.860  22.334  36.968  1.00  0.00     0.107 A 
HETATM    5  C10 UNL     1      -6.075  23.051  38.118  1.00  0.00     0.017 A 
HETATM    6  C12 UNL     1      -5.128  23.951  38.546  1.00  0.00     0.045 A 
HETATM    7  C13 UNL     1      -3.967  24.124  37.811  1.00  0.00     0.081 A 
HETATM    8  C14 UNL     1      -2.938  25.059  38.218  1.00  0.00     0.102 C 
HETATM    9  N4  UNL     1      -2.101  25.794  38.538  1.00  0.00    -0.191 NA
ENDROOT
BRANCH   1  10
HETATM   10  C7  UNL     1      -2.572  23.567  35.893  1.00  0.00    -0.042 C 
HETATM   11  C6  UNL     1      -1.570  23.721  35.242  1.00  0.00    -0.056 C 
BRANCH  11  12
HETATM   12  C5  UNL     1      -0.360  23.861  34.478  1.00  0.00     0.064 A 
HETATM   13  C4  UNL     1       0.863  23.523  35.077  1.00  0.00     0.058 A 
HETATM   14  C3  UNL     1       2.045  23.642  34.384  1.00  0.00     0.095 A 
HETATM   15  N2  UNL     1       3.328  23.395  34.703  1.00  0.00    -0.188 N 
HETATM   16  C17 UNL     1       2.066  24.099  33.074  1.00  0.00     0.150 A 
HETATM   17  C2  UNL     1       4.136  23.669  33.681  1.00  0.00     0.679 A 
ATOM     18  H2  UNL     1       3.640  23.044  35.608  1.00  0.00     0.184 HD
HETATM   19  N7  UNL     1       3.359  24.103  32.674  1.00  0.00    -0.174 N 
ATOM     20  H7  UNL     1       3.691  24.392  31.754  1.00  0.00     0.186 HD
HETATM   21  N6  UNL     1       0.905  24.412  32.529  1.00  0.00    -0.325 N 
HETATM   22  C15 UNL     1      -0.319  24.311  33.185  1.00  0.00     0.125 A 
ATOM     23  H6  UNL     1       0.905  24.749  31.566  1.00  0.00     0.169 HD
BRANCH  17  24
HETATM   24  N1  UNL     1       5.436  23.541  33.657  1.00  0.00    -0.230 N 
HETATM   25  C1  UNL     1       6.177  24.080  32.537  1.00  0.00     0.165 C 
ATOM     26  H1  UNL     1       5.922  23.066  34.418  1.00  0.00     0.177 HD
ENDBRANCH  17  24
BRANCH  22  27
HETATM   27  N5  UNL     1      -1.334  24.642  32.541  1.00  0.00    -0.361 N 
HETATM   28  C16 UNL     1      -1.971  25.794  32.169  1.00  0.00     0.120 C 
ATOM     29  H5  UNL     1      -1.831  23.822  32.194  1.00  0.00     0.165 HD
ENDBRANCH  22  27
ENDBRANCH  11  12
ENDBRANCH   1  10
BRANCH   5  30
HETATM   30  S1  UNL     1      -7.560  22.839  39.070  1.00  0.00    -0.133 SA
HETATM   31  C11 UNL     1      -8.244  21.165  38.817  1.00  0.00     0.095 C 
ENDBRANCH   5  30
TORSDOF 5
ENDMDL
MODEL 3
REMARK VINA RESULT: -7.258459425      4.805      9.956
REMARK  5 active torsions:
REMARK  status: ('A' for Active; 'I' for Inactive)
REMARK    1  A    between atoms: N1_2  and  C2_4 
REMARK    2  A    between atoms: C5_9  and  C6_10 
REMARK    3  A    between atoms: C7_11  and  C8_12 
REMARK    4  A    between atoms: C10_16  and  S1_17 
REMARK    5  A    between atoms: C15_23  and  N5_24 
ROOT
HETATM    1  C8  UNL     1       1.572  24.365  32.969  1.00  0.00     0.108 A 
HETATM    2  N3  UNL     1       2.524  25.320  32.915  1.00  0.00    -0.356 N 
ATOM      3  H3  UNL     1       2.263  26.301  33.019  1.00  0.00     0.166 HD
HETATM    4  C9  UNL     1       3.812  24.990  32.724  1.00  0.00     0.107 A 
HETATM    5  C10 UNL     1       4.188  23.678  32.579  1.00  0.00     0.017 A 
HETATM    6  C12 UNL     1       3.235  22.688  32.631  1.00  0.00     0.045 A 
HETATM    7  C13 UNL     1       1.907  23.027  32.828  1.00  0.00     0.081 A 
HETATM    8  C14 UNL     1       0.864  22.023  32.889  1.00  0.00     0.102 C 
HETATM    9  N4  UNL     1       0.021  21.230  32.954  1.00  0.00    -0.191 NA
ENDROOT
BRANCH   1  10
HETATM   10  C7  UNL     1       0.178  24.709  33.175  1.00  0.00    -0.042 C 
HETATM   11  C6  UNL     1      -0.974  25.013  33.349  1.00  0.00    -0.056 C 
BRANCH  11  12
HETATM   12  C5  UNL     1      -2.347  25.359  33.599  1.00  0.00     0.064 A 
HETATM   13  C4  UNL     1      -3.251  25.366  32.525  1.00  0.00     0.058 A 
HETATM   14  C3  UNL     1      -4.573  25.691  32.717  1.00  0.00     0.095 A 
HETATM   15  N2  UNL     1      -5.630  25.775  31.889  1.00  0.00    -0.188 N 
HETATM   16  C17 UNL     1      -5.055  26.023  33.975  1.00  0.00     0.150 A 
HETATM   17  C2  UNL     1      -6.728  26.135  32.551  1.00  0.00     0.679 A 
ATOM     18  H2  UNL     1      -5.594  25.587  30.888  1.00  0.00     0.184 HD
HETATM   19  N7  UNL     1      -6.375  26.288  33.838  1.00  0.00    -0.174 N 
ATOM     20  H7  UNL     1      -7.003  26.562  34.594  1.00  0.00     0.186 HD
HETATM   21  N6  UNL     1      -4.190  26.011  34.971  1.00  0.00    -0.325 N 
HETATM   22  C15 UNL     1      -2.842  25.690  34.833  1.00  0.00     0.125 A 
ATOM     23  H6  UNL     1      -4.530  26.252  35.902  1.00  0.00     0.169 HD
BRANCH  17  24
HETATM   24  N1  UNL     1      -7.922  26.307  32.048  1.00  0.00    -0.230 N 
HETATM   25  C1  UNL     1      -8.051  26.710  30.664  1.00  0.00     0.165 C 
ATOM     26  H1  UNL     1      -8.751  26.160  32.624  1.00  0.00     0.177 HD
ENDBRANCH  17  24
BRANCH  22  27
HETATM   27  N5  UNL     1      -2.144  25.721  35.865  1.00  0.00    -0.361 N 
HETATM   28  C16 UNL     1      -2.332  25.739  37.220  1.00  0.00     0.120 C 
ATOM     29  H5  UNL     1      -1.150  25.736  35.635  1.00  0.00     0.165 HD
ENDBRANCH  22  27
ENDBRANCH  11  12
ENDBRANCH   1  10
BRANCH   5  30
HETATM   30  S1  UNL     1       5.888  23.230  32.326  1.00  0.00    -0.133 SA
HETATM   31  C11 UNL     1       6.229  21.591  33.055  1.00  0.00     0.095 C 
ENDBRANCH   5  30
TORSDOF 5
ENDMDL
MODEL 4
REMARK VINA RESULT: -7.213554240      2.599      3.248
REMARK  5 active torsions:
REMARK  status: ('A' for Active; 'I' for Inactive)
REMARK    1  A    between atoms: N1_2  and  C2_4 
REMARK    2  A    between atoms: C5_9  and  C6_10 
REMARK    3  A    between atoms: C7_11  and  C8_12 
REMARK    4  A    between atoms: C10_16  and  S1_17 
REMARK    5  A    between atoms: C15_23  and  N5_24 
ROOT
HETATM    1  C8  UNL     1      -1.807  24.509  33.784  1.00  0.00     0.108 A 
HETATM    2  N3  UNL     1      -2.136  24.908  32.538  1.00  0.00    -0.356 N 
ATOM      3  H3  UNL     1      -1.481  24.761  31.770  1.00  0.00     0.166 HD
HETATM    4  C9  UNL     1      -3.319  25.498  32.300  1.00  0.00     0.107 A 
HETATM    5  C10 UNL     1      -4.217  25.708  33.316  1.00  0.00     0.017 A 
HETATM    6  C12 UNL     1      -3.902  25.310  34.595  1.00  0.00     0.045 A 
HETATM    7  C13 UNL     1      -2.683  24.701  34.840  1.00  0.00     0.081 A 
HETATM    8  C14 UNL     1      -2.303  24.263  36.169  1.00  0.00     0.102 C 
HETATM    9  N4  UNL     1      -1.992  23.896  37.223  1.00  0.00    -0.191 NA
ENDROOT
BRANCH   1  10
HETATM   10  C7  UNL     1      -0.532  23.871  34.053  1.00  0.00    -0.042 C 
HETATM   11  C6  UNL     1       0.523  23.329  34.260  1.00  0.00    -0.056 C 
BRANCH  11  12
HETATM   12  C5  UNL     1       1.763  22.657  34.541  1.00  0.00     0.064 A 
HETATM   13  C4  UNL     1       1.725  21.363  35.082  1.00  0.00     0.058 A 
HETATM   14  C3  UNL     1       2.885  20.683  35.368  1.00  0.00     0.095 A 
HETATM   15  N2  UNL     1       3.136  19.463  35.877  1.00  0.00    -0.188 N 
HETATM   16  C17 UNL     1       4.128  21.252  35.131  1.00  0.00     0.150 A 
HETATM   17  C2  UNL     1       4.446  19.244  35.970  1.00  0.00     0.679 A 
ATOM     18  H2  UNL     1       2.417  18.795  36.155  1.00  0.00     0.184 HD
HETATM   19  N7  UNL     1       5.060  20.347  35.510  1.00  0.00    -0.174 N 
ATOM     20  H7  UNL     1       6.069  20.481  35.455  1.00  0.00     0.186 HD
HETATM   21  N6  UNL     1       4.142  22.470  34.622  1.00  0.00    -0.325 N 
HETATM   22  C15 UNL     1       2.999  23.203  34.315  1.00  0.00     0.125 A 
ATOM     23  H6  UNL     1       5.049  22.902  34.442  1.00  0.00     0.169 HD
BRANCH  17  24
HETATM   24  N1  UNL     1       5.027  18.164  36.421  1.00  0.00    -0.230 N 
HETATM   25  C1  UNL     1       4.402  17.425  37.497  1.00  0.00     0.165 C 
ATOM     26  H1  UNL     1       5.910  17.847  36.021  1.00  0.00     0.177 HD
ENDBRANCH  17  24
BRANCH  22  27
HETATM   27  N5  UNL     1       3.168  24.343  33.839  1.00  0.00    -0.361 N 
HETATM   28  C16 UNL     1       3.579  24.901  32.660  1.00  0.00     0.120 C 
ATOM     29  H5  UNL     1       2.933  25.063  34.522  1.00  0.00     0.165 HD
ENDBRANCH  22  27
ENDBRANCH  11  12
ENDBRANCH   1  10
BRANCH   5  30
HETATM   30  S1  UNL     1      -5.784  26.487  33.014  1.00  0.00    -0.133 SA
HETATM   31  C11 UNL     1      -6.590  25.748  31.551  1.00  0.00     0.095 C 
ENDBRANCH   5  30
TORSDOF 5
ENDMDL
MODEL 5
REMARK VINA RESULT: -7.162651029      1.337      2.074
REMARK  5 active torsions:
REMARK  status: ('A' for Active; 'I' for Inactive)
REMARK    1  A    between atoms: N1_2  and  C2_4 
REMARK    2  A    between atoms: C5_9  and  C6_10 
REMARK    3  A    between atoms: C7_11  and  C8_12 
REMARK    4  A    between atoms: C10_16  and  S1_17 
REMARK    5  A    between atoms: C15_23  and  N5_24 
ROOT
HETATM    1  C8  UNL     1      -3.125  23.662  35.836  1.00  0.00     0.108 A 
HETATM    2  N3  UNL     1      -4.084  23.048  36.560  1.00  0.00    -0.356 N 
ATOM      3  H3  UNL     1      -3.907  22.124  36.954  1.00  0.00     0.166 HD
HETATM    4  C9  UNL     1      -5.270  23.644  36.766  1.00  0.00     0.107 A 
HETATM    5  C10 UNL     1      -5.532  24.887  36.246  1.00  0.00     0.017 A 
HETATM    6  C12 UNL     1      -4.570  25.531  35.505  1.00  0.00     0.045 A 
HETATM    7  C13 UNL     1      -3.347  24.917  35.292  1.00  0.00     0.081 A 
HETATM    8  C14 UNL     1      -2.299  25.553  34.518  1.00  0.00     0.102 C 
HETATM    9  N4  UNL     1      -1.447  26.055  33.913  1.00  0.00    -0.191 NA
ENDROOT
BRANCH   1  10
HETATM   10  C7  UNL     1      -1.840  23.029  35.607  1.00  0.00    -0.042 C 
HETATM   11  C6  UNL     1      -0.783  22.488  35.407  1.00  0.00    -0.056 C 
BRANCH  11  12
HETATM   12  C5  UNL     1       0.480  21.828  35.213  1.00  0.00     0.064 A 
HETATM   13  C4  UNL     1       0.901  20.879  36.158  1.00  0.00     0.058 A 
HETATM   14  C3  UNL     1       2.101  20.224  36.014  1.00  0.00     0.095 A 
HETATM   15  N2  UNL     1       2.735  19.292  36.748  1.00  0.00    -0.188 N 
HETATM   16  C17 UNL     1       2.933  20.479  34.933  1.00  0.00     0.150 A 
HETATM   17  C2  UNL     1       3.898  18.957  36.194  1.00  0.00     0.679 A 
ATOM     18  H2  UNL     1       2.372  18.895  37.614  1.00  0.00     0.184 HD
HETATM   19  N7  UNL     1       4.022  19.688  35.073  1.00  0.00    -0.174 N 
ATOM     20  H7  UNL     1       4.813  19.653  34.430  1.00  0.00     0.186 HD
HETATM   21  N6  UNL     1       2.519  21.374  34.056  1.00  0.00    -0.325 N 
HETATM   22  C15 UNL     1       1.315  22.067  34.154  1.00  0.00     0.125 A 
ATOM     23  H6  UNL     1       3.120  21.572  33.256  1.00  0.00     0.169 HD
BRANCH  17  24
HETATM   24  N1  UNL     1       4.758  18.084  36.649  1.00  0.00    -0.230 N 
HETATM   25  C1  UNL     1       4.408  17.290  37.808  1.00  0.00     0.165 C 
ATOM     26  H1  UNL     1       5.663  17.965  36.194  1.00  0.00     0.177 HD
ENDBRANCH  17  24
BRANCH  22  27
HETATM   27  N5  UNL     1       1.056  22.883  33.248  1.00  0.00    -0.361 N 
HETATM   28  C16 UNL     1       1.464  24.128  32.855  1.00  0.00     0.120 C 
ATOM     29  H5  UNL     1       0.337  22.520  32.622  1.00  0.00     0.165 HD
ENDBRANCH  22  27
ENDBRANCH  11  12
ENDBRANCH   1  10
BRANCH   5  30
HETATM   30  S1  UNL     1      -7.097  25.684  36.512  1.00  0.00    -0.133 SA
HETATM   31  C11 UNL     1      -7.677  25.394  38.219  1.00  0.00     0.095 C 
ENDBRANCH   5  30
TORSDOF 5
ENDMDL
