MODEL 1
REMARK VINA RESULT: -9.873236963      0.000      0.000
REMARK  3 active torsions:
REMARK  status: ('A' for Active; 'I' for Inactive)
REMARK    1  A    between atoms: O1_2  and  C2_3 
REMARK    2  A    between atoms: C8_11  and  O2_12 
REMARK    3  A    between atoms: C9_14  and  C10_15 
ROOT
HETATM    1  C2  UNL     1       3.538  20.219  34.724  1.00  0.00     0.070 A 
HETATM    2  C3  UNL     1       3.658  20.035  33.344  1.00  0.00     0.038 A 
HETATM    3  C4  UNL     1       2.853  20.776  32.502  1.00  0.00     0.016 A 
HETATM    4  C5  UNL     1       1.935  21.692  32.973  1.00  0.00    -0.007 A 
HETATM    5  C6  UNL     1       1.126  22.437  32.132  1.00  0.00     0.045 A 
HETATM    6  C7  UNL     1       0.226  23.340  32.676  1.00  0.00     0.063 A 
HETATM    7  N1  UNL     1      -0.656  24.170  32.124  1.00  0.00    -0.334 N 
ATOM      8  H1  UNL     1      -0.812  24.273  31.121  1.00  0.00     0.168 HD
HETATM    9  C8  UNL     1      -1.314  24.857  33.079  1.00  0.00     0.155 A 
HETATM   10  C9  UNL     1      -0.839  24.458  34.333  1.00  0.00     0.071 A 
HETATM   11  C18 UNL     1       0.120  23.511  34.049  1.00  0.00     0.076 A 
HETATM   12  N4  UNL     1       0.915  22.775  34.823  1.00  0.00    -0.353 N 
ATOM     13  H4  UNL     1       0.848  22.889  35.834  1.00  0.00     0.166 HD
HETATM   14  C19 UNL     1       1.811  21.880  34.334  1.00  0.00     0.045 A 
HETATM   15  C20 UNL     1       2.623  21.133  35.194  1.00  0.00     0.067 A 
ENDROOT
BRANCH  10  16
HETATM   16  C10 UNL     1      -1.284  24.953  35.634  1.00  0.00     0.064 A 
HETATM   17  C11 UNL     1      -1.448  24.431  36.840  1.00  0.00     0.043 A 
HETATM   18  C12 UNL     1      -1.346  23.287  37.605  1.00  0.00     0.061 A 
HETATM   19  C17 UNL     1      -1.884  25.641  37.364  1.00  0.00     0.053 A 
HETATM   20  N2  UNL     1      -0.894  22.046  37.044  1.00  0.00    -0.101 NA
HETATM   21  C13 UNL     1      -1.698  23.386  38.935  1.00  0.00     0.028 A 
HETATM   22  C14 UNL     1      -2.134  24.592  39.462  1.00  0.00     0.011 A 
HETATM   23  C15 UNL     1      -2.234  25.732  38.693  1.00  0.00    -0.034 A 
HETATM   24  C16 UNL     1      -2.696  27.032  39.231  1.00  0.00     0.050 C 
HETATM   25  N3  UNL     1      -1.734  26.176  36.202  1.00  0.00    -0.353 N 
ATOM     26  H3  UNL     1      -1.882  27.115  35.832  1.00  0.00     0.166 HD
ENDBRANCH  10  16
BRANCH   9  27
HETATM   27  O2  UNL     1      -2.311  25.818  32.924  1.00  0.00    -0.345 OA
ATOM     28  H2  UNL     1      -2.925  26.142  33.572  1.00  0.00     0.219 HD
ENDBRANCH   9  27
BRANCH   1  29
HETATM   29  O1  UNL     1       4.362  19.459  35.537  1.00  0.00    -0.356 OA
HETATM   30  C1  UNL     1       3.866  18.938  36.729  1.00  0.00     0.210 C 
ENDBRANCH   1  29
TORSDOF 3
ENDMDL
MODEL 2
REMARK VINA RESULT: -9.220063306      1.554      1.722
REMARK  3 active torsions:
REMARK  status: ('A' for Active; 'I' for Inactive)
REMARK    1  A    between atoms: O1_2  and  C2_3 
REMARK    2  A    between atoms: C8_11  and  O2_12 
REMARK    3  A    between atoms: C9_14  and  C10_15 
ROOT
HETATM    1  C2  UNL     1       3.203  20.274  34.232  1.00  0.00     0.070 A 
HETATM    2  C3  UNL     1       3.637  20.723  32.982  1.00  0.00     0.038 A 
HETATM    3  C4  UNL     1       2.884  21.671  32.319  1.00  0.00     0.016 A 
HETATM    4  C5  UNL     1       1.719  22.192  32.844  1.00  0.00    -0.007 A 
HETATM    5  C6  UNL     1       0.962  23.142  32.182  1.00  0.00     0.045 A 
HETATM    6  C7  UNL     1      -0.198  23.621  32.771  1.00  0.00     0.063 A 
HETATM    7  N1  UNL     1      -1.103  24.514  32.375  1.00  0.00    -0.334 N 
ATOM      8  H1  UNL     1      -1.069  25.027  31.494  1.00  0.00     0.168 HD
HETATM    9  C8  UNL     1      -2.069  24.645  33.305  1.00  0.00     0.155 A 
HETATM   10  C9  UNL     1      -1.787  23.789  34.376  1.00  0.00     0.071 A 
HETATM   11  C18 UNL     1      -0.615  23.164  34.013  1.00  0.00     0.076 A 
HETATM   12  N4  UNL     1       0.142  22.249  34.616  1.00  0.00    -0.353 N 
ATOM     13  H4  UNL     1      -0.152  21.904  35.530  1.00  0.00     0.166 HD
HETATM   14  C19 UNL     1       1.285  21.753  34.078  1.00  0.00     0.045 A 
HETATM   15  C20 UNL     1       2.042  20.793  34.757  1.00  0.00     0.067 A 
ENDROOT
BRANCH  10  16
HETATM   16  C10 UNL     1      -2.581  23.620  35.591  1.00  0.00     0.064 A 
HETATM   17  C11 UNL     1      -2.316  23.459  36.879  1.00  0.00     0.043 A 
HETATM   18  C12 UNL     1      -1.321  23.354  37.829  1.00  0.00     0.061 A 
HETATM   19  C17 UNL     1      -3.665  23.394  37.203  1.00  0.00     0.053 A 
HETATM   20  N2  UNL     1       0.067  23.423  37.473  1.00  0.00    -0.101 NA
HETATM   21  C13 UNL     1      -1.717  23.178  39.139  1.00  0.00     0.028 A 
HETATM   22  C14 UNL     1      -3.063  23.113  39.467  1.00  0.00     0.011 A 
HETATM   23  C15 UNL     1      -4.053  23.219  38.513  1.00  0.00    -0.034 A 
HETATM   24  C16 UNL     1      -5.497  23.152  38.837  1.00  0.00     0.050 C 
HETATM   25  N3  UNL     1      -3.952  23.549  35.957  1.00  0.00    -0.353 N 
ATOM     26  H3  UNL     1      -4.826  23.600  35.434  1.00  0.00     0.166 HD
ENDBRANCH  10  16
BRANCH   9  27
HETATM   27  O2  UNL     1      -3.191  25.470  33.278  1.00  0.00    -0.345 OA
ATOM     28  H2  UNL     1      -4.040  25.326  33.678  1.00  0.00     0.219 HD
ENDBRANCH   9  27
BRANCH   1  29
HETATM   29  O1  UNL     1       3.984  19.324  34.869  1.00  0.00    -0.356 OA
HETATM   30  C1  UNL     1       5.096  19.723  35.605  1.00  0.00     0.210 C 
ENDBRANCH   1  29
TORSDOF 3
ENDMDL
MODEL 3
REMARK VINA RESULT: -8.910853693      1.167      1.903
REMARK  3 active torsions:
REMARK  status: ('A' for Active; 'I' for Inactive)
REMARK    1  A    between atoms: O1_2  and  C2_3 
REMARK    2  A    between atoms: C8_11  and  O2_12 
REMARK    3  A    between atoms: C9_14  and  C10_15 
ROOT
HETATM    1  C2  UNL     1       4.234  19.805  34.985  1.00  0.00     0.070 A 
HETATM    2  C3  UNL     1       4.696  19.942  33.674  1.00  0.00     0.038 A 
HETATM    3  C4  UNL     1       3.966  20.712  32.790  1.00  0.00     0.016 A 
HETATM    4  C5  UNL     1       2.799  21.350  33.154  1.00  0.00    -0.007 A 
HETATM    5  C6  UNL     1       2.065  22.123  32.271  1.00  0.00     0.045 A 
HETATM    6  C7  UNL     1       0.901  22.736  32.706  1.00  0.00     0.063 A 
HETATM    7  N1  UNL     1       0.014  23.518  32.092  1.00  0.00    -0.334 N 
ATOM      8  H1  UNL     1       0.070  23.808  31.116  1.00  0.00     0.168 HD
HETATM    9  C8  UNL     1      -0.967  23.871  32.946  1.00  0.00     0.155 A 
HETATM   10  C9  UNL     1      -0.714  23.291  34.194  1.00  0.00     0.071 A 
HETATM   11  C18 UNL     1       0.456  22.589  34.013  1.00  0.00     0.076 A 
HETATM   12  N4  UNL     1       1.191  21.837  34.830  1.00  0.00    -0.353 N 
ATOM     13  H4  UNL     1       0.877  21.720  35.793  1.00  0.00     0.166 HD
HETATM   14  C19 UNL     1       2.337  21.219  34.447  1.00  0.00     0.045 A 
HETATM   15  C20 UNL     1       3.071  20.441  35.349  1.00  0.00     0.067 A 
ENDROOT
BRANCH  10  16
HETATM   16  C10 UNL     1      -1.532  23.420  35.398  1.00  0.00     0.064 A 
HETATM   17  C11 UNL     1      -1.710  24.349  36.326  1.00  0.00     0.043 A 
HETATM   18  C12 UNL     1      -1.345  25.607  36.756  1.00  0.00     0.061 A 
HETATM   19  C17 UNL     1      -2.635  23.567  37.006  1.00  0.00     0.053 A 
HETATM   20  N2  UNL     1      -0.388  26.398  36.038  1.00  0.00    -0.101 NA
HETATM   21  C13 UNL     1      -1.940  26.075  37.910  1.00  0.00     0.028 A 
HETATM   22  C14 UNL     1      -2.864  25.298  38.593  1.00  0.00     0.011 A 
HETATM   23  C15 UNL     1      -3.225  24.041  38.158  1.00  0.00    -0.034 A 
HETATM   24  C16 UNL     1      -4.208  23.191  38.868  1.00  0.00     0.050 C 
HETATM   25  N3  UNL     1      -2.481  22.646  36.119  1.00  0.00    -0.353 N 
ATOM     26  H3  UNL     1      -2.884  21.719  35.986  1.00  0.00     0.166 HD
ENDBRANCH  10  16
BRANCH   9  27
HETATM   27  O2  UNL     1      -2.078  24.676  32.702  1.00  0.00    -0.345 OA
ATOM     28  H2  UNL     1      -2.996  24.431  32.700  1.00  0.00     0.219 HD
ENDBRANCH   9  27
BRANCH   1  29
HETATM   29  O1  UNL     1       4.992  19.026  35.844  1.00  0.00    -0.356 OA
HETATM   30  C1  UNL     1       4.359  18.188  36.758  1.00  0.00     0.210 C 
ENDBRANCH   1  29
TORSDOF 3
ENDMDL
MODEL 4
REMARK VINA RESULT: -8.868820544      2.088      7.027
REMARK  3 active torsions:
REMARK  status: ('A' for Active; 'I' for Inactive)
REMARK    1  A    between atoms: O1_2  and  C2_3 
REMARK    2  A    between atoms: C8_11  and  O2_12 
REMARK    3  A    between atoms: C9_14  and  C10_15 
ROOT
HETATM    1  C2  UNL     1      -2.189  25.692  37.472  1.00  0.00     0.070 A 
HETATM    2  C3  UNL     1      -2.836  26.343  36.419  1.00  0.00     0.038 A 
HETATM    3  C4  UNL     1      -2.536  25.971  35.124  1.00  0.00     0.016 A 
HETATM    4  C5  UNL     1      -1.621  24.981  34.831  1.00  0.00    -0.007 A 
HETATM    5  C6  UNL     1      -1.317  24.604  33.535  1.00  0.00     0.045 A 
HETATM    6  C7  UNL     1      -0.388  23.600  33.316  1.00  0.00     0.063 A 
HETATM    7  N1  UNL     1       0.089  23.046  32.203  1.00  0.00    -0.334 N 
ATOM      8  H1  UNL     1      -0.188  23.306  31.256  1.00  0.00     0.168 HD
HETATM    9  C8  UNL     1       0.992  22.092  32.505  1.00  0.00     0.155 A 
HETATM   10  C9  UNL     1       1.117  22.011  33.897  1.00  0.00     0.071 A 
HETATM   11  C18 UNL     1       0.245  22.964  34.374  1.00  0.00     0.076 A 
HETATM   12  N4  UNL     1      -0.075  23.355  35.606  1.00  0.00    -0.353 N 
ATOM     13  H4  UNL     1       0.383  22.897  36.394  1.00  0.00     0.166 HD
HETATM   14  C19 UNL     1      -0.979  24.333  35.867  1.00  0.00     0.045 A 
HETATM   15  C20 UNL     1      -1.278  24.704  37.182  1.00  0.00     0.067 A 
ENDROOT
BRANCH  10  16
HETATM   16  C10 UNL     1       1.990  21.107  34.644  1.00  0.00     0.064 A 
HETATM   17  C11 UNL     1       3.260  20.739  34.566  1.00  0.00     0.043 A 
HETATM   18  C12 UNL     1       4.446  20.894  33.881  1.00  0.00     0.061 A 
HETATM   19  C17 UNL     1       3.136  19.891  35.659  1.00  0.00     0.053 A 
HETATM   20  N2  UNL     1       4.553  21.775  32.753  1.00  0.00    -0.101 NA
HETATM   21  C13 UNL     1       5.530  20.165  34.324  1.00  0.00     0.028 A 
HETATM   22  C14 UNL     1       5.411  19.317  35.415  1.00  0.00     0.011 A 
HETATM   23  C15 UNL     1       4.223  19.165  36.097  1.00  0.00    -0.034 A 
HETATM   24  C16 UNL     1       4.069  18.267  37.264  1.00  0.00     0.050 C 
HETATM   25  N3  UNL     1       1.898  20.230  35.758  1.00  0.00    -0.353 N 
ATOM     26  H3  UNL     1       1.142  19.970  36.392  1.00  0.00     0.166 HD
ENDBRANCH  10  16
BRANCH   9  27
HETATM   27  O2  UNL     1       1.718  21.280  31.637  1.00  0.00    -0.345 OA
ATOM     28  H2  UNL     1       2.590  21.421  31.288  1.00  0.00     0.219 HD
ENDBRANCH   9  27
BRANCH   1  29
HETATM   29  O1  UNL     1      -2.516  26.091  38.758  1.00  0.00    -0.356 OA
HETATM   30  C1  UNL     1      -2.782  27.432  39.020  1.00  0.00     0.210 C 
ENDBRANCH   1  29
TORSDOF 3
ENDMDL
MODEL 5
REMARK VINA RESULT: -8.813837641      1.316      1.889
REMARK  3 active torsions:
REMARK  status: ('A' for Active; 'I' for Inactive)
REMARK    1  A    between atoms: O1_2  and  C2_3 
REMARK    2  A    between atoms: C8_11  and  O2_12 
REMARK    3  A    between atoms: C9_14  and  C10_15 
ROOT
HETATM    1  C2  UNL     1       3.161  20.233  34.796  1.00  0.00     0.070 A 
HETATM    2  C3  UNL     1       3.384  20.028  33.432  1.00  0.00     0.038 A 
HETATM    3  C4  UNL     1       2.680  20.791  32.522  1.00  0.00     0.016 A 
HETATM    4  C5  UNL     1       1.765  21.748  32.909  1.00  0.00    -0.007 A 
HETATM    5  C6  UNL     1       1.057  22.515  32.000  1.00  0.00     0.045 A 
HETATM    6  C7  UNL     1       0.154  23.458  32.461  1.00  0.00     0.063 A 
HETATM    7  N1  UNL     1      -0.647  24.317  31.832  1.00  0.00    -0.334 N 
ATOM      8  H1  UNL     1      -0.717  24.414  30.819  1.00  0.00     0.168 HD
HETATM    9  C8  UNL     1      -1.351  25.040  32.725  1.00  0.00     0.155 A 
HETATM   10  C9  UNL     1      -0.996  24.636  34.017  1.00  0.00     0.071 A 
HETATM   11  C18 UNL     1      -0.056  23.649  33.820  1.00  0.00     0.076 A 
HETATM   12  N4  UNL     1       0.644  22.891  34.661  1.00  0.00    -0.353 N 
ATOM     13  H4  UNL     1       0.500  23.019  35.662  1.00  0.00     0.166 HD
HETATM   14  C19 UNL     1       1.539  21.955  34.254  1.00  0.00     0.045 A 
HETATM   15  C20 UNL     1       2.249  21.187  35.183  1.00  0.00     0.067 A 
ENDROOT
BRANCH  10  16
HETATM   16  C10 UNL     1      -1.523  25.164  35.273  1.00  0.00     0.064 A 
HETATM   17  C11 UNL     1      -2.723  25.481  35.737  1.00  0.00     0.043 A 
HETATM   18  C12 UNL     1      -4.071  25.539  35.450  1.00  0.00     0.061 A 
HETATM   19  C17 UNL     1      -2.205  25.872  36.964  1.00  0.00     0.053 A 
HETATM   20  N2  UNL     1      -4.586  25.131  34.175  1.00  0.00    -0.101 NA
HETATM   21  C13 UNL     1      -4.907  26.008  36.443  1.00  0.00     0.028 A 
HETATM   22  C14 UNL     1      -4.393  26.399  37.671  1.00  0.00     0.011 A 
HETATM   23  C15 UNL     1      -3.045  26.339  37.951  1.00  0.00    -0.034 A 
HETATM   24  C16 UNL     1      -2.471  26.751  39.254  1.00  0.00     0.050 C 
HETATM   25  N3  UNL     1      -1.026  25.573  36.540  1.00  0.00    -0.353 N 
ATOM     26  H3  UNL     1      -0.095  25.613  36.954  1.00  0.00     0.166 HD
ENDBRANCH  10  16
BRANCH   9  27
HETATM   27  O2  UNL     1      -2.292  26.038  32.482  1.00  0.00    -0.345 OA
ATOM     28  H2  UNL     1      -3.059  26.265  32.995  1.00  0.00     0.219 HD
ENDBRANCH   9  27
BRANCH   1  29
HETATM   29  O1  UNL     1       3.885  19.450  35.680  1.00  0.00    -0.356 OA
HETATM   30  C1  UNL     1       3.303  19.040  36.877  1.00  0.00     0.210 C 
ENDBRANCH   1  29
TORSDOF 3
ENDMDL
