MODEL 1
REMARK VINA RESULT: -9.519929583      0.000      0.000
REMARK  10 active torsions:
REMARK  status: ('A' for Active; 'I' for Inactive)
REMARK    1  A    between atoms: O1_2  and  C2_3 
REMARK    2  A    between atoms: C5_8  and  N2_9 
REMARK    3  A    between atoms: N2_9  and  C6_11 
REMARK    4  A    between atoms: C6_11  and  C7_12 
REMARK    5  A    between atoms: C6_11  and  C18_25 
REMARK    6  A    between atoms: C7_12  and  C8_13 
REMARK    7  A    between atoms: C18_25  and  O4_26 
REMARK    8  A    between atoms: N3_28  and  O5_30 
REMARK    9  A    between atoms: C19_32  and  N4_33 
REMARK   10  A    between atoms: N4_33  and  O6_35 
ROOT
HETATM    1  C6  UNL     1     -28.296  15.727  -3.238  1.00  0.00     0.161 C 
ENDROOT
BRANCH   1   2
HETATM    2  N2  UNL     1     -27.313  16.589  -3.872  1.00  0.00    -0.376 N 
ATOM      3  H2  UNL     1     -27.089  16.365  -4.841  1.00  0.00     0.160 HD
BRANCH   2   4
HETATM    4  C5  UNL     1     -26.634  17.685  -3.330  1.00  0.00     0.063 A 
HETATM    5  C4  UNL     1     -26.254  17.806  -2.028  1.00  0.00     0.049 A 
HETATM    6  C3  UNL     1     -25.557  18.906  -1.506  1.00  0.00     0.092 A 
HETATM    7  N1  UNL     1     -25.243  19.907  -2.341  1.00  0.00    -0.345 N 
HETATM    8  C2  UNL     1     -25.592  19.844  -3.637  1.00  0.00     0.173 A 
ATOM      9  H1  UNL     1     -24.737  20.720  -1.991  1.00  0.00     0.167 HD
HETATM   10  C19 UNL     1     -26.275  18.768  -4.152  1.00  0.00     0.131 A 
BRANCH   8  11
HETATM   11  O1  UNL     1     -25.261  20.881  -4.478  1.00  0.00    -0.339 OA
HETATM   12  C1  UNL     1     -24.088  21.639  -4.359  1.00  0.00     0.211 C 
ENDBRANCH   8  11
BRANCH  10  13
HETATM   13  N4  UNL     1     -26.647  18.696  -5.520  1.00  0.00    -0.263 N 
ATOM     14  H4  UNL     1     -25.943  18.572  -6.247  1.00  0.00     0.194 HD
BRANCH  13  15
HETATM   15  O6  UNL     1     -27.854  18.787  -5.809  1.00  0.00    -0.289 OA
ATOM     16  H6  UNL     1     -28.108  18.689  -6.719  1.00  0.00     0.244 HD
ENDBRANCH  13  15
ENDBRANCH  10  13
ENDBRANCH   2   4
ENDBRANCH   1   2
BRANCH   1  17
HETATM   17  C7  UNL     1     -27.641  14.534  -2.723  1.00  0.00     0.066 C 
BRANCH  17  18
HETATM   18  C8  UNL     1     -27.671  13.242  -3.409  1.00  0.00     0.134 C 
HETATM   19  O2  UNL     1     -28.663  12.374  -3.096  1.00  0.00    -0.350 OA
HETATM   20  C9  UNL     1     -28.767  11.270  -3.880  1.00  0.00     0.157 C 
HETATM   21  C10 UNL     1     -29.281  10.099  -3.030  1.00  0.00     0.078 C 
HETATM   22  C11 UNL     1     -29.901  11.537  -4.887  1.00  0.00     0.078 C 
HETATM   23  O3  UNL     1     -27.696  10.854  -4.564  1.00  0.00    -0.350 OA
HETATM   24  C12 UNL     1     -26.477  11.391  -4.367  1.00  0.00     0.131 C 
HETATM   25  C13 UNL     1     -25.391  10.360  -4.082  1.00  0.00     0.032 C 
HETATM   26  C17 UNL     1     -26.364  12.464  -3.328  1.00  0.00     0.044 C 
HETATM   27  C14 UNL     1     -24.119  11.090  -3.809  1.00  0.00     0.002 C 
HETATM   28  C15 UNL     1     -24.103  12.504  -4.333  1.00  0.00     0.001 C 
HETATM   29  C16 UNL     1     -25.187  13.354  -3.711  1.00  0.00     0.010 C 
ENDBRANCH  17  18
ENDBRANCH   1  17
BRANCH   1  30
HETATM   30  C18 UNL     1     -29.543  15.682  -3.993  1.00  0.00     0.158 C 
HETATM   31  N3  UNL     1     -30.554  14.932  -3.579  1.00  0.00    -0.249 N 
ATOM     32  H3  UNL     1     -30.481  14.375  -2.728  1.00  0.00     0.196 HD
BRANCH  30  33
HETATM   33  O4  UNL     1     -29.745  16.393  -5.157  1.00  0.00    -0.347 OA
ATOM     34  H4  UNL     1     -30.602  16.515  -5.548  1.00  0.00     0.219 HD
ENDBRANCH  30  33
BRANCH  31  35
HETATM   35  O5  UNL     1     -31.695  14.929  -4.324  1.00  0.00    -0.288 OA
ATOM     36  H5  UNL     1     -32.454  15.387  -3.981  1.00  0.00     0.244 HD
ENDBRANCH  31  35
ENDBRANCH   1  30
TORSDOF 10
ENDMDL
MODEL 2
REMARK VINA RESULT: -9.155437667      1.170      1.303
REMARK  10 active torsions:
REMARK  status: ('A' for Active; 'I' for Inactive)
REMARK    1  A    between atoms: O1_2  and  C2_3 
REMARK    2  A    between atoms: C5_8  and  N2_9 
REMARK    3  A    between atoms: N2_9  and  C6_11 
REMARK    4  A    between atoms: C6_11  and  C7_12 
REMARK    5  A    between atoms: C6_11  and  C18_25 
REMARK    6  A    between atoms: C7_12  and  C8_13 
REMARK    7  A    between atoms: C18_25  and  O4_26 
REMARK    8  A    between atoms: N3_28  and  O5_30 
REMARK    9  A    between atoms: C19_32  and  N4_33 
REMARK   10  A    between atoms: N4_33  and  O6_35 
ROOT
HETATM    1  C6  UNL     1     -28.458  16.564  -3.448  1.00  0.00     0.161 C 
ENDROOT
BRANCH   1   2
HETATM    2  N2  UNL     1     -27.119  17.013  -3.792  1.00  0.00    -0.376 N 
ATOM      3  H2  UNL     1     -26.653  16.487  -4.532  1.00  0.00     0.160 HD
BRANCH   2   4
HETATM    4  C5  UNL     1     -26.385  18.070  -3.245  1.00  0.00     0.063 A 
HETATM    5  C4  UNL     1     -26.019  18.176  -1.937  1.00  0.00     0.049 A 
HETATM    6  C3  UNL     1     -25.267  19.235  -1.410  1.00  0.00     0.092 A 
HETATM    7  N1  UNL     1     -24.880  20.210  -2.245  1.00  0.00    -0.345 N 
HETATM    8  C2  UNL     1     -25.211  20.160  -3.545  1.00  0.00     0.173 A 
ATOM      9  H1  UNL     1     -24.332  20.994  -1.890  1.00  0.00     0.167 HD
HETATM   10  C19 UNL     1     -25.948  19.124  -4.066  1.00  0.00     0.131 A 
BRANCH   8  11
HETATM   11  O1  UNL     1     -24.805  21.170  -4.387  1.00  0.00    -0.339 OA
HETATM   12  C1  UNL     1     -23.637  21.924  -4.196  1.00  0.00     0.211 C 
ENDBRANCH   8  11
BRANCH  10  13
HETATM   13  N4  UNL     1     -26.302  19.065  -5.439  1.00  0.00    -0.263 N 
ATOM     14  H4  UNL     1     -25.590  18.929  -6.157  1.00  0.00     0.194 HD
BRANCH  13  15
HETATM   15  O6  UNL     1     -27.502  19.185  -5.746  1.00  0.00    -0.289 OA
ATOM     16  H6  UNL     1     -27.729  19.235  -6.667  1.00  0.00     0.244 HD
ENDBRANCH  13  15
ENDBRANCH  10  13
ENDBRANCH   2   4
ENDBRANCH   1   2
BRANCH   1  17
HETATM   17  C7  UNL     1     -28.393  15.231  -2.867  1.00  0.00     0.066 C 
BRANCH  17  18
HETATM   18  C8  UNL     1     -28.378  14.006  -3.667  1.00  0.00     0.134 C 
HETATM   19  O2  UNL     1     -29.477  13.213  -3.643  1.00  0.00    -0.350 OA
HETATM   20  C9  UNL     1     -29.500  12.189  -4.534  1.00  0.00     0.157 C 
HETATM   21  C10 UNL     1     -30.265  11.007  -3.921  1.00  0.00     0.078 C 
HETATM   22  C11 UNL     1     -30.379  12.641  -5.716  1.00  0.00     0.078 C 
HETATM   23  O3  UNL     1     -28.346  11.730  -5.030  1.00  0.00    -0.350 OA
HETATM   24  C12 UNL     1     -27.156  12.133  -4.544  1.00  0.00     0.131 C 
HETATM   25  C13 UNL     1     -26.233  10.985  -4.149  1.00  0.00     0.032 C 
HETATM   26  C17 UNL     1     -27.179  13.105  -3.403  1.00  0.00     0.044 C 
HETATM   27  C14 UNL     1     -24.994  11.569  -3.560  1.00  0.00     0.002 C 
HETATM   28  C15 UNL     1     -24.763  13.012  -3.932  1.00  0.00     0.001 C 
HETATM   29  C16 UNL     1     -25.884  13.908  -3.457  1.00  0.00     0.010 C 
ENDBRANCH  17  18
ENDBRANCH   1  17
BRANCH   1  30
HETATM   30  C18 UNL     1     -29.432  16.936  -4.467  1.00  0.00     0.158 C 
HETATM   31  N3  UNL     1     -29.150  16.788  -5.753  1.00  0.00    -0.249 N 
ATOM     32  H3  UNL     1     -28.251  16.413  -6.055  1.00  0.00     0.196 HD
BRANCH  30  33
HETATM   33  O4  UNL     1     -30.673  17.456  -4.168  1.00  0.00    -0.347 OA
ATOM     34  H4  UNL     1     -31.140  18.049  -4.745  1.00  0.00     0.219 HD
ENDBRANCH  30  33
BRANCH  31  35
HETATM   35  O5  UNL     1     -30.099  17.153  -6.662  1.00  0.00    -0.288 OA
ATOM     36  H5  UNL     1     -30.480  16.473  -7.206  1.00  0.00     0.244 HD
ENDBRANCH  31  35
ENDBRANCH   1  30
TORSDOF 10
ENDMDL
MODEL 3
REMARK VINA RESULT: -8.459819843      1.970      3.819
REMARK  10 active torsions:
REMARK  status: ('A' for Active; 'I' for Inactive)
REMARK    1  A    between atoms: O1_2  and  C2_3 
REMARK    2  A    between atoms: C5_8  and  N2_9 
REMARK    3  A    between atoms: N2_9  and  C6_11 
REMARK    4  A    between atoms: C6_11  and  C7_12 
REMARK    5  A    between atoms: C6_11  and  C18_25 
REMARK    6  A    between atoms: C7_12  and  C8_13 
REMARK    7  A    between atoms: C18_25  and  O4_26 
REMARK    8  A    between atoms: N3_28  and  O5_30 
REMARK    9  A    between atoms: C19_32  and  N4_33 
REMARK   10  A    between atoms: N4_33  and  O6_35 
ROOT
HETATM    1  C6  UNL     1     -29.084  17.347  -4.433  1.00  0.00     0.161 C 
ENDROOT
BRANCH   1   2
HETATM    2  N2  UNL     1     -27.682  17.175  -4.088  1.00  0.00    -0.376 N 
ATOM      3  H2  UNL     1     -27.259  16.296  -4.383  1.00  0.00     0.160 HD
BRANCH   2   4
HETATM    4  C5  UNL     1     -26.837  18.056  -3.405  1.00  0.00     0.063 A 
HETATM    5  C4  UNL     1     -26.555  17.999  -2.074  1.00  0.00     0.049 A 
HETATM    6  C3  UNL     1     -25.690  18.881  -1.410  1.00  0.00     0.092 A 
HETATM    7  N1  UNL     1     -25.100  19.846  -2.130  1.00  0.00    -0.345 N 
HETATM    8  C2  UNL     1     -25.340  19.952  -3.447  1.00  0.00     0.173 A 
ATOM      9  H1  UNL     1     -24.466  20.502  -1.675  1.00  0.00     0.167 HD
HETATM   10  C19 UNL     1     -26.186  19.090  -4.101  1.00  0.00     0.131 A 
BRANCH   8  11
HETATM   11  O1  UNL     1     -24.724  20.948  -4.169  1.00  0.00    -0.339 OA
HETATM   12  C1  UNL     1     -23.478  21.499  -3.836  1.00  0.00     0.211 C 
ENDBRANCH   8  11
BRANCH  10  13
HETATM   13  N4  UNL     1     -26.444  19.197  -5.493  1.00  0.00    -0.263 N 
ATOM     14  H4  UNL     1     -26.917  20.017  -5.875  1.00  0.00     0.194 HD
BRANCH  13  15
HETATM   15  O6  UNL     1     -26.081  18.267  -6.235  1.00  0.00    -0.289 OA
ATOM     16  H6  UNL     1     -26.429  17.398  -6.073  1.00  0.00     0.244 HD
ENDBRANCH  13  15
ENDBRANCH  10  13
ENDBRANCH   2   4
ENDBRANCH   1   2
BRANCH   1  17
HETATM   17  C7  UNL     1     -29.900  16.451  -3.627  1.00  0.00     0.066 C 
BRANCH  17  18
HETATM   18  C8  UNL     1     -29.716  14.999  -3.605  1.00  0.00     0.134 C 
HETATM   19  O2  UNL     1     -28.546  14.495  -4.065  1.00  0.00    -0.350 OA
HETATM   20  C9  UNL     1     -28.339  13.169  -3.858  1.00  0.00     0.157 C 
HETATM   21  C10 UNL     1     -27.507  12.605  -5.018  1.00  0.00     0.078 C 
HETATM   22  C11 UNL     1     -27.418  13.043  -2.630  1.00  0.00     0.078 C 
HETATM   23  O3  UNL     1     -29.392  12.367  -3.668  1.00  0.00    -0.350 OA
HETATM   24  C12 UNL     1     -30.655  12.802  -3.847  1.00  0.00     0.131 C 
HETATM   25  C13 UNL     1     -31.480  11.923  -4.781  1.00  0.00     0.032 C 
HETATM   26  C17 UNL     1     -30.831  14.221  -4.292  1.00  0.00     0.044 C 
HETATM   27  C14 UNL     1     -32.819  12.557  -4.950  1.00  0.00     0.002 C 
HETATM   28  C15 UNL     1     -33.170  13.540  -3.862  1.00  0.00     0.001 C 
HETATM   29  C16 UNL     1     -32.195  14.693  -3.800  1.00  0.00     0.010 C 
ENDBRANCH  17  18
ENDBRANCH   1  17
BRANCH   1  30
HETATM   30  C18 UNL     1     -29.271  17.510  -5.870  1.00  0.00     0.158 C 
HETATM   31  N3  UNL     1     -30.218  18.308  -6.339  1.00  0.00    -0.249 N 
ATOM     32  H3  UNL     1     -30.832  18.823  -5.709  1.00  0.00     0.196 HD
BRANCH  30  33
HETATM   33  O4  UNL     1     -28.498  16.858  -6.808  1.00  0.00    -0.347 OA
ATOM     34  H4  UNL     1     -27.929  17.313  -7.418  1.00  0.00     0.219 HD
ENDBRANCH  30  33
BRANCH  31  35
HETATM   35  O5  UNL     1     -30.347  18.421  -7.692  1.00  0.00    -0.288 OA
ATOM     36  H5  UNL     1     -31.183  18.192  -8.081  1.00  0.00     0.244 HD
ENDBRANCH  31  35
ENDBRANCH   1  30
TORSDOF 10
ENDMDL
MODEL 4
REMARK VINA RESULT: -8.299894970      1.984      2.380
REMARK  10 active torsions:
REMARK  status: ('A' for Active; 'I' for Inactive)
REMARK    1  A    between atoms: O1_2  and  C2_3 
REMARK    2  A    between atoms: C5_8  and  N2_9 
REMARK    3  A    between atoms: N2_9  and  C6_11 
REMARK    4  A    between atoms: C6_11  and  C7_12 
REMARK    5  A    between atoms: C6_11  and  C18_25 
REMARK    6  A    between atoms: C7_12  and  C8_13 
REMARK    7  A    between atoms: C18_25  and  O4_26 
REMARK    8  A    between atoms: N3_28  and  O5_30 
REMARK    9  A    between atoms: C19_32  and  N4_33 
REMARK   10  A    between atoms: N4_33  and  O6_35 
ROOT
HETATM    1  C6  UNL     1     -28.180  17.509  -3.556  1.00  0.00     0.161 C 
ENDROOT
BRANCH   1   2
HETATM    2  N2  UNL     1     -27.078  18.378  -3.933  1.00  0.00    -0.376 N 
ATOM      3  H2  UNL     1     -27.043  18.646  -4.916  1.00  0.00     0.160 HD
BRANCH   2   4
HETATM    4  C5  UNL     1     -26.059  18.895  -3.126  1.00  0.00     0.063 A 
HETATM    5  C4  UNL     1     -26.235  19.428  -1.885  1.00  0.00     0.049 A 
HETATM    6  C3  UNL     1     -25.198  19.925  -1.083  1.00  0.00     0.092 A 
HETATM    7  N1  UNL     1     -23.948  19.875  -1.566  1.00  0.00    -0.345 N 
HETATM    8  C2  UNL     1     -23.713  19.359  -2.784  1.00  0.00     0.173 A 
ATOM      9  H1  UNL     1     -23.173  20.229  -1.006  1.00  0.00     0.167 HD
HETATM   10  C19 UNL     1     -24.726  18.871  -3.572  1.00  0.00     0.131 A 
BRANCH   8  11
HETATM   11  O1  UNL     1     -22.423  19.316  -3.262  1.00  0.00    -0.339 OA
HETATM   12  C1  UNL     1     -21.358  18.705  -2.584  1.00  0.00     0.211 C 
ENDBRANCH   8  11
BRANCH  10  13
HETATM   13  N4  UNL     1     -24.484  18.327  -4.861  1.00  0.00    -0.263 N 
ATOM     14  H4  UNL     1     -24.026  18.881  -5.585  1.00  0.00     0.194 HD
BRANCH  13  15
HETATM   15  O6  UNL     1     -24.843  17.157  -5.086  1.00  0.00    -0.289 OA
ATOM     16  H6  UNL     1     -25.380  16.989  -5.851  1.00  0.00     0.244 HD
ENDBRANCH  13  15
ENDBRANCH  10  13
ENDBRANCH   2   4
ENDBRANCH   1   2
BRANCH   1  17
HETATM   17  C7  UNL     1     -27.664  16.204  -3.169  1.00  0.00     0.066 C 
BRANCH  17  18
HETATM   18  C8  UNL     1     -28.067  14.956  -3.817  1.00  0.00     0.134 C 
HETATM   19  O2  UNL     1     -29.352  14.549  -3.678  1.00  0.00    -0.350 OA
HETATM   20  C9  UNL     1     -29.735  13.493  -4.440  1.00  0.00     0.157 C 
HETATM   21  C10 UNL     1     -30.790  12.680  -3.676  1.00  0.00     0.078 C 
HETATM   22  C11 UNL     1     -30.497  14.064  -5.651  1.00  0.00     0.078 C 
HETATM   23  O3  UNL     1     -28.805  12.648  -4.898  1.00  0.00    -0.350 OA
HETATM   24  C12 UNL     1     -27.524  12.713  -4.485  1.00  0.00     0.131 C 
HETATM   25  C13 UNL     1     -26.977  11.386  -3.973  1.00  0.00     0.032 C 
HETATM   26  C17 UNL     1     -27.188  13.762  -3.469  1.00  0.00     0.044 C 
HETATM   27  C14 UNL     1     -25.588  11.618  -3.480  1.00  0.00     0.002 C 
HETATM   28  C15 UNL     1     -24.948  12.870  -4.026  1.00  0.00     0.001 C 
HETATM   29  C16 UNL     1     -25.715  14.114  -3.642  1.00  0.00     0.010 C 
ENDBRANCH  17  18
ENDBRANCH   1  17
BRANCH   1  30
HETATM   30  C18 UNL     1     -29.326  17.675  -4.441  1.00  0.00     0.158 C 
HETATM   31  N3  UNL     1     -29.161  18.100  -5.685  1.00  0.00    -0.249 N 
ATOM     32  H3  UNL     1     -28.232  18.318  -6.047  1.00  0.00     0.196 HD
BRANCH  30  33
HETATM   33  O4  UNL     1     -30.623  17.412  -4.052  1.00  0.00    -0.347 OA
ATOM     34  H4  UNL     1     -31.020  17.797  -3.279  1.00  0.00     0.219 HD
ENDBRANCH  30  33
BRANCH  31  35
HETATM   35  O5  UNL     1     -30.268  18.236  -6.468  1.00  0.00    -0.288 OA
ATOM     36  H5  UNL     1     -30.824  18.994  -6.326  1.00  0.00     0.244 HD
ENDBRANCH  31  35
ENDBRANCH   1  30
TORSDOF 10
ENDMDL
MODEL 5
REMARK VINA RESULT: -8.199279993      1.415      3.076
REMARK  10 active torsions:
REMARK  status: ('A' for Active; 'I' for Inactive)
REMARK    1  A    between atoms: O1_2  and  C2_3 
REMARK    2  A    between atoms: C5_8  and  N2_9 
REMARK    3  A    between atoms: N2_9  and  C6_11 
REMARK    4  A    between atoms: C6_11  and  C7_12 
REMARK    5  A    between atoms: C6_11  and  C18_25 
REMARK    6  A    between atoms: C7_12  and  C8_13 
REMARK    7  A    between atoms: C18_25  and  O4_26 
REMARK    8  A    between atoms: N3_28  and  O5_30 
REMARK    9  A    between atoms: C19_32  and  N4_33 
REMARK   10  A    between atoms: N4_33  and  O6_35 
ROOT
HETATM    1  C6  UNL     1     -28.855  15.965  -4.676  1.00  0.00     0.161 C 
ENDROOT
BRANCH   1   2
HETATM    2  N2  UNL     1     -27.460  16.364  -4.593  1.00  0.00    -0.376 N 
ATOM      3  H2  UNL     1     -26.831  15.908  -5.253  1.00  0.00     0.160 HD
BRANCH   2   4
HETATM    4  C5  UNL     1     -26.868  17.290  -3.729  1.00  0.00     0.063 A 
HETATM    5  C4  UNL     1     -26.672  17.103  -2.394  1.00  0.00     0.049 A 
HETATM    6  C3  UNL     1     -26.059  18.037  -1.546  1.00  0.00     0.092 A 
HETATM    7  N1  UNL     1     -25.636  19.191  -2.081  1.00  0.00    -0.345 N 
HETATM    8  C2  UNL     1     -25.800  19.431  -3.392  1.00  0.00     0.173 A 
ATOM      9  H1  UNL     1     -25.186  19.890  -1.490  1.00  0.00     0.167 HD
HETATM   10  C19 UNL     1     -26.400  18.519  -4.226  1.00  0.00     0.131 A 
BRANCH   8  11
HETATM   11  O1  UNL     1     -25.359  20.621  -3.923  1.00  0.00    -0.339 OA
HETATM   12  C1  UNL     1     -24.053  21.110  -3.767  1.00  0.00     0.211 C 
ENDBRANCH   8  11
BRANCH  10  13
HETATM   13  N4  UNL     1     -26.579  18.767  -5.612  1.00  0.00    -0.263 N 
ATOM     14  H4  UNL     1     -25.863  18.500  -6.288  1.00  0.00     0.194 HD
BRANCH  13  15
HETATM   15  O6  UNL     1     -27.630  19.321  -5.984  1.00  0.00    -0.289 OA
ATOM     16  H6  UNL     1     -28.031  19.029  -6.794  1.00  0.00     0.244 HD
ENDBRANCH  13  15
ENDBRANCH  10  13
ENDBRANCH   2   4
ENDBRANCH   1   2
BRANCH   1  17
HETATM   17  C7  UNL     1     -28.947  14.614  -5.210  1.00  0.00     0.066 C 
BRANCH  17  18
HETATM   18  C8  UNL     1     -28.381  13.444  -4.538  1.00  0.00     0.134 C 
HETATM   19  O2  UNL     1     -27.113  13.080  -4.848  1.00  0.00    -0.350 OA
HETATM   20  C9  UNL     1     -26.560  12.110  -4.076  1.00  0.00     0.157 C 
HETATM   21  C10 UNL     1     -25.594  11.277  -4.931  1.00  0.00     0.078 C 
HETATM   22  C11 UNL     1     -25.651  12.814  -3.051  1.00  0.00     0.078 C 
HETATM   23  O3  UNL     1     -27.360  11.271  -3.410  1.00  0.00    -0.350 OA
HETATM   24  C12 UNL     1     -28.691  11.248  -3.617  1.00  0.00     0.131 C 
HETATM   25  C13 UNL     1     -29.240   9.860  -3.928  1.00  0.00     0.032 C 
HETATM   26  C17 UNL     1     -29.238  12.190  -4.646  1.00  0.00     0.044 C 
HETATM   27  C14 UNL     1     -30.699   9.991  -4.209  1.00  0.00     0.002 C 
HETATM   28  C15 UNL     1     -31.312  11.258  -3.669  1.00  0.00     0.001 C 
HETATM   29  C16 UNL     1     -30.683  12.495  -4.268  1.00  0.00     0.010 C 
ENDBRANCH  17  18
ENDBRANCH   1  17
BRANCH   1  30
HETATM   30  C18 UNL     1     -29.703  17.057  -5.139  1.00  0.00     0.158 C 
HETATM   31  N3  UNL     1     -29.670  17.445  -6.406  1.00  0.00    -0.249 N 
ATOM     32  H3  UNL     1     -29.054  16.990  -7.079  1.00  0.00     0.196 HD
BRANCH  30  33
HETATM   33  O4  UNL     1     -30.568  17.742  -4.311  1.00  0.00    -0.347 OA
ATOM     34  H4  UNL     1     -30.635  18.690  -4.302  1.00  0.00     0.219 HD
ENDBRANCH  30  33
BRANCH  31  35
HETATM   35  O5  UNL     1     -30.484  18.472  -6.782  1.00  0.00    -0.288 OA
ATOM     36  H5  UNL     1     -30.661  18.584  -7.709  1.00  0.00     0.244 HD
ENDBRANCH  31  35
ENDBRANCH   1  30
TORSDOF 10
ENDMDL
