MODEL 1
REMARK VINA RESULT: -9.172322525      0.000      0.000
REMARK  10 active torsions:
REMARK  status: ('A' for Active; 'I' for Inactive)
REMARK    1  A    between atoms: C4_5  and  N2_6 
REMARK    2  A    between atoms: N2_6  and  C5_8 
REMARK    3  A    between atoms: C5_8  and  O1_9 
REMARK    4  A    between atoms: C5_8  and  C6_11 
REMARK    5  A    between atoms: N4_15  and  C8_16 
REMARK    6  A    between atoms: N5_18  and  C10_19 
REMARK    7  A    between atoms: C10_19  and  C11_20 
REMARK    8  A    between atoms: C17_26  and  O2_27 
REMARK    9  A    between atoms: C18_29  and  N6_30 
REMARK   10  A    between atoms: N6_30  and  O3_32 
ROOT
HETATM    1  C8  UNL     1     -29.913  14.907  -3.763  1.00  0.00     0.104 A 
HETATM    2  C9  UNL     1     -28.795  14.228  -3.346  1.00  0.00     0.127 A 
HETATM    3  N5  UNL     1     -27.681  15.006  -3.445  1.00  0.00    -0.333 N 
HETATM    4  C17 UNL     1     -28.113  16.181  -3.929  1.00  0.00     0.174 A 
HETATM    5  C18 UNL     1     -29.475  16.164  -4.138  1.00  0.00     0.135 A 
ENDROOT
BRANCH   1   6
HETATM    6  N4  UNL     1     -31.267  14.460  -3.819  1.00  0.00    -0.264 N 
HETATM    7  N3  UNL     1     -32.313  14.862  -3.152  1.00  0.00    -0.305 N 
HETATM    8  C7  UNL     1     -33.413  14.181  -3.498  1.00  0.00     0.120 A 
ATOM      9  H3  UNL     1     -32.296  15.605  -2.452  1.00  0.00     0.186 HD
HETATM   10  C6  UNL     1     -33.030  13.277  -4.459  1.00  0.00     0.024 A 
HETATM   11  C19 UNL     1     -31.662  13.474  -4.646  1.00  0.00     0.129 A 
BRANCH  10  12
HETATM   12  C5  UNL     1     -33.880  12.277  -5.172  1.00  0.00     0.255 C 
BRANCH  12  13
HETATM   13  N2  UNL     1     -35.176  12.162  -4.590  1.00  0.00    -0.359 N 
ATOM     14  H2  UNL     1     -35.897  12.820  -4.887  1.00  0.00     0.162 HD
BRANCH  13  15
HETATM   15  C4  UNL     1     -35.516  11.197  -3.631  1.00  0.00     0.047 A 
HETATM   16  C3  UNL     1     -34.670  10.468  -2.813  1.00  0.00     0.048 A 
HETATM   17  C2  UNL     1     -35.431   9.629  -2.021  1.00  0.00     0.092 A 
HETATM   18  N1  UNL     1     -36.709   9.819  -2.324  1.00  0.00    -0.368 N 
HETATM   19  C1  UNL     1     -37.853   9.130  -1.717  1.00  0.00     0.154 C 
HETATM   20  C20 UNL     1     -36.789  10.747  -3.279  1.00  0.00     0.119 A 
ENDBRANCH  13  15
ENDBRANCH  12  13
BRANCH  12  21
HETATM   21  O1  UNL     1     -33.885  12.525  -6.533  1.00  0.00    -0.372 OA
ATOM     22  H1  UNL     1     -34.064  11.763  -7.070  1.00  0.00     0.212 HD
ENDBRANCH  12  21
ENDBRANCH  10  12
ENDBRANCH   1   6
BRANCH   5  23
HETATM   23  N6  UNL     1     -30.324  17.194  -4.637  1.00  0.00    -0.263 N 
ATOM     24  H6  UNL     1     -31.209  17.366  -4.159  1.00  0.00     0.194 HD
BRANCH  23  25
HETATM   25  O3  UNL     1     -30.041  17.896  -5.625  1.00  0.00    -0.289 OA
ATOM     26  H3  UNL     1     -30.172  18.836  -5.653  1.00  0.00     0.244 HD
ENDBRANCH  23  25
ENDBRANCH   5  23
BRANCH   3  27
HETATM   27  C10 UNL     1     -26.338  14.593  -3.089  1.00  0.00     0.135 C 
BRANCH  27  28
HETATM   28  C11 UNL     1     -25.942  13.267  -3.686  1.00  0.00     0.004 C 
HETATM   29  C12 UNL     1     -26.829  12.126  -3.312  1.00  0.00     0.006 C 
HETATM   30  C13 UNL     1     -26.509  10.985  -4.288  1.00  0.00     0.000 C 
HETATM   31  C14 UNL     1     -25.077  10.589  -4.157  1.00  0.00     0.000 C 
HETATM   32  C15 UNL     1     -24.126  11.756  -4.275  1.00  0.00     0.000 C 
HETATM   33  C16 UNL     1     -24.516  12.895  -3.356  1.00  0.00     0.006 C 
ENDBRANCH  27  28
ENDBRANCH   3  27
BRANCH   4  34
HETATM   34  O2  UNL     1     -27.284  17.263  -4.181  1.00  0.00    -0.344 OA
ATOM     35  H2  UNL     1     -27.600  18.143  -4.348  1.00  0.00     0.219 HD
ENDBRANCH   4  34
TORSDOF 10
ENDMDL
MODEL 2
REMARK VINA RESULT: -9.161387611      3.441      9.782
REMARK  10 active torsions:
REMARK  status: ('A' for Active; 'I' for Inactive)
REMARK    1  A    between atoms: C4_5  and  N2_6 
REMARK    2  A    between atoms: N2_6  and  C5_8 
REMARK    3  A    between atoms: C5_8  and  O1_9 
REMARK    4  A    between atoms: C5_8  and  C6_11 
REMARK    5  A    between atoms: N4_15  and  C8_16 
REMARK    6  A    between atoms: N5_18  and  C10_19 
REMARK    7  A    between atoms: C10_19  and  C11_20 
REMARK    8  A    between atoms: C17_26  and  O2_27 
REMARK    9  A    between atoms: C18_29  and  N6_30 
REMARK   10  A    between atoms: N6_30  and  O3_32 
ROOT
HETATM    1  C8  UNL     1     -29.909  14.280  -3.873  1.00  0.00     0.104 A 
HETATM    2  C9  UNL     1     -31.219  14.501  -4.215  1.00  0.00     0.127 A 
HETATM    3  N5  UNL     1     -31.917  13.332  -4.272  1.00  0.00    -0.333 N 
HETATM    4  C17 UNL     1     -31.028  12.375  -3.961  1.00  0.00     0.174 A 
HETATM    5  C18 UNL     1     -29.784  12.912  -3.709  1.00  0.00     0.135 A 
ENDROOT
BRANCH   1   6
HETATM    6  N4  UNL     1     -28.852  15.225  -3.707  1.00  0.00    -0.264 N 
HETATM    7  N3  UNL     1     -27.756  15.145  -3.003  1.00  0.00    -0.305 N 
HETATM    8  C7  UNL     1     -27.017  16.257  -3.112  1.00  0.00     0.120 A 
ATOM      9  H3  UNL     1     -27.495  14.336  -2.440  1.00  0.00     0.186 HD
HETATM   10  C6  UNL     1     -27.701  17.105  -3.949  1.00  0.00     0.024 A 
HETATM   11  C19 UNL     1     -28.863  16.426  -4.314  1.00  0.00     0.129 A 
BRANCH  10  12
HETATM   12  C5  UNL     1     -27.306  18.476  -4.392  1.00  0.00     0.255 C 
BRANCH  12  13
HETATM   13  N2  UNL     1     -25.893  18.660  -4.373  1.00  0.00    -0.359 N 
ATOM     14  H2  UNL     1     -25.347  18.278  -5.146  1.00  0.00     0.162 HD
BRANCH  13  15
HETATM   15  C4  UNL     1     -25.209  19.336  -3.351  1.00  0.00     0.047 A 
HETATM   16  C3  UNL     1     -25.663  19.651  -2.082  1.00  0.00     0.048 A 
HETATM   17  C2  UNL     1     -24.661  20.321  -1.406  1.00  0.00     0.092 A 
HETATM   18  N1  UNL     1     -23.613  20.426  -2.214  1.00  0.00    -0.368 N 
HETATM   19  C1  UNL     1     -22.334  21.068  -1.893  1.00  0.00     0.154 C 
HETATM   20  C20 UNL     1     -23.913  19.848  -3.379  1.00  0.00     0.119 A 
ENDBRANCH  13  15
ENDBRANCH  12  13
BRANCH  12  21
HETATM   21  O1  UNL     1     -27.906  18.788  -5.599  1.00  0.00    -0.372 OA
ATOM     22  H1  UNL     1     -28.462  19.557  -5.573  1.00  0.00     0.212 HD
ENDBRANCH  12  21
ENDBRANCH  10  12
ENDBRANCH   1   6
BRANCH   5  23
HETATM   23  N6  UNL     1     -28.574  12.253  -3.349  1.00  0.00    -0.263 N 
ATOM     24  H6  UNL     1     -27.737  12.820  -3.211  1.00  0.00     0.194 HD
BRANCH  23  25
HETATM   25  O3  UNL     1     -28.484  11.022  -3.193  1.00  0.00    -0.289 OA
ATOM     26  H3  UNL     1     -28.771  10.573  -2.407  1.00  0.00     0.244 HD
ENDBRANCH  23  25
ENDBRANCH   5  23
BRANCH   3  27
HETATM   27  C10 UNL     1     -33.322  13.212  -4.606  1.00  0.00     0.135 C 
BRANCH  27  28
HETATM   28  C11 UNL     1     -34.190  12.870  -3.422  1.00  0.00     0.004 C 
HETATM   29  C12 UNL     1     -34.843  11.530  -3.495  1.00  0.00     0.006 C 
HETATM   30  C13 UNL     1     -35.351  11.212  -2.081  1.00  0.00     0.000 C 
HETATM   31  C14 UNL     1     -36.338  12.244  -1.651  1.00  0.00     0.000 C 
HETATM   32  C15 UNL     1     -35.821  13.656  -1.794  1.00  0.00     0.000 C 
HETATM   33  C16 UNL     1     -35.257  13.911  -3.175  1.00  0.00     0.006 C 
ENDBRANCH  27  28
ENDBRANCH   3  27
BRANCH   4  34
HETATM   34  O2  UNL     1     -31.337  11.025  -3.904  1.00  0.00    -0.344 OA
ATOM     35  H2  UNL     1     -31.138  10.408  -4.598  1.00  0.00     0.219 HD
ENDBRANCH   4  34
TORSDOF 10
ENDMDL
MODEL 3
REMARK VINA RESULT: -8.998043745      1.353      1.550
REMARK  10 active torsions:
REMARK  status: ('A' for Active; 'I' for Inactive)
REMARK    1  A    between atoms: C4_5  and  N2_6 
REMARK    2  A    between atoms: N2_6  and  C5_8 
REMARK    3  A    between atoms: C5_8  and  O1_9 
REMARK    4  A    between atoms: C5_8  and  C6_11 
REMARK    5  A    between atoms: N4_15  and  C8_16 
REMARK    6  A    between atoms: N5_18  and  C10_19 
REMARK    7  A    between atoms: C10_19  and  C11_20 
REMARK    8  A    between atoms: C17_26  and  O2_27 
REMARK    9  A    between atoms: C18_29  and  N6_30 
REMARK   10  A    between atoms: N6_30  and  O3_32 
ROOT
HETATM    1  C8  UNL     1     -29.942  14.272  -4.187  1.00  0.00     0.104 A 
HETATM    2  C9  UNL     1     -28.725  13.689  -3.938  1.00  0.00     0.127 A 
HETATM    3  N5  UNL     1     -27.810  14.612  -3.532  1.00  0.00    -0.333 N 
HETATM    4  C17 UNL     1     -28.467  15.782  -3.527  1.00  0.00     0.174 A 
HETATM    5  C18 UNL     1     -29.778  15.620  -3.922  1.00  0.00     0.135 A 
ENDROOT
BRANCH   1   6
HETATM    6  N4  UNL     1     -31.157  13.665  -4.626  1.00  0.00    -0.264 N 
HETATM    7  N3  UNL     1     -31.679  13.598  -5.820  1.00  0.00    -0.305 N 
HETATM    8  C7  UNL     1     -32.844  12.936  -5.814  1.00  0.00     0.120 A 
ATOM      9  H3  UNL     1     -31.253  14.001  -6.654  1.00  0.00     0.186 HD
HETATM   10  C6  UNL     1     -33.073  12.555  -4.514  1.00  0.00     0.024 A 
HETATM   11  C19 UNL     1     -31.988  13.030  -3.779  1.00  0.00     0.129 A 
BRANCH  10  12
HETATM   12  C5  UNL     1     -34.237  11.792  -3.972  1.00  0.00     0.255 C 
BRANCH  12  13
HETATM   13  N2  UNL     1     -34.875  12.479  -2.897  1.00  0.00    -0.359 N 
ATOM     14  H2  UNL     1     -34.732  13.486  -2.818  1.00  0.00     0.162 HD
BRANCH  13  15
HETATM   15  C4  UNL     1     -35.688  11.848  -1.943  1.00  0.00     0.047 A 
HETATM   16  C3  UNL     1     -36.596  12.430  -1.075  1.00  0.00     0.048 A 
HETATM   17  C2  UNL     1     -37.176  11.437  -0.309  1.00  0.00     0.092 A 
HETATM   18  N1  UNL     1     -36.658  10.272  -0.677  1.00  0.00    -0.368 N 
HETATM   19  C1  UNL     1     -36.996   8.959  -0.117  1.00  0.00     0.154 C 
HETATM   20  C20 UNL     1     -35.768  10.488  -1.649  1.00  0.00     0.119 A 
ENDBRANCH  13  15
ENDBRANCH  12  13
BRANCH  12  21
HETATM   21  O1  UNL     1     -35.089  11.414  -4.993  1.00  0.00    -0.372 OA
ATOM     22  H1  UNL     1     -35.158  10.475  -5.120  1.00  0.00     0.212 HD
ENDBRANCH  12  21
ENDBRANCH  10  12
ENDBRANCH   1   6
BRANCH   5  23
HETATM   23  N6  UNL     1     -30.807  16.596  -4.054  1.00  0.00    -0.263 N 
ATOM     24  H6  UNL     1     -31.778  16.288  -3.985  1.00  0.00     0.194 HD
BRANCH  23  25
HETATM   25  O3  UNL     1     -30.585  17.804  -4.248  1.00  0.00    -0.289 OA
ATOM     26  H3  UNL     1     -30.614  18.210  -5.106  1.00  0.00     0.244 HD
ENDBRANCH  23  25
ENDBRANCH   5  23
BRANCH   3  27
HETATM   27  C10 UNL     1     -26.430  14.328  -3.191  1.00  0.00     0.135 C 
BRANCH  27  28
HETATM   28  C11 UNL     1     -25.925  13.033  -3.773  1.00  0.00     0.004 C 
HETATM   29  C12 UNL     1     -26.728  11.830  -3.404  1.00  0.00     0.006 C 
HETATM   30  C13 UNL     1     -26.307  10.710  -4.367  1.00  0.00     0.000 C 
HETATM   31  C14 UNL     1     -24.851  10.426  -4.212  1.00  0.00     0.000 C 
HETATM   32  C15 UNL     1     -23.990  11.661  -4.324  1.00  0.00     0.000 C 
HETATM   33  C16 UNL     1     -24.480  12.772  -3.419  1.00  0.00     0.006 C 
ENDBRANCH  27  28
ENDBRANCH   3  27
BRANCH   4  34
HETATM   34  O2  UNL     1     -27.890  16.990  -3.169  1.00  0.00    -0.344 OA
ATOM     35  H2  UNL     1     -27.373  17.116  -2.382  1.00  0.00     0.219 HD
ENDBRANCH   4  34
TORSDOF 10
ENDMDL
MODEL 4
REMARK VINA RESULT: -8.993734360      1.211      1.676
REMARK  10 active torsions:
REMARK  status: ('A' for Active; 'I' for Inactive)
REMARK    1  A    between atoms: C4_5  and  N2_6 
REMARK    2  A    between atoms: N2_6  and  C5_8 
REMARK    3  A    between atoms: C5_8  and  O1_9 
REMARK    4  A    between atoms: C5_8  and  C6_11 
REMARK    5  A    between atoms: N4_15  and  C8_16 
REMARK    6  A    between atoms: N5_18  and  C10_19 
REMARK    7  A    between atoms: C10_19  and  C11_20 
REMARK    8  A    between atoms: C17_26  and  O2_27 
REMARK    9  A    between atoms: C18_29  and  N6_30 
REMARK   10  A    between atoms: N6_30  and  O3_32 
ROOT
HETATM    1  C8  UNL     1     -29.742  14.791  -3.710  1.00  0.00     0.104 A 
HETATM    2  C9  UNL     1     -28.645  14.087  -3.281  1.00  0.00     0.127 A 
HETATM    3  N5  UNL     1     -27.511  14.835  -3.379  1.00  0.00    -0.333 N 
HETATM    4  C17 UNL     1     -27.910  16.018  -3.874  1.00  0.00     0.174 A 
HETATM    5  C18 UNL     1     -29.271  16.034  -4.091  1.00  0.00     0.135 A 
ENDROOT
BRANCH   1   6
HETATM    6  N4  UNL     1     -31.107  14.378  -3.771  1.00  0.00    -0.264 N 
HETATM    7  N3  UNL     1     -32.177  14.935  -3.274  1.00  0.00    -0.305 N 
HETATM    8  C7  UNL     1     -33.279  14.227  -3.554  1.00  0.00     0.120 A 
ATOM      9  H3  UNL     1     -32.174  15.803  -2.737  1.00  0.00     0.186 HD
HETATM   10  C6  UNL     1     -32.872  13.138  -4.285  1.00  0.00     0.024 A 
HETATM   11  C19 UNL     1     -31.488  13.256  -4.410  1.00  0.00     0.129 A 
BRANCH  10  12
HETATM   12  C5  UNL     1     -33.715  12.037  -4.842  1.00  0.00     0.255 C 
BRANCH  12  13
HETATM   13  N2  UNL     1     -34.677  11.569  -3.900  1.00  0.00    -0.359 N 
ATOM     14  H2  UNL     1     -34.345  11.027  -3.102  1.00  0.00     0.162 HD
BRANCH  13  15
HETATM   15  C4  UNL     1     -36.054  11.811  -4.008  1.00  0.00     0.047 A 
HETATM   16  C3  UNL     1     -37.066  10.900  -4.260  1.00  0.00     0.048 A 
HETATM   17  C2  UNL     1     -38.273  11.573  -4.282  1.00  0.00     0.092 A 
HETATM   18  N1  UNL     1     -38.037  12.858  -4.052  1.00  0.00    -0.368 N 
HETATM   19  C1  UNL     1     -39.042  13.925  -3.989  1.00  0.00     0.154 C 
HETATM   20  C20 UNL     1     -36.724  13.028  -3.885  1.00  0.00     0.119 A 
ENDBRANCH  13  15
ENDBRANCH  12  13
BRANCH  12  21
HETATM   21  O1  UNL     1     -34.245  12.402  -6.066  1.00  0.00    -0.372 OA
ATOM     22  H1  UNL     1     -34.914  11.814  -6.396  1.00  0.00     0.212 HD
ENDBRANCH  12  21
ENDBRANCH  10  12
ENDBRANCH   1   6
BRANCH   5  23
HETATM   23  N6  UNL     1     -30.090  17.081  -4.603  1.00  0.00    -0.263 N 
ATOM     24  H6  UNL     1     -30.034  17.296  -5.599  1.00  0.00     0.194 HD
BRANCH  23  25
HETATM   25  O3  UNL     1     -30.869  17.748  -3.898  1.00  0.00    -0.289 OA
ATOM     26  H3  UNL     1     -30.682  18.631  -3.603  1.00  0.00     0.244 HD
ENDBRANCH  23  25
ENDBRANCH   5  23
BRANCH   3  27
HETATM   27  C10 UNL     1     -26.181  14.391  -3.011  1.00  0.00     0.135 C 
BRANCH  27  28
HETATM   28  C11 UNL     1     -25.772  13.108  -3.688  1.00  0.00     0.004 C 
HETATM   29  C12 UNL     1     -26.675  11.949  -3.425  1.00  0.00     0.006 C 
HETATM   30  C13 UNL     1     -26.327  10.877  -4.468  1.00  0.00     0.000 C 
HETATM   31  C14 UNL     1     -24.902  10.464  -4.319  1.00  0.00     0.000 C 
HETATM   32  C15 UNL     1     -23.943  11.631  -4.324  1.00  0.00     0.000 C 
HETATM   33  C16 UNL     1     -24.358  12.704  -3.339  1.00  0.00     0.006 C 
ENDBRANCH  27  28
ENDBRANCH   3  27
BRANCH   4  34
HETATM   34  O2  UNL     1     -27.052  17.076  -4.128  1.00  0.00    -0.344 OA
ATOM     35  H2  UNL     1     -26.795  17.717  -3.475  1.00  0.00     0.219 HD
ENDBRANCH   4  34
TORSDOF 10
ENDMDL
MODEL 5
REMARK VINA RESULT: -8.987794081      3.134      9.507
REMARK  10 active torsions:
REMARK  status: ('A' for Active; 'I' for Inactive)
REMARK    1  A    between atoms: C4_5  and  N2_6 
REMARK    2  A    between atoms: N2_6  and  C5_8 
REMARK    3  A    between atoms: C5_8  and  O1_9 
REMARK    4  A    between atoms: C5_8  and  C6_11 
REMARK    5  A    between atoms: N4_15  and  C8_16 
REMARK    6  A    between atoms: N5_18  and  C10_19 
REMARK    7  A    between atoms: C10_19  and  C11_20 
REMARK    8  A    between atoms: C17_26  and  O2_27 
REMARK    9  A    between atoms: C18_29  and  N6_30 
REMARK   10  A    between atoms: N6_30  and  O3_32 
ROOT
HETATM    1  C8  UNL     1     -30.717  14.090  -4.833  1.00  0.00     0.104 A 
HETATM    2  C9  UNL     1     -32.059  13.843  -4.981  1.00  0.00     0.127 A 
HETATM    3  N5  UNL     1     -32.373  12.576  -4.595  1.00  0.00    -0.333 N 
HETATM    4  C17 UNL     1     -31.212  12.029  -4.201  1.00  0.00     0.174 A 
HETATM    5  C18 UNL     1     -30.170  12.923  -4.330  1.00  0.00     0.135 A 
ENDROOT
BRANCH   1   6
HETATM    6  N4  UNL     1     -29.984  15.280  -5.120  1.00  0.00    -0.264 N 
HETATM    7  N3  UNL     1     -29.779  15.888  -6.256  1.00  0.00    -0.305 N 
HETATM    8  C7  UNL     1     -29.029  16.988  -6.101  1.00  0.00     0.120 A 
ATOM      9  H3  UNL     1     -30.144  15.565  -7.152  1.00  0.00     0.186 HD
HETATM   10  C6  UNL     1     -28.740  17.080  -4.761  1.00  0.00     0.024 A 
HETATM   11  C19 UNL     1     -29.357  15.984  -4.159  1.00  0.00     0.129 A 
BRANCH  10  12
HETATM   12  C5  UNL     1     -27.931  18.126  -4.065  1.00  0.00     0.255 C 
BRANCH  12  13
HETATM   13  N2  UNL     1     -26.770  17.580  -3.443  1.00  0.00    -0.359 N 
ATOM     14  H2  UNL     1     -26.671  16.565  -3.415  1.00  0.00     0.162 HD
BRANCH  13  15
HETATM   15  C4  UNL     1     -25.755  18.360  -2.868  1.00  0.00     0.047 A 
HETATM   16  C3  UNL     1     -25.709  18.897  -1.593  1.00  0.00     0.048 A 
HETATM   17  C2  UNL     1     -24.525  19.596  -1.449  1.00  0.00     0.092 A 
HETATM   18  N1  UNL     1     -23.847  19.505  -2.586  1.00  0.00    -0.368 N 
HETATM   19  C1  UNL     1     -22.537  20.102  -2.863  1.00  0.00     0.154 C 
HETATM   20  C20 UNL     1     -24.557  18.774  -3.449  1.00  0.00     0.119 A 
ENDBRANCH  13  15
ENDBRANCH  12  13
BRANCH  12  21
HETATM   21  O1  UNL     1     -27.678  19.189  -4.913  1.00  0.00    -0.372 OA
ATOM     22  H1  UNL     1     -28.146  19.986  -4.694  1.00  0.00     0.212 HD
ENDBRANCH  12  21
ENDBRANCH  10  12
ENDBRANCH   1   6
BRANCH   5  23
HETATM   23  N6  UNL     1     -28.789  12.747  -4.028  1.00  0.00    -0.263 N 
ATOM     24  H6  UNL     1     -28.104  13.273  -4.573  1.00  0.00     0.194 HD
BRANCH  23  25
HETATM   25  O3  UNL     1     -28.374  11.987  -3.135  1.00  0.00    -0.289 OA
ATOM     26  H3  UNL     1     -27.480  11.994  -2.816  1.00  0.00     0.244 HD
ENDBRANCH  23  25
ENDBRANCH   5  23
BRANCH   3  27
HETATM   27  C10 UNL     1     -33.701  11.996  -4.627  1.00  0.00     0.135 C 
BRANCH  27  28
HETATM   28  C11 UNL     1     -34.481  12.222  -3.357  1.00  0.00     0.004 C 
HETATM   29  C12 UNL     1     -35.429  11.124  -3.005  1.00  0.00     0.006 C 
HETATM   30  C13 UNL     1     -35.830  11.344  -1.540  1.00  0.00     0.000 C 
HETATM   31  C14 UNL     1     -36.497  12.669  -1.387  1.00  0.00     0.000 C 
HETATM   32  C15 UNL     1     -35.688  13.809  -1.960  1.00  0.00     0.000 C 
HETATM   33  C16 UNL     1     -35.244  13.526  -3.379  1.00  0.00     0.006 C 
ENDBRANCH  27  28
ENDBRANCH   3  27
BRANCH   4  34
HETATM   34  O2  UNL     1     -31.091  10.732  -3.728  1.00  0.00    -0.344 OA
ATOM     35  H2  UNL     1     -31.419   9.969  -4.188  1.00  0.00     0.219 HD
ENDBRANCH   4  34
TORSDOF 10
ENDMDL
