MODEL 1
REMARK VINA RESULT: -9.490717237      0.000      0.000
REMARK  8 active torsions:
REMARK  status: ('A' for Active; 'I' for Inactive)
REMARK    1  A    between atoms: C4_5  and  N2_6 
REMARK    2  A    between atoms: C5_11  and  N4_12 
REMARK    3  A    between atoms: C7_16  and  C8_17 
REMARK    4  A    between atoms: C8_17  and  C9_18 
REMARK    5  A    between atoms: C8_17  and  C10_23 
REMARK    6  A    between atoms: N5_19  and  O3_21 
REMARK       I    between atoms: C10_23  and  N6_25 
REMARK    7  A    between atoms: N6_25  and  C11_27 
REMARK    8  A    between atoms: C14_30  and  N7_31 
ROOT
HETATM    1  N1  UNL     1     -30.400  12.567  -6.412  1.00  0.00    -0.191 NA
HETATM    2  C1  UNL     1     -31.311  12.776  -5.709  1.00  0.00     0.100 C 
HETATM    3  C2  UNL     1     -32.467  13.028  -4.861  1.00  0.00     0.054 A 
HETATM    4  C3  UNL     1     -33.630  12.315  -5.180  1.00  0.00     0.056 A 
HETATM    5  C4  UNL     1     -34.771  12.503  -4.444  1.00  0.00     0.082 A 
HETATM    6  C5  UNL     1     -34.772  13.384  -3.402  1.00  0.00     0.131 A 
HETATM    7  C6  UNL     1     -33.618  14.067  -3.115  1.00  0.00     0.048 A 
HETATM    8  C7  UNL     1     -32.436  13.924  -3.817  1.00  0.00    -0.017 A 
ENDROOT
BRANCH   8   9
HETATM    9  C8  UNL     1     -31.188  14.615  -3.520  1.00  0.00     0.153 C 
BRANCH   9  10
HETATM   10  C9  UNL     1     -30.891  15.659  -4.518  1.00  0.00     0.105 C 
HETATM   11  N5  UNL     1     -30.521  16.821  -4.045  1.00  0.00    -0.283 N 
ATOM     12  H5  UNL     1     -30.452  16.963  -3.037  1.00  0.00     0.192 HD
BRANCH  11  13
HETATM   13  O3  UNL     1     -30.229  17.836  -4.894  1.00  0.00    -0.291 OA
ATOM     14  H3  UNL     1     -30.723  18.647  -4.852  1.00  0.00     0.244 HD
ENDBRANCH  11  13
ENDBRANCH   9  10
BRANCH   9  15
HETATM   15  C10 UNL     1     -30.000  13.778  -3.301  1.00  0.00     0.235 C 
HETATM   16  O4  UNL     1     -30.079  12.842  -2.491  1.00  0.00    -0.272 OA
HETATM   17  N6  UNL     1     -28.823  14.035  -3.989  1.00  0.00    -0.326 N 
ATOM     18  H6  UNL     1     -28.839  14.818  -4.643  1.00  0.00     0.169 HD
BRANCH  17  19
HETATM   19  C11 UNL     1     -27.611  13.331  -3.883  1.00  0.00     0.034 A 
HETATM   20  C12 UNL     1     -27.566  11.990  -4.329  1.00  0.00     0.032 A 
HETATM   21  C13 UNL     1     -26.419  11.254  -4.273  1.00  0.00     0.038 A 
HETATM   22  C14 UNL     1     -25.234  11.753  -3.783  1.00  0.00     0.103 A 
HETATM   23  C15 UNL     1     -25.253  13.054  -3.342  1.00  0.00     0.038 A 
HETATM   24  C16 UNL     1     -26.435  13.822  -3.398  1.00  0.00     0.032 A 
BRANCH  22  25
HETATM   25  N7  UNL     1     -24.057  10.968  -3.734  1.00  0.00    -0.116 N 
HETATM   26  O5  UNL     1     -22.965  11.420  -3.357  1.00  0.00    -0.532 OA
HETATM   27  O6  UNL     1     -24.111   9.655  -4.118  1.00  0.00    -0.532 OA
ENDBRANCH  22  25
ENDBRANCH  17  19
ENDBRANCH   9  15
ENDBRANCH   8   9
BRANCH   5  28
HETATM   28  N2  UNL     1     -35.974  11.781  -4.754  1.00  0.00    -0.305 N 
HETATM   29  N3  UNL     1     -36.247  10.658  -4.234  1.00  0.00    -0.345 N 
ATOM     30  H32 UNL     1     -35.576  10.266  -3.573  1.00  0.00     0.176 HD
ATOM     31  H31 UNL     1     -37.101  10.146  -4.454  1.00  0.00     0.176 HD
ATOM     32  H2  UNL     1     -36.634  12.188  -5.417  1.00  0.00     0.186 HD
ENDBRANCH   5  28
BRANCH   6  33
HETATM   33  N4  UNL     1     -35.922  13.617  -2.610  1.00  0.00    -0.113 N 
HETATM   34  O1  UNL     1     -36.300  12.793  -1.788  1.00  0.00    -0.532 OA
HETATM   35  O2  UNL     1     -36.614  14.784  -2.778  1.00  0.00    -0.532 OA
ENDBRANCH   6  33
TORSDOF 8
ENDMDL
MODEL 2
REMARK VINA RESULT: -9.484501529      4.176      8.188
REMARK  8 active torsions:
REMARK  status: ('A' for Active; 'I' for Inactive)
REMARK    1  A    between atoms: C4_5  and  N2_6 
REMARK    2  A    between atoms: C5_11  and  N4_12 
REMARK    3  A    between atoms: C7_16  and  C8_17 
REMARK    4  A    between atoms: C8_17  and  C9_18 
REMARK    5  A    between atoms: C8_17  and  C10_23 
REMARK    6  A    between atoms: N5_19  and  O3_21 
REMARK       I    between atoms: C10_23  and  N6_25 
REMARK    7  A    between atoms: N6_25  and  C11_27 
REMARK    8  A    between atoms: C14_30  and  N7_31 
ROOT
HETATM    1  N1  UNL     1     -30.307  12.254  -3.657  1.00  0.00    -0.191 NA
HETATM    2  C1  UNL     1     -29.139  12.266  -3.723  1.00  0.00     0.100 C 
HETATM    3  C2  UNL     1     -27.686  12.246  -3.796  1.00  0.00     0.054 A 
HETATM    4  C3  UNL     1     -27.101  11.006  -4.082  1.00  0.00     0.056 A 
HETATM    5  C4  UNL     1     -25.736  10.892  -4.153  1.00  0.00     0.082 A 
HETATM    6  C5  UNL     1     -24.950  11.989  -3.946  1.00  0.00     0.131 A 
HETATM    7  C6  UNL     1     -25.553  13.189  -3.669  1.00  0.00     0.048 A 
HETATM    8  C7  UNL     1     -26.920  13.371  -3.582  1.00  0.00    -0.017 A 
ENDROOT
BRANCH   8   9
HETATM    9  C8  UNL     1     -27.589  14.637  -3.315  1.00  0.00     0.153 C 
BRANCH   9  10
HETATM   10  C9  UNL     1     -28.279  15.153  -4.511  1.00  0.00     0.105 C 
HETATM   11  N5  UNL     1     -29.525  15.515  -4.347  1.00  0.00    -0.283 N 
ATOM     12  H5  UNL     1     -29.964  15.431  -3.431  1.00  0.00     0.192 HD
BRANCH  11  13
HETATM   13  O3  UNL     1     -30.233  16.001  -5.396  1.00  0.00    -0.291 OA
ATOM     14  H3  UNL     1     -30.306  15.492  -6.195  1.00  0.00     0.244 HD
ENDBRANCH  11  13
ENDBRANCH   9  10
BRANCH   9  15
HETATM   15  C10 UNL     1     -26.779  15.701  -2.704  1.00  0.00     0.235 C 
HETATM   16  O4  UNL     1     -26.384  15.546  -1.538  1.00  0.00    -0.272 OA
HETATM   17  N6  UNL     1     -26.467  16.847  -3.422  1.00  0.00    -0.326 N 
ATOM     18  H6  UNL     1     -26.823  16.897  -4.377  1.00  0.00     0.169 HD
BRANCH  17  19
HETATM   19  C11 UNL     1     -25.713  17.945  -2.975  1.00  0.00     0.034 A 
HETATM   20  C12 UNL     1     -26.026  18.515  -1.719  1.00  0.00     0.032 A 
HETATM   21  C13 UNL     1     -25.324  19.570  -1.216  1.00  0.00     0.038 A 
HETATM   22  C14 UNL     1     -24.271  20.153  -1.882  1.00  0.00     0.103 A 
HETATM   23  C15 UNL     1     -23.948  19.617  -3.104  1.00  0.00     0.038 A 
HETATM   24  C16 UNL     1     -24.669  18.526  -3.632  1.00  0.00     0.032 A 
BRANCH  22  25
HETATM   25  N7  UNL     1     -23.558  21.248  -1.337  1.00  0.00    -0.116 N 
HETATM   26  O5  UNL     1     -23.992  21.926  -0.392  1.00  0.00    -0.532 OA
HETATM   27  O6  UNL     1     -22.342  21.586  -1.866  1.00  0.00    -0.532 OA
ENDBRANCH  22  25
ENDBRANCH  17  19
ENDBRANCH   9  15
ENDBRANCH   8   9
BRANCH   5  28
HETATM   28  N2  UNL     1     -25.117   9.630  -4.445  1.00  0.00    -0.305 N 
HETATM   29  N3  UNL     1     -24.044   9.253  -3.884  1.00  0.00    -0.345 N 
ATOM     30  H32 UNL     1     -23.619   9.881  -3.203  1.00  0.00     0.176 HD
ATOM     31  H31 UNL     1     -23.604   8.357  -4.091  1.00  0.00     0.176 HD
ATOM     32  H2  UNL     1     -25.555   9.013  -5.129  1.00  0.00     0.186 HD
ENDBRANCH   5  28
BRANCH   6  33
HETATM   33  N4  UNL     1     -23.537  11.928  -4.007  1.00  0.00    -0.113 N 
HETATM   34  O1  UNL     1     -22.861  11.927  -2.988  1.00  0.00    -0.532 OA
HETATM   35  O2  UNL     1     -22.932  11.871  -5.232  1.00  0.00    -0.532 OA
ENDBRANCH   6  33
TORSDOF 8
ENDMDL
MODEL 3
REMARK VINA RESULT: -8.815235796      3.253      8.808
REMARK  8 active torsions:
REMARK  status: ('A' for Active; 'I' for Inactive)
REMARK    1  A    between atoms: C4_5  and  N2_6 
REMARK    2  A    between atoms: C5_11  and  N4_12 
REMARK    3  A    between atoms: C7_16  and  C8_17 
REMARK    4  A    between atoms: C8_17  and  C9_18 
REMARK    5  A    between atoms: C8_17  and  C10_23 
REMARK    6  A    between atoms: N5_19  and  O3_21 
REMARK       I    between atoms: C10_23  and  N6_25 
REMARK    7  A    between atoms: N6_25  and  C11_27 
REMARK    8  A    between atoms: C14_30  and  N7_31 
ROOT
HETATM    1  N1  UNL     1     -29.054  12.614  -1.228  1.00  0.00    -0.191 NA
HETATM    2  C1  UNL     1     -29.131  13.310  -2.164  1.00  0.00     0.100 C 
HETATM    3  C2  UNL     1     -29.215  14.203  -3.310  1.00  0.00     0.054 A 
HETATM    4  C3  UNL     1     -28.367  15.318  -3.284  1.00  0.00     0.056 A 
HETATM    5  C4  UNL     1     -28.393  16.222  -4.315  1.00  0.00     0.082 A 
HETATM    6  C5  UNL     1     -29.243  16.033  -5.365  1.00  0.00     0.131 A 
HETATM    7  C6  UNL     1     -30.060  14.931  -5.362  1.00  0.00     0.048 A 
HETATM    8  C7  UNL     1     -30.084  13.985  -4.355  1.00  0.00    -0.017 A 
ENDROOT
BRANCH   8   9
HETATM    9  C8  UNL     1     -30.921  12.792  -4.336  1.00  0.00     0.153 C 
BRANCH   9  10
HETATM   10  C9  UNL     1     -30.374  11.727  -5.195  1.00  0.00     0.105 C 
HETATM   11  N5  UNL     1     -30.241  10.550  -4.640  1.00  0.00    -0.283 N 
ATOM     12  H5  UNL     1     -30.511  10.412  -3.666  1.00  0.00     0.192 HD
BRANCH  11  13
HETATM   13  O3  UNL     1     -29.745   9.514  -5.360  1.00  0.00    -0.291 OA
ATOM     14  H3  UNL     1     -30.204   8.682  -5.372  1.00  0.00     0.244 HD
ENDBRANCH  11  13
ENDBRANCH   9  10
BRANCH   9  15
HETATM   15  C10 UNL     1     -32.351  12.979  -4.619  1.00  0.00     0.235 C 
HETATM   16  O4  UNL     1     -32.687  13.314  -5.766  1.00  0.00    -0.272 OA
HETATM   17  N6  UNL     1     -33.297  12.783  -3.623  1.00  0.00    -0.326 N 
ATOM     18  H6  UNL     1     -32.943  12.503  -2.708  1.00  0.00     0.169 HD
BRANCH  17  19
HETATM   19  C11 UNL     1     -34.690  12.929  -3.740  1.00  0.00     0.034 A 
HETATM   20  C12 UNL     1     -35.324  13.968  -3.022  1.00  0.00     0.032 A 
HETATM   21  C13 UNL     1     -36.670  14.178  -3.103  1.00  0.00     0.038 A 
HETATM   22  C14 UNL     1     -37.502  13.405  -3.880  1.00  0.00     0.103 A 
HETATM   23  C15 UNL     1     -36.908  12.388  -4.587  1.00  0.00     0.038 A 
HETATM   24  C16 UNL     1     -35.518  12.164  -4.508  1.00  0.00     0.032 A 
BRANCH  22  25
HETATM   25  N7  UNL     1     -38.896  13.644  -3.946  1.00  0.00    -0.116 N 
HETATM   26  O5  UNL     1     -39.702  13.125  -3.157  1.00  0.00    -0.532 OA
HETATM   27  O6  UNL     1     -39.388  14.476  -4.915  1.00  0.00    -0.532 OA
ENDBRANCH  22  25
ENDBRANCH  17  19
ENDBRANCH   9  15
ENDBRANCH   8   9
BRANCH   5  28
HETATM   28  N2  UNL     1     -27.532  17.372  -4.308  1.00  0.00    -0.305 N 
HETATM   29  N3  UNL     1     -27.902  18.495  -3.852  1.00  0.00    -0.345 N 
ATOM     30  H32 UNL     1     -28.849  18.568  -3.481  1.00  0.00     0.176 HD
ATOM     31  H31 UNL     1     -27.291  19.312  -3.847  1.00  0.00     0.176 HD
ATOM     32  H2  UNL     1     -26.588  17.282  -4.683  1.00  0.00     0.186 HD
ENDBRANCH   5  28
BRANCH   6  33
HETATM   33  N4  UNL     1     -29.311  16.934  -6.455  1.00  0.00    -0.113 N 
HETATM   34  O1  UNL     1     -28.634  16.761  -7.459  1.00  0.00    -0.532 OA
HETATM   35  O2  UNL     1     -30.149  18.011  -6.369  1.00  0.00    -0.532 OA
ENDBRANCH   6  33
TORSDOF 8
ENDMDL
MODEL 4
REMARK VINA RESULT: -8.801751162      2.404      8.157
REMARK  8 active torsions:
REMARK  status: ('A' for Active; 'I' for Inactive)
REMARK    1  A    between atoms: C4_5  and  N2_6 
REMARK    2  A    between atoms: C5_11  and  N4_12 
REMARK    3  A    between atoms: C7_16  and  C8_17 
REMARK    4  A    between atoms: C8_17  and  C9_18 
REMARK    5  A    between atoms: C8_17  and  C10_23 
REMARK    6  A    between atoms: N5_19  and  O3_21 
REMARK       I    between atoms: C10_23  and  N6_25 
REMARK    7  A    between atoms: N6_25  and  C11_27 
REMARK    8  A    between atoms: C14_30  and  N7_31 
ROOT
HETATM    1  N1  UNL     1     -26.478  14.807  -1.047  1.00  0.00    -0.191 NA
HETATM    2  C1  UNL     1     -26.971  15.160  -2.047  1.00  0.00     0.100 C 
HETATM    3  C2  UNL     1     -27.582  15.634  -3.280  1.00  0.00     0.054 A 
HETATM    4  C3  UNL     1     -27.298  16.958  -3.638  1.00  0.00     0.056 A 
HETATM    5  C4  UNL     1     -27.846  17.492  -4.776  1.00  0.00     0.082 A 
HETATM    6  C5  UNL     1     -28.666  16.732  -5.558  1.00  0.00     0.131 A 
HETATM    7  C6  UNL     1     -28.925  15.439  -5.180  1.00  0.00     0.048 A 
HETATM    8  C7  UNL     1     -28.406  14.842  -4.048  1.00  0.00    -0.017 A 
ENDROOT
BRANCH   8   9
HETATM    9  C8  UNL     1     -28.641  13.464  -3.636  1.00  0.00     0.153 C 
BRANCH   9  10
HETATM   10  C9  UNL     1     -27.779  12.520  -4.369  1.00  0.00     0.105 C 
HETATM   11  N5  UNL     1     -27.263  11.545  -3.666  1.00  0.00    -0.283 N 
ATOM     12  H5  UNL     1     -27.466  11.472  -2.669  1.00  0.00     0.192 HD
BRANCH  11  13
HETATM   13  O3  UNL     1     -26.458  10.632  -4.263  1.00  0.00    -0.291 OA
ATOM     14  H3  UNL     1     -25.798  10.176  -3.754  1.00  0.00     0.244 HD
ENDBRANCH  11  13
ENDBRANCH   9  10
BRANCH   9  15
HETATM   15  C10 UNL     1     -30.033  12.993  -3.657  1.00  0.00     0.235 C 
HETATM   16  O4  UNL     1     -30.262  11.815  -3.341  1.00  0.00    -0.272 OA
HETATM   17  N6  UNL     1     -31.061  13.850  -4.021  1.00  0.00    -0.326 N 
ATOM     18  H6  UNL     1     -30.794  14.805  -4.261  1.00  0.00     0.169 HD
BRANCH  17  19
HETATM   19  C11 UNL     1     -32.431  13.545  -4.094  1.00  0.00     0.034 A 
HETATM   20  C12 UNL     1     -32.891  12.754  -5.171  1.00  0.00     0.032 A 
HETATM   21  C13 UNL     1     -34.204  12.404  -5.294  1.00  0.00     0.038 A 
HETATM   22  C14 UNL     1     -35.168  12.789  -4.390  1.00  0.00     0.103 A 
HETATM   23  C15 UNL     1     -34.744  13.559  -3.335  1.00  0.00     0.038 A 
HETATM   24  C16 UNL     1     -33.389  13.925  -3.201  1.00  0.00     0.032 A 
BRANCH  22  25
HETATM   25  N7  UNL     1     -36.524  12.413  -4.541  1.00  0.00    -0.116 N 
HETATM   26  O5  UNL     1     -37.445  13.243  -4.617  1.00  0.00    -0.532 OA
HETATM   27  O6  UNL     1     -36.849  11.085  -4.606  1.00  0.00    -0.532 OA
ENDBRANCH  22  25
ENDBRANCH  17  19
ENDBRANCH   9  15
ENDBRANCH   8   9
BRANCH   5  28
HETATM   28  N2  UNL     1     -27.568  18.848  -5.160  1.00  0.00    -0.305 N 
HETATM   29  N3  UNL     1     -26.419  19.226  -5.537  1.00  0.00    -0.345 N 
ATOM     30  H32 UNL     1     -25.675  18.529  -5.562  1.00  0.00     0.176 HD
ATOM     31  H31 UNL     1     -26.221  20.188  -5.810  1.00  0.00     0.176 HD
ATOM     32  H2  UNL     1     -28.324  19.533  -5.129  1.00  0.00     0.186 HD
ENDBRANCH   5  28
BRANCH   6  33
HETATM   33  N4  UNL     1     -29.259  17.233  -6.742  1.00  0.00    -0.113 N 
HETATM   34  O1  UNL     1     -28.859  16.884  -7.844  1.00  0.00    -0.532 OA
HETATM   35  O2  UNL     1     -30.293  18.122  -6.637  1.00  0.00    -0.532 OA
ENDBRANCH   6  33
TORSDOF 8
ENDMDL
MODEL 5
REMARK VINA RESULT: -8.751292644      2.406      8.224
REMARK  8 active torsions:
REMARK  status: ('A' for Active; 'I' for Inactive)
REMARK    1  A    between atoms: C4_5  and  N2_6 
REMARK    2  A    between atoms: C5_11  and  N4_12 
REMARK    3  A    between atoms: C7_16  and  C8_17 
REMARK    4  A    between atoms: C8_17  and  C9_18 
REMARK    5  A    between atoms: C8_17  and  C10_23 
REMARK    6  A    between atoms: N5_19  and  O3_21 
REMARK       I    between atoms: C10_23  and  N6_25 
REMARK    7  A    between atoms: N6_25  and  C11_27 
REMARK    8  A    between atoms: C14_30  and  N7_31 
ROOT
HETATM    1  N1  UNL     1     -30.370  10.600  -5.441  1.00  0.00    -0.191 NA
HETATM    2  C1  UNL     1     -29.696  11.462  -5.027  1.00  0.00     0.100 C 
HETATM    3  C2  UNL     1     -28.840  12.511  -4.491  1.00  0.00     0.054 A 
HETATM    4  C3  UNL     1     -27.573  12.106  -4.054  1.00  0.00     0.056 A 
HETATM    5  C4  UNL     1     -26.707  13.026  -3.520  1.00  0.00     0.082 A 
HETATM    6  C5  UNL     1     -27.083  14.334  -3.415  1.00  0.00     0.131 A 
HETATM    7  C6  UNL     1     -28.330  14.698  -3.853  1.00  0.00     0.048 A 
HETATM    8  C7  UNL     1     -29.249  13.823  -4.399  1.00  0.00    -0.017 A 
ENDROOT
BRANCH   8   9
HETATM    9  C8  UNL     1     -30.570  14.184  -4.896  1.00  0.00     0.153 C 
BRANCH   9  10
HETATM   10  C9  UNL     1     -30.574  15.524  -5.511  1.00  0.00     0.105 C 
HETATM   11  N5  UNL     1     -30.305  16.525  -4.714  1.00  0.00    -0.283 N 
ATOM     12  H5  UNL     1     -30.107  16.354  -3.728  1.00  0.00     0.192 HD
BRANCH  11  13
HETATM   13  O3  UNL     1     -30.288  17.791  -5.199  1.00  0.00    -0.291 OA
ATOM     14  H3  UNL     1     -29.521  18.337  -5.072  1.00  0.00     0.244 HD
ENDBRANCH  11  13
ENDBRANCH   9  10
BRANCH   9  15
HETATM   15  C10 UNL     1     -31.691  14.062  -3.953  1.00  0.00     0.235 C 
HETATM   16  O4  UNL     1     -31.595  14.617  -2.847  1.00  0.00    -0.272 OA
HETATM   17  N6  UNL     1     -32.825  13.342  -4.298  1.00  0.00    -0.326 N 
ATOM     18  H6  UNL     1     -32.831  12.919  -5.227  1.00  0.00     0.169 HD
BRANCH  17  19
HETATM   19  C11 UNL     1     -33.967  13.132  -3.506  1.00  0.00     0.034 A 
HETATM   20  C12 UNL     1     -34.297  11.810  -3.130  1.00  0.00     0.032 A 
HETATM   21  C13 UNL     1     -35.380  11.536  -2.348  1.00  0.00     0.038 A 
HETATM   22  C14 UNL     1     -36.224  12.513  -1.870  1.00  0.00     0.103 A 
HETATM   23  C15 UNL     1     -35.924  13.806  -2.223  1.00  0.00     0.038 A 
HETATM   24  C16 UNL     1     -34.806  14.097  -3.032  1.00  0.00     0.032 A 
BRANCH  22  25
HETATM   25  N7  UNL     1     -37.343  12.202  -1.060  1.00  0.00    -0.116 N 
HETATM   26  O5  UNL     1     -38.512  12.335  -1.454  1.00  0.00    -0.532 OA
HETATM   27  O6  UNL     1     -37.141  11.736   0.211  1.00  0.00    -0.532 OA
ENDBRANCH  22  25
ENDBRANCH  17  19
ENDBRANCH   9  15
ENDBRANCH   8   9
BRANCH   5  28
HETATM   28  N2  UNL     1     -25.402  12.632  -3.065  1.00  0.00    -0.305 N 
HETATM   29  N3  UNL     1     -24.358  12.809  -3.761  1.00  0.00    -0.345 N 
ATOM     30  H32 UNL     1     -24.465  13.250  -4.675  1.00  0.00     0.176 HD
ATOM     31  H31 UNL     1     -23.432  12.530  -3.439  1.00  0.00     0.176 HD
ATOM     32  H2  UNL     1     -25.313  12.193  -2.149  1.00  0.00     0.186 HD
ENDBRANCH   5  28
BRANCH   6  33
HETATM   33  N4  UNL     1     -26.229  15.324  -2.872  1.00  0.00    -0.113 N 
HETATM   34  O1  UNL     1     -25.442  15.936  -3.580  1.00  0.00    -0.532 OA
HETATM   35  O2  UNL     1     -26.296  15.588  -1.532  1.00  0.00    -0.532 OA
ENDBRANCH   6  33
TORSDOF 8
ENDMDL
