MODEL 1
REMARK VINA RESULT: -8.176272374      0.000      0.000
REMARK  8 active torsions:
REMARK  status: ('A' for Active; 'I' for Inactive)
REMARK    1  A    between atoms: N1_2  and  C2_4 
REMARK    2  A    between atoms: C5_7  and  S1_8 
REMARK    3  A    between atoms: S1_8  and  S2_9 
REMARK    4  A    between atoms: S2_9  and  C6_10 
REMARK    5  A    between atoms: C9_13  and  N2_14 
REMARK       I    between atoms: N2_14  and  C10_16 
REMARK       I    between atoms: C10_16  and  N5_23 
REMARK    6  A    between atoms: N3_17  and  N4_19 
REMARK    7  A    between atoms: N4_19  and  O1_21 
REMARK    8  A    between atoms: C12_27  and  N7_28 
ROOT
HETATM    1  N2  UNL     1     -28.773  12.715  -2.697  1.00  0.00    -0.187 N 
ATOM      2  H2  UNL     1     -28.632  12.333  -1.761  1.00  0.00     0.184 HD
HETATM    3  C10 UNL     1     -27.684  13.366  -3.343  1.00  0.00     0.707 C 
HETATM    4  N3  UNL     1     -27.332  14.525  -2.961  1.00  0.00    -0.112 N 
ATOM      5  H3  UNL     1     -27.862  14.936  -2.193  1.00  0.00     0.207 HD
HETATM    6  N5  UNL     1     -27.016  12.720  -4.393  1.00  0.00    -0.124 N 
ATOM      7  H5  UNL     1     -27.010  13.170  -5.308  1.00  0.00     0.197 HD
HETATM    8  C11 UNL     1     -26.352  11.488  -4.258  1.00  0.00     0.196 C 
HETATM    9  N6  UNL     1     -25.792  10.476  -4.136  1.00  0.00    -0.171 NA
ENDROOT
BRANCH   1  10
HETATM   10  C9  UNL     1     -30.038  12.579  -3.304  1.00  0.00     0.082 A 
HETATM   11  C8  UNL     1     -30.866  13.705  -3.264  1.00  0.00     0.034 A 
HETATM   12  C7  UNL     1     -32.132  13.664  -3.807  1.00  0.00     0.022 A 
HETATM   13  C6  UNL     1     -32.640  12.530  -4.406  1.00  0.00     0.014 A 
HETATM   14  C13 UNL     1     -31.829  11.428  -4.445  1.00  0.00     0.057 A 
HETATM   15  C12 UNL     1     -30.527  11.456  -3.894  1.00  0.00     0.131 A 
BRANCH  13  16
HETATM   16  S2  UNL     1     -34.290  12.518  -5.098  1.00  0.00    -0.052 SA
BRANCH  16  17
HETATM   17  S1  UNL     1     -35.668  13.131  -3.598  1.00  0.00    -0.053 SA
BRANCH  17  18
HETATM   18  C5  UNL     1     -35.862  11.770  -2.457  1.00  0.00     0.012 A 
HETATM   19  C4  UNL     1     -35.235  10.574  -2.670  1.00  0.00     0.021 A 
HETATM   20  C3  UNL     1     -35.432   9.556  -1.736  1.00  0.00     0.030 A 
HETATM   21  C2  UNL     1     -36.230   9.733  -0.629  1.00  0.00     0.027 A 
HETATM   22  C15 UNL     1     -36.854  10.936  -0.424  1.00  0.00     0.030 A 
HETATM   23  C14 UNL     1     -36.669  11.965  -1.345  1.00  0.00     0.021 A 
BRANCH  21  24
HETATM   24  N1  UNL     1     -36.403   8.667   0.298  1.00  0.00    -0.394 N 
HETATM   25  C1  UNL     1     -36.570   8.866   1.700  1.00  0.00     0.146 C 
ATOM     26  H1  UNL     1     -36.408   7.712  -0.060  1.00  0.00     0.159 HD
ENDBRANCH  21  24
ENDBRANCH  17  18
ENDBRANCH  16  17
ENDBRANCH  13  16
BRANCH  15  27
HETATM   27  N7  UNL     1     -29.765  10.287  -3.973  1.00  0.00    -0.113 N 
HETATM   28  O2  UNL     1     -29.646   9.641  -5.008  1.00  0.00    -0.532 OA
HETATM   29  O3  UNL     1     -29.142   9.815  -2.842  1.00  0.00    -0.532 OA
ENDBRANCH  15  27
ENDBRANCH   1  10
BRANCH   4  30
HETATM   30  N4  UNL     1     -26.301  15.285  -3.484  1.00  0.00    -0.196 N 
ATOM     31  H4  UNL     1     -26.467  16.228  -3.836  1.00  0.00     0.216 HD
BRANCH  30  32
HETATM   32  O1  UNL     1     -25.156  14.776  -3.510  1.00  0.00    -0.274 OA
ATOM     33  H1  UNL     1     -25.051  13.948  -3.962  1.00  0.00     0.246 HD
ENDBRANCH  30  32
ENDBRANCH   4  30
TORSDOF 8
ENDMDL
MODEL 2
REMARK VINA RESULT: -8.043743340      2.094      3.310
REMARK  8 active torsions:
REMARK  status: ('A' for Active; 'I' for Inactive)
REMARK    1  A    between atoms: N1_2  and  C2_4 
REMARK    2  A    between atoms: C5_7  and  S1_8 
REMARK    3  A    between atoms: S1_8  and  S2_9 
REMARK    4  A    between atoms: S2_9  and  C6_10 
REMARK    5  A    between atoms: C9_13  and  N2_14 
REMARK       I    between atoms: N2_14  and  C10_16 
REMARK       I    between atoms: C10_16  and  N5_23 
REMARK    6  A    between atoms: N3_17  and  N4_19 
REMARK    7  A    between atoms: N4_19  and  O1_21 
REMARK    8  A    between atoms: C12_27  and  N7_28 
ROOT
HETATM    1  N2  UNL     1     -28.036  13.490  -5.088  1.00  0.00    -0.187 N 
ATOM      2  H2  UNL     1     -27.624  14.112  -5.783  1.00  0.00     0.184 HD
HETATM    3  C10 UNL     1     -27.176  12.802  -4.186  1.00  0.00     0.707 C 
HETATM    4  N3  UNL     1     -26.486  11.821  -4.603  1.00  0.00    -0.112 N 
ATOM      5  H3  UNL     1     -26.588  11.573  -5.588  1.00  0.00     0.207 HD
HETATM    6  N5  UNL     1     -27.102  13.216  -2.847  1.00  0.00    -0.124 N 
ATOM      7  H5  UNL     1     -27.362  12.547  -2.123  1.00  0.00     0.197 HD
HETATM    8  C11 UNL     1     -26.691  14.499  -2.447  1.00  0.00     0.196 C 
HETATM    9  N6  UNL     1     -26.335  15.557  -2.121  1.00  0.00    -0.171 NA
ENDROOT
BRANCH   1  10
HETATM   10  C9  UNL     1     -29.438  13.340  -5.055  1.00  0.00     0.082 A 
HETATM   11  C8  UNL     1     -29.919  12.029  -5.057  1.00  0.00     0.034 A 
HETATM   12  C7  UNL     1     -31.274  11.779  -5.053  1.00  0.00     0.022 A 
HETATM   13  C6  UNL     1     -32.210  12.792  -5.048  1.00  0.00     0.014 A 
HETATM   14  C13 UNL     1     -31.738  14.077  -5.045  1.00  0.00     0.057 A 
HETATM   15  C12 UNL     1     -30.351  14.348  -5.048  1.00  0.00     0.131 A 
BRANCH  13  16
HETATM   16  S2  UNL     1     -33.962  12.425  -5.044  1.00  0.00    -0.052 SA
BRANCH  16  17
HETATM   17  S1  UNL     1     -34.803  13.105  -3.213  1.00  0.00    -0.053 SA
BRANCH  17  18
HETATM   18  C5  UNL     1     -35.395  11.671  -2.327  1.00  0.00     0.012 A 
HETATM   19  C4  UNL     1     -36.340  11.788  -1.345  1.00  0.00     0.021 A 
HETATM   20  C3  UNL     1     -36.756  10.624  -0.697  1.00  0.00     0.030 A 
HETATM   21  C2  UNL     1     -36.242   9.390  -1.022  1.00  0.00     0.027 A 
HETATM   22  C15 UNL     1     -35.296   9.284  -2.008  1.00  0.00     0.030 A 
HETATM   23  C14 UNL     1     -34.868  10.434  -2.668  1.00  0.00     0.021 A 
BRANCH  21  24
HETATM   24  N1  UNL     1     -36.696   8.230  -0.333  1.00  0.00    -0.394 N 
HETATM   25  C1  UNL     1     -37.888   7.528  -0.680  1.00  0.00     0.146 C 
ATOM     26  H1  UNL     1     -36.139   7.882   0.448  1.00  0.00     0.159 HD
ENDBRANCH  21  24
ENDBRANCH  17  18
ENDBRANCH  16  17
ENDBRANCH  13  16
BRANCH  15  27
HETATM   27  N7  UNL     1     -29.952  15.689  -5.048  1.00  0.00    -0.113 N 
HETATM   28  O2  UNL     1     -30.088  16.420  -6.021  1.00  0.00    -0.532 OA
HETATM   29  O3  UNL     1     -29.354  16.209  -3.926  1.00  0.00    -0.532 OA
ENDBRANCH  15  27
ENDBRANCH   1  10
BRANCH   4  30
HETATM   30  N4  UNL     1     -25.609  11.055  -3.857  1.00  0.00    -0.196 N 
ATOM     31  H4  UNL     1     -25.251  11.386  -2.961  1.00  0.00     0.216 HD
BRANCH  30  32
HETATM   32  O1  UNL     1     -25.269   9.940  -4.318  1.00  0.00    -0.274 OA
ATOM     33  H1  UNL     1     -25.102   9.880  -5.251  1.00  0.00     0.246 HD
ENDBRANCH  30  32
ENDBRANCH   4  30
TORSDOF 8
ENDMDL
MODEL 3
REMARK VINA RESULT: -8.030917720      2.034      3.127
REMARK  8 active torsions:
REMARK  status: ('A' for Active; 'I' for Inactive)
REMARK    1  A    between atoms: N1_2  and  C2_4 
REMARK    2  A    between atoms: C5_7  and  S1_8 
REMARK    3  A    between atoms: S1_8  and  S2_9 
REMARK    4  A    between atoms: S2_9  and  C6_10 
REMARK    5  A    between atoms: C9_13  and  N2_14 
REMARK       I    between atoms: N2_14  and  C10_16 
REMARK       I    between atoms: C10_16  and  N5_23 
REMARK    6  A    between atoms: N3_17  and  N4_19 
REMARK    7  A    between atoms: N4_19  and  O1_21 
REMARK    8  A    between atoms: C12_27  and  N7_28 
ROOT
HETATM    1  N2  UNL     1     -28.196  13.496  -5.091  1.00  0.00    -0.187 N 
ATOM      2  H2  UNL     1     -27.808  14.103  -5.814  1.00  0.00     0.184 HD
HETATM    3  C10 UNL     1     -27.306  12.857  -4.181  1.00  0.00     0.707 C 
HETATM    4  N3  UNL     1     -26.603  11.876  -4.578  1.00  0.00    -0.112 N 
ATOM      5  H3  UNL     1     -26.718  11.593  -5.551  1.00  0.00     0.207 HD
HETATM    6  N5  UNL     1     -27.218  13.318  -2.859  1.00  0.00    -0.124 N 
ATOM      7  H5  UNL     1     -27.451  12.670  -2.108  1.00  0.00     0.197 HD
HETATM    8  C11 UNL     1     -26.826  14.622  -2.510  1.00  0.00     0.196 C 
HETATM    9  N6  UNL     1     -26.486  15.698  -2.227  1.00  0.00    -0.171 NA
ENDROOT
BRANCH   1  10
HETATM   10  C9  UNL     1     -29.593  13.320  -5.027  1.00  0.00     0.082 A 
HETATM   11  C8  UNL     1     -30.058  12.011  -5.173  1.00  0.00     0.034 A 
HETATM   12  C7  UNL     1     -31.409  11.739  -5.152  1.00  0.00     0.022 A 
HETATM   13  C6  UNL     1     -32.356  12.729  -4.990  1.00  0.00     0.014 A 
HETATM   14  C13 UNL     1     -31.901  14.011  -4.847  1.00  0.00     0.057 A 
HETATM   15  C12 UNL     1     -30.518  14.304  -4.865  1.00  0.00     0.131 A 
BRANCH  13  16
HETATM   16  S2  UNL     1     -34.102  12.334  -4.970  1.00  0.00    -0.052 SA
BRANCH  16  17
HETATM   17  S1  UNL     1     -34.951  13.066  -3.163  1.00  0.00    -0.053 SA
BRANCH  17  18
HETATM   18  C5  UNL     1     -35.489  11.652  -2.210  1.00  0.00     0.012 A 
HETATM   19  C4  UNL     1     -34.967  10.409  -2.435  1.00  0.00     0.021 A 
HETATM   20  C3  UNL     1     -35.434   9.353  -1.651  1.00  0.00     0.030 A 
HETATM   21  C2  UNL     1     -36.390   9.538  -0.680  1.00  0.00     0.027 A 
HETATM   22  C15 UNL     1     -36.907  10.789  -0.462  1.00  0.00     0.030 A 
HETATM   23  C14 UNL     1     -36.453  11.857  -1.234  1.00  0.00     0.021 A 
BRANCH  21  24
HETATM   24  N1  UNL     1     -36.838   8.431   0.095  1.00  0.00    -0.394 N 
HETATM   25  C1  UNL     1     -38.045   8.443   0.855  1.00  0.00     0.146 C 
ATOM     26  H1  UNL     1     -36.267   7.587   0.107  1.00  0.00     0.159 HD
ENDBRANCH  21  24
ENDBRANCH  17  18
ENDBRANCH  16  17
ENDBRANCH  13  16
BRANCH  15  27
HETATM   27  N7  UNL     1     -30.137  15.641  -4.716  1.00  0.00    -0.113 N 
HETATM   28  O2  UNL     1     -29.160  16.119  -5.280  1.00  0.00    -0.532 OA
HETATM   29  O3  UNL     1     -30.862  16.455  -3.878  1.00  0.00    -0.532 OA
ENDBRANCH  15  27
ENDBRANCH   1  10
BRANCH   4  30
HETATM   30  N4  UNL     1     -25.699  11.154  -3.821  1.00  0.00    -0.196 N 
ATOM     31  H4  UNL     1     -25.256  11.561  -2.998  1.00  0.00     0.216 HD
BRANCH  30  32
HETATM   32  O1  UNL     1     -25.440   9.981  -4.182  1.00  0.00    -0.274 OA
ATOM     33  H1  UNL     1     -24.620   9.829  -4.637  1.00  0.00     0.246 HD
ENDBRANCH  30  32
ENDBRANCH   4  30
TORSDOF 8
ENDMDL
MODEL 4
REMARK VINA RESULT: -7.952515486      3.521      8.373
REMARK  8 active torsions:
REMARK  status: ('A' for Active; 'I' for Inactive)
REMARK    1  A    between atoms: N1_2  and  C2_4 
REMARK    2  A    between atoms: C5_7  and  S1_8 
REMARK    3  A    between atoms: S1_8  and  S2_9 
REMARK    4  A    between atoms: S2_9  and  C6_10 
REMARK    5  A    between atoms: C9_13  and  N2_14 
REMARK       I    between atoms: N2_14  and  C10_16 
REMARK       I    between atoms: C10_16  and  N5_23 
REMARK    6  A    between atoms: N3_17  and  N4_19 
REMARK    7  A    between atoms: N4_19  and  O1_21 
REMARK    8  A    between atoms: C12_27  and  N7_28 
ROOT
HETATM    1  N2  UNL     1     -33.389  11.497  -4.868  1.00  0.00    -0.187 N 
ATOM      2  H2  UNL     1     -33.279  10.679  -5.467  1.00  0.00     0.184 HD
HETATM    3  C10 UNL     1     -34.674  11.781  -4.324  1.00  0.00     0.707 C 
HETATM    4  N3  UNL     1     -35.583  12.252  -5.076  1.00  0.00    -0.112 N 
ATOM      5  H3  UNL     1     -35.336  12.405  -6.054  1.00  0.00     0.207 HD
HETATM    6  N5  UNL     1     -34.919  11.538  -2.964  1.00  0.00    -0.124 N 
ATOM      7  H5  UNL     1     -35.188  12.327  -2.376  1.00  0.00     0.197 HD
HETATM    8  C11 UNL     1     -34.814  10.271  -2.365  1.00  0.00     0.196 C 
HETATM    9  N6  UNL     1     -34.742   9.217  -1.878  1.00  0.00    -0.171 NA
ENDROOT
BRANCH   1  10
HETATM   10  C9  UNL     1     -32.265  12.308  -4.610  1.00  0.00     0.082 A 
HETATM   11  C8  UNL     1     -32.462  13.687  -4.713  1.00  0.00     0.034 A 
HETATM   12  C7  UNL     1     -31.417  14.562  -4.505  1.00  0.00     0.022 A 
HETATM   13  C6  UNL     1     -30.146  14.130  -4.191  1.00  0.00     0.014 A 
HETATM   14  C13 UNL     1     -29.954  12.778  -4.089  1.00  0.00     0.057 A 
HETATM   15  C12 UNL     1     -31.016  11.870  -4.298  1.00  0.00     0.131 A 
BRANCH  13  16
HETATM   16  S2  UNL     1     -28.816  15.299  -3.930  1.00  0.00    -0.052 SA
BRANCH  16  17
HETATM   17  S1  UNL     1     -27.537  14.555  -2.402  1.00  0.00    -0.053 SA
BRANCH  17  18
HETATM   18  C5  UNL     1     -26.596  13.205  -3.098  1.00  0.00     0.012 A 
HETATM   19  C4  UNL     1     -25.250  13.318  -3.312  1.00  0.00     0.021 A 
HETATM   20  C3  UNL     1     -24.581  12.222  -3.858  1.00  0.00     0.030 A 
HETATM   21  C2  UNL     1     -25.238  11.057  -4.177  1.00  0.00     0.027 A 
HETATM   22  C15 UNL     1     -26.588  10.953  -3.959  1.00  0.00     0.030 A 
HETATM   23  C14 UNL     1     -27.274  12.037  -3.414  1.00  0.00     0.021 A 
BRANCH  21  24
HETATM   24  N1  UNL     1     -24.515   9.964  -4.733  1.00  0.00    -0.394 N 
HETATM   25  C1  UNL     1     -23.249  10.106  -5.373  1.00  0.00     0.146 C 
ATOM     26  H1  UNL     1     -24.924   9.032  -4.671  1.00  0.00     0.159 HD
ENDBRANCH  21  24
ENDBRANCH  17  18
ENDBRANCH  16  17
ENDBRANCH  13  16
BRANCH  15  27
HETATM   27  N7  UNL     1     -30.735  10.505  -4.179  1.00  0.00    -0.113 N 
HETATM   28  O2  UNL     1     -31.250   9.794  -3.323  1.00  0.00    -0.532 OA
HETATM   29  O3  UNL     1     -29.821   9.932  -5.030  1.00  0.00    -0.532 OA
ENDBRANCH  15  27
ENDBRANCH   1  10
BRANCH   4  30
HETATM   30  N4  UNL     1     -36.874  12.579  -4.701  1.00  0.00    -0.196 N 
ATOM     31  H4  UNL     1     -37.135  13.542  -4.494  1.00  0.00     0.216 HD
BRANCH  30  32
HETATM   32  O1  UNL     1     -37.711  11.650  -4.623  1.00  0.00    -0.274 OA
ATOM     33  H1  UNL     1     -38.145  11.377  -5.423  1.00  0.00     0.246 HD
ENDBRANCH  30  32
ENDBRANCH   4  30
TORSDOF 8
ENDMDL
MODEL 5
REMARK VINA RESULT: -7.886774564      1.978      2.626
REMARK  8 active torsions:
REMARK  status: ('A' for Active; 'I' for Inactive)
REMARK    1  A    between atoms: N1_2  and  C2_4 
REMARK    2  A    between atoms: C5_7  and  S1_8 
REMARK    3  A    between atoms: S1_8  and  S2_9 
REMARK    4  A    between atoms: S2_9  and  C6_10 
REMARK    5  A    between atoms: C9_13  and  N2_14 
REMARK       I    between atoms: N2_14  and  C10_16 
REMARK       I    between atoms: C10_16  and  N5_23 
REMARK    6  A    between atoms: N3_17  and  N4_19 
REMARK    7  A    between atoms: N4_19  and  O1_21 
REMARK    8  A    between atoms: C12_27  and  N7_28 
ROOT
HETATM    1  N2  UNL     1     -28.972  13.612  -5.012  1.00  0.00    -0.187 N 
ATOM      2  H2  UNL     1     -28.394  13.313  -5.797  1.00  0.00     0.184 HD
HETATM    3  C10 UNL     1     -28.432  14.539  -4.075  1.00  0.00     0.707 C 
HETATM    4  N3  UNL     1     -27.560  14.147  -3.238  1.00  0.00    -0.112 N 
ATOM      5  H3  UNL     1     -27.289  13.165  -3.284  1.00  0.00     0.207 HD
HETATM    6  N5  UNL     1     -28.869  15.872  -4.088  1.00  0.00    -0.124 N 
ATOM      7  H5  UNL     1     -29.312  16.240  -3.247  1.00  0.00     0.197 HD
HETATM    8  C11 UNL     1     -28.733  16.729  -5.194  1.00  0.00     0.196 C 
HETATM    9  N6  UNL     1     -28.603  17.438  -6.107  1.00  0.00    -0.171 NA
ENDROOT
BRANCH   1  10
HETATM   10  C9  UNL     1     -30.278  13.095  -4.892  1.00  0.00     0.082 A 
HETATM   11  C8  UNL     1     -31.312  13.914  -5.354  1.00  0.00     0.034 A 
HETATM   12  C7  UNL     1     -32.625  13.508  -5.257  1.00  0.00     0.022 A 
HETATM   13  C6  UNL     1     -32.982  12.295  -4.706  1.00  0.00     0.014 A 
HETATM   14  C13 UNL     1     -31.969  11.493  -4.253  1.00  0.00     0.057 A 
HETATM   15  C12 UNL     1     -30.618  11.895  -4.348  1.00  0.00     0.131 A 
BRANCH  13  16
HETATM   16  S2  UNL     1     -34.700  11.806  -4.596  1.00  0.00    -0.052 SA
BRANCH  16  17
HETATM   17  S1  UNL     1     -35.331  11.965  -2.570  1.00  0.00    -0.053 SA
BRANCH  17  18
HETATM   18  C5  UNL     1     -35.971  10.370  -2.080  1.00  0.00     0.012 A 
HETATM   19  C4  UNL     1     -35.146   9.286  -1.955  1.00  0.00     0.021 A 
HETATM   20  C3  UNL     1     -35.716   8.073  -1.566  1.00  0.00     0.030 A 
HETATM   21  C2  UNL     1     -37.063   7.953  -1.313  1.00  0.00     0.027 A 
HETATM   22  C15 UNL     1     -37.881   9.045  -1.440  1.00  0.00     0.030 A 
HETATM   23  C14 UNL     1     -37.331  10.266  -1.827  1.00  0.00     0.021 A 
BRANCH  21  24
HETATM   24  N1  UNL     1     -37.601   6.695  -0.920  1.00  0.00    -0.394 N 
HETATM   25  C1  UNL     1     -38.987   6.371  -1.015  1.00  0.00     0.146 C 
ATOM     26  H1  UNL     1     -36.963   5.990  -0.552  1.00  0.00     0.159 HD
ENDBRANCH  21  24
ENDBRANCH  17  18
ENDBRANCH  16  17
ENDBRANCH  13  16
BRANCH  15  27
HETATM   27  N7  UNL     1     -29.644  11.018  -3.859  1.00  0.00    -0.113 N 
HETATM   28  O2  UNL     1     -29.383   9.950  -4.400  1.00  0.00    -0.532 OA
HETATM   29  O3  UNL     1     -28.967  11.344  -2.708  1.00  0.00    -0.532 OA
ENDBRANCH  15  27
ENDBRANCH   1  10
BRANCH   4  30
HETATM   30  N4  UNL     1     -26.944  14.920  -2.271  1.00  0.00    -0.196 N 
ATOM     31  H4  UNL     1     -26.979  14.658  -1.286  1.00  0.00     0.216 HD
BRANCH  30  32
HETATM   32  O1  UNL     1     -26.340  15.952  -2.646  1.00  0.00    -0.274 OA
ATOM     33  H1  UNL     1     -25.578  16.224  -2.147  1.00  0.00     0.246 HD
ENDBRANCH  30  32
ENDBRANCH   4  30
TORSDOF 8
ENDMDL
