MODEL 1
REMARK VINA RESULT: -8.148920352      0.000      0.000
REMARK  9 active torsions:
REMARK  status: ('A' for Active; 'I' for Inactive)
REMARK    1  A    between atoms: C2_2  and  C3_3 
REMARK    2  A    between atoms: C3_3  and  C4_4 
REMARK    3  A    between atoms: C4_4  and  C5_5 
REMARK    4  A    between atoms: C5_5  and  N1_6 
REMARK    5  A    between atoms: C6_7  and  O1_8 
REMARK    6  A    between atoms: C7_10  and  N2_11 
REMARK    7  A    between atoms: N2_11  and  N3_13 
REMARK    8  A    between atoms: C12_21  and  O2_22 
REMARK    9  A    between atoms: N5_24  and  C13_25 
ROOT
HETATM    1  N1  UNL     1     -27.150  13.753  -3.384  1.00  0.00    -0.301 N 
HETATM    2  C6  UNL     1     -26.881  15.053  -3.487  1.00  0.00     0.191 A 
HETATM    3  C7  UNL     1     -28.058  15.771  -3.766  1.00  0.00     0.177 A 
HETATM    4  N5  UNL     1     -29.034  14.847  -3.821  1.00  0.00    -0.300 N 
HETATM    5  C18 UNL     1     -28.450  13.628  -3.587  1.00  0.00     0.184 A 
HETATM    6  S2  UNL     1     -29.211  12.202  -3.589  1.00  0.00    -0.040 SA
ENDROOT
BRANCH   3   7
HETATM    7  N2  UNL     1     -28.111  17.183  -3.959  1.00  0.00    -0.281 N 
ATOM      8  H2  UNL     1     -28.612  17.587  -4.751  1.00  0.00     0.188 HD
BRANCH   7   9
HETATM    9  N3  UNL     1     -27.467  17.984  -3.044  1.00  0.00    -0.294 N 
HETATM   10  C8  UNL     1     -26.518  18.773  -3.093  1.00  0.00     0.094 C 
HETATM   11  S1  UNL     1     -25.953  19.662  -1.617  1.00  0.00    -0.083 SA
HETATM   12  C12 UNL     1     -25.769  19.072  -4.322  1.00  0.00     0.204 C 
HETATM   13  C9  UNL     1     -24.398  20.469  -1.972  1.00  0.00     0.352 C 
HETATM   14  N4  UNL     1     -23.910  20.305  -3.305  1.00  0.00     0.096 N 
HETATM   15  C10 UNL     1     -22.442  20.291  -3.235  1.00  0.00     0.310 C 
HETATM   16  C11 UNL     1     -24.298  19.079  -3.929  1.00  0.00     0.311 C 
ATOM     17  H3  UNL     1     -27.865  17.907  -2.108  1.00  0.00     0.187 HD
BRANCH  12  18
HETATM   18  O2  UNL     1     -25.935  18.043  -5.224  1.00  0.00    -0.387 OA
ATOM     19  H2  UNL     1     -25.294  17.364  -5.050  1.00  0.00     0.210 HD
ENDBRANCH  12  18
ENDBRANCH   7   9
ENDBRANCH   3   7
BRANCH   2  20
HETATM   20  O1  UNL     1     -25.635  15.685  -3.350  1.00  0.00    -0.343 OA
ATOM     21  H1  UNL     1     -25.378  16.327  -2.697  1.00  0.00     0.219 HD
ENDBRANCH   2  20
BRANCH   4  22
HETATM   22  C13 UNL     1     -30.434  15.021  -4.049  1.00  0.00     0.094 C 
HETATM   23  C14 UNL     1     -31.373  14.640  -2.981  1.00  0.00     0.026 C 
HETATM   24  C15 UNL     1     -32.729  14.395  -3.680  1.00  0.00     0.002 C 
HETATM   25  C16 UNL     1     -32.317  13.742  -4.945  1.00  0.00     0.002 C 
HETATM   26  C17 UNL     1     -30.933  14.281  -5.286  1.00  0.00     0.026 C 
ENDBRANCH   4  22
BRANCH   1  27
HETATM   27  C5  UNL     1     -26.132  12.765  -3.100  1.00  0.00     0.133 C 
BRANCH  27  28
HETATM   28  C4  UNL     1     -25.544  12.161  -4.348  1.00  0.00     0.020 C 
BRANCH  28  29
HETATM   29  C3  UNL     1     -25.569  10.656  -4.187  1.00  0.00     0.001 C 
BRANCH  29  30
HETATM   30  C2  UNL     1     -24.235  10.010  -4.445  1.00  0.00    -0.004 C 
HETATM   31  C1  UNL     1     -23.279  11.015  -5.046  1.00  0.00     0.005 C 
ENDBRANCH  29  30
ENDBRANCH  28  29
ENDBRANCH  27  28
ENDBRANCH   1  27
TORSDOF 9
ENDMDL
MODEL 2
REMARK VINA RESULT: -8.026864540      1.375      4.850
REMARK  9 active torsions:
REMARK  status: ('A' for Active; 'I' for Inactive)
REMARK    1  A    between atoms: C2_2  and  C3_3 
REMARK    2  A    between atoms: C3_3  and  C4_4 
REMARK    3  A    between atoms: C4_4  and  C5_5 
REMARK    4  A    between atoms: C5_5  and  N1_6 
REMARK    5  A    between atoms: C6_7  and  O1_8 
REMARK    6  A    between atoms: C7_10  and  N2_11 
REMARK    7  A    between atoms: N2_11  and  N3_13 
REMARK    8  A    between atoms: C12_21  and  O2_22 
REMARK    9  A    between atoms: N5_24  and  C13_25 
ROOT
HETATM    1  N1  UNL     1     -29.764  14.581  -3.467  1.00  0.00    -0.301 N 
HETATM    2  C6  UNL     1     -28.952  15.612  -3.694  1.00  0.00     0.191 A 
HETATM    3  C7  UNL     1     -27.610  15.196  -3.631  1.00  0.00     0.177 A 
HETATM    4  N5  UNL     1     -27.658  13.879  -3.360  1.00  0.00    -0.300 N 
HETATM    5  C18 UNL     1     -28.982  13.535  -3.263  1.00  0.00     0.184 A 
HETATM    6  S2  UNL     1     -29.550  12.063  -2.913  1.00  0.00    -0.040 SA
ENDROOT
BRANCH   3   7
HETATM    7  N2  UNL     1     -26.491  16.063  -3.805  1.00  0.00    -0.281 N 
ATOM      8  H2  UNL     1     -25.859  15.954  -4.599  1.00  0.00     0.188 HD
BRANCH   7   9
HETATM    9  N3  UNL     1     -26.290  17.051  -2.868  1.00  0.00    -0.294 N 
HETATM   10  C8  UNL     1     -25.703  18.137  -2.862  1.00  0.00     0.094 C 
HETATM   11  S1  UNL     1     -25.666  19.181  -1.379  1.00  0.00    -0.083 SA
HETATM   12  C12 UNL     1     -24.994  18.689  -4.026  1.00  0.00     0.204 C 
HETATM   13  C9  UNL     1     -24.494  20.510  -1.619  1.00  0.00     0.352 C 
HETATM   14  N4  UNL     1     -23.843  20.534  -2.892  1.00  0.00     0.096 N 
HETATM   15  C10 UNL     1     -22.492  21.070  -2.682  1.00  0.00     0.310 C 
HETATM   16  C11 UNL     1     -23.681  19.248  -3.495  1.00  0.00     0.311 C 
ATOM     17  H3  UNL     1     -26.727  16.836  -1.972  1.00  0.00     0.187 HD
BRANCH  12  18
HETATM   18  O2  UNL     1     -24.670  17.668  -4.893  1.00  0.00    -0.387 OA
ATOM     19  H2  UNL     1     -23.726  17.564  -4.921  1.00  0.00     0.210 HD
ENDBRANCH  12  18
ENDBRANCH   7   9
ENDBRANCH   3   7
BRANCH   2  20
HETATM   20  O1  UNL     1     -29.310  16.942  -3.964  1.00  0.00    -0.343 OA
ATOM     21  H1  UNL     1     -28.915  17.733  -3.614  1.00  0.00     0.219 HD
ENDBRANCH   2  20
BRANCH   4  22
HETATM   22  C13 UNL     1     -26.586  12.946  -3.212  1.00  0.00     0.094 C 
HETATM   23  C14 UNL     1     -25.213  13.405  -3.479  1.00  0.00     0.026 C 
HETATM   24  C15 UNL     1     -24.398  12.131  -3.798  1.00  0.00     0.002 C 
HETATM   25  C16 UNL     1     -25.367  11.325  -4.579  1.00  0.00     0.002 C 
HETATM   26  C17 UNL     1     -26.756  11.702  -4.078  1.00  0.00     0.026 C 
ENDBRANCH   4  22
BRANCH   1  27
HETATM   27  C5  UNL     1     -31.205  14.706  -3.469  1.00  0.00     0.133 C 
BRANCH  27  28
HETATM   28  C4  UNL     1     -31.838  14.107  -4.697  1.00  0.00     0.020 C 
BRANCH  28  29
HETATM   29  C3  UNL     1     -33.068  13.344  -4.256  1.00  0.00     0.001 C 
BRANCH  29  30
HETATM   30  C2  UNL     1     -33.757  12.626  -5.384  1.00  0.00    -0.004 C 
HETATM   31  C1  UNL     1     -35.129  12.168  -4.946  1.00  0.00     0.005 C 
ENDBRANCH  29  30
ENDBRANCH  28  29
ENDBRANCH  27  28
ENDBRANCH   1  27
TORSDOF 9
ENDMDL
MODEL 3
REMARK VINA RESULT: -7.722852025      2.344      5.633
REMARK  9 active torsions:
REMARK  status: ('A' for Active; 'I' for Inactive)
REMARK    1  A    between atoms: C2_2  and  C3_3 
REMARK    2  A    between atoms: C3_3  and  C4_4 
REMARK    3  A    between atoms: C4_4  and  C5_5 
REMARK    4  A    between atoms: C5_5  and  N1_6 
REMARK    5  A    between atoms: C6_7  and  O1_8 
REMARK    6  A    between atoms: C7_10  and  N2_11 
REMARK    7  A    between atoms: N2_11  and  N3_13 
REMARK    8  A    between atoms: C12_21  and  O2_22 
REMARK    9  A    between atoms: N5_24  and  C13_25 
ROOT
HETATM    1  N1  UNL     1     -31.129  12.744  -3.931  1.00  0.00    -0.301 N 
HETATM    2  C6  UNL     1     -30.694  13.887  -3.405  1.00  0.00     0.191 A 
HETATM    3  C7  UNL     1     -29.291  13.950  -3.474  1.00  0.00     0.177 A 
HETATM    4  N5  UNL     1     -28.912  12.802  -4.064  1.00  0.00    -0.300 N 
HETATM    5  C18 UNL     1     -30.053  12.088  -4.329  1.00  0.00     0.184 A 
HETATM    6  S2  UNL     1     -30.111  10.620  -5.002  1.00  0.00    -0.040 SA
ENDROOT
BRANCH   3   7
HETATM    7  N2  UNL     1     -28.509  15.033  -2.974  1.00  0.00    -0.281 N 
ATOM      8  H2  UNL     1     -28.142  15.022  -2.022  1.00  0.00     0.188 HD
BRANCH   7   9
HETATM    9  N3  UNL     1     -28.266  16.095  -3.816  1.00  0.00    -0.294 N 
HETATM   10  C8  UNL     1     -27.334  16.890  -3.966  1.00  0.00     0.094 C 
HETATM   11  S1  UNL     1     -27.399  18.190  -5.229  1.00  0.00    -0.083 SA
HETATM   12  C12 UNL     1     -26.103  16.867  -3.163  1.00  0.00     0.204 C 
HETATM   13  C9  UNL     1     -26.047  19.333  -4.972  1.00  0.00     0.352 C 
HETATM   14  N4  UNL     1     -25.175  19.019  -3.884  1.00  0.00     0.096 N 
HETATM   15  C10 UNL     1     -24.693  20.291  -3.328  1.00  0.00     0.310 C 
HETATM   16  C11 UNL     1     -25.802  18.317  -2.808  1.00  0.00     0.311 C 
ATOM     17  H3  UNL     1     -29.034  16.262  -4.466  1.00  0.00     0.187 HD
BRANCH  12  18
HETATM   18  O2  UNL     1     -26.342  16.209  -1.976  1.00  0.00    -0.387 OA
ATOM     19  H2  UNL     1     -25.588  15.675  -1.754  1.00  0.00     0.210 HD
ENDBRANCH  12  18
ENDBRANCH   7   9
ENDBRANCH   3   7
BRANCH   2  20
HETATM   20  O1  UNL     1     -31.462  14.921  -2.846  1.00  0.00    -0.343 OA
ATOM     21  H1  UNL     1     -32.375  15.123  -3.015  1.00  0.00     0.219 HD
ENDBRANCH   2  20
BRANCH   4  22
HETATM   22  C13 UNL     1     -27.600  12.351  -4.407  1.00  0.00     0.094 C 
HETATM   23  C14 UNL     1     -27.146  11.051  -3.885  1.00  0.00     0.026 C 
HETATM   24  C15 UNL     1     -25.602  11.101  -3.919  1.00  0.00     0.002 C 
HETATM   25  C16 UNL     1     -25.323  12.503  -3.525  1.00  0.00     0.002 C 
HETATM   26  C17 UNL     1     -26.507  13.335  -4.002  1.00  0.00     0.026 C 
ENDBRANCH   4  22
BRANCH   1  27
HETATM   27  C5  UNL     1     -32.532  12.400  -4.001  1.00  0.00     0.133 C 
BRANCH  27  28
HETATM   28  C4  UNL     1     -33.202  12.936  -5.239  1.00  0.00     0.020 C 
BRANCH  28  29
HETATM   29  C3  UNL     1     -34.573  12.301  -5.333  1.00  0.00     0.001 C 
BRANCH  29  30
HETATM   30  C2  UNL     1     -35.446  12.595  -4.144  1.00  0.00    -0.004 C 
HETATM   31  C1  UNL     1     -36.892  12.318  -4.482  1.00  0.00     0.005 C 
ENDBRANCH  29  30
ENDBRANCH  28  29
ENDBRANCH  27  28
ENDBRANCH   1  27
TORSDOF 9
ENDMDL
MODEL 4
REMARK VINA RESULT: -7.710754274      2.054      5.369
REMARK  9 active torsions:
REMARK  status: ('A' for Active; 'I' for Inactive)
REMARK    1  A    between atoms: C2_2  and  C3_3 
REMARK    2  A    between atoms: C3_3  and  C4_4 
REMARK    3  A    between atoms: C4_4  and  C5_5 
REMARK    4  A    between atoms: C5_5  and  N1_6 
REMARK    5  A    between atoms: C6_7  and  O1_8 
REMARK    6  A    between atoms: C7_10  and  N2_11 
REMARK    7  A    between atoms: N2_11  and  N3_13 
REMARK    8  A    between atoms: C12_21  and  O2_22 
REMARK    9  A    between atoms: N5_24  and  C13_25 
ROOT
HETATM    1  N1  UNL     1     -30.762  13.481  -4.817  1.00  0.00    -0.301 N 
HETATM    2  C6  UNL     1     -30.389  14.660  -4.323  1.00  0.00     0.191 A 
HETATM    3  C7  UNL     1     -29.136  14.548  -3.694  1.00  0.00     0.177 A 
HETATM    4  N5  UNL     1     -28.780  13.259  -3.836  1.00  0.00    -0.300 N 
HETATM    5  C18 UNL     1     -29.791  12.634  -4.521  1.00  0.00     0.184 A 
HETATM    6  S2  UNL     1     -29.841  11.065  -4.903  1.00  0.00    -0.040 SA
ENDROOT
BRANCH   3   7
HETATM    7  N2  UNL     1     -28.465  15.625  -3.042  1.00  0.00    -0.281 N 
ATOM      8  H2  UNL     1     -28.350  15.637  -2.028  1.00  0.00     0.188 HD
BRANCH   7   9
HETATM    9  N3  UNL     1     -27.978  16.648  -3.824  1.00  0.00    -0.294 N 
HETATM   10  C8  UNL     1     -26.967  17.357  -3.798  1.00  0.00     0.094 C 
HETATM   11  S1  UNL     1     -26.682  18.638  -5.051  1.00  0.00    -0.083 SA
HETATM   12  C12 UNL     1     -25.913  17.239  -2.781  1.00  0.00     0.204 C 
HETATM   13  C9  UNL     1     -25.305  19.662  -4.546  1.00  0.00     0.352 C 
HETATM   14  N4  UNL     1     -24.680  19.290  -3.316  1.00  0.00     0.096 N 
HETATM   15  C10 UNL     1     -24.199  20.524  -2.680  1.00  0.00     0.310 C 
HETATM   16  C11 UNL     1     -25.555  18.662  -2.375  1.00  0.00     0.311 C 
ATOM     17  H3  UNL     1     -28.594  16.872  -4.605  1.00  0.00     0.187 HD
BRANCH  12  18
HETATM   18  O2  UNL     1     -26.423  16.623  -1.659  1.00  0.00    -0.387 OA
ATOM     19  H2  UNL     1     -27.039  15.949  -1.921  1.00  0.00     0.210 HD
ENDBRANCH  12  18
ENDBRANCH   7   9
ENDBRANCH   3   7
BRANCH   2  20
HETATM   20  O1  UNL     1     -31.088  15.876  -4.384  1.00  0.00    -0.343 OA
ATOM     21  H1  UNL     1     -30.726  16.751  -4.458  1.00  0.00     0.219 HD
ENDBRANCH   2  20
BRANCH   4  22
HETATM   22  C13 UNL     1     -27.588  12.596  -3.408  1.00  0.00     0.094 C 
HETATM   23  C14 UNL     1     -26.308  13.314  -3.516  1.00  0.00     0.026 C 
HETATM   24  C15 UNL     1     -25.214  12.223  -3.543  1.00  0.00     0.002 C 
HETATM   25  C16 UNL     1     -25.850  11.160  -4.358  1.00  0.00     0.002 C 
HETATM   26  C17 UNL     1     -27.353  11.272  -4.128  1.00  0.00     0.026 C 
ENDBRANCH   4  22
BRANCH   1  27
HETATM   27  C5  UNL     1     -32.010  13.289  -5.522  1.00  0.00     0.133 C 
BRANCH  27  28
HETATM   28  C4  UNL     1     -33.180  13.104  -4.593  1.00  0.00     0.020 C 
BRANCH  28  29
HETATM   29  C3  UNL     1     -34.283  12.418  -5.371  1.00  0.00     0.001 C 
BRANCH  29  30
HETATM   30  C2  UNL     1     -35.586  12.353  -4.622  1.00  0.00    -0.004 C 
HETATM   31  C1  UNL     1     -35.489  13.154  -3.344  1.00  0.00     0.005 C 
ENDBRANCH  29  30
ENDBRANCH  28  29
ENDBRANCH  27  28
ENDBRANCH   1  27
TORSDOF 9
ENDMDL
MODEL 5
REMARK VINA RESULT: -7.706730863      3.115      7.945
REMARK  9 active torsions:
REMARK  status: ('A' for Active; 'I' for Inactive)
REMARK    1  A    between atoms: C2_2  and  C3_3 
REMARK    2  A    between atoms: C3_3  and  C4_4 
REMARK    3  A    between atoms: C4_4  and  C5_5 
REMARK    4  A    between atoms: C5_5  and  N1_6 
REMARK    5  A    between atoms: C6_7  and  O1_8 
REMARK    6  A    between atoms: C7_10  and  N2_11 
REMARK    7  A    between atoms: N2_11  and  N3_13 
REMARK    8  A    between atoms: C12_21  and  O2_22 
REMARK    9  A    between atoms: N5_24  and  C13_25 
ROOT
HETATM    1  N1  UNL     1     -28.390  16.504  -3.565  1.00  0.00    -0.301 N 
HETATM    2  C6  UNL     1     -29.605  16.479  -4.109  1.00  0.00     0.191 A 
HETATM    3  C7  UNL     1     -29.952  15.162  -4.461  1.00  0.00     0.177 A 
HETATM    4  N5  UNL     1     -28.897  14.408  -4.101  1.00  0.00    -0.300 N 
HETATM    5  C18 UNL     1     -27.962  15.253  -3.560  1.00  0.00     0.184 A 
HETATM    6  S2  UNL     1     -26.504  14.820  -3.014  1.00  0.00    -0.040 SA
ENDROOT
BRANCH   3   7
HETATM    7  N2  UNL     1     -31.178  14.794  -5.089  1.00  0.00    -0.281 N 
ATOM      8  H2  UNL     1     -31.224  14.622  -6.094  1.00  0.00     0.188 HD
BRANCH   7   9
HETATM    9  N3  UNL     1     -32.298  14.680  -4.297  1.00  0.00    -0.294 N 
HETATM   10  C8  UNL     1     -32.992  13.738  -3.903  1.00  0.00     0.094 C 
HETATM   11  S1  UNL     1     -34.434  14.011  -2.837  1.00  0.00    -0.083 SA
HETATM   12  C12 UNL     1     -32.729  12.331  -4.241  1.00  0.00     0.204 C 
HETATM   13  C9  UNL     1     -35.372  12.493  -2.710  1.00  0.00     0.352 C 
HETATM   14  N4  UNL     1     -34.829  11.374  -3.414  1.00  0.00     0.096 N 
HETATM   15  C10 UNL     1     -35.959  10.553  -3.870  1.00  0.00     0.310 C 
HETATM   16  C11 UNL     1     -34.079  11.718  -4.582  1.00  0.00     0.311 C 
ATOM     17  H3  UNL     1     -32.632  15.582  -3.958  1.00  0.00     0.187 HD
BRANCH  12  18
HETATM   18  O2  UNL     1     -31.964  12.270  -5.386  1.00  0.00    -0.387 OA
ATOM     19  H2  UNL     1     -31.657  11.380  -5.514  1.00  0.00     0.210 HD
ENDBRANCH  12  18
ENDBRANCH   7   9
ENDBRANCH   3   7
BRANCH   2  20
HETATM   20  O1  UNL     1     -30.468  17.563  -4.331  1.00  0.00    -0.343 OA
ATOM     21  H1  UNL     1     -30.942  17.775  -5.127  1.00  0.00     0.219 HD
ENDBRANCH   2  20
BRANCH   4  22
HETATM   22  C13 UNL     1     -28.719  12.994  -4.204  1.00  0.00     0.094 C 
HETATM   23  C14 UNL     1     -28.888  12.174  -2.993  1.00  0.00     0.026 C 
HETATM   24  C15 UNL     1     -28.107  10.867  -3.257  1.00  0.00     0.002 C 
HETATM   25  C16 UNL     1     -26.914  11.356  -3.989  1.00  0.00     0.002 C 
HETATM   26  C17 UNL     1     -27.347  12.606  -4.747  1.00  0.00     0.026 C 
ENDBRANCH   4  22
BRANCH   1  27
HETATM   27  C5  UNL     1     -27.766  17.724  -3.103  1.00  0.00     0.133 C 
BRANCH  27  28
HETATM   28  C4  UNL     1     -27.073  18.477  -4.207  1.00  0.00     0.020 C 
BRANCH  28  29
HETATM   29  C3  UNL     1     -26.058  19.401  -3.569  1.00  0.00     0.001 C 
BRANCH  29  30
HETATM   30  C2  UNL     1     -26.087  19.366  -2.065  1.00  0.00    -0.004 C 
HETATM   31  C1  UNL     1     -24.683  19.480  -1.517  1.00  0.00     0.005 C 
ENDBRANCH  29  30
ENDBRANCH  28  29
ENDBRANCH  27  28
ENDBRANCH   1  27
TORSDOF 9
ENDMDL
