MODEL 1
REMARK VINA RESULT: -8.117501000      0.000      0.000
REMARK  10 active torsions:
REMARK  status: ('A' for Active; 'I' for Inactive)
REMARK    1  A    between atoms: N1_1  and  C1_4 
REMARK    2  A    between atoms: C2_9  and  C3_10 
REMARK    3  A    between atoms: C3_10  and  O1_11 
REMARK    4  A    between atoms: C3_10  and  C4_13 
REMARK    5  A    between atoms: C4_13  and  N4_14 
REMARK    6  A    between atoms: N4_14  and  C5_16 
REMARK    7  A    between atoms: C7_20  and  N6_21 
REMARK    8  A    between atoms: N6_21  and  C8_23 
REMARK    9  A    between atoms: C10_26  and  C11_27 
REMARK   10  A    between atoms: C11_27  and  C12_29 
ROOT
HETATM    1  C5  UNL     1     -23.381  21.393  -1.707  1.00  0.00     0.678 A 
HETATM    2  N5  UNL     1     -23.649  20.103  -1.441  1.00  0.00    -0.198 N 
ATOM      3  H5  UNL     1     -23.531  19.842  -0.463  1.00  0.00     0.183 HD
HETATM    4  C6  UNL     1     -24.045  19.096  -2.238  1.00  0.00     0.154 A 
HETATM    5  C7  UNL     1     -24.297  19.104  -3.591  1.00  0.00     0.122 A 
HETATM    6  N8  UNL     1     -24.164  20.186  -4.399  1.00  0.00    -0.337 N 
ATOM      7  H8  UNL     1     -24.348  20.005  -5.386  1.00  0.00     0.168 HD
HETATM    8  C14 UNL     1     -23.829  21.459  -4.118  1.00  0.00     0.199 A 
HETATM    9  N9  UNL     1     -23.456  21.982  -2.911  1.00  0.00    -0.188 N 
ATOM     10  H9  UNL     1     -23.196  22.968  -2.928  1.00  0.00     0.185 HD
ENDROOT
BRANCH   1  11
HETATM   11  N4  UNL     1     -23.014  22.177  -0.751  1.00  0.00    -0.223 N 
ATOM     12  H4  UNL     1     -22.068  22.149  -0.368  1.00  0.00     0.177 HD
BRANCH  11  13
HETATM   13  C4  UNL     1     -24.012  23.102  -0.248  1.00  0.00     0.177 C 
BRANCH  13  14
HETATM   14  C3  UNL     1     -23.702  24.532  -0.627  1.00  0.00     0.205 C 
BRANCH  14  15
HETATM   15  C2  UNL     1     -24.413  25.511   0.201  1.00  0.00     0.143 A 
HETATM   16  N3  UNL     1     -25.707  25.402   0.567  1.00  0.00    -0.272 N 
HETATM   17  N2  UNL     1     -26.067  26.435   1.310  1.00  0.00    -0.131 N 
ATOM     18  H3  UNL     1     -26.322  24.630   0.308  1.00  0.00     0.189 HD
HETATM   19  C1  UNL     1     -25.002  27.239   1.437  1.00  0.00     0.692 A 
ATOM     20  H2  UNL     1     -26.991  26.592   1.714  1.00  0.00     0.205 HD
HETATM   21  N10 UNL     1     -23.988  26.666   0.754  1.00  0.00    -0.176 N 
ATOM     22  H10 UNL     1     -23.046  27.049   0.668  1.00  0.00     0.185 HD
BRANCH  19  23
HETATM   23  N1  UNL     1     -24.967  28.348   2.094  1.00  0.00    -0.233 N 
ATOM     24  H12 UNL     1     -25.731  28.779   2.613  1.00  0.00     0.174 HD
ATOM     25  H11 UNL     1     -24.157  28.961   2.188  1.00  0.00     0.174 HD
ENDBRANCH  19  23
ENDBRANCH  14  15
BRANCH  14  26
HETATM   26  O1  UNL     1     -23.950  24.707  -1.986  1.00  0.00    -0.386 OA
ATOM     27  H1  UNL     1     -23.548  24.029  -2.518  1.00  0.00     0.210 HD
ENDBRANCH  14  26
ENDBRANCH  13  14
ENDBRANCH  11  13
ENDBRANCH   1  11
BRANCH   5  28
HETATM   28  N6  UNL     1     -24.693  18.001  -4.140  1.00  0.00    -0.341 N 
ATOM     29  H6  UNL     1     -24.020  17.363  -4.566  1.00  0.00     0.167 HD
BRANCH  28  30
HETATM   30  C8  UNL     1     -26.112  17.686  -4.141  1.00  0.00     0.041 A 
HETATM   31  C9  UNL     1     -26.620  16.852  -3.187  1.00  0.00     0.080 A 
HETATM   32  S1  UNL     1     -28.276  16.782  -3.580  1.00  0.00    -0.096 SA
HETATM   33  C10 UNL     1     -28.283  17.810  -4.939  1.00  0.00     0.062 A 
HETATM   34  C13 UNL     1     -26.969  18.185  -5.049  1.00  0.00     0.053 A 
BRANCH  33  35
HETATM   35  C11 UNL     1     -29.422  18.191  -5.776  1.00  0.00     0.253 C 
HETATM   36  O2  UNL     1     -29.759  17.488  -6.729  1.00  0.00    -0.281 OA
BRANCH  35  37
HETATM   37  C12 UNL     1     -30.135  19.406  -5.457  1.00  0.00     0.306 C 
HETATM   38  N7  UNL     1     -29.889  20.067  -4.224  1.00  0.00    -0.054 NA
HETATM   39  O3  UNL     1     -30.966  19.874  -6.268  1.00  0.00    -0.267 OA
ENDBRANCH  35  37
ENDBRANCH  33  35
ENDBRANCH  28  30
ENDBRANCH   5  28
TORSDOF 10
ENDMDL
MODEL 2
REMARK VINA RESULT: -7.917148856      4.854     10.611
REMARK  10 active torsions:
REMARK  status: ('A' for Active; 'I' for Inactive)
REMARK    1  A    between atoms: N1_1  and  C1_4 
REMARK    2  A    between atoms: C2_9  and  C3_10 
REMARK    3  A    between atoms: C3_10  and  O1_11 
REMARK    4  A    between atoms: C3_10  and  C4_13 
REMARK    5  A    between atoms: C4_13  and  N4_14 
REMARK    6  A    between atoms: N4_14  and  C5_16 
REMARK    7  A    between atoms: C7_20  and  N6_21 
REMARK    8  A    between atoms: N6_21  and  C8_23 
REMARK    9  A    between atoms: C10_26  and  C11_27 
REMARK   10  A    between atoms: C11_27  and  C12_29 
ROOT
HETATM    1  C5  UNL     1     -24.310  24.970  -0.419  1.00  0.00     0.678 A 
HETATM    2  N5  UNL     1     -25.322  25.184   0.439  1.00  0.00    -0.198 N 
ATOM      3  H5  UNL     1     -25.371  24.514   1.206  1.00  0.00     0.183 HD
HETATM    4  C6  UNL     1     -26.280  26.125   0.465  1.00  0.00     0.154 A 
HETATM    5  C7  UNL     1     -26.500  27.168  -0.407  1.00  0.00     0.122 A 
HETATM    6  N8  UNL     1     -25.756  27.426  -1.512  1.00  0.00    -0.337 N 
ATOM      7  H8  UNL     1     -26.086  28.212  -2.072  1.00  0.00     0.168 HD
HETATM    8  C14 UNL     1     -24.656  26.819  -1.994  1.00  0.00     0.199 A 
HETATM    9  N9  UNL     1     -24.032  25.704  -1.509  1.00  0.00    -0.188 N 
ATOM     10  H9  UNL     1     -23.234  25.382  -2.056  1.00  0.00     0.185 HD
ENDROOT
BRANCH   1  11
HETATM   11  N4  UNL     1     -23.506  23.981  -0.223  1.00  0.00    -0.223 N 
ATOM     12  H4  UNL     1     -22.913  23.929   0.606  1.00  0.00     0.177 HD
BRANCH  11  13
HETATM   13  C4  UNL     1     -23.485  22.947  -1.240  1.00  0.00     0.177 C 
BRANCH  13  14
HETATM   14  C3  UNL     1     -23.295  21.570  -0.644  1.00  0.00     0.205 C 
BRANCH  14  15
HETATM   15  C2  UNL     1     -23.919  20.509  -1.439  1.00  0.00     0.143 A 
HETATM   16  N3  UNL     1     -25.026  19.831  -1.069  1.00  0.00    -0.272 N 
HETATM   17  N2  UNL     1     -25.351  18.938  -1.989  1.00  0.00    -0.131 N 
ATOM     18  H3  UNL     1     -25.540  19.986  -0.202  1.00  0.00     0.189 HD
HETATM   19  C1  UNL     1     -24.451  19.023  -2.979  1.00  0.00     0.692 A 
ATOM     20  H2  UNL     1     -26.145  18.299  -1.952  1.00  0.00     0.205 HD
HETATM   21  N10 UNL     1     -23.573  19.990  -2.636  1.00  0.00    -0.176 N 
ATOM     22  H10 UNL     1     -22.772  20.283  -3.195  1.00  0.00     0.185 HD
BRANCH  19  23
HETATM   23  N1  UNL     1     -24.438  18.309  -4.052  1.00  0.00    -0.233 N 
ATOM     24  H12 UNL     1     -24.374  17.293  -4.113  1.00  0.00     0.174 HD
ATOM     25  H11 UNL     1     -24.491  18.663  -5.007  1.00  0.00     0.174 HD
ENDBRANCH  19  23
ENDBRANCH  14  15
BRANCH  14  26
HETATM   26  O1  UNL     1     -23.745  21.579   0.674  1.00  0.00    -0.386 OA
ATOM     27  H1  UNL     1     -24.617  21.948   0.757  1.00  0.00     0.210 HD
ENDBRANCH  14  26
ENDBRANCH  13  14
ENDBRANCH  11  13
ENDBRANCH   1  11
BRANCH   5  28
HETATM   28  N6  UNL     1     -27.488  27.966  -0.159  1.00  0.00    -0.341 N 
ATOM     29  H6  UNL     1     -28.450  27.663  -0.310  1.00  0.00     0.167 HD
BRANCH  28  30
HETATM   30  C8  UNL     1     -27.203  29.302   0.339  1.00  0.00     0.041 A 
HETATM   31  C9  UNL     1     -27.489  30.389  -0.437  1.00  0.00     0.080 A 
HETATM   32  S1  UNL     1     -26.999  31.697   0.538  1.00  0.00    -0.096 SA
HETATM   33  C10 UNL     1     -26.445  30.836   1.900  1.00  0.00     0.062 A 
HETATM   34  C13 UNL     1     -26.664  29.529   1.550  1.00  0.00     0.053 A 
BRANCH  33  35
HETATM   35  C11 UNL     1     -25.877  31.374   3.138  1.00  0.00     0.253 C 
HETATM   36  O2  UNL     1     -25.380  32.501   3.158  1.00  0.00    -0.281 OA
BRANCH  35  37
HETATM   37  C12 UNL     1     -25.915  30.555   4.326  1.00  0.00     0.306 C 
HETATM   38  N7  UNL     1     -24.764  29.815   4.712  1.00  0.00    -0.054 NA
HETATM   39  O3  UNL     1     -26.959  30.499   5.014  1.00  0.00    -0.267 OA
ENDBRANCH  35  37
ENDBRANCH  33  35
ENDBRANCH  28  30
ENDBRANCH   5  28
TORSDOF 10
ENDMDL
MODEL 3
REMARK VINA RESULT: -7.877177607      4.779     10.882
REMARK  10 active torsions:
REMARK  status: ('A' for Active; 'I' for Inactive)
REMARK    1  A    between atoms: N1_1  and  C1_4 
REMARK    2  A    between atoms: C2_9  and  C3_10 
REMARK    3  A    between atoms: C3_10  and  O1_11 
REMARK    4  A    between atoms: C3_10  and  C4_13 
REMARK    5  A    between atoms: C4_13  and  N4_14 
REMARK    6  A    between atoms: N4_14  and  C5_16 
REMARK    7  A    between atoms: C7_20  and  N6_21 
REMARK    8  A    between atoms: N6_21  and  C8_23 
REMARK    9  A    between atoms: C10_26  and  C11_27 
REMARK   10  A    between atoms: C11_27  and  C12_29 
ROOT
HETATM    1  C5  UNL     1     -23.963  24.844  -0.479  1.00  0.00     0.678 A 
HETATM    2  N5  UNL     1     -24.911  25.007   0.460  1.00  0.00    -0.198 N 
ATOM      3  H5  UNL     1     -24.994  24.227   1.112  1.00  0.00     0.183 HD
HETATM    4  C6  UNL     1     -25.767  26.015   0.692  1.00  0.00     0.154 A 
HETATM    5  C7  UNL     1     -25.918  27.203   0.013  1.00  0.00     0.122 A 
HETATM    6  N8  UNL     1     -25.199  27.570  -1.078  1.00  0.00    -0.337 N 
ATOM      7  H8  UNL     1     -25.472  28.465  -1.485  1.00  0.00     0.168 HD
HETATM    8  C14 UNL     1     -24.187  26.952  -1.714  1.00  0.00     0.199 A 
HETATM    9  N9  UNL     1     -23.659  25.719  -1.451  1.00  0.00    -0.188 N 
ATOM     10  H9  UNL     1     -22.922  25.419  -2.089  1.00  0.00     0.185 HD
ENDROOT
BRANCH   1  11
HETATM   11  N4  UNL     1     -23.255  23.767  -0.491  1.00  0.00    -0.223 N 
ATOM     12  H4  UNL     1     -22.448  23.649   0.123  1.00  0.00     0.177 HD
BRANCH  11  13
HETATM   13  C4  UNL     1     -23.663  22.730  -1.420  1.00  0.00     0.177 C 
BRANCH  13  14
HETATM   14  C3  UNL     1     -23.474  21.345  -0.842  1.00  0.00     0.205 C 
BRANCH  14  15
HETATM   15  C2  UNL     1     -24.062  20.292  -1.674  1.00  0.00     0.143 A 
HETATM   16  N3  UNL     1     -25.158  19.579  -1.338  1.00  0.00    -0.272 N 
HETATM   17  N2  UNL     1     -25.449  18.703  -2.285  1.00  0.00    -0.131 N 
ATOM     18  H3  UNL     1     -25.688  19.699  -0.475  1.00  0.00     0.189 HD
HETATM   19  C1  UNL     1     -24.538  18.834  -3.259  1.00  0.00     0.692 A 
ATOM     20  H2  UNL     1     -26.229  18.045  -2.276  1.00  0.00     0.205 HD
HETATM   21  N10 UNL     1     -23.688  19.812  -2.879  1.00  0.00    -0.176 N 
ATOM     22  H10 UNL     1     -22.885  20.137  -3.418  1.00  0.00     0.185 HD
BRANCH  19  23
HETATM   23  N1  UNL     1     -24.493  18.149  -4.350  1.00  0.00    -0.233 N 
ATOM     24  H12 UNL     1     -24.775  18.457  -5.281  1.00  0.00     0.174 HD
ATOM     25  H11 UNL     1     -24.167  17.187  -4.439  1.00  0.00     0.174 HD
ENDBRANCH  19  23
ENDBRANCH  14  15
BRANCH  14  26
HETATM   26  O1  UNL     1     -23.963  21.326   0.462  1.00  0.00    -0.386 OA
ATOM     27  H1  UNL     1     -24.567  22.039   0.633  1.00  0.00     0.210 HD
ENDBRANCH  14  26
ENDBRANCH  13  14
ENDBRANCH  11  13
ENDBRANCH   1  11
BRANCH   5  28
HETATM   28  N6  UNL     1     -26.808  28.038   0.443  1.00  0.00    -0.341 N 
ATOM     29  H6  UNL     1     -27.791  27.919   0.199  1.00  0.00     0.167 HD
BRANCH  28  30
HETATM   30  C8  UNL     1     -26.384  29.149   1.280  1.00  0.00     0.041 A 
HETATM   31  C9  UNL     1     -26.862  30.404   1.032  1.00  0.00     0.080 A 
HETATM   32  S1  UNL     1     -26.108  31.346   2.235  1.00  0.00    -0.096 SA
HETATM   33  C10 UNL     1     -25.210  30.129   3.019  1.00  0.00     0.062 A 
HETATM   34  C13 UNL     1     -25.530  29.002   2.308  1.00  0.00     0.053 A 
BRANCH  33  35
HETATM   35  C11 UNL     1     -24.318  30.268   4.172  1.00  0.00     0.253 C 
HETATM   36  O2  UNL     1     -24.725  30.023   5.309  1.00  0.00    -0.281 OA
BRANCH  35  37
HETATM   37  C12 UNL     1     -22.959  30.698   3.943  1.00  0.00     0.306 C 
HETATM   38  N7  UNL     1     -22.063  30.824   5.038  1.00  0.00    -0.054 NA
HETATM   39  O3  UNL     1     -22.573  30.955   2.781  1.00  0.00    -0.267 OA
ENDBRANCH  35  37
ENDBRANCH  33  35
ENDBRANCH  28  30
ENDBRANCH   5  28
TORSDOF 10
ENDMDL
MODEL 4
REMARK VINA RESULT: -7.856293320      4.940     11.068
REMARK  10 active torsions:
REMARK  status: ('A' for Active; 'I' for Inactive)
REMARK    1  A    between atoms: N1_1  and  C1_4 
REMARK    2  A    between atoms: C2_9  and  C3_10 
REMARK    3  A    between atoms: C3_10  and  O1_11 
REMARK    4  A    between atoms: C3_10  and  C4_13 
REMARK    5  A    between atoms: C4_13  and  N4_14 
REMARK    6  A    between atoms: N4_14  and  C5_16 
REMARK    7  A    between atoms: C7_20  and  N6_21 
REMARK    8  A    between atoms: N6_21  and  C8_23 
REMARK    9  A    between atoms: C10_26  and  C11_27 
REMARK   10  A    between atoms: C11_27  and  C12_29 
ROOT
HETATM    1  C5  UNL     1     -24.703  25.112   0.027  1.00  0.00     0.678 A 
HETATM    2  N5  UNL     1     -25.577  25.697   0.865  1.00  0.00    -0.198 N 
ATOM      3  H5  UNL     1     -25.933  25.082   1.596  1.00  0.00     0.183 HD
HETATM    4  C6  UNL     1     -26.063  26.948   0.909  1.00  0.00     0.154 A 
HETATM    5  C7  UNL     1     -25.793  28.017   0.085  1.00  0.00     0.122 A 
HETATM    6  N8  UNL     1     -24.957  27.981  -0.983  1.00  0.00    -0.337 N 
ATOM      7  H8  UNL     1     -24.908  28.852  -1.513  1.00  0.00     0.168 HD
HETATM    8  C14 UNL     1     -24.183  26.991  -1.462  1.00  0.00     0.199 A 
HETATM    9  N9  UNL     1     -24.096  25.702  -1.015  1.00  0.00    -0.188 N 
ATOM     10  H9  UNL     1     -23.477  25.097  -1.555  1.00  0.00     0.185 HD
ENDROOT
BRANCH   1  11
HETATM   11  N4  UNL     1     -24.387  23.874   0.198  1.00  0.00    -0.223 N 
ATOM     12  H4  UNL     1     -24.749  23.332   0.983  1.00  0.00     0.177 HD
BRANCH  11  13
HETATM   13  C4  UNL     1     -23.491  23.289  -0.782  1.00  0.00     0.177 C 
BRANCH  13  14
HETATM   14  C3  UNL     1     -23.208  21.833  -0.493  1.00  0.00     0.205 C 
BRANCH  14  15
HETATM   15  C2  UNL     1     -23.776  20.928  -1.496  1.00  0.00     0.143 A 
HETATM   16  N3  UNL     1     -23.419  20.915  -2.798  1.00  0.00    -0.272 N 
HETATM   17  N2  UNL     1     -24.101  19.992  -3.455  1.00  0.00    -0.131 N 
ATOM     18  H3  UNL     1     -22.721  21.530  -3.216  1.00  0.00     0.189 HD
HETATM   19  C1  UNL     1     -24.920  19.387  -2.582  1.00  0.00     0.692 A 
ATOM     20  H2  UNL     1     -24.020  19.779  -4.450  1.00  0.00     0.205 HD
HETATM   21  N10 UNL     1     -24.715  19.966  -1.380  1.00  0.00    -0.176 N 
ATOM     22  H10 UNL     1     -25.197  19.716  -0.516  1.00  0.00     0.185 HD
BRANCH  19  23
HETATM   23  N1  UNL     1     -25.742  18.432  -2.854  1.00  0.00    -0.233 N 
ATOM     24  H12 UNL     1     -25.660  17.746  -3.604  1.00  0.00     0.174 HD
ATOM     25  H11 UNL     1     -26.604  18.224  -2.350  1.00  0.00     0.174 HD
ENDBRANCH  19  23
ENDBRANCH  14  15
BRANCH  14  26
HETATM   26  O1  UNL     1     -23.639  21.532   0.797  1.00  0.00    -0.386 OA
ATOM     27  H1  UNL     1     -23.199  22.055   1.457  1.00  0.00     0.210 HD
ENDBRANCH  14  26
ENDBRANCH  13  14
ENDBRANCH  11  13
ENDBRANCH   1  11
BRANCH   5  28
HETATM   28  N6  UNL     1     -26.375  29.144   0.343  1.00  0.00    -0.341 N 
ATOM     29  H6  UNL     1     -27.159  29.464  -0.225  1.00  0.00     0.167 HD
BRANCH  28  30
HETATM   30  C8  UNL     1     -25.893  29.945   1.457  1.00  0.00     0.041 A 
HETATM   31  C9  UNL     1     -26.172  31.281   1.500  1.00  0.00     0.080 A 
HETATM   32  S1  UNL     1     -25.425  31.782   2.946  1.00  0.00    -0.096 SA
HETATM   33  C10 UNL     1     -24.779  30.291   3.458  1.00  0.00     0.062 A 
HETATM   34  C13 UNL     1     -25.173  29.428   2.468  1.00  0.00     0.053 A 
BRANCH  33  35
HETATM   35  C11 UNL     1     -23.997  30.013   4.664  1.00  0.00     0.253 C 
HETATM   36  O2  UNL     1     -24.515  30.099   5.778  1.00  0.00    -0.281 OA
BRANCH  35  37
HETATM   37  C12 UNL     1     -22.610  29.639   4.514  1.00  0.00     0.306 C 
HETATM   38  N7  UNL     1     -21.587  30.577   4.816  1.00  0.00    -0.054 NA
HETATM   39  O3  UNL     1     -22.313  28.488   4.119  1.00  0.00    -0.267 OA
ENDBRANCH  35  37
ENDBRANCH  33  35
ENDBRANCH  28  30
ENDBRANCH   5  28
TORSDOF 10
ENDMDL
MODEL 5
REMARK VINA RESULT: -7.635621630      1.351      1.735
REMARK  10 active torsions:
REMARK  status: ('A' for Active; 'I' for Inactive)
REMARK    1  A    between atoms: N1_1  and  C1_4 
REMARK    2  A    between atoms: C2_9  and  C3_10 
REMARK    3  A    between atoms: C3_10  and  O1_11 
REMARK    4  A    between atoms: C3_10  and  C4_13 
REMARK    5  A    between atoms: C4_13  and  N4_14 
REMARK    6  A    between atoms: N4_14  and  C5_16 
REMARK    7  A    between atoms: C7_20  and  N6_21 
REMARK    8  A    between atoms: N6_21  and  C8_23 
REMARK    9  A    between atoms: C10_26  and  C11_27 
REMARK   10  A    between atoms: C11_27  and  C12_29 
ROOT
HETATM    1  C5  UNL     1     -23.654  21.565  -1.997  1.00  0.00     0.678 A 
HETATM    2  N5  UNL     1     -23.558  21.215  -3.291  1.00  0.00    -0.198 N 
ATOM      3  H5  UNL     1     -23.063  21.890  -3.873  1.00  0.00     0.183 HD
HETATM    4  C6  UNL     1     -23.998  20.132  -3.954  1.00  0.00     0.154 A 
HETATM    5  C7  UNL     1     -24.692  19.042  -3.477  1.00  0.00     0.122 A 
HETATM    6  N8  UNL     1     -25.086  18.876  -2.190  1.00  0.00    -0.337 N 
ATOM      7  H8  UNL     1     -25.631  18.030  -2.019  1.00  0.00     0.168 HD
HETATM    8  C14 UNL     1     -24.880  19.638  -1.101  1.00  0.00     0.199 A 
HETATM    9  N9  UNL     1     -24.258  20.853  -1.031  1.00  0.00    -0.188 N 
ATOM     10  H9  UNL     1     -24.251  21.284  -0.107  1.00  0.00     0.185 HD
ENDROOT
BRANCH   1  11
HETATM   11  N4  UNL     1     -23.136  22.675  -1.596  1.00  0.00    -0.223 N 
ATOM     12  H4  UNL     1     -22.224  22.991  -1.926  1.00  0.00     0.177 HD
BRANCH  11  13
HETATM   13  C4  UNL     1     -23.916  23.454  -0.653  1.00  0.00     0.177 C 
BRANCH  13  14
HETATM   14  C3  UNL     1     -23.925  24.925  -1.004  1.00  0.00     0.205 C 
BRANCH  14  15
HETATM   15  C2  UNL     1     -24.928  25.687  -0.253  1.00  0.00     0.143 A 
HETATM   16  N3  UNL     1     -25.067  25.647   1.089  1.00  0.00    -0.272 N 
HETATM   17  N2  UNL     1     -26.052  26.439   1.476  1.00  0.00    -0.131 N 
ATOM     18  H3  UNL     1     -24.492  25.085   1.716  1.00  0.00     0.189 HD
HETATM   19  C1  UNL     1     -26.574  27.010   0.381  1.00  0.00     0.692 A 
ATOM     20  H2  UNL     1     -26.361  26.589   2.437  1.00  0.00     0.205 HD
HETATM   21  N10 UNL     1     -25.879  26.545  -0.679  1.00  0.00    -0.176 N 
ATOM     22  H10 UNL     1     -26.047  26.801  -1.652  1.00  0.00     0.185 HD
BRANCH  19  23
HETATM   23  N1  UNL     1     -27.555  27.846   0.358  1.00  0.00    -0.233 N 
ATOM     24  H12 UNL     1     -28.342  27.887   1.006  1.00  0.00     0.174 HD
ATOM     25  H11 UNL     1     -27.686  28.596  -0.320  1.00  0.00     0.174 HD
ENDBRANCH  19  23
ENDBRANCH  14  15
BRANCH  14  26
HETATM   26  O1  UNL     1     -24.076  25.063  -2.381  1.00  0.00    -0.386 OA
ATOM     27  H1  UNL     1     -24.521  24.321  -2.773  1.00  0.00     0.210 HD
ENDBRANCH  14  26
ENDBRANCH  13  14
ENDBRANCH  11  13
ENDBRANCH   1  11
BRANCH   5  28
HETATM   28  N6  UNL     1     -24.991  18.102  -4.315  1.00  0.00    -0.341 N 
ATOM     29  H6  UNL     1     -24.335  17.832  -5.048  1.00  0.00     0.167 HD
BRANCH  28  30
HETATM   30  C8  UNL     1     -26.278  17.437  -4.193  1.00  0.00     0.041 A 
HETATM   31  C9  UNL     1     -26.326  16.105  -3.897  1.00  0.00     0.080 A 
HETATM   32  S1  UNL     1     -27.997  15.779  -3.858  1.00  0.00    -0.096 SA
HETATM   33  C10 UNL     1     -28.592  17.335  -4.217  1.00  0.00     0.062 A 
HETATM   34  C13 UNL     1     -27.449  18.077  -4.359  1.00  0.00     0.053 A 
BRANCH  33  35
HETATM   35  C11 UNL     1     -29.988  17.761  -4.341  1.00  0.00     0.253 C 
HETATM   36  O2  UNL     1     -30.898  16.931  -4.317  1.00  0.00    -0.281 OA
BRANCH  35  37
HETATM   37  C12 UNL     1     -30.267  19.169  -4.492  1.00  0.00     0.306 C 
HETATM   38  N7  UNL     1     -30.617  19.689  -5.767  1.00  0.00    -0.054 NA
HETATM   39  O3  UNL     1     -30.201  19.929  -3.499  1.00  0.00    -0.267 OA
ENDBRANCH  35  37
ENDBRANCH  33  35
ENDBRANCH  28  30
ENDBRANCH   5  28
TORSDOF 10
ENDMDL
