MODEL 1
REMARK VINA RESULT: -8.125473654      0.000      0.000
REMARK  8 active torsions:
REMARK  status: ('A' for Active; 'I' for Inactive)
REMARK    1  A    between atoms: N1_1  and  C1_4 
REMARK    2  A    between atoms: C1_4  and  N2_5 
REMARK    3  A    between atoms: C1_4  and  C12_24 
REMARK    4  A    between atoms: N2_5  and  C2_7 
REMARK    5  A    between atoms: C2_7  and  C3_8 
REMARK    6  A    between atoms: C3_8  and  N3_9 
REMARK    7  A    between atoms: C5_13  and  C6_14 
REMARK       I    between atoms: C6_14  and  N5_16 
REMARK    8  A    between atoms: C12_24  and  C13_28 
ROOT
HETATM    1  C1  UNL     1     -24.970  25.910  -0.070  1.00  0.00     0.122 C 
ENDROOT
BRANCH   1   2
HETATM    2  N1  UNL     1     -24.090  26.572  -0.788  1.00  0.00    -0.384 N 
ATOM      3  H12 UNL     1     -23.445  26.036  -1.368  1.00  0.00     0.157 HD
ATOM      4  H11 UNL     1     -24.114  27.589  -0.715  1.00  0.00     0.157 HD
ENDBRANCH   1   2
BRANCH   1   5
HETATM    5  N2  UNL     1     -24.651  24.594   0.245  1.00  0.00    -0.373 N 
ATOM      6  H2  UNL     1     -25.153  24.091   0.977  1.00  0.00     0.161 HD
BRANCH   5   7
HETATM    7  C2  UNL     1     -23.575  23.956  -0.507  1.00  0.00     0.141 C 
BRANCH   7   8
HETATM    8  C3  UNL     1     -23.496  22.484  -0.228  1.00  0.00     0.148 C 
BRANCH   8   9
HETATM    9  N3  UNL     1     -23.701  21.784  -1.474  1.00  0.00    -0.349 N 
HETATM   10  C4  UNL     1     -23.458  22.310  -2.683  1.00  0.00     0.183 A 
HETATM   11  N4  UNL     1     -23.763  21.376  -3.610  1.00  0.00    -0.347 N 
HETATM   12  C5  UNL     1     -24.197  20.261  -3.023  1.00  0.00     0.117 A 
ATOM     13  H4  UNL     1     -23.674  21.506  -4.618  1.00  0.00     0.167 HD
HETATM   14  C11 UNL     1     -24.153  20.533  -1.662  1.00  0.00     0.127 A 
BRANCH  12  15
HETATM   15  C6  UNL     1     -24.626  19.019  -3.654  1.00  0.00     0.271 C 
HETATM   16  O1  UNL     1     -23.759  18.263  -4.214  1.00  0.00    -0.266 OA
HETATM   17  N5  UNL     1     -25.957  18.571  -3.697  1.00  0.00    -0.344 N 
HETATM   18  C7  UNL     1     -26.290  17.327  -4.345  1.00  0.00     0.145 C 
HETATM   19  C10 UNL     1     -27.010  19.335  -3.104  1.00  0.00     0.145 C 
HETATM   20  C8  UNL     1     -27.515  17.565  -5.186  1.00  0.00     0.133 C 
HETATM   21  N6  UNL     1     -28.634  18.086  -4.472  1.00  0.00    -0.418 N 
HETATM   22  C9  UNL     1     -28.352  18.633  -3.187  1.00  0.00     0.133 C 
ATOM     23  H6  UNL     1     -29.578  18.069  -4.859  1.00  0.00     0.153 HD
ENDBRANCH  12  15
ENDBRANCH   8   9
ENDBRANCH   7   8
ENDBRANCH   5   7
ENDBRANCH   1   5
BRANCH   1  24
HETATM   24  C12 UNL     1     -26.175  26.597   0.326  1.00  0.00     0.085 C 
HETATM   25  N7  UNL     1     -27.293  26.020  -0.046  1.00  0.00    -0.395 N 
ATOM     26  H72 UNL     1     -27.274  25.148  -0.576  1.00  0.00     0.156 HD
ATOM     27  H71 UNL     1     -28.145  26.506   0.234  1.00  0.00     0.156 HD
BRANCH  24  28
HETATM   28  C13 UNL     1     -26.202  27.844   1.084  1.00  0.00     0.057 A 
HETATM   29  C14 UNL     1     -27.029  28.927   0.943  1.00  0.00     0.126 A 
HETATM   30  N8  UNL     1     -26.661  29.822   1.874  1.00  0.00    -0.288 N 
HETATM   31  N9  UNL     1     -25.666  29.387   2.588  1.00  0.00    -0.069 N 
ATOM     32  H8  UNL     1     -27.106  30.731   2.005  1.00  0.00     0.187 HD
HETATM   33  C15 UNL     1     -24.994  29.964   3.619  1.00  0.00     0.699 A 
HETATM   34  C17 UNL     1     -25.327  28.142   2.141  1.00  0.00     0.160 A 
HETATM   35  N10 UNL     1     -25.348  31.134   4.004  1.00  0.00    -0.233 N 
HETATM   36  N11 UNL     1     -23.994  29.318   4.207  1.00  0.00    -0.186 N 
ATOM     37 2H10 UNL     1     -26.115  31.630   3.553  1.00  0.00     0.174 HD
ATOM     38 1H10 UNL     1     -24.844  31.567   4.778  1.00  0.00     0.174 HD
HETATM   39  C16 UNL     1     -23.660  28.093   3.767  1.00  0.00     0.199 A 
ATOM     40  H11 UNL     1     -23.486  29.744   4.982  1.00  0.00     0.185 HD
HETATM   41  N12 UNL     1     -24.313  27.518   2.756  1.00  0.00    -0.335 N 
ATOM     42  H12 UNL     1     -24.034  26.587   2.445  1.00  0.00     0.168 HD
ENDBRANCH  24  28
ENDBRANCH   1  24
TORSDOF 8
ENDMDL
MODEL 2
REMARK VINA RESULT: -7.957918107      1.051      1.166
REMARK  8 active torsions:
REMARK  status: ('A' for Active; 'I' for Inactive)
REMARK    1  A    between atoms: N1_1  and  C1_4 
REMARK    2  A    between atoms: C1_4  and  N2_5 
REMARK    3  A    between atoms: C1_4  and  C12_24 
REMARK    4  A    between atoms: N2_5  and  C2_7 
REMARK    5  A    between atoms: C2_7  and  C3_8 
REMARK    6  A    between atoms: C3_8  and  N3_9 
REMARK    7  A    between atoms: C5_13  and  C6_14 
REMARK       I    between atoms: C6_14  and  N5_16 
REMARK    8  A    between atoms: C12_24  and  C13_28 
ROOT
HETATM    1  C1  UNL     1     -24.764  26.474  -0.500  1.00  0.00     0.122 C 
ENDROOT
BRANCH   1   2
HETATM    2  N1  UNL     1     -24.904  26.851  -1.752  1.00  0.00    -0.384 N 
ATOM      3  H12 UNL     1     -24.096  26.770  -2.369  1.00  0.00     0.157 HD
ATOM      4  H11 UNL     1     -25.822  27.203  -2.023  1.00  0.00     0.157 HD
ENDBRANCH   1   2
BRANCH   1   5
HETATM    5  N2  UNL     1     -23.565  25.855  -0.167  1.00  0.00    -0.373 N 
ATOM      6  H2  UNL     1     -22.922  26.278   0.501  1.00  0.00     0.161 HD
BRANCH   5   7
HETATM    7  C2  UNL     1     -23.258  24.578  -0.805  1.00  0.00     0.141 C 
BRANCH   7   8
HETATM    8  C3  UNL     1     -23.869  23.424  -0.066  1.00  0.00     0.148 C 
BRANCH   8   9
HETATM    9  N3  UNL     1     -23.813  22.266  -0.926  1.00  0.00    -0.349 N 
HETATM   10  C4  UNL     1     -22.916  21.276  -0.800  1.00  0.00     0.183 A 
HETATM   11  N4  UNL     1     -23.163  20.368  -1.770  1.00  0.00    -0.347 N 
HETATM   12  C5  UNL     1     -24.199  20.753  -2.515  1.00  0.00     0.117 A 
ATOM     13  H4  UNL     1     -22.631  19.509  -1.911  1.00  0.00     0.167 HD
HETATM   14  C11 UNL     1     -24.605  21.963  -1.968  1.00  0.00     0.127 A 
BRANCH  12  15
HETATM   15  C6  UNL     1     -24.791  20.066  -3.657  1.00  0.00     0.271 C 
HETATM   16  O1  UNL     1     -24.546  20.484  -4.840  1.00  0.00    -0.266 OA
HETATM   17  N5  UNL     1     -25.635  18.947  -3.559  1.00  0.00    -0.344 N 
HETATM   18  C7  UNL     1     -26.175  18.331  -4.744  1.00  0.00     0.145 C 
HETATM   19  C10 UNL     1     -25.977  18.394  -2.286  1.00  0.00     0.145 C 
HETATM   20  C8  UNL     1     -27.634  18.059  -4.492  1.00  0.00     0.133 C 
HETATM   21  N6  UNL     1     -27.898  17.265  -3.337  1.00  0.00    -0.418 N 
HETATM   22  C9  UNL     1     -26.825  17.142  -2.408  1.00  0.00     0.133 C 
ATOM     23  H6  UNL     1     -28.801  16.814  -3.186  1.00  0.00     0.153 HD
ENDBRANCH  12  15
ENDBRANCH   8   9
ENDBRANCH   7   8
ENDBRANCH   5   7
ENDBRANCH   1   5
BRANCH   1  24
HETATM   24  C12 UNL     1     -25.854  26.732   0.409  1.00  0.00     0.085 C 
HETATM   25  N7  UNL     1     -26.755  25.781   0.483  1.00  0.00    -0.395 N 
ATOM     26  H72 UNL     1     -26.660  24.933  -0.078  1.00  0.00     0.156 HD
ATOM     27  H71 UNL     1     -27.525  25.964   1.125  1.00  0.00     0.156 HD
BRANCH  24  28
HETATM   28  C13 UNL     1     -25.990  27.944   1.210  1.00  0.00     0.057 A 
HETATM   29  C14 UNL     1     -26.894  28.966   1.091  1.00  0.00     0.126 A 
HETATM   30  N8  UNL     1     -26.612  29.851   2.062  1.00  0.00    -0.288 N 
HETATM   31  N9  UNL     1     -25.601  29.465   2.780  1.00  0.00    -0.069 N 
ATOM     32  H8  UNL     1     -27.128  30.718   2.215  1.00  0.00     0.187 HD
HETATM   33  C15 UNL     1     -24.993  30.053   3.845  1.00  0.00     0.699 A 
HETATM   34  C17 UNL     1     -25.160  28.267   2.296  1.00  0.00     0.160 A 
HETATM   35  N10 UNL     1     -25.442  31.177   4.265  1.00  0.00    -0.233 N 
HETATM   36  N11 UNL     1     -23.958  29.462   4.431  1.00  0.00    -0.186 N 
ATOM     37 2H10 UNL     1     -26.237  31.631   3.815  1.00  0.00     0.174 HD
ATOM     38 1H10 UNL     1     -24.987  31.618   5.064  1.00  0.00     0.174 HD
HETATM   39  C16 UNL     1     -23.524  28.284   3.954  1.00  0.00     0.199 A 
ATOM     40  H11 UNL     1     -23.498  29.896   5.230  1.00  0.00     0.185 HD
HETATM   41  N12 UNL     1     -24.112  27.699   2.909  1.00  0.00    -0.335 N 
ATOM     42  H12 UNL     1     -23.758  26.804   2.571  1.00  0.00     0.168 HD
ENDBRANCH  24  28
ENDBRANCH   1  24
TORSDOF 8
ENDMDL
MODEL 3
REMARK VINA RESULT: -7.879721251      2.363     10.875
REMARK  8 active torsions:
REMARK  status: ('A' for Active; 'I' for Inactive)
REMARK    1  A    between atoms: N1_1  and  C1_4 
REMARK    2  A    between atoms: C1_4  and  N2_5 
REMARK    3  A    between atoms: C1_4  and  C12_24 
REMARK    4  A    between atoms: N2_5  and  C2_7 
REMARK    5  A    between atoms: C2_7  and  C3_8 
REMARK    6  A    between atoms: C3_8  and  N3_9 
REMARK    7  A    between atoms: C5_13  and  C6_14 
REMARK       I    between atoms: C6_14  and  N5_16 
REMARK    8  A    between atoms: C12_24  and  C13_28 
ROOT
HETATM    1  C1  UNL     1     -24.227  20.410  -2.999  1.00  0.00     0.122 C 
ENDROOT
BRANCH   1   2
HETATM    2  N1  UNL     1     -24.156  21.349  -3.917  1.00  0.00    -0.384 N 
ATOM      3  H12 UNL     1     -25.024  21.800  -4.208  1.00  0.00     0.157 HD
ATOM      4  H11 UNL     1     -23.227  21.564  -4.280  1.00  0.00     0.157 HD
ENDBRANCH   1   2
BRANCH   1   5
HETATM    5  N2  UNL     1     -24.046  20.813  -1.682  1.00  0.00    -0.373 N 
ATOM      6  H2  UNL     1     -24.301  20.204  -0.905  1.00  0.00     0.161 HD
BRANCH   5   7
HETATM    7  C2  UNL     1     -23.479  22.138  -1.447  1.00  0.00     0.141 C 
BRANCH   7   8
HETATM    8  C3  UNL     1     -23.850  22.674  -0.097  1.00  0.00     0.148 C 
BRANCH   8   9
HETATM    9  N3  UNL     1     -23.957  24.109  -0.201  1.00  0.00    -0.349 N 
HETATM   10  C4  UNL     1     -23.041  24.892  -0.793  1.00  0.00     0.183 A 
HETATM   11  N4  UNL     1     -23.468  26.170  -0.702  1.00  0.00    -0.347 N 
HETATM   12  C5  UNL     1     -24.638  26.226  -0.066  1.00  0.00     0.117 A 
ATOM     13  H4  UNL     1     -22.966  26.979  -1.069  1.00  0.00     0.167 HD
HETATM   14  C11 UNL     1     -24.939  24.908   0.248  1.00  0.00     0.127 A 
BRANCH  12  15
HETATM   15  C6  UNL     1     -25.441  27.404   0.241  1.00  0.00     0.271 C 
HETATM   16  O1  UNL     1     -26.358  27.772  -0.572  1.00  0.00    -0.266 OA
HETATM   17  N5  UNL     1     -25.284  28.191   1.393  1.00  0.00    -0.344 N 
HETATM   18  C7  UNL     1     -26.125  29.341   1.615  1.00  0.00     0.145 C 
HETATM   19  C10 UNL     1     -24.291  27.874   2.371  1.00  0.00     0.145 C 
HETATM   20  C8  UNL     1     -25.242  30.469   2.077  1.00  0.00     0.133 C 
HETATM   21  N6  UNL     1     -24.461  30.176   3.234  1.00  0.00    -0.418 N 
HETATM   22  C9  UNL     1     -24.347  28.797   3.574  1.00  0.00     0.133 C 
ATOM     23  H6  UNL     1     -24.012  30.909   3.783  1.00  0.00     0.153 HD
ENDBRANCH  12  15
ENDBRANCH   8   9
ENDBRANCH   7   8
ENDBRANCH   5   7
ENDBRANCH   1   5
BRANCH   1  24
HETATM   24  C12 UNL     1     -24.485  19.059  -3.433  1.00  0.00     0.085 C 
HETATM   25  N7  UNL     1     -23.441  18.415  -3.899  1.00  0.00    -0.395 N 
ATOM     26  H72 UNL     1     -22.527  18.869  -3.938  1.00  0.00     0.156 HD
ATOM     27  H71 UNL     1     -23.623  17.460  -4.206  1.00  0.00     0.156 HD
BRANCH  24  28
HETATM   28  C13 UNL     1     -25.790  18.410  -3.378  1.00  0.00     0.057 A 
HETATM   29  C14 UNL     1     -26.459  17.896  -2.298  1.00  0.00     0.126 A 
HETATM   30  N8  UNL     1     -27.623  17.406  -2.758  1.00  0.00    -0.288 N 
HETATM   31  N9  UNL     1     -27.736  17.570  -4.042  1.00  0.00    -0.069 N 
ATOM     32  H8  UNL     1     -28.329  16.960  -2.171  1.00  0.00     0.187 HD
HETATM   33  C15 UNL     1     -28.737  17.225  -4.896  1.00  0.00     0.699 A 
HETATM   34  C17 UNL     1     -26.612  18.199  -4.497  1.00  0.00     0.160 A 
HETATM   35  N10 UNL     1     -29.772  16.638  -4.423  1.00  0.00    -0.233 N 
HETATM   36  N11 UNL     1     -28.631  17.501  -6.191  1.00  0.00    -0.186 N 
ATOM     37 2H10 UNL     1     -29.853  16.426  -3.428  1.00  0.00     0.174 HD
ATOM     38 1H10 UNL     1     -30.523  16.379  -5.063  1.00  0.00     0.174 HD
HETATM   39  C16 UNL     1     -27.526  18.119  -6.638  1.00  0.00     0.199 A 
ATOM     40  H11 UNL     1     -29.378  17.246  -6.836  1.00  0.00     0.185 HD
HETATM   41  N12 UNL     1     -26.538  18.460  -5.809  1.00  0.00    -0.335 N 
ATOM     42  H12 UNL     1     -25.711  18.928  -6.181  1.00  0.00     0.168 HD
ENDBRANCH  24  28
ENDBRANCH   1  24
TORSDOF 8
ENDMDL
MODEL 4
REMARK VINA RESULT: -7.686082196      1.061      1.823
REMARK  8 active torsions:
REMARK  status: ('A' for Active; 'I' for Inactive)
REMARK    1  A    between atoms: N1_1  and  C1_4 
REMARK    2  A    between atoms: C1_4  and  N2_5 
REMARK    3  A    between atoms: C1_4  and  C12_24 
REMARK    4  A    between atoms: N2_5  and  C2_7 
REMARK    5  A    between atoms: C2_7  and  C3_8 
REMARK    6  A    between atoms: C3_8  and  N3_9 
REMARK    7  A    between atoms: C5_13  and  C6_14 
REMARK       I    between atoms: C6_14  and  N5_16 
REMARK    8  A    between atoms: C12_24  and  C13_28 
ROOT
HETATM    1  C1  UNL     1     -24.342  25.213   0.082  1.00  0.00     0.122 C 
ENDROOT
BRANCH   1   2
HETATM    2  N1  UNL     1     -23.376  25.815  -0.576  1.00  0.00    -0.384 N 
ATOM      3  H12 UNL     1     -22.418  25.511  -0.402  1.00  0.00     0.157 HD
ATOM      4  H11 UNL     1     -23.654  26.554  -1.222  1.00  0.00     0.157 HD
ENDBRANCH   1   2
BRANCH   1   5
HETATM    5  N2  UNL     1     -24.289  23.825   0.134  1.00  0.00    -0.373 N 
ATOM      6  H2  UNL     1     -24.757  23.308   0.878  1.00  0.00     0.161 HD
BRANCH   5   7
HETATM    7  C2  UNL     1     -23.539  23.133  -0.910  1.00  0.00     0.141 C 
BRANCH   7   8
HETATM    8  C3  UNL     1     -23.451  21.659  -0.650  1.00  0.00     0.148 C 
BRANCH   8   9
HETATM    9  N3  UNL     1     -23.985  20.971  -1.802  1.00  0.00    -0.349 N 
HETATM   10  C4  UNL     1     -23.972  21.467  -3.048  1.00  0.00     0.183 A 
HETATM   11  N4  UNL     1     -24.553  20.557  -3.861  1.00  0.00    -0.347 N 
HETATM   12  C5  UNL     1     -24.937  19.488  -3.164  1.00  0.00     0.117 A 
ATOM     13  H4  UNL     1     -24.679  20.672  -4.867  1.00  0.00     0.167 HD
HETATM   14  C11 UNL     1     -24.571  19.764  -1.854  1.00  0.00     0.127 A 
BRANCH  12  15
HETATM   15  C6  UNL     1     -25.599  18.284  -3.654  1.00  0.00     0.271 C 
HETATM   16  O1  UNL     1     -24.896  17.271  -3.990  1.00  0.00    -0.266 OA
HETATM   17  N5  UNL     1     -26.990  18.144  -3.788  1.00  0.00    -0.344 N 
HETATM   18  C7  UNL     1     -27.558  16.914  -4.282  1.00  0.00     0.145 C 
HETATM   19  C10 UNL     1     -27.874  19.213  -3.441  1.00  0.00     0.145 C 
HETATM   20  C8  UNL     1     -28.618  17.273  -5.288  1.00  0.00     0.133 C 
HETATM   21  N6  UNL     1     -29.634  18.144  -4.795  1.00  0.00    -0.418 N 
HETATM   22  C9  UNL     1     -29.334  18.824  -3.579  1.00  0.00     0.133 C 
ATOM     23  H6  UNL     1     -30.520  18.273  -5.283  1.00  0.00     0.153 HD
ENDBRANCH  12  15
ENDBRANCH   8   9
ENDBRANCH   7   8
ENDBRANCH   5   7
ENDBRANCH   1   5
BRANCH   1  24
HETATM   24  C12 UNL     1     -25.364  26.034   0.684  1.00  0.00     0.085 C 
HETATM   25  N7  UNL     1     -26.595  25.730   0.347  1.00  0.00    -0.395 N 
ATOM     26  H72 UNL     1     -26.780  24.962  -0.299  1.00  0.00     0.156 HD
ATOM     27  H71 UNL     1     -27.316  26.311   0.773  1.00  0.00     0.156 HD
BRANCH  24  28
HETATM   28  C13 UNL     1     -25.099  27.133   1.608  1.00  0.00     0.057 A 
HETATM   29  C14 UNL     1     -24.287  27.163   2.711  1.00  0.00     0.126 A 
HETATM   30  N8  UNL     1     -24.379  28.400   3.228  1.00  0.00    -0.288 N 
HETATM   31  N9  UNL     1     -25.186  29.148   2.537  1.00  0.00    -0.069 N 
ATOM     32  H8  UNL     1     -23.877  28.712   4.060  1.00  0.00     0.187 HD
HETATM   33  C15 UNL     1     -25.561  30.444   2.709  1.00  0.00     0.699 A 
HETATM   34  C17 UNL     1     -25.676  28.409   1.498  1.00  0.00     0.160 A 
HETATM   35  N10 UNL     1     -25.074  31.097   3.698  1.00  0.00    -0.233 N 
HETATM   36  N11 UNL     1     -26.412  31.008   1.860  1.00  0.00    -0.186 N 
ATOM     37 2H10 UNL     1     -24.421  30.663   4.349  1.00  0.00     0.174 HD
ATOM     38 1H10 UNL     1     -25.355  32.069   3.826  1.00  0.00     0.174 HD
HETATM   39  C16 UNL     1     -26.894  30.281   0.839  1.00  0.00     0.199 A 
ATOM     40  H11 UNL     1     -26.696  31.980   1.983  1.00  0.00     0.185 HD
HETATM   41  N12 UNL     1     -26.534  29.009   0.662  1.00  0.00    -0.335 N 
ATOM     42  H12 UNL     1     -26.918  28.484  -0.124  1.00  0.00     0.168 HD
ENDBRANCH  24  28
ENDBRANCH   1  24
TORSDOF 8
ENDMDL
MODEL 5
REMARK VINA RESULT: -7.643832160      1.115      1.724
REMARK  8 active torsions:
REMARK  status: ('A' for Active; 'I' for Inactive)
REMARK    1  A    between atoms: N1_1  and  C1_4 
REMARK    2  A    between atoms: C1_4  and  N2_5 
REMARK    3  A    between atoms: C1_4  and  C12_24 
REMARK    4  A    between atoms: N2_5  and  C2_7 
REMARK    5  A    between atoms: C2_7  and  C3_8 
REMARK    6  A    between atoms: C3_8  and  N3_9 
REMARK    7  A    between atoms: C5_13  and  C6_14 
REMARK       I    between atoms: C6_14  and  N5_16 
REMARK    8  A    between atoms: C12_24  and  C13_28 
ROOT
HETATM    1  C1  UNL     1     -24.339  25.127  -0.149  1.00  0.00     0.122 C 
ENDROOT
BRANCH   1   2
HETATM    2  N1  UNL     1     -25.348  24.657   0.551  1.00  0.00    -0.384 N 
ATOM      3  H12 UNL     1     -25.495  25.032   1.488  1.00  0.00     0.157 HD
ATOM      4  H11 UNL     1     -25.921  23.941   0.104  1.00  0.00     0.157 HD
ENDBRANCH   1   2
BRANCH   1   5
HETATM    5  N2  UNL     1     -23.402  24.200  -0.590  1.00  0.00    -0.373 N 
ATOM      6  H2  UNL     1     -22.449  24.482  -0.818  1.00  0.00     0.161 HD
BRANCH   5   7
HETATM    7  C2  UNL     1     -23.829  22.809  -0.717  1.00  0.00     0.141 C 
BRANCH   7   8
HETATM    8  C3  UNL     1     -23.321  22.183  -1.981  1.00  0.00     0.148 C 
BRANCH   8   9
HETATM    9  N3  UNL     1     -24.098  20.992  -2.231  1.00  0.00    -0.349 N 
HETATM   10  C4  UNL     1     -24.536  20.163  -1.271  1.00  0.00     0.183 A 
HETATM   11  N4  UNL     1     -25.222  19.164  -1.868  1.00  0.00    -0.347 N 
HETATM   12  C5  UNL     1     -25.235  19.333  -3.190  1.00  0.00     0.117 A 
ATOM     13  H4  UNL     1     -25.668  18.390  -1.376  1.00  0.00     0.167 HD
HETATM   14  C11 UNL     1     -24.515  20.500  -3.409  1.00  0.00     0.127 A 
BRANCH  12  15
HETATM   15  C6  UNL     1     -25.861  18.488  -4.200  1.00  0.00     0.271 C 
HETATM   16  O1  UNL     1     -25.130  17.876  -5.052  1.00  0.00    -0.266 OA
HETATM   17  N5  UNL     1     -27.246  18.286  -4.315  1.00  0.00    -0.344 N 
HETATM   18  C7  UNL     1     -27.778  17.431  -5.347  1.00  0.00     0.145 C 
HETATM   19  C10 UNL     1     -28.160  18.920  -3.416  1.00  0.00     0.145 C 
HETATM   20  C8  UNL     1     -28.956  18.138  -5.962  1.00  0.00     0.133 C 
HETATM   21  N6  UNL     1     -29.972  18.514  -5.035  1.00  0.00    -0.418 N 
HETATM   22  C9  UNL     1     -29.597  18.500  -3.660  1.00  0.00     0.133 C 
ATOM     23  H6  UNL     1     -30.910  18.777  -5.338  1.00  0.00     0.153 HD
ENDBRANCH  12  15
ENDBRANCH   8   9
ENDBRANCH   7   8
ENDBRANCH   5   7
ENDBRANCH   1   5
BRANCH   1  24
HETATM   24  C12 UNL     1     -24.292  26.547  -0.397  1.00  0.00     0.085 C 
HETATM   25  N7  UNL     1     -23.523  26.913  -1.396  1.00  0.00    -0.395 N 
ATOM     26  H72 UNL     1     -23.011  26.217  -1.937  1.00  0.00     0.156 HD
ATOM     27  H71 UNL     1     -23.490  27.918  -1.570  1.00  0.00     0.156 HD
BRANCH  24  28
HETATM   28  C13 UNL     1     -25.025  27.544   0.376  1.00  0.00     0.057 A 
HETATM   29  C14 UNL     1     -26.206  28.173   0.083  1.00  0.00     0.126 A 
HETATM   30  N8  UNL     1     -26.470  29.003   1.106  1.00  0.00    -0.288 N 
HETATM   31  N9  UNL     1     -25.548  28.945   2.018  1.00  0.00    -0.069 N 
ATOM     32  H8  UNL     1     -27.294  29.604   1.159  1.00  0.00     0.187 HD
HETATM   33  C15 UNL     1     -25.423  29.609   3.199  1.00  0.00     0.699 A 
HETATM   34  C17 UNL     1     -24.604  28.041   1.620  1.00  0.00     0.160 A 
HETATM   35  N10 UNL     1     -26.334  30.447   3.530  1.00  0.00    -0.233 N 
HETATM   36  N11 UNL     1     -24.376  29.382   3.983  1.00  0.00    -0.186 N 
ATOM     37 2H10 UNL     1     -27.138  30.621   2.928  1.00  0.00     0.174 HD
ATOM     38 1H10 UNL     1     -26.241  30.944   4.415  1.00  0.00     0.174 HD
HETATM   39  C16 UNL     1     -23.448  28.493   3.591  1.00  0.00     0.199 A 
ATOM     40  H11 UNL     1     -24.277  29.875   4.870  1.00  0.00     0.185 HD
HETATM   41  N12 UNL     1     -23.559  27.837   2.435  1.00  0.00    -0.335 N 
ATOM     42  H12 UNL     1     -22.837  27.169   2.166  1.00  0.00     0.168 HD
ENDBRANCH  24  28
ENDBRANCH   1  24
TORSDOF 8
ENDMDL
