MODEL 1
REMARK VINA RESULT: -6.239129500      0.000      0.000
REMARK  11 active torsions:
REMARK  status: ('A' for Active; 'I' for Inactive)
REMARK    1  A    between atoms: C3_3  and  C4_4 
REMARK       I    between atoms: C4_4  and  N1_6 
REMARK    2  A    between atoms: N3_12  and  C8_13 
REMARK    3  A    between atoms: C8_13  and  N4_14 
REMARK    4  A    between atoms: N4_14  and  C9_16 
REMARK    5  A    between atoms: C9_16  and  C10_21 
REMARK    6  A    between atoms: N5_17  and  O2_19 
REMARK    7  A    between atoms: C12_26  and  N8_27 
REMARK    8  A    between atoms: N8_27  and  O3_29 
REMARK    9  A    between atoms: C13_33  and  N10_34 
REMARK   10  A    between atoms: C14_36  and  C15_37 
REMARK   11  A    between atoms: C15_37  and  O4_38 
ROOT
HETATM    1  C9  UNL     1     -26.354  29.182   0.792  1.00  0.00     0.139 C 
HETATM    2  N5  UNL     1     -27.468  28.545   0.741  1.00  0.00    -0.252 N 
ATOM      3  H5  UNL     1     -27.733  27.938   1.517  1.00  0.00     0.196 HD
ENDROOT
BRANCH   1   4
HETATM    4  N4  UNL     1     -26.010  30.017  -0.298  1.00  0.00    -0.357 N 
ATOM      5  H4  UNL     1     -26.141  29.688  -1.255  1.00  0.00     0.162 HD
BRANCH   4   6
HETATM    6  C8  UNL     1     -25.481  31.317  -0.055  1.00  0.00     0.254 C 
BRANCH   6   7
HETATM    7  N3  UNL     1     -24.190  31.522  -0.699  1.00  0.00    -0.328 N 
HETATM    8  C2  UNL     1     -22.977  31.541  -0.126  1.00  0.00     0.042 A 
HETATM    9  C1  UNL     1     -22.667  31.354   1.309  1.00  0.00     0.071 C 
HETATM   10  C3  UNL     1     -21.982  31.768  -1.084  1.00  0.00     0.124 A 
HETATM   11  N2  UNL     1     -22.659  31.881  -2.237  1.00  0.00    -0.346 N 
HETATM   12  C7  UNL     1     -23.974  31.735  -2.015  1.00  0.00     0.185 A 
ATOM     13  H2  UNL     1     -22.235  32.053  -3.149  1.00  0.00     0.167 HD
BRANCH  10  14
HETATM   14  C4  UNL     1     -20.548  31.855  -0.830  1.00  0.00     0.271 C 
HETATM   15  O1  UNL     1     -20.053  32.729  -0.078  1.00  0.00    -0.266 OA
HETATM   16  N1  UNL     1     -19.663  30.931  -1.438  1.00  0.00    -0.355 N 
HETATM   17  C5  UNL     1     -18.224  31.021  -1.178  1.00  0.00     0.152 C 
HETATM   18  C6  UNL     1     -20.109  29.876  -2.324  1.00  0.00     0.152 C 
ENDBRANCH  10  14
ENDBRANCH   6   7
ENDBRANCH   4   6
ENDBRANCH   1   4
BRANCH   1  19
HETATM   19  C10 UNL     1     -25.443  29.062   1.926  1.00  0.00     0.096 A 
HETATM   20  C11 UNL     1     -25.596  29.731   3.091  1.00  0.00     0.149 A 
HETATM   21  N6  UNL     1     -26.709  30.616   3.273  1.00  0.00    -0.081 NA
HETATM   22  N7  UNL     1     -24.698  29.562   4.091  1.00  0.00    -0.176 N 
HETATM   23  C12 UNL     1     -23.647  28.742   3.961  1.00  0.00     0.704 A 
ATOM     24  H7  UNL     1     -24.825  30.073   4.964  1.00  0.00     0.185 HD
HETATM   25  N9  UNL     1     -23.465  28.065   2.821  1.00  0.00    -0.174 N 
HETATM   26  C13 UNL     1     -24.335  28.191   1.778  1.00  0.00     0.138 A 
ATOM     27  H9  UNL     1     -22.661  27.443   2.732  1.00  0.00     0.186 HD
BRANCH  23  28
HETATM   28  N8  UNL     1     -22.789  28.588   4.932  1.00  0.00    -0.098 N 
ATOM     29  H8  UNL     1     -22.053  27.888   4.830  1.00  0.00     0.213 HD
BRANCH  28  30
HETATM   30  O3  UNL     1     -22.836  29.323   6.071  1.00  0.00    -0.276 OA
ATOM     31  H3  UNL     1     -22.827  28.928   6.935  1.00  0.00     0.245 HD
ENDBRANCH  28  30
ENDBRANCH  23  28
BRANCH  26  32
HETATM   32  N10 UNL     1     -24.225  27.596   0.703  1.00  0.00    -0.353 N 
HETATM   33  C14 UNL     1     -24.597  26.567  -0.106  1.00  0.00     0.088 C 
ATOM     34  H10 UNL     1     -23.530  28.121   0.172  1.00  0.00     0.166 HD
BRANCH  33  35
HETATM   35  C15 UNL     1     -25.613  25.597   0.469  1.00  0.00     0.208 C 
BRANCH  35  36
HETATM   36  O4  UNL     1     -26.799  25.803  -0.273  1.00  0.00    -0.396 OA
ATOM     37  H4  UNL     1     -27.334  25.033  -0.120  1.00  0.00     0.209 HD
ENDBRANCH  35  36
ENDBRANCH  33  35
ENDBRANCH  26  32
ENDBRANCH   1  19
BRANCH   2  38
HETATM   38  O2  UNL     1     -28.307  28.664  -0.335  1.00  0.00    -0.288 OA
ATOM     39  H2  UNL     1     -28.987  29.327  -0.358  1.00  0.00     0.244 HD
ENDBRANCH   2  38
TORSDOF 11
ENDMDL
MODEL 2
REMARK VINA RESULT: -6.168764420      2.336      4.148
REMARK  11 active torsions:
REMARK  status: ('A' for Active; 'I' for Inactive)
REMARK    1  A    between atoms: C3_3  and  C4_4 
REMARK       I    between atoms: C4_4  and  N1_6 
REMARK    2  A    between atoms: N3_12  and  C8_13 
REMARK    3  A    between atoms: C8_13  and  N4_14 
REMARK    4  A    between atoms: N4_14  and  C9_16 
REMARK    5  A    between atoms: C9_16  and  C10_21 
REMARK    6  A    between atoms: N5_17  and  O2_19 
REMARK    7  A    between atoms: C12_26  and  N8_27 
REMARK    8  A    between atoms: N8_27  and  O3_29 
REMARK    9  A    between atoms: C13_33  and  N10_34 
REMARK   10  A    between atoms: C14_36  and  C15_37 
REMARK   11  A    between atoms: C15_37  and  O4_38 
ROOT
HETATM    1  C9  UNL     1     -25.526  30.791   2.175  1.00  0.00     0.139 C 
HETATM    2  N5  UNL     1     -26.112  31.193   3.245  1.00  0.00    -0.252 N 
ATOM      3  H5  UNL     1     -26.529  30.507   3.874  1.00  0.00     0.196 HD
ENDROOT
BRANCH   1   4
HETATM    4  N4  UNL     1     -24.956  31.764   1.318  1.00  0.00    -0.357 N 
ATOM      5  H4  UNL     1     -24.430  32.545   1.710  1.00  0.00     0.162 HD
BRANCH   4   6
HETATM    6  C8  UNL     1     -25.119  31.648  -0.092  1.00  0.00     0.254 C 
BRANCH   6   7
HETATM    7  N3  UNL     1     -23.948  31.075  -0.743  1.00  0.00    -0.328 N 
HETATM    8  C2  UNL     1     -23.902  30.039  -1.594  1.00  0.00     0.042 A 
HETATM    9  C1  UNL     1     -25.044  29.230  -2.075  1.00  0.00     0.071 C 
HETATM   10  C3  UNL     1     -22.585  29.793  -2.001  1.00  0.00     0.124 A 
HETATM   11  N2  UNL     1     -21.865  30.723  -1.357  1.00  0.00    -0.346 N 
HETATM   12  C7  UNL     1     -22.670  31.490  -0.607  1.00  0.00     0.185 A 
ATOM     13  H2  UNL     1     -20.852  30.832  -1.428  1.00  0.00     0.167 HD
BRANCH  10  14
HETATM   14  C4  UNL     1     -22.151  28.746  -2.921  1.00  0.00     0.271 C 
HETATM   15  O1  UNL     1     -21.764  27.622  -2.520  1.00  0.00    -0.266 OA
HETATM   16  N1  UNL     1     -22.160  28.981  -4.317  1.00  0.00    -0.355 N 
HETATM   17  C5  UNL     1     -21.725  27.926  -5.236  1.00  0.00     0.152 C 
HETATM   18  C6  UNL     1     -22.585  30.234  -4.905  1.00  0.00     0.152 C 
ENDBRANCH  10  14
ENDBRANCH   6   7
ENDBRANCH   4   6
ENDBRANCH   1   4
BRANCH   1  19
HETATM   19  C10 UNL     1     -25.443  29.378   1.820  1.00  0.00     0.096 A 
HETATM   20  C11 UNL     1     -26.453  28.682   1.249  1.00  0.00     0.149 A 
HETATM   21  N6  UNL     1     -27.695  29.332   0.949  1.00  0.00    -0.081 NA
HETATM   22  N7  UNL     1     -26.290  27.371   0.957  1.00  0.00    -0.176 N 
HETATM   23  C12 UNL     1     -25.143  26.729   1.218  1.00  0.00     0.704 A 
ATOM     24  H7  UNL     1     -27.059  26.858   0.527  1.00  0.00     0.185 HD
HETATM   25  N9  UNL     1     -24.123  27.386   1.782  1.00  0.00    -0.174 N 
HETATM   26  C13 UNL     1     -24.225  28.709   2.100  1.00  0.00     0.138 A 
ATOM     27  H9  UNL     1     -23.254  26.889   1.979  1.00  0.00     0.186 HD
BRANCH  23  28
HETATM   28  N8  UNL     1     -24.998  25.464   0.932  1.00  0.00    -0.098 N 
ATOM     29  H8  UNL     1     -24.524  24.860   1.604  1.00  0.00     0.213 HD
BRANCH  28  30
HETATM   30  O3  UNL     1     -25.453  24.921  -0.225  1.00  0.00    -0.276 OA
ATOM     31  H3  UNL     1     -25.196  25.247  -1.079  1.00  0.00     0.245 HD
ENDBRANCH  28  30
ENDBRANCH  23  28
BRANCH  26  32
HETATM   32  N10 UNL     1     -23.325  29.372   2.620  1.00  0.00    -0.353 N 
HETATM   33  C14 UNL     1     -22.667  29.769   3.743  1.00  0.00     0.088 C 
ATOM     34  H10 UNL     1     -22.853  29.844   1.849  1.00  0.00     0.166 HD
BRANCH  33  35
HETATM   35  C15 UNL     1     -23.200  29.230   5.058  1.00  0.00     0.208 C 
BRANCH  35  36
HETATM   36  O4  UNL     1     -24.245  30.107   5.433  1.00  0.00    -0.396 OA
ATOM     37  H4  UNL     1     -24.657  29.705   6.189  1.00  0.00     0.209 HD
ENDBRANCH  35  36
ENDBRANCH  33  35
ENDBRANCH  26  32
ENDBRANCH   1  19
BRANCH   2  38
HETATM   38  O2  UNL     1     -26.186  32.524   3.558  1.00  0.00    -0.288 OA
ATOM     39  H2  UNL     1     -26.925  32.876   4.040  1.00  0.00     0.244 HD
ENDBRANCH   2  38
TORSDOF 11
ENDMDL
MODEL 3
REMARK VINA RESULT: -6.122311103      1.995      3.864
REMARK  11 active torsions:
REMARK  status: ('A' for Active; 'I' for Inactive)
REMARK    1  A    between atoms: C3_3  and  C4_4 
REMARK       I    between atoms: C4_4  and  N1_6 
REMARK    2  A    between atoms: N3_12  and  C8_13 
REMARK    3  A    between atoms: C8_13  and  N4_14 
REMARK    4  A    between atoms: N4_14  and  C9_16 
REMARK    5  A    between atoms: C9_16  and  C10_21 
REMARK    6  A    between atoms: N5_17  and  O2_19 
REMARK    7  A    between atoms: C12_26  and  N8_27 
REMARK    8  A    between atoms: N8_27  and  O3_29 
REMARK    9  A    between atoms: C13_33  and  N10_34 
REMARK   10  A    between atoms: C14_36  and  C15_37 
REMARK   11  A    between atoms: C15_37  and  O4_38 
ROOT
HETATM    1  C9  UNL     1     -24.937  31.279   2.158  1.00  0.00     0.139 C 
HETATM    2  N5  UNL     1     -25.280  31.804   3.279  1.00  0.00    -0.252 N 
ATOM      3  H5  UNL     1     -25.655  31.208   4.015  1.00  0.00     0.196 HD
ENDROOT
BRANCH   1   4
HETATM    4  N4  UNL     1     -24.420  32.130   1.151  1.00  0.00    -0.357 N 
ATOM      5  H4  UNL     1     -25.053  32.605   0.508  1.00  0.00     0.162 HD
BRANCH   4   6
HETATM    6  C8  UNL     1     -23.012  32.320   1.039  1.00  0.00     0.254 C 
BRANCH   6   7
HETATM    7  N3  UNL     1     -22.450  31.648  -0.125  1.00  0.00    -0.328 N 
HETATM    8  C2  UNL     1     -21.185  31.689  -0.570  1.00  0.00     0.042 A 
HETATM    9  C1  UNL     1     -20.054  32.434   0.028  1.00  0.00     0.071 C 
HETATM   10  C3  UNL     1     -21.041  30.908  -1.723  1.00  0.00     0.124 A 
HETATM   11  N2  UNL     1     -22.268  30.410  -1.935  1.00  0.00    -0.346 N 
HETATM   12  C7  UNL     1     -23.112  30.846  -0.987  1.00  0.00     0.185 A 
ATOM     13  H2  UNL     1     -22.523  29.789  -2.704  1.00  0.00     0.167 HD
BRANCH  10  14
HETATM   14  C4  UNL     1     -19.811  30.716  -2.483  1.00  0.00     0.271 C 
HETATM   15  O1  UNL     1     -19.032  29.757  -2.265  1.00  0.00    -0.266 OA
HETATM   16  N1  UNL     1     -19.461  31.629  -3.508  1.00  0.00    -0.355 N 
HETATM   17  C5  UNL     1     -18.224  31.432  -4.268  1.00  0.00     0.152 C 
HETATM   18  C6  UNL     1     -20.274  32.775  -3.856  1.00  0.00     0.152 C 
ENDBRANCH  10  14
ENDBRANCH   6   7
ENDBRANCH   4   6
ENDBRANCH   1   4
BRANCH   1  19
HETATM   19  C10 UNL     1     -25.074  29.850   1.896  1.00  0.00     0.096 A 
HETATM   20  C11 UNL     1     -26.140  29.295   1.276  1.00  0.00     0.149 A 
HETATM   21  N6  UNL     1     -27.220  30.121   0.822  1.00  0.00    -0.081 NA
HETATM   22  N7  UNL     1     -26.185  27.956   1.077  1.00  0.00    -0.176 N 
HETATM   23  C12 UNL     1     -25.193  27.151   1.483  1.00  0.00     0.704 A 
ATOM     24  H7  UNL     1     -26.994  27.550   0.609  1.00  0.00     0.185 HD
HETATM   25  N9  UNL     1     -24.124  27.667   2.100  1.00  0.00    -0.174 N 
HETATM   26  C13 UNL     1     -24.019  29.007   2.328  1.00  0.00     0.138 A 
ATOM     27  H9  UNL     1     -23.375  27.045   2.406  1.00  0.00     0.186 HD
BRANCH  23  28
HETATM   28  N8  UNL     1     -25.250  25.862   1.286  1.00  0.00    -0.098 N 
ATOM     29  H8  UNL     1     -24.722  25.248   1.907  1.00  0.00     0.213 HD
BRANCH  28  30
HETATM   30  O3  UNL     1     -25.982  25.307   0.289  1.00  0.00    -0.276 OA
ATOM     31  H3  UNL     1     -26.488  24.511   0.407  1.00  0.00     0.245 HD
ENDBRANCH  28  30
ENDBRANCH  23  28
BRANCH  26  32
HETATM   32  N10 UNL     1     -23.062  29.546   2.890  1.00  0.00    -0.353 N 
HETATM   33  C14 UNL     1     -22.397  29.836   4.041  1.00  0.00     0.088 C 
ATOM     34  H10 UNL     1     -22.514  29.973   2.144  1.00  0.00     0.166 HD
BRANCH  33  35
HETATM   35  C15 UNL     1     -23.032  29.337   5.327  1.00  0.00     0.208 C 
BRANCH  35  36
HETATM   36  O4  UNL     1     -24.094  30.231   5.598  1.00  0.00    -0.396 OA
ATOM     37  H4  UNL     1     -23.986  30.489   6.505  1.00  0.00     0.209 HD
ENDBRANCH  35  36
ENDBRANCH  33  35
ENDBRANCH  26  32
ENDBRANCH   1  19
BRANCH   2  38
HETATM   38  O2  UNL     1     -25.152  33.149   3.503  1.00  0.00    -0.288 OA
ATOM     39  H2  UNL     1     -24.623  33.481   4.219  1.00  0.00     0.244 HD
ENDBRANCH   2  38
TORSDOF 11
ENDMDL
MODEL 4
REMARK VINA RESULT: -6.111733984      0.821      1.110
REMARK  11 active torsions:
REMARK  status: ('A' for Active; 'I' for Inactive)
REMARK    1  A    between atoms: C3_3  and  C4_4 
REMARK       I    between atoms: C4_4  and  N1_6 
REMARK    2  A    between atoms: N3_12  and  C8_13 
REMARK    3  A    between atoms: C8_13  and  N4_14 
REMARK    4  A    between atoms: N4_14  and  C9_16 
REMARK    5  A    between atoms: C9_16  and  C10_21 
REMARK    6  A    between atoms: N5_17  and  O2_19 
REMARK    7  A    between atoms: C12_26  and  N8_27 
REMARK    8  A    between atoms: N8_27  and  O3_29 
REMARK    9  A    between atoms: C13_33  and  N10_34 
REMARK   10  A    between atoms: C14_36  and  C15_37 
REMARK   11  A    between atoms: C15_37  and  O4_38 
ROOT
HETATM    1  C9  UNL     1     -26.444  29.221   0.850  1.00  0.00     0.139 C 
HETATM    2  N5  UNL     1     -27.537  28.548   0.815  1.00  0.00    -0.252 N 
ATOM      3  H5  UNL     1     -27.760  27.916   1.584  1.00  0.00     0.196 HD
ENDROOT
BRANCH   1   4
HETATM    4  N4  UNL     1     -26.157  30.090  -0.230  1.00  0.00    -0.357 N 
ATOM      5  H4  UNL     1     -26.420  29.828  -1.180  1.00  0.00     0.162 HD
BRANCH   4   6
HETATM    6  C8  UNL     1     -25.501  31.330   0.014  1.00  0.00     0.254 C 
BRANCH   6   7
HETATM    7  N3  UNL     1     -24.239  31.443  -0.705  1.00  0.00    -0.328 N 
HETATM    8  C2  UNL     1     -22.998  31.449  -0.196  1.00  0.00     0.042 A 
HETATM    9  C1  UNL     1     -22.620  31.339   1.231  1.00  0.00     0.071 C 
HETATM   10  C3  UNL     1     -22.046  31.576  -1.215  1.00  0.00     0.124 A 
HETATM   11  N2  UNL     1     -22.777  31.644  -2.338  1.00  0.00    -0.346 N 
HETATM   12  C7  UNL     1     -24.083  31.565  -2.041  1.00  0.00     0.185 A 
ATOM     13  H2  UNL     1     -22.396  31.741  -3.279  1.00  0.00     0.167 HD
BRANCH  10  14
HETATM   14  C4  UNL     1     -20.599  31.620  -1.039  1.00  0.00     0.271 C 
HETATM   15  O1  UNL     1     -19.875  30.604  -1.180  1.00  0.00    -0.266 OA
HETATM   16  N1  UNL     1     -19.963  32.839  -0.698  1.00  0.00    -0.355 N 
HETATM   17  C5  UNL     1     -18.508  32.878  -0.523  1.00  0.00     0.152 C 
HETATM   18  C6  UNL     1     -20.683  34.080  -0.509  1.00  0.00     0.152 C 
ENDBRANCH  10  14
ENDBRANCH   6   7
ENDBRANCH   4   6
ENDBRANCH   1   4
BRANCH   1  19
HETATM   19  C10 UNL     1     -25.499  29.108   1.957  1.00  0.00     0.096 A 
HETATM   20  C11 UNL     1     -25.632  29.764   3.133  1.00  0.00     0.149 A 
HETATM   21  N6  UNL     1     -26.757  30.624   3.354  1.00  0.00    -0.081 NA
HETATM   22  N7  UNL     1     -24.704  29.603   4.105  1.00  0.00    -0.176 N 
HETATM   23  C12 UNL     1     -23.641  28.804   3.937  1.00  0.00     0.704 A 
ATOM     24  H7  UNL     1     -24.816  30.102   4.987  1.00  0.00     0.185 HD
HETATM   25  N9  UNL     1     -23.478  28.142   2.787  1.00  0.00    -0.174 N 
HETATM   26  C13 UNL     1     -24.379  28.261   1.770  1.00  0.00     0.138 A 
ATOM     27  H9  UNL     1     -22.664  27.537   2.668  1.00  0.00     0.186 HD
BRANCH  23  28
HETATM   28  N8  UNL     1     -22.752  28.659   4.882  1.00  0.00    -0.098 N 
ATOM     29  H8  UNL     1     -21.974  28.017   4.729  1.00  0.00     0.213 HD
BRANCH  28  30
HETATM   30  O3  UNL     1     -22.824  29.326   6.061  1.00  0.00    -0.276 OA
ATOM     31  H3  UNL     1     -22.052  29.628   6.526  1.00  0.00     0.245 HD
ENDBRANCH  28  30
ENDBRANCH  23  28
BRANCH  26  32
HETATM   32  N10 UNL     1     -24.287  27.679   0.686  1.00  0.00    -0.353 N 
HETATM   33  C14 UNL     1     -24.652  26.642  -0.117  1.00  0.00     0.088 C 
ATOM     34  H10 UNL     1     -23.633  28.233   0.134  1.00  0.00     0.166 HD
BRANCH  33  35
HETATM   35  C15 UNL     1     -25.610  25.631   0.486  1.00  0.00     0.208 C 
BRANCH  35  36
HETATM   36  O4  UNL     1     -26.834  25.810  -0.199  1.00  0.00    -0.396 OA
ATOM     37  H4  UNL     1     -27.363  25.052   0.019  1.00  0.00     0.209 HD
ENDBRANCH  35  36
ENDBRANCH  33  35
ENDBRANCH  26  32
ENDBRANCH   1  19
BRANCH   2  38
HETATM   38  O2  UNL     1     -28.408  28.661  -0.236  1.00  0.00    -0.288 OA
ATOM     39  H2  UNL     1     -28.272  28.181  -1.044  1.00  0.00     0.244 HD
ENDBRANCH   2  38
TORSDOF 11
ENDMDL
MODEL 5
REMARK VINA RESULT: -6.088631274      1.194      1.611
REMARK  11 active torsions:
REMARK  status: ('A' for Active; 'I' for Inactive)
REMARK    1  A    between atoms: C3_3  and  C4_4 
REMARK       I    between atoms: C4_4  and  N1_6 
REMARK    2  A    between atoms: N3_12  and  C8_13 
REMARK    3  A    between atoms: C8_13  and  N4_14 
REMARK    4  A    between atoms: N4_14  and  C9_16 
REMARK    5  A    between atoms: C9_16  and  C10_21 
REMARK    6  A    between atoms: N5_17  and  O2_19 
REMARK    7  A    between atoms: C12_26  and  N8_27 
REMARK    8  A    between atoms: N8_27  and  O3_29 
REMARK    9  A    between atoms: C13_33  and  N10_34 
REMARK   10  A    between atoms: C14_36  and  C15_37 
REMARK   11  A    between atoms: C15_37  and  O4_38 
ROOT
HETATM    1  C9  UNL     1     -26.365  29.145   0.774  1.00  0.00     0.139 C 
HETATM    2  N5  UNL     1     -27.508  28.560   0.774  1.00  0.00    -0.252 N 
ATOM      3  H5  UNL     1     -27.792  28.016   1.589  1.00  0.00     0.196 HD
ENDROOT
BRANCH   1   4
HETATM    4  N4  UNL     1     -25.996  29.893  -0.370  1.00  0.00    -0.357 N 
ATOM      5  H4  UNL     1     -26.135  29.502  -1.302  1.00  0.00     0.162 HD
BRANCH   4   6
HETATM    6  C8  UNL     1     -25.430  31.191  -0.215  1.00  0.00     0.254 C 
BRANCH   6   7
HETATM    7  N3  UNL     1     -23.978  31.184  -0.338  1.00  0.00    -0.328 N 
HETATM    8  C2  UNL     1     -23.244  30.870  -1.417  1.00  0.00     0.042 A 
HETATM    9  C1  UNL     1     -23.746  30.455  -2.746  1.00  0.00     0.071 C 
HETATM   10  C3  UNL     1     -21.878  30.985  -1.134  1.00  0.00     0.124 A 
HETATM   11  N2  UNL     1     -21.841  31.377   0.148  1.00  0.00    -0.346 N 
HETATM   12  C7  UNL     1     -23.089  31.498   0.627  1.00  0.00     0.185 A 
ATOM     13  H2  UNL     1     -20.990  31.558   0.681  1.00  0.00     0.167 HD
BRANCH  10  14
HETATM   14  C4  UNL     1     -20.783  30.723  -2.063  1.00  0.00     0.271 C 
HETATM   15  O1  UNL     1     -20.329  29.568  -2.253  1.00  0.00    -0.266 OA
HETATM   16  N1  UNL     1     -20.198  31.789  -2.787  1.00  0.00    -0.355 N 
HETATM   17  C5  UNL     1     -19.100  31.520  -3.720  1.00  0.00     0.152 C 
HETATM   18  C6  UNL     1     -20.631  33.164  -2.658  1.00  0.00     0.152 C 
ENDBRANCH  10  14
ENDBRANCH   6   7
ENDBRANCH   4   6
ENDBRANCH   1   4
BRANCH   1  19
HETATM   19  C10 UNL     1     -25.447  29.054   1.905  1.00  0.00     0.096 A 
HETATM   20  C11 UNL     1     -25.597  29.746   3.057  1.00  0.00     0.149 A 
HETATM   21  N6  UNL     1     -26.715  30.627   3.228  1.00  0.00    -0.081 NA
HETATM   22  N7  UNL     1     -24.693  29.603   4.055  1.00  0.00    -0.176 N 
HETATM   23  C12 UNL     1     -23.637  28.786   3.935  1.00  0.00     0.704 A 
ATOM     24  H7  UNL     1     -24.818  30.130   4.918  1.00  0.00     0.185 HD
HETATM   25  N9  UNL     1     -23.458  28.087   2.809  1.00  0.00    -0.174 N 
HETATM   26  C13 UNL     1     -24.334  28.187   1.769  1.00  0.00     0.138 A 
ATOM     27  H9  UNL     1     -22.650  27.468   2.727  1.00  0.00     0.186 HD
BRANCH  23  28
HETATM   28  N8  UNL     1     -22.772  28.657   4.904  1.00  0.00    -0.098 N 
ATOM     29  H8  UNL     1     -22.005  27.994   4.792  1.00  0.00     0.213 HD
BRANCH  28  30
HETATM   30  O3  UNL     1     -22.853  29.371   6.055  1.00  0.00    -0.276 OA
ATOM     31  H3  UNL     1     -22.436  29.090   6.861  1.00  0.00     0.245 HD
ENDBRANCH  28  30
ENDBRANCH  23  28
BRANCH  26  32
HETATM   32  N10 UNL     1     -24.227  27.571   0.705  1.00  0.00    -0.353 N 
HETATM   33  C14 UNL     1     -24.609  26.533  -0.087  1.00  0.00     0.088 C 
ATOM     34  H10 UNL     1     -23.521  28.076   0.169  1.00  0.00     0.166 HD
BRANCH  33  35
HETATM   35  C15 UNL     1     -25.643  25.588   0.499  1.00  0.00     0.208 C 
BRANCH  35  36
HETATM   36  O4  UNL     1     -26.818  25.790  -0.262  1.00  0.00    -0.396 OA
ATOM     37  H4  UNL     1     -27.537  25.729   0.356  1.00  0.00     0.209 HD
ENDBRANCH  35  36
ENDBRANCH  33  35
ENDBRANCH  26  32
ENDBRANCH   1  19
BRANCH   2  38
HETATM   38  O2  UNL     1     -28.354  28.651  -0.299  1.00  0.00    -0.288 OA
ATOM     39  H2  UNL     1     -28.957  29.379  -0.391  1.00  0.00     0.244 HD
ENDBRANCH   2  38
TORSDOF 11
ENDMDL
