MODEL 1
REMARK VINA RESULT: -7.837216619      0.000      0.000
REMARK  8 active torsions:
REMARK  status: ('A' for Active; 'I' for Inactive)
REMARK    1  A    between atoms: S1_2  and  C2_3 
REMARK    2  A    between atoms: C2_3  and  C3_4 
REMARK       I    between atoms: C3_4  and  N1_6 
REMARK    3  A    between atoms: N1_6  and  N2_8 
REMARK       I    between atoms: N2_8  and  C4_10 
REMARK    4  A    between atoms: C4_10  and  C5_12 
REMARK    5  A    between atoms: C7_19  and  N5_20 
REMARK    6  A    between atoms: N5_20  and  N6_22 
REMARK    7  A    between atoms: C10_27  and  C11_28 
REMARK    8  A    between atoms: C11_28  and  C12_29 
ROOT
HETATM    1  C5  UNL     1     -23.078  21.758  -2.409  1.00  0.00     0.394 C 
HETATM    2  N3  UNL     1     -22.778  21.274  -1.091  1.00  0.00    -0.029 N 
ATOM      3  H31 UNL     1     -21.832  21.526  -0.804  1.00  0.00     0.282 HD
ATOM      4  H32 UNL     1     -22.680  20.259  -1.076  1.00  0.00     0.282 HD
HETATM    5  C6  UNL     1     -23.761  21.726  -0.137  1.00  0.00     0.374 C 
HETATM    6  N4  UNL     1     -23.833  23.168  -0.161  1.00  0.00    -0.201 N 
ATOM      7  H4  UNL     1     -24.023  23.646   0.720  1.00  0.00     0.179 HD
HETATM    8  C7  UNL     1     -23.675  23.892  -1.206  1.00  0.00     0.693 C 
HETATM    9  N11 UNL     1     -23.425  23.170  -2.428  1.00  0.00    -0.187 N 
ATOM     10  H11 UNL     1     -23.492  23.658  -3.322  1.00  0.00     0.180 HD
ENDROOT
BRANCH   8  11
HETATM   11  N5  UNL     1     -23.756  25.296  -1.172  1.00  0.00    -0.112 N 
ATOM     12  H5  UNL     1     -23.140  25.827  -1.788  1.00  0.00     0.207 HD
BRANCH  11  13
HETATM   13  N6  UNL     1     -24.615  25.998  -0.359  1.00  0.00    -0.191 N 
HETATM   14  C8  UNL     1     -25.898  26.274  -0.604  1.00  0.00     0.154 A 
HETATM   15  C9  UNL     1     -26.697  27.016   0.272  1.00  0.00     0.110 A 
HETATM   16  N7  UNL     1     -26.108  27.451   1.396  1.00  0.00    -0.353 N 
HETATM   17  C10 UNL     1     -24.813  27.190   1.675  1.00  0.00     0.103 A 
ATOM     18  H7  UNL     1     -26.655  27.995   2.063  1.00  0.00     0.166 HD
HETATM   19  N10 UNL     1     -24.112  26.472   0.787  1.00  0.00    -0.267 N 
ATOM     20  H10 UNL     1     -23.134  26.274   0.997  1.00  0.00     0.190 HD
BRANCH  17  21
HETATM   21  C11 UNL     1     -24.181  27.688   2.923  1.00  0.00     0.136 C 
BRANCH  21  22
HETATM   22  C12 UNL     1     -24.080  29.149   2.982  1.00  0.00     0.032 A 
HETATM   23  C13 UNL     1     -24.691  29.984   3.886  1.00  0.00     0.114 A 
HETATM   24  N8  UNL     1     -24.362  31.262   3.625  1.00  0.00    -0.360 N 
HETATM   25  C14 UNL     1     -23.545  31.244   2.560  1.00  0.00     0.180 A 
ATOM     26  H8  UNL     1     -24.674  32.087   4.137  1.00  0.00     0.166 HD
HETATM   27  N9  UNL     1     -23.375  29.940   2.169  1.00  0.00    -0.354 N 
ATOM     28  H9  UNL     1     -22.803  29.625   1.385  1.00  0.00     0.166 HD
ENDBRANCH  21  22
ENDBRANCH  17  21
ENDBRANCH  11  13
ENDBRANCH   8  11
BRANCH   1  29
HETATM   29  C4  UNL     1     -24.116  20.897  -3.028  1.00  0.00     0.287 C 
HETATM   30  N2  UNL     1     -24.013  19.474  -2.999  1.00  0.00    -0.264 N 
ATOM     31  H2  UNL     1     -23.225  19.011  -2.547  1.00  0.00     0.190 HD
HETATM   32  O2  UNL     1     -25.100  21.447  -3.588  1.00  0.00    -0.267 OA
BRANCH  30  33
HETATM   33  N1  UNL     1     -25.029  18.738  -3.610  1.00  0.00    -0.267 N 
HETATM   34  C3  UNL     1     -26.026  18.087  -2.832  1.00  0.00     0.245 C 
HETATM   35  O1  UNL     1     -25.944  18.214  -1.559  1.00  0.00    -0.271 OA
ATOM     36  H1  UNL     1     -25.056  18.666  -4.628  1.00  0.00     0.190 HD
BRANCH  34  37
HETATM   37  C2  UNL     1     -27.126  17.287  -3.386  1.00  0.00     0.177 C 
BRANCH  37  38
HETATM   38  S1  UNL     1     -28.562  18.312  -3.743  1.00  0.00    -0.164 SA
HETATM   39  C1  UNL     1     -30.056  17.314  -3.880  1.00  0.00     0.090 C 
ENDBRANCH  37  38
ENDBRANCH  34  37
ENDBRANCH  30  33
ENDBRANCH   1  29
TORSDOF 8
ENDMDL
MODEL 2
REMARK VINA RESULT: -7.530378781      2.833      4.915
REMARK  8 active torsions:
REMARK  status: ('A' for Active; 'I' for Inactive)
REMARK    1  A    between atoms: S1_2  and  C2_3 
REMARK    2  A    between atoms: C2_3  and  C3_4 
REMARK       I    between atoms: C3_4  and  N1_6 
REMARK    3  A    between atoms: N1_6  and  N2_8 
REMARK       I    between atoms: N2_8  and  C4_10 
REMARK    4  A    between atoms: C4_10  and  C5_12 
REMARK    5  A    between atoms: C7_19  and  N5_20 
REMARK    6  A    between atoms: N5_20  and  N6_22 
REMARK    7  A    between atoms: C10_27  and  C11_28 
REMARK    8  A    between atoms: C11_28  and  C12_29 
ROOT
HETATM    1  C5  UNL     1     -24.769  26.667   0.036  1.00  0.00     0.394 C 
HETATM    2  N3  UNL     1     -25.707  26.256   1.043  1.00  0.00    -0.029 N 
ATOM      3  H31 UNL     1     -25.697  26.886   1.845  1.00  0.00     0.282 HD
ATOM      4  H32 UNL     1     -25.406  25.402   1.511  1.00  0.00     0.282 HD
HETATM    5  C6  UNL     1     -27.032  26.120   0.490  1.00  0.00     0.374 C 
HETATM    6  N4  UNL     1     -27.433  27.366  -0.121  1.00  0.00    -0.201 N 
ATOM      7  H4  UNL     1     -28.419  27.621  -0.069  1.00  0.00     0.179 HD
HETATM    8  C7  UNL     1     -26.643  28.174  -0.724  1.00  0.00     0.693 C 
HETATM    9  N11 UNL     1     -25.264  27.760  -0.786  1.00  0.00    -0.187 N 
ATOM     10  H11 UNL     1     -24.623  28.243  -1.417  1.00  0.00     0.180 HD
ENDROOT
BRANCH   8  11
HETATM   11  N5  UNL     1     -27.089  29.376  -1.303  1.00  0.00    -0.112 N 
ATOM     12  H5  UNL     1     -27.348  29.364  -2.290  1.00  0.00     0.207 HD
BRANCH  11  13
HETATM   13  N6  UNL     1     -27.198  30.565  -0.622  1.00  0.00    -0.191 N 
HETATM   14  C8  UNL     1     -27.870  31.650  -1.014  1.00  0.00     0.154 A 
HETATM   15  C9  UNL     1     -27.911  32.831  -0.266  1.00  0.00     0.110 A 
HETATM   16  N7  UNL     1     -27.231  32.830   0.891  1.00  0.00    -0.353 N 
HETATM   17  C10 UNL     1     -26.540  31.751   1.316  1.00  0.00     0.103 A 
ATOM     18  H7  UNL     1     -27.235  33.672   1.467  1.00  0.00     0.166 HD
HETATM   19  N10 UNL     1     -26.549  30.656   0.544  1.00  0.00    -0.267 N 
ATOM     20  H10 UNL     1     -26.029  29.840   0.866  1.00  0.00     0.190 HD
BRANCH  17  21
HETATM   21  C11 UNL     1     -25.789  31.776   2.597  1.00  0.00     0.136 C 
BRANCH  21  22
HETATM   22  C12 UNL     1     -24.936  30.601   2.795  1.00  0.00     0.032 A 
HETATM   23  C13 UNL     1     -23.648  30.429   2.349  1.00  0.00     0.114 A 
HETATM   24  N8  UNL     1     -23.190  29.221   2.724  1.00  0.00    -0.360 N 
HETATM   25  C14 UNL     1     -24.180  28.624   3.407  1.00  0.00     0.180 A 
ATOM     26  H8  UNL     1     -22.268  28.833   2.528  1.00  0.00     0.166 HD
HETATM   27  N9  UNL     1     -25.252  29.479   3.447  1.00  0.00    -0.354 N 
ATOM     28  H9  UNL     1     -26.145  29.289   3.902  1.00  0.00     0.166 HD
ENDBRANCH  21  22
ENDBRANCH  17  21
ENDBRANCH  11  13
ENDBRANCH   8  11
BRANCH   1  29
HETATM   29  C4  UNL     1     -24.347  25.488  -0.759  1.00  0.00     0.287 C 
HETATM   30  N2  UNL     1     -23.963  24.267  -0.128  1.00  0.00    -0.264 N 
ATOM     31  H2  UNL     1     -23.974  24.172   0.888  1.00  0.00     0.190 HD
HETATM   32  O2  UNL     1     -24.331  25.582  -2.013  1.00  0.00    -0.267 OA
BRANCH  30  33
HETATM   33  N1  UNL     1     -23.573  23.208  -0.948  1.00  0.00    -0.267 N 
HETATM   34  C3  UNL     1     -23.445  21.891  -0.425  1.00  0.00     0.245 C 
HETATM   35  O1  UNL     1     -23.707  21.732   0.820  1.00  0.00    -0.271 OA
ATOM     36  H1  UNL     1     -23.378  23.380  -1.935  1.00  0.00     0.190 HD
BRANCH  34  37
HETATM   37  C2  UNL     1     -23.036  20.719  -1.209  1.00  0.00     0.177 C 
BRANCH  37  38
HETATM   38  S1  UNL     1     -24.291  20.273  -2.420  1.00  0.00    -0.164 SA
HETATM   39  C1  UNL     1     -25.551  19.212  -1.690  1.00  0.00     0.090 C 
ENDBRANCH  37  38
ENDBRANCH  34  37
ENDBRANCH  30  33
ENDBRANCH   1  29
TORSDOF 8
ENDMDL
MODEL 3
REMARK VINA RESULT: -7.427896800      2.894      5.075
REMARK  8 active torsions:
REMARK  status: ('A' for Active; 'I' for Inactive)
REMARK    1  A    between atoms: S1_2  and  C2_3 
REMARK    2  A    between atoms: C2_3  and  C3_4 
REMARK       I    between atoms: C3_4  and  N1_6 
REMARK    3  A    between atoms: N1_6  and  N2_8 
REMARK       I    between atoms: N2_8  and  C4_10 
REMARK    4  A    between atoms: C4_10  and  C5_12 
REMARK    5  A    between atoms: C7_19  and  N5_20 
REMARK    6  A    between atoms: N5_20  and  N6_22 
REMARK    7  A    between atoms: C10_27  and  C11_28 
REMARK    8  A    between atoms: C11_28  and  C12_29 
ROOT
HETATM    1  C5  UNL     1     -24.751  26.582   0.820  1.00  0.00     0.394 C 
HETATM    2  N3  UNL     1     -26.027  26.094   1.264  1.00  0.00    -0.029 N 
ATOM      3  H31 UNL     1     -26.290  26.495   2.165  1.00  0.00     0.282 HD
ATOM      4  H32 UNL     1     -25.980  25.113   1.538  1.00  0.00     0.282 HD
HETATM    5  C6  UNL     1     -27.043  26.318   0.266  1.00  0.00     0.374 C 
HETATM    6  N4  UNL     1     -27.104  27.725  -0.057  1.00  0.00    -0.201 N 
ATOM      7  H4  UNL     1     -28.018  28.118  -0.284  1.00  0.00     0.179 HD
HETATM    8  C7  UNL     1     -26.097  28.516  -0.078  1.00  0.00     0.693 C 
HETATM    9  N11 UNL     1     -24.827  27.910   0.233  1.00  0.00    -0.187 N 
ATOM     10  H11 UNL     1     -23.965  28.422   0.039  1.00  0.00     0.180 HD
ENDROOT
BRANCH   8  11
HETATM   11  N5  UNL     1     -26.215  29.880  -0.401  1.00  0.00    -0.112 N 
ATOM     12  H5  UNL     1     -26.323  30.132  -1.384  1.00  0.00     0.207 HD
BRANCH  11  13
HETATM   13  N6  UNL     1     -26.193  30.896   0.526  1.00  0.00    -0.191 N 
HETATM   14  C8  UNL     1     -26.406  32.193   0.293  1.00  0.00     0.154 A 
HETATM   15  C9  UNL     1     -26.343  33.166   1.296  1.00  0.00     0.110 A 
HETATM   16  N7  UNL     1     -26.053  32.733   2.532  1.00  0.00    -0.353 N 
HETATM   17  C10 UNL     1     -25.830  31.429   2.802  1.00  0.00     0.103 A 
ATOM     18  H7  UNL     1     -25.997  33.410   3.293  1.00  0.00     0.166 HD
HETATM   19  N10 UNL     1     -25.909  30.556   1.789  1.00  0.00    -0.267 N 
ATOM     20  H10 UNL     1     -25.743  29.571   1.992  1.00  0.00     0.190 HD
BRANCH  17  21
HETATM   21  C11 UNL     1     -25.503  30.975   4.177  1.00  0.00     0.136 C 
BRANCH  21  22
HETATM   22  C12 UNL     1     -24.169  30.378   4.291  1.00  0.00     0.032 A 
HETATM   23  C13 UNL     1     -23.836  29.057   4.114  1.00  0.00     0.114 A 
HETATM   24  N8  UNL     1     -22.515  28.888   4.301  1.00  0.00    -0.360 N 
HETATM   25  C14 UNL     1     -22.005  30.095   4.597  1.00  0.00     0.180 A 
ATOM     26  H8  UNL     1     -21.998  28.011   4.232  1.00  0.00     0.166 HD
HETATM   27  N9  UNL     1     -23.030  31.008   4.589  1.00  0.00    -0.354 N 
ATOM     28  H9  UNL     1     -22.936  32.005   4.779  1.00  0.00     0.166 HD
ENDBRANCH  21  22
ENDBRANCH  17  21
ENDBRANCH  11  13
ENDBRANCH   8  11
BRANCH   1  29
HETATM   29  C4  UNL     1     -24.125  25.583  -0.082  1.00  0.00     0.287 C 
HETATM   30  N2  UNL     1     -24.288  24.183   0.137  1.00  0.00    -0.264 N 
ATOM     31  H2  UNL     1     -24.844  23.831   0.917  1.00  0.00     0.190 HD
HETATM   32  O2  UNL     1     -23.440  25.995  -1.052  1.00  0.00    -0.267 OA
BRANCH  30  33
HETATM   33  N1  UNL     1     -23.661  23.311  -0.753  1.00  0.00    -0.267 N 
HETATM   34  C3  UNL     1     -23.382  21.966  -0.381  1.00  0.00     0.245 C 
HETATM   35  O1  UNL     1     -23.736  21.604   0.797  1.00  0.00    -0.271 OA
ATOM     36  H1  UNL     1     -23.400  23.641  -1.683  1.00  0.00     0.190 HD
BRANCH  34  37
HETATM   37  C2  UNL     1     -22.722  20.981  -1.248  1.00  0.00     0.177 C 
BRANCH  37  38
HETATM   38  S1  UNL     1     -23.909  19.812  -1.928  1.00  0.00    -0.164 SA
HETATM   39  C1  UNL     1     -24.582  20.403  -3.492  1.00  0.00     0.090 C 
ENDBRANCH  37  38
ENDBRANCH  34  37
ENDBRANCH  30  33
ENDBRANCH   1  29
TORSDOF 8
ENDMDL
MODEL 4
REMARK VINA RESULT: -7.389761538      2.961      5.209
REMARK  8 active torsions:
REMARK  status: ('A' for Active; 'I' for Inactive)
REMARK    1  A    between atoms: S1_2  and  C2_3 
REMARK    2  A    between atoms: C2_3  and  C3_4 
REMARK       I    between atoms: C3_4  and  N1_6 
REMARK    3  A    between atoms: N1_6  and  N2_8 
REMARK       I    between atoms: N2_8  and  C4_10 
REMARK    4  A    between atoms: C4_10  and  C5_12 
REMARK    5  A    between atoms: C7_19  and  N5_20 
REMARK    6  A    between atoms: N5_20  and  N6_22 
REMARK    7  A    between atoms: C10_27  and  C11_28 
REMARK    8  A    between atoms: C11_28  and  C12_29 
ROOT
HETATM    1  C5  UNL     1     -24.628  26.675   0.792  1.00  0.00     0.394 C 
HETATM    2  N3  UNL     1     -25.934  26.261   1.225  1.00  0.00    -0.029 N 
ATOM      3  H31 UNL     1     -26.187  26.688   2.116  1.00  0.00     0.282 HD
ATOM      4  H32 UNL     1     -25.942  25.283   1.513  1.00  0.00     0.282 HD
HETATM    5  C6  UNL     1     -26.923  26.524   0.209  1.00  0.00     0.374 C 
HETATM    6  N4  UNL     1     -26.906  27.927  -0.133  1.00  0.00    -0.201 N 
ATOM      7  H4  UNL     1     -27.794  28.364  -0.379  1.00  0.00     0.179 HD
HETATM    8  C7  UNL     1     -25.858  28.664  -0.152  1.00  0.00     0.693 C 
HETATM    9  N11 UNL     1     -24.626  27.997   0.186  1.00  0.00    -0.187 N 
ATOM     10  H11 UNL     1     -23.736  28.459  -0.004  1.00  0.00     0.180 HD
ENDROOT
BRANCH   8  11
HETATM   11  N5  UNL     1     -25.899  30.028  -0.495  1.00  0.00    -0.112 N 
ATOM     12  H5  UNL     1     -26.703  30.364  -1.025  1.00  0.00     0.207 HD
BRANCH  11  13
HETATM   13  N6  UNL     1     -24.922  30.936  -0.160  1.00  0.00    -0.191 N 
HETATM   14  C8  UNL     1     -24.069  31.534  -0.996  1.00  0.00     0.154 A 
HETATM   15  C9  UNL     1     -23.088  32.433  -0.566  1.00  0.00     0.110 A 
HETATM   16  N7  UNL     1     -23.038  32.677   0.753  1.00  0.00    -0.353 N 
HETATM   17  C10 UNL     1     -23.884  32.090   1.625  1.00  0.00     0.103 A 
ATOM     18  H7  UNL     1     -22.337  33.328   1.108  1.00  0.00     0.166 HD
HETATM   19  N10 UNL     1     -24.798  31.240   1.137  1.00  0.00    -0.267 N 
ATOM     20  H10 UNL     1     -25.439  30.797   1.795  1.00  0.00     0.190 HD
BRANCH  17  21
HETATM   21  C11 UNL     1     -23.804  32.371   3.080  1.00  0.00     0.136 C 
BRANCH  21  22
HETATM   22  C12 UNL     1     -23.296  31.241   3.865  1.00  0.00     0.032 A 
HETATM   23  C13 UNL     1     -22.064  30.645   3.754  1.00  0.00     0.114 A 
HETATM   24  N8  UNL     1     -21.959  29.639   4.641  1.00  0.00    -0.360 N 
HETATM   25  C14 UNL     1     -23.119  29.593   5.316  1.00  0.00     0.180 A 
ATOM     26  H8  UNL     1     -21.154  29.029   4.776  1.00  0.00     0.166 HD
HETATM   27  N9  UNL     1     -23.938  30.582   4.833  1.00  0.00    -0.354 N 
ATOM     28  H9  UNL     1     -24.883  30.782   5.161  1.00  0.00     0.166 HD
ENDBRANCH  21  22
ENDBRANCH  17  21
ENDBRANCH  11  13
ENDBRANCH   8  11
BRANCH   1  29
HETATM   29  C4  UNL     1     -24.044  25.632  -0.087  1.00  0.00     0.287 C 
HETATM   30  N2  UNL     1     -24.299  24.246   0.137  1.00  0.00    -0.264 N 
ATOM     31  H2  UNL     1     -24.895  23.936   0.906  1.00  0.00     0.190 HD
HETATM   32  O2  UNL     1     -23.310  25.991  -1.043  1.00  0.00    -0.267 OA
BRANCH  30  33
HETATM   33  N1  UNL     1     -23.706  23.329  -0.731  1.00  0.00    -0.267 N 
HETATM   34  C3  UNL     1     -23.410  22.005  -0.302  1.00  0.00     0.245 C 
HETATM   35  O1  UNL     1     -23.717  21.704   0.906  1.00  0.00    -0.271 OA
ATOM     36  H1  UNL     1     -23.483  23.611  -1.686  1.00  0.00     0.190 HD
BRANCH  34  37
HETATM   37  C2  UNL     1     -22.783  20.977  -1.142  1.00  0.00     0.177 C 
BRANCH  37  38
HETATM   38  S1  UNL     1     -24.021  19.935  -1.930  1.00  0.00    -0.164 SA
HETATM   39  C1  UNL     1     -24.498  20.593  -3.538  1.00  0.00     0.090 C 
ENDBRANCH  37  38
ENDBRANCH  34  37
ENDBRANCH  30  33
ENDBRANCH   1  29
TORSDOF 8
ENDMDL
MODEL 5
REMARK VINA RESULT: -7.268319080      1.069      1.201
REMARK  8 active torsions:
REMARK  status: ('A' for Active; 'I' for Inactive)
REMARK    1  A    between atoms: S1_2  and  C2_3 
REMARK    2  A    between atoms: C2_3  and  C3_4 
REMARK       I    between atoms: C3_4  and  N1_6 
REMARK    3  A    between atoms: N1_6  and  N2_8 
REMARK       I    between atoms: N2_8  and  C4_10 
REMARK    4  A    between atoms: C4_10  and  C5_12 
REMARK    5  A    between atoms: C7_19  and  N5_20 
REMARK    6  A    between atoms: N5_20  and  N6_22 
REMARK    7  A    between atoms: C10_27  and  C11_28 
REMARK    8  A    between atoms: C11_28  and  C12_29 
ROOT
HETATM    1  C5  UNL     1     -22.963  21.852  -2.339  1.00  0.00     0.394 C 
HETATM    2  N3  UNL     1     -22.749  21.189  -1.084  1.00  0.00    -0.029 N 
ATOM      3  H31 UNL     1     -21.811  21.364  -0.722  1.00  0.00     0.282 HD
ATOM      4  H32 UNL     1     -22.685  20.178  -1.199  1.00  0.00     0.282 HD
HETATM    5  C6  UNL     1     -23.764  21.552  -0.126  1.00  0.00     0.374 C 
HETATM    6  N4  UNL     1     -23.786  22.986   0.038  1.00  0.00    -0.201 N 
ATOM      7  H4  UNL     1     -24.006  23.352   0.964  1.00  0.00     0.179 HD
HETATM    8  C7  UNL     1     -23.550  23.834  -0.894  1.00  0.00     0.693 C 
HETATM    9  N11 UNL     1     -23.261  23.268  -2.187  1.00  0.00    -0.187 N 
ATOM     10  H11 UNL     1     -23.265  23.870  -3.011  1.00  0.00     0.180 HD
ENDROOT
BRANCH   8  11
HETATM   11  N5  UNL     1     -23.586  25.224  -0.677  1.00  0.00    -0.112 N 
ATOM     12  H5  UNL     1     -22.765  25.770  -0.940  1.00  0.00     0.207 HD
BRANCH  11  13
HETATM   13  N6  UNL     1     -24.658  25.891  -0.134  1.00  0.00    -0.191 N 
HETATM   14  C8  UNL     1     -25.944  25.733  -0.459  1.00  0.00     0.154 A 
HETATM   15  C9  UNL     1     -26.974  26.472   0.131  1.00  0.00     0.110 A 
HETATM   16  N7  UNL     1     -26.609  27.369   1.061  1.00  0.00    -0.353 N 
HETATM   17  C10 UNL     1     -25.320  27.554   1.413  1.00  0.00     0.103 A 
ATOM     18  H7  UNL     1     -27.330  27.928   1.516  1.00  0.00     0.166 HD
HETATM   19  N10 UNL     1     -24.389  26.807   0.803  1.00  0.00    -0.267 N 
ATOM     20  H10 UNL     1     -23.415  26.946   1.069  1.00  0.00     0.190 HD
BRANCH  17  21
HETATM   21  C11 UNL     1     -24.940  28.558   2.439  1.00  0.00     0.136 C 
BRANCH  21  22
HETATM   22  C12 UNL     1     -24.266  29.734   1.883  1.00  0.00     0.032 A 
HETATM   23  C13 UNL     1     -24.785  30.641   0.991  1.00  0.00     0.114 A 
HETATM   24  N8  UNL     1     -23.868  31.585   0.711  1.00  0.00    -0.360 N 
HETATM   25  C14 UNL     1     -22.769  31.284   1.420  1.00  0.00     0.180 A 
ATOM     26  H8  UNL     1     -23.986  32.378   0.081  1.00  0.00     0.166 HD
HETATM   27  N9  UNL     1     -23.020  30.143   2.140  1.00  0.00    -0.354 N 
ATOM     28  H9  UNL     1     -22.363  29.682   2.769  1.00  0.00     0.166 HD
ENDBRANCH  21  22
ENDBRANCH  17  21
ENDBRANCH  11  13
ENDBRANCH   8  11
BRANCH   1  29
HETATM   29  C4  UNL     1     -23.996  21.122  -3.115  1.00  0.00     0.287 C 
HETATM   30  N2  UNL     1     -24.029  19.696  -3.147  1.00  0.00    -0.264 N 
ATOM     31  H2  UNL     1     -23.345  19.141  -2.631  1.00  0.00     0.190 HD
HETATM   32  O2  UNL     1     -24.851  21.787  -3.754  1.00  0.00    -0.267 OA
BRANCH  30  33
HETATM   33  N1  UNL     1     -25.029  19.088  -3.906  1.00  0.00    -0.267 N 
HETATM   34  C3  UNL     1     -25.967  18.205  -3.301  1.00  0.00     0.245 C 
HETATM   35  O1  UNL     1     -25.848  18.006  -2.040  1.00  0.00    -0.271 OA
ATOM     36  H1  UNL     1     -25.088  19.278  -4.906  1.00  0.00     0.190 HD
BRANCH  34  37
HETATM   37  C2  UNL     1     -27.046  17.516  -4.020  1.00  0.00     0.177 C 
BRANCH  37  38
HETATM   38  S1  UNL     1     -27.324  15.866  -3.355  1.00  0.00    -0.164 SA
HETATM   39  C1  UNL     1     -28.894  15.190  -3.925  1.00  0.00     0.090 C 
ENDBRANCH  37  38
ENDBRANCH  34  37
ENDBRANCH  30  33
ENDBRANCH   1  29
TORSDOF 8
ENDMDL
