MODEL 1
REMARK VINA RESULT: -8.404095576      0.000      0.000
REMARK  15 active torsions:
REMARK  status: ('A' for Active; 'I' for Inactive)
REMARK    1  A    between atoms: C2_2  and  C3_3 
REMARK    2  A    between atoms: C3_3  and  C4_4 
REMARK    3  A    between atoms: C4_4  and  C5_5 
REMARK    4  A    between atoms: C5_5  and  C6_6 
REMARK    5  A    between atoms: C6_6  and  C7_7 
REMARK    6  A    between atoms: C7_7  and  C8_8 
REMARK    7  A    between atoms: C8_8  and  C9_9 
REMARK    8  A    between atoms: C9_9  and  C10_10 
REMARK    9  A    between atoms: C10_10  and  C11_12 
REMARK   10  A    between atoms: C17_19  and  O3_20 
REMARK   11  A    between atoms: C19_23  and  O4_24 
REMARK   12  A    between atoms: C20_26  and  O5_27 
REMARK   13  A    between atoms: C27_36  and  C29_38 
REMARK   14  A    between atoms: C29_38  and  C30_39 
REMARK   15  A    between atoms: C30_39  and  O7_41 
ROOT
HETATM    1  C11 UNL     1      19.432  28.883  12.547  1.00  0.00     0.133 A 
HETATM    2  C12 UNL     1      18.637  28.706  13.825  1.00  0.00     0.144 A 
HETATM    3  O2  UNL     1      18.614  27.728  14.543  1.00  0.00    -0.297 OA
HETATM    4  C13 UNL     1      18.127  30.028  13.640  1.00  0.00     0.074 A 
HETATM    5  C14 UNL     1      18.934  30.304  12.416  1.00  0.00     0.038 A 
HETATM    6  C15 UNL     1      19.887  31.392  12.512  1.00  0.00    -0.021 C 
HETATM    7  C16 UNL     1      20.617  31.909  13.504  1.00  0.00     0.008 C 
HETATM    8  C17 UNL     1      20.612  31.426  14.870  1.00  0.00     0.094 C 
HETATM    9  C18 UNL     1      19.218  31.458  15.439  1.00  0.00     0.065 C 
HETATM   10  C19 UNL     1      19.507  30.901  16.779  1.00  0.00     0.155 C 
HETATM   11  C20 UNL     1      20.697  31.819  17.176  1.00  0.00     0.161 C 
HETATM   12  C21 UNL     1      21.301  32.298  15.872  1.00  0.00     0.054 C 
HETATM   13  C22 UNL     1      21.005  33.759  15.740  1.00  0.00     0.287 C 
HETATM   14  N1  UNL     1      22.203  34.463  16.163  1.00  0.00     0.085 N 
HETATM   15  C23 UNL     1      21.915  35.475  17.161  1.00  0.00     0.309 C 
HETATM   16  C24 UNL     1      23.056  33.465  16.822  1.00  0.00     0.277 C 
HETATM   17  C25 UNL     1      22.777  32.239  15.932  1.00  0.00     0.026 C 
HETATM   18  C26 UNL     1      23.449  32.539  14.637  1.00  0.00     0.012 C 
HETATM   19  C27 UNL     1      18.073  31.104  14.652  1.00  0.00    -0.015 C 
HETATM   20  C28 UNL     1      17.573  32.340  13.865  1.00  0.00     0.017 C 
ENDROOT
BRANCH   1  21
HETATM   21  C10 UNL     1      18.969  27.975  11.458  1.00  0.00     0.138 C 
HETATM   22  O1  UNL     1      18.296  28.470  10.570  1.00  0.00    -0.297 OA
BRANCH  21  23
HETATM   23  C9  UNL     1      19.274  26.542  11.392  1.00  0.00     0.079 C 
BRANCH  23  24
HETATM   24  C8  UNL     1      20.523  26.307  10.571  1.00  0.00     0.007 C 
BRANCH  24  25
HETATM   25  C7  UNL     1      21.277  25.097  11.095  1.00  0.00     0.000 C 
BRANCH  25  26
HETATM   26  C6  UNL     1      22.350  24.654  10.148  1.00  0.00     0.000 C 
BRANCH  26  27
HETATM   27  C5  UNL     1      23.717  25.046  10.656  1.00  0.00     0.000 C 
BRANCH  27  28
HETATM   28  C4  UNL     1      24.294  26.206   9.880  1.00  0.00     0.000 C 
BRANCH  28  29
HETATM   29  C3  UNL     1      24.060  27.538  10.513  1.00  0.00    -0.000 C 
BRANCH  29  30
HETATM   30  C2  UNL     1      24.168  27.352  12.025  1.00  0.00    -0.005 C 
HETATM   31  C1  UNL     1      23.024  28.134  12.652  1.00  0.00     0.005 C 
ENDBRANCH  29  30
ENDBRANCH  28  29
ENDBRANCH  27  28
ENDBRANCH  26  27
ENDBRANCH  25  26
ENDBRANCH  24  25
ENDBRANCH  23  24
ENDBRANCH  21  23
ENDBRANCH   1  21
BRANCH  19  32
HETATM   32  C29 UNL     1      16.896  30.764  15.542  1.00  0.00     0.121 C 
BRANCH  32  33
HETATM   33  C30 UNL     1      16.175  31.876  16.129  1.00  0.00     0.259 C 
HETATM   34  O6  UNL     1      14.918  31.936  15.885  1.00  0.00    -0.265 OA
BRANCH  33  35
HETATM   35  O7  UNL     1      16.656  32.894  16.920  1.00  0.00    -0.326 OA
HETATM   36  C31 UNL     1      15.861  33.940  17.431  1.00  0.00     0.213 C 
ENDBRANCH  33  35
ENDBRANCH  32  33
ENDBRANCH  19  32
BRANCH   8  37
HETATM   37  O3  UNL     1      21.262  30.196  14.994  1.00  0.00    -0.384 OA
ATOM     38  H3  UNL     1      22.040  30.258  15.537  1.00  0.00     0.211 HD
ENDBRANCH   8  37
BRANCH  10  39
HETATM   39  O4  UNL     1      20.044  29.628  16.838  1.00  0.00    -0.392 OA
ATOM     40  H4  UNL     1      20.981  29.541  16.709  1.00  0.00     0.210 HD
ENDBRANCH  10  39
BRANCH  11  41
HETATM   41  O5  UNL     1      21.661  31.110  17.877  1.00  0.00    -0.392 OA
ATOM     42  H5  UNL     1      22.383  30.864  17.310  1.00  0.00     0.210 HD
ENDBRANCH  11  41
TORSDOF 15
ENDMDL
MODEL 2
REMARK VINA RESULT: -8.269752791      0.584      1.290
REMARK  15 active torsions:
REMARK  status: ('A' for Active; 'I' for Inactive)
REMARK    1  A    between atoms: C2_2  and  C3_3 
REMARK    2  A    between atoms: C3_3  and  C4_4 
REMARK    3  A    between atoms: C4_4  and  C5_5 
REMARK    4  A    between atoms: C5_5  and  C6_6 
REMARK    5  A    between atoms: C6_6  and  C7_7 
REMARK    6  A    between atoms: C7_7  and  C8_8 
REMARK    7  A    between atoms: C8_8  and  C9_9 
REMARK    8  A    between atoms: C9_9  and  C10_10 
REMARK    9  A    between atoms: C10_10  and  C11_12 
REMARK   10  A    between atoms: C17_19  and  O3_20 
REMARK   11  A    between atoms: C19_23  and  O4_24 
REMARK   12  A    between atoms: C20_26  and  O5_27 
REMARK   13  A    between atoms: C27_36  and  C29_38 
REMARK   14  A    between atoms: C29_38  and  C30_39 
REMARK   15  A    between atoms: C30_39  and  O7_41 
ROOT
HETATM    1  C11 UNL     1      19.248  29.087  12.499  1.00  0.00     0.133 A 
HETATM    2  C12 UNL     1      18.487  28.874  13.793  1.00  0.00     0.144 A 
HETATM    3  O2  UNL     1      18.463  27.867  14.470  1.00  0.00    -0.297 OA
HETATM    4  C13 UNL     1      18.003  30.214  13.678  1.00  0.00     0.074 A 
HETATM    5  C14 UNL     1      18.780  30.523  12.442  1.00  0.00     0.038 A 
HETATM    6  C15 UNL     1      19.761  31.585  12.555  1.00  0.00    -0.021 C 
HETATM    7  C16 UNL     1      20.531  32.043  13.545  1.00  0.00     0.008 C 
HETATM    8  C17 UNL     1      20.555  31.503  14.889  1.00  0.00     0.094 C 
HETATM    9  C18 UNL     1      19.179  31.542  15.501  1.00  0.00     0.065 C 
HETATM   10  C19 UNL     1      19.495  30.923  16.808  1.00  0.00     0.155 C 
HETATM   11  C20 UNL     1      20.717  31.796  17.206  1.00  0.00     0.161 C 
HETATM   12  C21 UNL     1      21.294  32.317  15.905  1.00  0.00     0.054 C 
HETATM   13  C22 UNL     1      21.028  33.788  15.843  1.00  0.00     0.287 C 
HETATM   14  N1  UNL     1      22.254  34.447  16.258  1.00  0.00     0.085 N 
HETATM   15  C23 UNL     1      22.019  35.422  17.305  1.00  0.00     0.309 C 
HETATM   16  C24 UNL     1      23.102  33.404  16.849  1.00  0.00     0.277 C 
HETATM   17  C25 UNL     1      22.769  32.223  15.918  1.00  0.00     0.026 C 
HETATM   18  C26 UNL     1      23.409  32.562  14.616  1.00  0.00     0.012 C 
HETATM   19  C27 UNL     1      18.004  31.246  14.735  1.00  0.00    -0.015 C 
HETATM   20  C28 UNL     1      17.510  32.526  14.016  1.00  0.00     0.017 C 
ENDROOT
BRANCH   1  21
HETATM   21  C10 UNL     1      18.733  28.236  11.388  1.00  0.00     0.138 C 
HETATM   22  O1  UNL     1      17.861  28.713  10.682  1.00  0.00    -0.297 OA
BRANCH  21  23
HETATM   23  C9  UNL     1      19.208  26.879  11.098  1.00  0.00     0.079 C 
BRANCH  23  24
HETATM   24  C8  UNL     1      20.683  26.899  10.763  1.00  0.00     0.007 C 
BRANCH  24  25
HETATM   25  C7  UNL     1      21.499  26.417  11.951  1.00  0.00     0.000 C 
BRANCH  25  26
HETATM   26  C6  UNL     1      22.310  27.521  12.556  1.00  0.00     0.000 C 
BRANCH  26  27
HETATM   27  C5  UNL     1      23.427  27.941  11.631  1.00  0.00     0.000 C 
BRANCH  27  28
HETATM   28  C4  UNL     1      24.710  27.201  11.927  1.00  0.00     0.000 C 
BRANCH  28  29
HETATM   29  C3  UNL     1      24.985  26.065  10.997  1.00  0.00    -0.000 C 
BRANCH  29  30
HETATM   30  C2  UNL     1      24.397  26.434   9.637  1.00  0.00    -0.005 C 
HETATM   31  C1  UNL     1      23.729  25.184   9.087  1.00  0.00     0.005 C 
ENDBRANCH  29  30
ENDBRANCH  28  29
ENDBRANCH  27  28
ENDBRANCH  26  27
ENDBRANCH  25  26
ENDBRANCH  24  25
ENDBRANCH  23  24
ENDBRANCH  21  23
ENDBRANCH   1  21
BRANCH  19  32
HETATM   32  C29 UNL     1      16.846  30.895  15.645  1.00  0.00     0.121 C 
BRANCH  32  33
HETATM   33  C30 UNL     1      16.078  32.000  16.185  1.00  0.00     0.259 C 
HETATM   34  O6  UNL     1      14.841  32.052  15.854  1.00  0.00    -0.265 OA
BRANCH  33  35
HETATM   35  O7  UNL     1      16.495  33.018  17.012  1.00  0.00    -0.326 OA
HETATM   36  C31 UNL     1      15.625  33.930  17.642  1.00  0.00     0.213 C 
ENDBRANCH  33  35
ENDBRANCH  32  33
ENDBRANCH  19  32
BRANCH   8  37
HETATM   37  O3  UNL     1      21.180  30.255  14.942  1.00  0.00    -0.384 OA
ATOM     38  H3  UNL     1      21.960  30.224  14.400  1.00  0.00     0.211 HD
ENDBRANCH   8  37
BRANCH  10  39
HETATM   39  O4  UNL     1      20.003  29.636  16.797  1.00  0.00    -0.392 OA
ATOM     40  H4  UNL     1      19.388  28.922  16.917  1.00  0.00     0.210 HD
ENDBRANCH  10  39
BRANCH  11  41
HETATM   41  O5  UNL     1      21.684  31.038  17.847  1.00  0.00    -0.392 OA
ATOM     42  H5  UNL     1      22.550  31.407  17.716  1.00  0.00     0.210 HD
ENDBRANCH  11  41
TORSDOF 15
ENDMDL
MODEL 3
REMARK VINA RESULT: -7.868851930      0.670      1.432
REMARK  15 active torsions:
REMARK  status: ('A' for Active; 'I' for Inactive)
REMARK    1  A    between atoms: C2_2  and  C3_3 
REMARK    2  A    between atoms: C3_3  and  C4_4 
REMARK    3  A    between atoms: C4_4  and  C5_5 
REMARK    4  A    between atoms: C5_5  and  C6_6 
REMARK    5  A    between atoms: C6_6  and  C7_7 
REMARK    6  A    between atoms: C7_7  and  C8_8 
REMARK    7  A    between atoms: C8_8  and  C9_9 
REMARK    8  A    between atoms: C9_9  and  C10_10 
REMARK    9  A    between atoms: C10_10  and  C11_12 
REMARK   10  A    between atoms: C17_19  and  O3_20 
REMARK   11  A    between atoms: C19_23  and  O4_24 
REMARK   12  A    between atoms: C20_26  and  O5_27 
REMARK   13  A    between atoms: C27_36  and  C29_38 
REMARK   14  A    between atoms: C29_38  and  C30_39 
REMARK   15  A    between atoms: C30_39  and  O7_41 
ROOT
HETATM    1  C11 UNL     1      19.549  28.987  12.491  1.00  0.00     0.133 A 
HETATM    2  C12 UNL     1      18.725  28.785  13.748  1.00  0.00     0.144 A 
HETATM    3  O2  UNL     1      18.685  27.794  14.446  1.00  0.00    -0.297 OA
HETATM    4  C13 UNL     1      18.219  30.112  13.576  1.00  0.00     0.074 A 
HETATM    5  C14 UNL     1      19.055  30.410  12.376  1.00  0.00     0.038 A 
HETATM    6  C15 UNL     1      20.005  31.496  12.516  1.00  0.00    -0.021 C 
HETATM    7  C16 UNL     1      20.712  31.993  13.535  1.00  0.00     0.008 C 
HETATM    8  C17 UNL     1      20.675  31.484  14.890  1.00  0.00     0.094 C 
HETATM    9  C18 UNL     1      19.268  31.506  15.427  1.00  0.00     0.065 C 
HETATM   10  C19 UNL     1      19.526  30.923  16.763  1.00  0.00     0.155 C 
HETATM   11  C20 UNL     1      20.706  31.832  17.205  1.00  0.00     0.161 C 
HETATM   12  C21 UNL     1      21.341  32.336  15.925  1.00  0.00     0.054 C 
HETATM   13  C22 UNL     1      21.049  33.799  15.814  1.00  0.00     0.287 C 
HETATM   14  N1  UNL     1      22.237  34.494  16.278  1.00  0.00     0.085 N 
HETATM   15  C23 UNL     1      21.926  35.486  17.288  1.00  0.00     0.309 C 
HETATM   16  C24 UNL     1      23.074  33.483  16.938  1.00  0.00     0.277 C 
HETATM   17  C25 UNL     1      22.815  32.275  16.017  1.00  0.00     0.026 C 
HETATM   18  C26 UNL     1      23.517  32.598  14.744  1.00  0.00     0.012 C 
HETATM   19  C27 UNL     1      18.142  31.167  14.607  1.00  0.00    -0.015 C 
HETATM   20  C28 UNL     1      17.661  32.419  13.833  1.00  0.00     0.017 C 
ENDROOT
BRANCH   1  21
HETATM   21  C10 UNL     1      19.111  28.100  11.375  1.00  0.00     0.138 C 
HETATM   22  O1  UNL     1      17.958  28.211  10.997  1.00  0.00    -0.297 OA
BRANCH  21  23
HETATM   23  C9  UNL     1      19.976  27.118  10.713  1.00  0.00     0.079 C 
BRANCH  23  24
HETATM   24  C8  UNL     1      21.431  27.478  10.915  1.00  0.00     0.007 C 
BRANCH  24  25
HETATM   25  C7  UNL     1      22.090  26.494  11.868  1.00  0.00     0.000 C 
BRANCH  25  26
HETATM   26  C6  UNL     1      23.581  26.627  11.865  1.00  0.00     0.000 C 
BRANCH  26  27
HETATM   27  C5  UNL     1      24.215  25.589  10.970  1.00  0.00     0.000 C 
BRANCH  27  28
HETATM   28  C4  UNL     1      24.478  26.126   9.584  1.00  0.00     0.000 C 
BRANCH  28  29
HETATM   29  C3  UNL     1      23.999  25.235   8.485  1.00  0.00    -0.000 C 
BRANCH  29  30
HETATM   30  C2  UNL     1      22.966  24.284   9.084  1.00  0.00    -0.005 C 
HETATM   31  C1  UNL     1      21.684  24.459   8.285  1.00  0.00     0.005 C 
ENDBRANCH  29  30
ENDBRANCH  28  29
ENDBRANCH  27  28
ENDBRANCH  26  27
ENDBRANCH  25  26
ENDBRANCH  24  25
ENDBRANCH  23  24
ENDBRANCH  21  23
ENDBRANCH   1  21
BRANCH  19  32
HETATM   32  C29 UNL     1      16.944  30.811  15.462  1.00  0.00     0.121 C 
BRANCH  32  33
HETATM   33  C30 UNL     1      16.200  31.913  16.041  1.00  0.00     0.259 C 
HETATM   34  O6  UNL     1      14.956  31.981  15.744  1.00  0.00    -0.265 OA
BRANCH  33  35
HETATM   35  O7  UNL     1      16.648  32.913  16.873  1.00  0.00    -0.326 OA
HETATM   36  C31 UNL     1      15.803  33.817  17.548  1.00  0.00     0.213 C 
ENDBRANCH  33  35
ENDBRANCH  32  33
ENDBRANCH  19  32
BRANCH   8  37
HETATM   37  O3  UNL     1      21.322  30.251  15.006  1.00  0.00    -0.384 OA
ATOM     38  H3  UNL     1      20.905  29.689  15.648  1.00  0.00     0.211 HD
ENDBRANCH   8  37
BRANCH  10  39
HETATM   39  O4  UNL     1      20.061  29.648  16.809  1.00  0.00    -0.392 OA
ATOM     40  H4  UNL     1      20.981  29.567  17.033  1.00  0.00     0.210 HD
ENDBRANCH  10  39
BRANCH  11  41
HETATM   41  O5  UNL     1      21.654  31.109  17.914  1.00  0.00    -0.392 OA
ATOM     42  H5  UNL     1      22.021  31.628  18.620  1.00  0.00     0.210 HD
ENDBRANCH  11  41
TORSDOF 15
ENDMDL
MODEL 4
REMARK VINA RESULT: -7.588515934      2.093      3.067
REMARK  15 active torsions:
REMARK  status: ('A' for Active; 'I' for Inactive)
REMARK    1  A    between atoms: C2_2  and  C3_3 
REMARK    2  A    between atoms: C3_3  and  C4_4 
REMARK    3  A    between atoms: C4_4  and  C5_5 
REMARK    4  A    between atoms: C5_5  and  C6_6 
REMARK    5  A    between atoms: C6_6  and  C7_7 
REMARK    6  A    between atoms: C7_7  and  C8_8 
REMARK    7  A    between atoms: C8_8  and  C9_9 
REMARK    8  A    between atoms: C9_9  and  C10_10 
REMARK    9  A    between atoms: C10_10  and  C11_12 
REMARK   10  A    between atoms: C17_19  and  O3_20 
REMARK   11  A    between atoms: C19_23  and  O4_24 
REMARK   12  A    between atoms: C20_26  and  O5_27 
REMARK   13  A    between atoms: C27_36  and  C29_38 
REMARK   14  A    between atoms: C29_38  and  C30_39 
REMARK   15  A    between atoms: C30_39  and  O7_41 
ROOT
HETATM    1  C11 UNL     1      19.339  29.112  12.481  1.00  0.00     0.133 A 
HETATM    2  C12 UNL     1      18.565  28.880  13.764  1.00  0.00     0.144 A 
HETATM    3  O2  UNL     1      18.542  27.869  14.432  1.00  0.00    -0.297 OA
HETATM    4  C13 UNL     1      18.069  30.217  13.654  1.00  0.00     0.074 A 
HETATM    5  C14 UNL     1      18.858  30.543  12.430  1.00  0.00     0.038 A 
HETATM    6  C15 UNL     1      19.828  31.613  12.564  1.00  0.00    -0.021 C 
HETATM    7  C16 UNL     1      20.583  32.070  13.566  1.00  0.00     0.008 C 
HETATM    8  C17 UNL     1      20.595  31.520  14.906  1.00  0.00     0.094 C 
HETATM    9  C18 UNL     1      19.212  31.541  15.502  1.00  0.00     0.065 C 
HETATM   10  C19 UNL     1      19.518  30.913  16.807  1.00  0.00     0.155 C 
HETATM   11  C20 UNL     1      20.727  31.795  17.227  1.00  0.00     0.161 C 
HETATM   12  C21 UNL     1      21.314  32.331  15.937  1.00  0.00     0.054 C 
HETATM   13  C22 UNL     1      21.036  33.800  15.884  1.00  0.00     0.287 C 
HETATM   14  N1  UNL     1      22.251  34.467  16.319  1.00  0.00     0.085 N 
HETATM   15  C23 UNL     1      21.994  35.431  17.372  1.00  0.00     0.309 C 
HETATM   16  C24 UNL     1      23.102  33.427  16.912  1.00  0.00     0.277 C 
HETATM   17  C25 UNL     1      22.790  32.250  15.967  1.00  0.00     0.026 C 
HETATM   18  C26 UNL     1      23.442  32.606  14.676  1.00  0.00     0.012 C 
HETATM   19  C27 UNL     1      18.048  31.241  14.719  1.00  0.00    -0.015 C 
HETATM   20  C28 UNL     1      17.552  32.522  14.005  1.00  0.00     0.017 C 
ENDROOT
BRANCH   1  21
HETATM   21  C10 UNL     1      18.844  28.265  11.357  1.00  0.00     0.138 C 
HETATM   22  O1  UNL     1      17.931  28.713  10.685  1.00  0.00    -0.297 OA
BRANCH  21  23
HETATM   23  C9  UNL     1      19.387  26.946  11.016  1.00  0.00     0.079 C 
BRANCH  23  24
HETATM   24  C8  UNL     1      18.388  25.863  11.358  1.00  0.00     0.007 C 
BRANCH  24  25
HETATM   25  C7  UNL     1      17.706  25.358  10.097  1.00  0.00     0.000 C 
BRANCH  25  26
HETATM   26  C6  UNL     1      18.600  25.461   8.900  1.00  0.00     0.000 C 
BRANCH  26  27
HETATM   27  C5  UNL     1      17.819  25.874   7.675  1.00  0.00     0.000 C 
BRANCH  27  28
HETATM   28  C4  UNL     1      18.363  27.142   7.062  1.00  0.00     0.000 C 
BRANCH  28  29
HETATM   29  C3  UNL     1      18.794  26.994   5.639  1.00  0.00    -0.000 C 
BRANCH  29  30
HETATM   30  C2  UNL     1      18.365  28.257   4.897  1.00  0.00    -0.005 C 
HETATM   31  C1  UNL     1      16.932  28.038   4.437  1.00  0.00     0.005 C 
ENDBRANCH  29  30
ENDBRANCH  28  29
ENDBRANCH  27  28
ENDBRANCH  26  27
ENDBRANCH  25  26
ENDBRANCH  24  25
ENDBRANCH  23  24
ENDBRANCH  21  23
ENDBRANCH   1  21
BRANCH  19  32
HETATM   32  C29 UNL     1      16.883  30.872  15.613  1.00  0.00     0.121 C 
BRANCH  32  33
HETATM   33  C30 UNL     1      16.125  31.965  16.188  1.00  0.00     0.259 C 
HETATM   34  O6  UNL     1      14.865  31.972  15.956  1.00  0.00    -0.265 OA
BRANCH  33  35
HETATM   35  O7  UNL     1      16.573  33.016  16.956  1.00  0.00    -0.326 OA
HETATM   36  C31 UNL     1      15.727  33.929  17.617  1.00  0.00     0.213 C 
ENDBRANCH  33  35
ENDBRANCH  32  33
ENDBRANCH  19  32
BRANCH   8  37
HETATM   37  O3  UNL     1      21.231  30.277  14.956  1.00  0.00    -0.384 OA
ATOM     38  H3  UNL     1      21.674  30.137  15.785  1.00  0.00     0.211 HD
ENDBRANCH   8  37
BRANCH  10  39
HETATM   39  O4  UNL     1      20.038  29.632  16.792  1.00  0.00    -0.392 OA
ATOM     40  H4  UNL     1      20.979  29.540  16.884  1.00  0.00     0.210 HD
ENDBRANCH  10  39
BRANCH  11  41
HETATM   41  O5  UNL     1      21.694  31.039  17.873  1.00  0.00    -0.392 OA
ATOM     42  H5  UNL     1      22.563  31.252  17.554  1.00  0.00     0.210 HD
ENDBRANCH  11  41
TORSDOF 15
ENDMDL
MODEL 5
REMARK VINA RESULT: -7.539403568      2.433      8.093
REMARK  15 active torsions:
REMARK  status: ('A' for Active; 'I' for Inactive)
REMARK    1  A    between atoms: C2_2  and  C3_3 
REMARK    2  A    between atoms: C3_3  and  C4_4 
REMARK    3  A    between atoms: C4_4  and  C5_5 
REMARK    4  A    between atoms: C5_5  and  C6_6 
REMARK    5  A    between atoms: C6_6  and  C7_7 
REMARK    6  A    between atoms: C7_7  and  C8_8 
REMARK    7  A    between atoms: C8_8  and  C9_9 
REMARK    8  A    between atoms: C9_9  and  C10_10 
REMARK    9  A    between atoms: C10_10  and  C11_12 
REMARK   10  A    between atoms: C17_19  and  O3_20 
REMARK   11  A    between atoms: C19_23  and  O4_24 
REMARK   12  A    between atoms: C20_26  and  O5_27 
REMARK   13  A    between atoms: C27_36  and  C29_38 
REMARK   14  A    between atoms: C29_38  and  C30_39 
REMARK   15  A    between atoms: C30_39  and  O7_41 
ROOT
HETATM    1  C11 UNL     1      17.122  32.854  15.186  1.00  0.00     0.133 A 
HETATM    2  C12 UNL     1      17.998  32.506  16.373  1.00  0.00     0.144 A 
HETATM    3  O2  UNL     1      17.651  31.982  17.411  1.00  0.00    -0.297 OA
HETATM    4  C13 UNL     1      19.111  33.044  15.654  1.00  0.00     0.074 A 
HETATM    5  C14 UNL     1      18.328  33.347  14.421  1.00  0.00     0.038 A 
HETATM    6  C15 UNL     1      18.733  32.642  13.220  1.00  0.00    -0.021 C 
HETATM    7  C16 UNL     1      19.268  31.443  12.977  1.00  0.00     0.008 C 
HETATM    8  C17 UNL     1      19.599  30.466  13.993  1.00  0.00     0.094 C 
HETATM    9  C18 UNL     1      20.552  31.051  15.003  1.00  0.00     0.065 C 
HETATM   10  C19 UNL     1      20.679  29.880  15.899  1.00  0.00     0.155 C 
HETATM   11  C20 UNL     1      20.998  28.790  14.839  1.00  0.00     0.161 C 
HETATM   12  C21 UNL     1      20.419  29.301  13.535  1.00  0.00     0.054 C 
HETATM   13  C22 UNL     1      21.560  29.654  12.634  1.00  0.00     0.287 C 
HETATM   14  N1  UNL     1      21.732  28.532  11.728  1.00  0.00     0.085 N 
HETATM   15  C23 UNL     1      23.105  28.066  11.695  1.00  0.00     0.309 C 
HETATM   16  C24 UNL     1      20.936  27.429  12.281  1.00  0.00     0.277 C 
HETATM   17  C25 UNL     1      19.722  28.213  12.816  1.00  0.00     0.026 C 
HETATM   18  C26 UNL     1      18.984  28.663  11.603  1.00  0.00     0.012 C 
HETATM   19  C27 UNL     1      20.429  32.404  15.460  1.00  0.00    -0.015 C 
HETATM   20  C28 UNL     1      21.174  33.356  14.492  1.00  0.00     0.017 C 
ENDROOT
BRANCH   1  21
HETATM   21  C10 UNL     1      16.128  33.919  15.504  1.00  0.00     0.138 C 
HETATM   22  O1  UNL     1      16.373  35.044  15.105  1.00  0.00    -0.297 OA
BRANCH  21  23
HETATM   23  C9  UNL     1      14.889  33.694  16.256  1.00  0.00     0.079 C 
BRANCH  23  24
HETATM   24  C8  UNL     1      15.038  34.190  17.677  1.00  0.00     0.007 C 
BRANCH  24  25
HETATM   25  C7  UNL     1      14.239  35.467  17.875  1.00  0.00     0.000 C 
BRANCH  25  26
HETATM   26  C6  UNL     1      14.721  36.250  19.057  1.00  0.00     0.000 C 
BRANCH  26  27
HETATM   27  C5  UNL     1      15.197  37.621  18.641  1.00  0.00     0.000 C 
BRANCH  27  28
HETATM   28  C4  UNL     1      16.360  37.546  17.680  1.00  0.00     0.000 C 
BRANCH  28  29
HETATM   29  C3  UNL     1      17.685  37.353  18.343  1.00  0.00    -0.000 C 
BRANCH  29  30
HETATM   30  C2  UNL     1      18.293  36.068  17.785  1.00  0.00    -0.005 C 
HETATM   31  C1  UNL     1      18.438  35.102  18.950  1.00  0.00     0.005 C 
ENDBRANCH  29  30
ENDBRANCH  28  29
ENDBRANCH  27  28
ENDBRANCH  26  27
ENDBRANCH  25  26
ENDBRANCH  24  25
ENDBRANCH  23  24
ENDBRANCH  21  23
ENDBRANCH   1  21
BRANCH  19  32
HETATM   32  C29 UNL     1      21.169  32.596  16.767  1.00  0.00     0.121 C 
BRANCH  32  33
HETATM   33  C30 UNL     1      22.015  33.769  16.876  1.00  0.00     0.259 C 
HETATM   34  O6  UNL     1      23.275  33.580  16.739  1.00  0.00    -0.265 OA
BRANCH  33  35
HETATM   35  O7  UNL     1      21.652  35.075  17.113  1.00  0.00    -0.326 OA
HETATM   36  C31 UNL     1      22.129  35.844  18.193  1.00  0.00     0.213 C 
ENDBRANCH  33  35
ENDBRANCH  32  33
ENDBRANCH  19  32
BRANCH   8  37
HETATM   37  O3  UNL     1      18.459  29.876  14.544  1.00  0.00    -0.384 OA
ATOM     38  H3  UNL     1      18.396  30.027  15.480  1.00  0.00     0.211 HD
ENDBRANCH   8  37
BRANCH  10  39
HETATM   39  O4  UNL     1      19.526  29.416  16.507  1.00  0.00    -0.392 OA
ATOM     40  H4  UNL     1      19.546  28.538  16.870  1.00  0.00     0.210 HD
ENDBRANCH  10  39
BRANCH  11  41
HETATM   41  O5  UNL     1      20.383  27.589  15.157  1.00  0.00    -0.392 OA
ATOM     42  H5  UNL     1      19.490  27.567  14.832  1.00  0.00     0.210 HD
ENDBRANCH  11  41
TORSDOF 15
ENDMDL
