MODEL 1
REMARK VINA RESULT: -9.128084402      0.000      0.000
REMARK  14 active torsions:
REMARK  status: ('A' for Active; 'I' for Inactive)
REMARK    1  A    between atoms: C4_5  and  C5_6 
REMARK    2  A    between atoms: C4_5  and  C17_23 
REMARK    3  A    between atoms: C5_6  and  C6_7 
REMARK    4  A    between atoms: C7_8  and  C8_9 
REMARK    5  A    between atoms: C9_10  and  C10_11 
REMARK    6  A    between atoms: C10_11  and  C11_12 
REMARK    7  A    between atoms: C11_12  and  C12_13 
REMARK    8  A    between atoms: C12_13  and  N2_14 
REMARK    9  A    between atoms: N2_14  and  C15_17 
REMARK   10  A    between atoms: C15_17  and  C16_18 
REMARK   11  A    between atoms: C16_18  and  N3_19 
REMARK   12  A    between atoms: C17_23  and  C18_24 
REMARK   13  A    between atoms: C25_32  and  N4_33 
REMARK   14  A    between atoms: C28_38  and  N6_39 
ROOT
HETATM    1  C18 UNL     1      19.554  33.130  16.321  1.00  0.00     0.265 C 
HETATM    2  O1  UNL     1      18.402  33.019  17.090  1.00  0.00    -0.355 OA
HETATM    3  C19 UNL     1      17.321  33.572  16.423  1.00  0.00     0.133 C 
HETATM    4  C20 UNL     1      16.132  33.815  17.324  1.00  0.00     0.032 C 
HETATM    5  C21 UNL     1      14.871  33.487  16.529  1.00  0.00     0.002 C 
HETATM    6  C22 UNL     1      14.837  31.994  16.263  1.00  0.00     0.001 C 
HETATM    7  C23 UNL     1      16.209  31.479  15.863  1.00  0.00     0.011 C 
HETATM    8  C24 UNL     1      16.962  32.654  15.278  1.00  0.00     0.064 C 
HETATM    9  C25 UNL     1      18.253  32.258  14.598  1.00  0.00     0.240 C 
HETATM   10  O2  UNL     1      19.350  32.990  14.987  1.00  0.00    -0.336 OA
ENDROOT
BRANCH   1  11
HETATM   11  C17 UNL     1      20.154  34.485  16.624  1.00  0.00     0.103 C 
BRANCH  11  12
HETATM   12  C4  UNL     1      21.225  34.440  17.669  1.00  0.00     0.168 C 
HETATM   13  N1  UNL     1      22.098  35.596  17.749  1.00  0.00     0.094 N 
HETATM   14  C1  UNL     1      21.523  36.804  17.186  1.00  0.00     0.310 C 
HETATM   15  C2  UNL     1      22.060  35.622  19.199  1.00  0.00     0.275 C 
HETATM   16  C3  UNL     1      20.823  34.723  19.089  1.00  0.00     0.072 C 
BRANCH  12  17
HETATM   17  C5  UNL     1      22.135  33.203  17.553  1.00  0.00     0.069 C 
BRANCH  17  18
HETATM   18  C6  UNL     1      23.277  33.545  16.652  1.00  0.00    -0.024 C 
HETATM   19  C7  UNL     1      23.533  32.941  15.510  1.00  0.00    -0.004 C 
BRANCH  19  20
HETATM   20  C8  UNL     1      22.767  31.869  14.940  1.00  0.00    -0.004 C 
HETATM   21  C9  UNL     1      22.302  31.949  13.676  1.00  0.00    -0.023 C 
BRANCH  21  22
HETATM   22  C10 UNL     1      21.543  30.932  13.076  1.00  0.00     0.055 C 
BRANCH  22  23
HETATM   23  C11 UNL     1      22.352  29.689  13.717  1.00  0.00     0.002 C 
BRANCH  23  24
HETATM   24  C12 UNL     1      22.155  28.413  13.248  1.00  0.00     0.198 C 
BRANCH  24  25
HETATM   25  N2  UNL     1      22.713  27.771  12.108  1.00  0.00    -0.053 N 
HETATM   26  C13 UNL     1      22.473  28.437  10.853  1.00  0.00     0.277 C 
HETATM   27  C14 UNL     1      21.922  26.495  11.976  1.00  0.00     0.277 C 
BRANCH  25  28
HETATM   28  C15 UNL     1      24.083  27.365  12.211  1.00  0.00     0.269 C 
BRANCH  28  29
HETATM   29  C16 UNL     1      24.364  25.980  11.649  1.00  0.00     0.257 C 
BRANCH  29  30
HETATM   30  N3  UNL     1      25.099  26.016  10.403  1.00  0.00    -0.078 N 
ATOM     31  H33 UNL     1      24.594  26.551   9.697  1.00  0.00     0.274 HD
ATOM     32  H32 UNL     1      25.932  26.597  10.487  1.00  0.00     0.274 HD
ATOM     33  H31 UNL     1      25.336  25.087  10.054  1.00  0.00     0.274 HD
ENDBRANCH  29  30
ENDBRANCH  28  29
ENDBRANCH  25  28
ENDBRANCH  24  25
ENDBRANCH  23  24
ENDBRANCH  22  23
ENDBRANCH  21  22
ENDBRANCH  19  20
ENDBRANCH  17  18
ENDBRANCH  12  17
ENDBRANCH  11  12
ENDBRANCH   1  11
BRANCH   9  34
HETATM   34  N4  UNL     1      18.437  30.826  14.584  1.00  0.00    -0.299 N 
HETATM   35  C26 UNL     1      19.044  30.016  15.466  1.00  0.00     0.188 A 
HETATM   36  N5  UNL     1      18.968  28.737  15.038  1.00  0.00    -0.346 N 
HETATM   37  C27 UNL     1      18.314  28.708  13.883  1.00  0.00     0.122 A 
ATOM     38  H5  UNL     1      19.352  27.925  15.522  1.00  0.00     0.167 HD
HETATM   39  C28 UNL     1      17.985  27.628  13.061  1.00  0.00     0.131 A 
HETATM   40  C30 UNL     1      17.983  30.002  13.596  1.00  0.00     0.142 A 
HETATM   41  N7  UNL     1      17.306  27.927  11.944  1.00  0.00    -0.337 N 
HETATM   42  C29 UNL     1      16.977  29.193  11.654  1.00  0.00     0.183 A 
ATOM     43  H7  UNL     1      17.036  27.180  11.305  1.00  0.00     0.168 HD
HETATM   44  N8  UNL     1      17.298  30.239  12.452  1.00  0.00    -0.336 N 
ATOM     45  H8  UNL     1      17.027  31.188  12.197  1.00  0.00     0.168 HD
BRANCH  39  46
HETATM   46  N6  UNL     1      18.287  26.411  13.307  1.00  0.00    -0.383 N 
ATOM     47  H62 UNL     1      19.080  26.203  13.914  1.00  0.00     0.157 HD
ATOM     48  H61 UNL     1      17.785  25.604  12.937  1.00  0.00     0.157 HD
ENDBRANCH  39  46
ENDBRANCH   9  34
TORSDOF 14
ENDMDL
MODEL 2
REMARK VINA RESULT: -8.851370100      1.037      1.750
REMARK  14 active torsions:
REMARK  status: ('A' for Active; 'I' for Inactive)
REMARK    1  A    between atoms: C4_5  and  C5_6 
REMARK    2  A    between atoms: C4_5  and  C17_23 
REMARK    3  A    between atoms: C5_6  and  C6_7 
REMARK    4  A    between atoms: C7_8  and  C8_9 
REMARK    5  A    between atoms: C9_10  and  C10_11 
REMARK    6  A    between atoms: C10_11  and  C11_12 
REMARK    7  A    between atoms: C11_12  and  C12_13 
REMARK    8  A    between atoms: C12_13  and  N2_14 
REMARK    9  A    between atoms: N2_14  and  C15_17 
REMARK   10  A    between atoms: C15_17  and  C16_18 
REMARK   11  A    between atoms: C16_18  and  N3_19 
REMARK   12  A    between atoms: C17_23  and  C18_24 
REMARK   13  A    between atoms: C25_32  and  N4_33 
REMARK   14  A    between atoms: C28_38  and  N6_39 
ROOT
HETATM    1  C18 UNL     1      19.447  33.790  16.377  1.00  0.00     0.265 C 
HETATM    2  O1  UNL     1      18.367  33.613  17.233  1.00  0.00    -0.355 OA
HETATM    3  C19 UNL     1      17.284  34.364  16.806  1.00  0.00     0.133 C 
HETATM    4  C20 UNL     1      16.212  34.510  17.861  1.00  0.00     0.032 C 
HETATM    5  C21 UNL     1      14.857  34.438  17.162  1.00  0.00     0.002 C 
HETATM    6  C22 UNL     1      14.661  33.033  16.624  1.00  0.00     0.001 C 
HETATM    7  C23 UNL     1      15.936  32.509  15.986  1.00  0.00     0.011 C 
HETATM    8  C24 UNL     1      16.736  33.719  15.555  1.00  0.00     0.064 C 
HETATM    9  C25 UNL     1      17.915  33.372  14.674  1.00  0.00     0.240 C 
HETATM   10  O2  UNL     1      19.107  33.932  15.072  1.00  0.00    -0.336 OA
ENDROOT
BRANCH   1  11
HETATM   11  C17 UNL     1      20.195  35.012  16.863  1.00  0.00     0.103 C 
BRANCH  11  12
HETATM   12  C4  UNL     1      21.203  34.706  17.928  1.00  0.00     0.168 C 
HETATM   13  N1  UNL     1      22.210  35.722  18.175  1.00  0.00     0.094 N 
HETATM   14  C1  UNL     1      21.817  37.052  17.745  1.00  0.00     0.310 C 
HETATM   15  C2  UNL     1      22.109  35.584  19.615  1.00  0.00     0.275 C 
HETATM   16  C3  UNL     1      20.775  34.872  19.359  1.00  0.00     0.072 C 
BRANCH  12  17
HETATM   17  C5  UNL     1      21.956  33.384  17.690  1.00  0.00     0.069 C 
BRANCH  17  18
HETATM   18  C6  UNL     1      23.168  33.676  16.868  1.00  0.00    -0.024 C 
HETATM   19  C7  UNL     1      23.490  33.040  15.760  1.00  0.00    -0.004 C 
BRANCH  19  20
HETATM   20  C8  UNL     1      22.739  31.974  15.159  1.00  0.00    -0.004 C 
HETATM   21  C9  UNL     1      22.286  32.079  13.892  1.00  0.00    -0.023 C 
BRANCH  21  22
HETATM   22  C10 UNL     1      21.543  31.069  13.262  1.00  0.00     0.055 C 
BRANCH  22  23
HETATM   23  C11 UNL     1      22.441  29.826  13.772  1.00  0.00     0.002 C 
BRANCH  23  24
HETATM   24  C12 UNL     1      22.202  28.556  13.305  1.00  0.00     0.198 C 
BRANCH  24  25
HETATM   25  N2  UNL     1      22.722  27.902  12.154  1.00  0.00    -0.053 N 
HETATM   26  C13 UNL     1      22.488  28.584  10.907  1.00  0.00     0.277 C 
HETATM   27  C14 UNL     1      21.886  26.655  12.027  1.00  0.00     0.277 C 
BRANCH  25  28
HETATM   28  C15 UNL     1      24.079  27.449  12.237  1.00  0.00     0.269 C 
BRANCH  28  29
HETATM   29  C16 UNL     1      24.308  26.066  11.648  1.00  0.00     0.257 C 
BRANCH  29  30
HETATM   30  N3  UNL     1      25.119  26.090  10.450  1.00  0.00    -0.078 N 
ATOM     31  H33 UNL     1      26.077  25.804  10.652  1.00  0.00     0.274 HD
ATOM     32  H32 UNL     1      24.853  25.338   9.814  1.00  0.00     0.274 HD
ATOM     33  H31 UNL     1      25.100  26.992   9.975  1.00  0.00     0.274 HD
ENDBRANCH  29  30
ENDBRANCH  28  29
ENDBRANCH  25  28
ENDBRANCH  24  25
ENDBRANCH  23  24
ENDBRANCH  22  23
ENDBRANCH  21  22
ENDBRANCH  19  20
ENDBRANCH  17  18
ENDBRANCH  12  17
ENDBRANCH  11  12
ENDBRANCH   1  11
BRANCH   9  34
HETATM   34  N4  UNL     1      17.965  31.961  14.370  1.00  0.00    -0.299 N 
HETATM   35  C26 UNL     1      17.408  31.265  13.366  1.00  0.00     0.188 A 
HETATM   36  N5  UNL     1      17.731  29.958  13.484  1.00  0.00    -0.346 N 
HETATM   37  C27 UNL     1      18.496  29.799  14.556  1.00  0.00     0.122 A 
ATOM     38  H5  UNL     1      17.435  29.215  12.851  1.00  0.00     0.167 HD
HETATM   39  C28 UNL     1      19.078  28.644  15.086  1.00  0.00     0.131 A 
HETATM   40  C30 UNL     1      18.644  31.039  15.111  1.00  0.00     0.142 A 
HETATM   41  N7  UNL     1      19.810  28.813  16.196  1.00  0.00    -0.337 N 
HETATM   42  C29 UNL     1      19.960  30.024  16.747  1.00  0.00     0.183 A 
ATOM     43  H7  UNL     1      20.261  28.006  16.627  1.00  0.00     0.168 HD
HETATM   44  N8  UNL     1      19.396  31.143  16.232  1.00  0.00    -0.336 N 
ATOM     45  H8  UNL     1      19.536  32.048  16.681  1.00  0.00     0.168 HD
BRANCH  39  46
HETATM   46  N6  UNL     1      18.950  27.475  14.586  1.00  0.00    -0.383 N 
ATOM     47  H62 UNL     1      18.404  27.349  13.734  1.00  0.00     0.157 HD
ATOM     48  H61 UNL     1      19.365  26.630  14.980  1.00  0.00     0.157 HD
ENDBRANCH  39  46
ENDBRANCH   9  34
TORSDOF 14
ENDMDL
MODEL 3
REMARK VINA RESULT: -8.817780879      1.190      1.558
REMARK  14 active torsions:
REMARK  status: ('A' for Active; 'I' for Inactive)
REMARK    1  A    between atoms: C4_5  and  C5_6 
REMARK    2  A    between atoms: C4_5  and  C17_23 
REMARK    3  A    between atoms: C5_6  and  C6_7 
REMARK    4  A    between atoms: C7_8  and  C8_9 
REMARK    5  A    between atoms: C9_10  and  C10_11 
REMARK    6  A    between atoms: C10_11  and  C11_12 
REMARK    7  A    between atoms: C11_12  and  C12_13 
REMARK    8  A    between atoms: C12_13  and  N2_14 
REMARK    9  A    between atoms: N2_14  and  C15_17 
REMARK   10  A    between atoms: C15_17  and  C16_18 
REMARK   11  A    between atoms: C16_18  and  N3_19 
REMARK   12  A    between atoms: C17_23  and  C18_24 
REMARK   13  A    between atoms: C25_32  and  N4_33 
REMARK   14  A    between atoms: C28_38  and  N6_39 
ROOT
HETATM    1  C18 UNL     1      19.209  34.144  17.121  1.00  0.00     0.265 C 
HETATM    2  O1  UNL     1      17.975  34.016  17.749  1.00  0.00    -0.355 OA
HETATM    3  C19 UNL     1      16.964  34.486  16.929  1.00  0.00     0.133 C 
HETATM    4  C20 UNL     1      15.664  34.715  17.664  1.00  0.00     0.032 C 
HETATM    5  C21 UNL     1      14.525  34.293  16.739  1.00  0.00     0.002 C 
HETATM    6  C22 UNL     1      14.585  32.789  16.548  1.00  0.00     0.001 C 
HETATM    7  C23 UNL     1      16.016  32.320  16.347  1.00  0.00     0.011 C 
HETATM    8  C24 UNL     1      16.787  33.501  15.797  1.00  0.00     0.064 C 
HETATM    9  C25 UNL     1      18.167  33.134  15.300  1.00  0.00     0.240 C 
HETATM   10  O2  UNL     1      19.177  33.934  15.782  1.00  0.00    -0.336 OA
ENDROOT
BRANCH   1  11
HETATM   11  C17 UNL     1      19.711  35.539  17.425  1.00  0.00     0.103 C 
BRANCH  11  12
HETATM   12  C4  UNL     1      21.103  35.561  17.975  1.00  0.00     0.168 C 
HETATM   13  N1  UNL     1      21.653  36.867  18.288  1.00  0.00     0.094 N 
HETATM   14  C1  UNL     1      20.645  37.889  18.506  1.00  0.00     0.310 C 
HETATM   15  C2  UNL     1      22.222  36.414  19.542  1.00  0.00     0.275 C 
HETATM   16  C3  UNL     1      21.284  35.208  19.425  1.00  0.00     0.072 C 
BRANCH  12  17
HETATM   17  C5  UNL     1      22.127  34.854  17.067  1.00  0.00     0.069 C 
BRANCH  17  18
HETATM   18  C6  UNL     1      22.393  33.496  17.630  1.00  0.00    -0.024 C 
HETATM   19  C7  UNL     1      22.465  32.393  16.914  1.00  0.00    -0.004 C 
BRANCH  19  20
HETATM   20  C8  UNL     1      22.309  32.308  15.489  1.00  0.00    -0.004 C 
HETATM   21  C9  UNL     1      22.199  31.111  14.877  1.00  0.00    -0.023 C 
BRANCH  21  22
HETATM   22  C10 UNL     1      22.052  30.975  13.488  1.00  0.00     0.055 C 
BRANCH  22  23
HETATM   23  C11 UNL     1      21.791  29.380  13.481  1.00  0.00     0.002 C 
BRANCH  23  24
HETATM   24  C12 UNL     1      22.778  28.514  13.074  1.00  0.00     0.198 C 
BRANCH  24  25
HETATM   25  N2  UNL     1      22.751  27.526  12.052  1.00  0.00    -0.053 N 
HETATM   26  C13 UNL     1      23.964  26.764  11.908  1.00  0.00     0.277 C 
HETATM   27  C14 UNL     1      22.688  28.319  10.772  1.00  0.00     0.277 C 
BRANCH  25  28
HETATM   28  C15 UNL     1      21.606  26.665  12.027  1.00  0.00     0.269 C 
BRANCH  28  29
HETATM   29  C16 UNL     1      21.836  25.348  11.302  1.00  0.00     0.257 C 
BRANCH  29  30
HETATM   30  N3  UNL     1      20.945  24.297  11.745  1.00  0.00    -0.078 N 
ATOM     31  H33 UNL     1      20.399  24.598  12.552  1.00  0.00     0.274 HD
ATOM     32  H32 UNL     1      20.188  24.154  11.077  1.00  0.00     0.274 HD
ATOM     33  H31 UNL     1      21.429  23.421  11.940  1.00  0.00     0.274 HD
ENDBRANCH  29  30
ENDBRANCH  28  29
ENDBRANCH  25  28
ENDBRANCH  24  25
ENDBRANCH  23  24
ENDBRANCH  22  23
ENDBRANCH  21  22
ENDBRANCH  19  20
ENDBRANCH  17  18
ENDBRANCH  12  17
ENDBRANCH  11  12
ENDBRANCH   1  11
BRANCH   9  34
HETATM   34  N4  UNL     1      18.410  31.713  15.383  1.00  0.00    -0.299 N 
HETATM   35  C26 UNL     1      18.920  30.972  16.380  1.00  0.00     0.188 A 
HETATM   36  N5  UNL     1      18.957  29.673  16.009  1.00  0.00    -0.346 N 
HETATM   37  C27 UNL     1      18.472  29.563  14.778  1.00  0.00     0.122 A 
ATOM     38  H5  UNL     1      19.301  28.902  16.581  1.00  0.00     0.167 HD
HETATM   39  C28 UNL     1      18.304  28.434  13.973  1.00  0.00     0.131 A 
HETATM   40  C30 UNL     1      18.132  30.826  14.384  1.00  0.00     0.142 A 
HETATM   41  N7  UNL     1      17.777  28.652  12.760  1.00  0.00    -0.337 N 
HETATM   42  C29 UNL     1      17.440  29.887  12.365  1.00  0.00     0.183 A 
ATOM     43  H7  UNL     1      17.629  27.865  12.128  1.00  0.00     0.168 HD
HETATM   44  N8  UNL     1      17.604  30.981  13.147  1.00  0.00    -0.336 N 
ATOM     45  H8  UNL     1      17.333  31.905  12.810  1.00  0.00     0.168 HD
BRANCH  39  46
HETATM   46  N6  UNL     1      18.619  27.244  14.318  1.00  0.00    -0.383 N 
ATOM     47  H62 UNL     1      19.191  27.097  15.149  1.00  0.00     0.157 HD
ATOM     48  H61 UNL     1      18.333  26.402  13.818  1.00  0.00     0.157 HD
ENDBRANCH  39  46
ENDBRANCH   9  34
TORSDOF 14
ENDMDL
MODEL 4
REMARK VINA RESULT: -8.300886272      3.117      9.604
REMARK  14 active torsions:
REMARK  status: ('A' for Active; 'I' for Inactive)
REMARK    1  A    between atoms: C4_5  and  C5_6 
REMARK    2  A    between atoms: C4_5  and  C17_23 
REMARK    3  A    between atoms: C5_6  and  C6_7 
REMARK    4  A    between atoms: C7_8  and  C8_9 
REMARK    5  A    between atoms: C9_10  and  C10_11 
REMARK    6  A    between atoms: C10_11  and  C11_12 
REMARK    7  A    between atoms: C11_12  and  C12_13 
REMARK    8  A    between atoms: C12_13  and  N2_14 
REMARK    9  A    between atoms: N2_14  and  C15_17 
REMARK   10  A    between atoms: C15_17  and  C16_18 
REMARK   11  A    between atoms: C16_18  and  N3_19 
REMARK   12  A    between atoms: C17_23  and  C18_24 
REMARK   13  A    between atoms: C25_32  and  N4_33 
REMARK   14  A    between atoms: C28_38  and  N6_39 
ROOT
HETATM    1  C18 UNL     1      20.592  26.674  10.868  1.00  0.00     0.265 C 
HETATM    2  O1  UNL     1      21.754  25.989  11.205  1.00  0.00    -0.355 OA
HETATM    3  C19 UNL     1      22.858  26.603  10.637  1.00  0.00     0.133 C 
HETATM    4  C20 UNL     1      24.092  25.731  10.653  1.00  0.00     0.032 C 
HETATM    5  C21 UNL     1      25.293  26.629  10.942  1.00  0.00     0.002 C 
HETATM    6  C22 UNL     1      25.184  27.145  12.364  1.00  0.00     0.001 C 
HETATM    7  C23 UNL     1      23.759  27.560  12.687  1.00  0.00     0.011 C 
HETATM    8  C24 UNL     1      23.096  27.902  11.370  1.00  0.00     0.064 C 
HETATM    9  C25 UNL     1      21.754  28.578  11.535  1.00  0.00     0.240 C 
HETATM   10  O2  UNL     1      20.740  28.020  10.792  1.00  0.00    -0.336 OA
ENDROOT
BRANCH   1  11
HETATM   11  C17 UNL     1      20.127  26.118   9.540  1.00  0.00     0.103 C 
BRANCH  11  12
HETATM   12  C4  UNL     1      18.668  26.338   9.283  1.00  0.00     0.168 C 
HETATM   13  N1  UNL     1      18.259  26.396   7.892  1.00  0.00     0.094 N 
HETATM   14  C1  UNL     1      19.185  25.745   6.983  1.00  0.00     0.310 C 
HETATM   15  C2  UNL     1      17.085  25.576   8.122  1.00  0.00     0.275 C 
HETATM   16  C3  UNL     1      17.749  25.160   9.440  1.00  0.00     0.072 C 
BRANCH  12  17
HETATM   17  C5  UNL     1      18.117  27.607   9.961  1.00  0.00     0.069 C 
BRANCH  17  18
HETATM   18  C6  UNL     1      17.522  27.215  11.274  1.00  0.00    -0.024 C 
HETATM   19  C7  UNL     1      17.424  28.015  12.317  1.00  0.00    -0.004 C 
BRANCH  19  20
HETATM   20  C8  UNL     1      17.860  29.381  12.367  1.00  0.00    -0.004 C 
HETATM   21  C9  UNL     1      17.702  30.115  13.489  1.00  0.00    -0.023 C 
BRANCH  21  22
HETATM   22  C10 UNL     1      18.106  31.455  13.586  1.00  0.00     0.055 C 
BRANCH  22  23
HETATM   23  C11 UNL     1      17.564  31.708  15.088  1.00  0.00     0.002 C 
BRANCH  23  24
HETATM   24  C12 UNL     1      17.768  32.917  15.708  1.00  0.00     0.198 C 
BRANCH  24  25
HETATM   25  N2  UNL     1      16.825  33.914  16.080  1.00  0.00    -0.053 N 
HETATM   26  C13 UNL     1      16.415  34.795  15.017  1.00  0.00     0.277 C 
HETATM   27  C14 UNL     1      17.593  34.824  17.004  1.00  0.00     0.277 C 
BRANCH  25  28
HETATM   28  C15 UNL     1      15.691  33.470  16.835  1.00  0.00     0.269 C 
BRANCH  28  29
HETATM   29  C16 UNL     1      15.335  34.368  18.009  1.00  0.00     0.257 C 
BRANCH  29  30
HETATM   30  N3  UNL     1      13.941  34.758  18.019  1.00  0.00    -0.078 N 
ATOM     31  H33 UNL     1      13.594  34.845  18.973  1.00  0.00     0.274 HD
ATOM     32  H32 UNL     1      13.831  35.726  17.714  1.00  0.00     0.274 HD
ATOM     33  H31 UNL     1      13.350  34.134  17.470  1.00  0.00     0.274 HD
ENDBRANCH  29  30
ENDBRANCH  28  29
ENDBRANCH  25  28
ENDBRANCH  24  25
ENDBRANCH  23  24
ENDBRANCH  22  23
ENDBRANCH  21  22
ENDBRANCH  19  20
ENDBRANCH  17  18
ENDBRANCH  12  17
ENDBRANCH  11  12
ENDBRANCH   1  11
BRANCH   9  34
HETATM   34  N4  UNL     1      21.441  28.825  12.923  1.00  0.00    -0.299 N 
HETATM   35  C26 UNL     1      21.047  27.983  13.891  1.00  0.00     0.188 A 
HETATM   36  N5  UNL     1      20.874  28.664  15.045  1.00  0.00    -0.346 N 
HETATM   37  C27 UNL     1      21.155  29.944  14.835  1.00  0.00     0.122 A 
ATOM     38  H5  UNL     1      20.576  28.260  15.933  1.00  0.00     0.167 HD
HETATM   39  C28 UNL     1      21.128  31.029  15.715  1.00  0.00     0.131 A 
HETATM   40  C30 UNL     1      21.507  30.050  13.519  1.00  0.00     0.142 A 
HETATM   41  N7  UNL     1      21.473  32.215  15.194  1.00  0.00    -0.337 N 
HETATM   42  C29 UNL     1      21.820  32.328  13.905  1.00  0.00     0.183 A 
ATOM     43  H7  UNL     1      21.474  33.044  15.788  1.00  0.00     0.168 HD
HETATM   44  N8  UNL     1      21.846  31.276  13.053  1.00  0.00    -0.336 N 
ATOM     45  H8  UNL     1      22.117  31.403  12.079  1.00  0.00     0.168 HD
BRANCH  39  46
HETATM   46  N6  UNL     1      20.799  30.955  16.947  1.00  0.00    -0.383 N 
ATOM     47  H62 UNL     1      21.085  30.144  17.496  1.00  0.00     0.157 HD
ATOM     48  H61 UNL     1      20.258  31.662  17.445  1.00  0.00     0.157 HD
ENDBRANCH  39  46
ENDBRANCH   9  34
TORSDOF 14
ENDMDL
MODEL 5
REMARK VINA RESULT: -7.922937486      1.997      3.543
REMARK  14 active torsions:
REMARK  status: ('A' for Active; 'I' for Inactive)
REMARK    1  A    between atoms: C4_5  and  C5_6 
REMARK    2  A    between atoms: C4_5  and  C17_23 
REMARK    3  A    between atoms: C5_6  and  C6_7 
REMARK    4  A    between atoms: C7_8  and  C8_9 
REMARK    5  A    between atoms: C9_10  and  C10_11 
REMARK    6  A    between atoms: C10_11  and  C11_12 
REMARK    7  A    between atoms: C11_12  and  C12_13 
REMARK    8  A    between atoms: C12_13  and  N2_14 
REMARK    9  A    between atoms: N2_14  and  C15_17 
REMARK   10  A    between atoms: C15_17  and  C16_18 
REMARK   11  A    between atoms: C16_18  and  N3_19 
REMARK   12  A    between atoms: C17_23  and  C18_24 
REMARK   13  A    between atoms: C25_32  and  N4_33 
REMARK   14  A    between atoms: C28_38  and  N6_39 
ROOT
HETATM    1  C18 UNL     1      18.310  35.116  18.345  1.00  0.00     0.265 C 
HETATM    2  O1  UNL     1      17.124  35.113  19.071  1.00  0.00    -0.355 OA
HETATM    3  C19 UNL     1      16.290  36.130  18.638  1.00  0.00     0.133 C 
HETATM    4  C20 UNL     1      15.161  36.418  19.600  1.00  0.00     0.032 C 
HETATM    5  C21 UNL     1      13.914  36.727  18.775  1.00  0.00     0.002 C 
HETATM    6  C22 UNL     1      13.479  35.464  18.058  1.00  0.00     0.001 C 
HETATM    7  C23 UNL     1      14.673  34.722  17.483  1.00  0.00     0.011 C 
HETATM    8  C24 UNL     1      15.764  35.751  17.274  1.00  0.00     0.064 C 
HETATM    9  C25 UNL     1      16.933  35.226  16.471  1.00  0.00     0.240 C 
HETATM   10  O2  UNL     1      18.164  35.456  17.040  1.00  0.00    -0.336 OA
ENDROOT
BRANCH   1  11
HETATM   11  C17 UNL     1      19.246  36.081  19.040  1.00  0.00     0.103 C 
BRANCH  11  12
HETATM   12  C4  UNL     1      20.563  36.234  18.344  1.00  0.00     0.168 C 
HETATM   13  N1  UNL     1      20.730  37.429  17.537  1.00  0.00     0.094 N 
HETATM   14  C1  UNL     1      19.843  38.516  17.910  1.00  0.00     0.310 C 
HETATM   15  C2  UNL     1      22.078  37.661  18.020  1.00  0.00     0.275 C 
HETATM   16  C3  UNL     1      21.733  36.699  19.164  1.00  0.00     0.072 C 
BRANCH  12  17
HETATM   17  C5  UNL     1      20.917  35.037  17.443  1.00  0.00     0.069 C 
BRANCH  17  18
HETATM   18  C6  UNL     1      21.798  34.112  18.217  1.00  0.00    -0.024 C 
HETATM   19  C7  UNL     1      22.407  33.061  17.708  1.00  0.00    -0.004 C 
BRANCH  19  20
HETATM   20  C8  UNL     1      22.334  32.632  16.340  1.00  0.00    -0.004 C 
HETATM   21  C9  UNL     1      23.381  32.803  15.506  1.00  0.00    -0.023 C 
BRANCH  21  22
HETATM   22  C10 UNL     1      23.356  32.407  14.160  1.00  0.00     0.055 C 
BRANCH  22  23
HETATM   23  C11 UNL     1      22.344  31.161  14.347  1.00  0.00     0.002 C 
BRANCH  23  24
HETATM   24  C12 UNL     1      22.075  30.318  13.296  1.00  0.00     0.198 C 
BRANCH  24  25
HETATM   25  N2  UNL     1      21.825  28.918  13.299  1.00  0.00    -0.053 N 
HETATM   26  C13 UNL     1      22.782  28.125  12.571  1.00  0.00     0.277 C 
HETATM   27  C14 UNL     1      20.564  28.765  12.488  1.00  0.00     0.277 C 
BRANCH  25  28
HETATM   28  C15 UNL     1      21.539  28.324  14.571  1.00  0.00     0.269 C 
BRANCH  28  29
HETATM   29  C16 UNL     1      20.084  28.439  14.997  1.00  0.00     0.257 C 
BRANCH  29  30
HETATM   30  N3  UNL     1      19.912  29.188  16.223  1.00  0.00    -0.078 N 
ATOM     31  H33 UNL     1      20.548  29.984  16.256  1.00  0.00     0.274 HD
ATOM     32  H32 UNL     1      19.022  29.687  16.224  1.00  0.00     0.274 HD
ATOM     33  H31 UNL     1      20.007  28.611  17.058  1.00  0.00     0.274 HD
ENDBRANCH  29  30
ENDBRANCH  28  29
ENDBRANCH  25  28
ENDBRANCH  24  25
ENDBRANCH  23  24
ENDBRANCH  22  23
ENDBRANCH  21  22
ENDBRANCH  19  20
ENDBRANCH  17  18
ENDBRANCH  12  17
ENDBRANCH  11  12
ENDBRANCH   1  11
BRANCH   9  34
HETATM   34  N4  UNL     1      16.707  33.877  16.007  1.00  0.00    -0.299 N 
HETATM   35  C26 UNL     1      15.730  33.006  16.303  1.00  0.00     0.188 A 
HETATM   36  N5  UNL     1      15.925  31.855  15.622  1.00  0.00    -0.346 N 
HETATM   37  C27 UNL     1      17.022  31.972  14.884  1.00  0.00     0.122 A 
ATOM     38  H5  UNL     1      15.327  31.030  15.669  1.00  0.00     0.167 HD
HETATM   39  C28 UNL     1      17.626  31.059  14.016  1.00  0.00     0.131 A 
HETATM   40  C30 UNL     1      17.512  33.225  15.120  1.00  0.00     0.142 A 
HETATM   41  N7  UNL     1      18.742  31.482  13.405  1.00  0.00    -0.337 N 
HETATM   42  C29 UNL     1      19.230  32.709  13.630  1.00  0.00     0.183 A 
ATOM     43  H7  UNL     1      19.226  30.860  12.758  1.00  0.00     0.168 HD
HETATM   44  N8  UNL     1      18.643  33.593  14.472  1.00  0.00    -0.336 N 
ATOM     45  H8  UNL     1      19.045  34.518  14.615  1.00  0.00     0.168 HD
BRANCH  39  46
HETATM   46  N6  UNL     1      17.188  29.881  13.784  1.00  0.00    -0.383 N 
ATOM     47  H62 UNL     1      16.334  29.563  14.242  1.00  0.00     0.157 HD
ATOM     48  H61 UNL     1      17.634  29.212  13.156  1.00  0.00     0.157 HD
ENDBRANCH  39  46
ENDBRANCH   9  34
TORSDOF 14
ENDMDL
