MODEL 1
REMARK VINA RESULT: -8.732457841      0.000      0.000
REMARK  13 active torsions:
REMARK  status: ('A' for Active; 'I' for Inactive)
REMARK    1  A    between atoms: C4_4  and  C5_5 
REMARK    2  A    between atoms: C5_5  and  O2_7 
REMARK    3  A    between atoms: O2_7  and  C6_8 
REMARK    4  A    between atoms: C8_11  and  C9_12 
REMARK    5  A    between atoms: C9_12  and  C10_13 
REMARK    6  A    between atoms: C11_14  and  C12_15 
REMARK    7  A    between atoms: C12_15  and  C13_16 
REMARK    8  A    between atoms: C13_16  and  C14_17 
REMARK    9  A    between atoms: C19_24  and  O6_25 
REMARK   10  A    between atoms: N1_28  and  C21_29 
REMARK   11  A    between atoms: C21_29  and  C22_30 
REMARK   12  A    between atoms: C22_30  and  C23_31 
REMARK   13  A    between atoms: C23_31  and  N2_32 
ROOT
HETATM    1  C1  UNL     1      19.136  32.322  13.991  1.00  0.00     0.016 C 
HETATM    2  C2  UNL     1      18.715  30.859  14.006  1.00  0.00    -0.028 C 
HETATM    3  C3  UNL     1      17.231  30.906  14.487  1.00  0.00     0.054 C 
HETATM    4  C4  UNL     1      17.159  31.779  15.689  1.00  0.00     0.014 C 
HETATM    5  C16 UNL     1      18.148  31.657  16.528  1.00  0.00    -0.013 C 
HETATM    6  C17 UNL     1      19.296  30.753  16.387  1.00  0.00     0.036 C 
HETATM    7  C18 UNL     1      19.374  30.048  15.047  1.00  0.00     0.032 C 
HETATM    8  C19 UNL     1      20.788  29.647  14.850  1.00  0.00     0.161 C 
HETATM    9  C20 UNL     1      21.417  29.962  13.535  1.00  0.00     0.095 C 
HETATM   10  N1  UNL     1      20.872  29.273  12.462  1.00  0.00    -0.366 N 
HETATM   11  C28 UNL     1      19.603  29.640  11.952  1.00  0.00     0.093 A 
HETATM   12  C29 UNL     1      18.433  28.844  12.492  1.00  0.00     0.033 A 
HETATM   13  C30 UNL     1      18.624  30.356  12.651  1.00  0.00     0.019 A 
ENDROOT
BRANCH   4  14
HETATM   14  C5  UNL     1      16.060  32.709  15.875  1.00  0.00     0.289 C 
HETATM   15  O1  UNL     1      14.979  32.349  16.445  1.00  0.00    -0.260 OA
BRANCH  14  16
HETATM   16  O2  UNL     1      16.098  34.042  15.454  1.00  0.00    -0.310 OA
BRANCH  16  17
HETATM   17  C6  UNL     1      16.607  35.014  16.310  1.00  0.00     0.158 C 
HETATM   18  C7  UNL     1      16.267  34.584  17.732  1.00  0.00     0.200 C 
HETATM   19  O3  UNL     1      17.450  34.544  18.440  1.00  0.00    -0.383 OA
HETATM   20  C8  UNL     1      18.359  35.392  17.803  1.00  0.00     0.127 C 
HETATM   21  C15 UNL     1      18.123  34.973  16.353  1.00  0.00     0.067 C 
BRANCH  20  22
HETATM   22  C9  UNL     1      19.783  35.103  18.169  1.00  0.00     0.059 C 
BRANCH  22  23
HETATM   23  C10 UNL     1      20.729  35.649  17.176  1.00  0.00    -0.028 C 
HETATM   24  C11 UNL     1      21.846  35.070  16.810  1.00  0.00    -0.030 C 
BRANCH  24  25
HETATM   25  C12 UNL     1      22.378  33.791  17.295  1.00  0.00     0.037 C 
BRANCH  25  26
HETATM   26  C13 UNL     1      22.188  32.776  16.155  1.00  0.00     0.117 C 
BRANCH  26  27
HETATM   27  C14 UNL     1      23.011  33.203  15.018  1.00  0.00     0.172 C 
HETATM   28  O4  UNL     1      22.419  33.392  13.901  1.00  0.00    -0.648 OA
HETATM   29  O5  UNL     1      24.366  33.381  15.198  1.00  0.00    -0.648 OA
ENDBRANCH  26  27
ENDBRANCH  25  26
ENDBRANCH  24  25
ENDBRANCH  22  23
ENDBRANCH  20  22
ENDBRANCH  16  17
ENDBRANCH  14  16
ENDBRANCH   4  14
BRANCH   8  30
HETATM   30  O6  UNL     1      20.883  28.281  15.088  1.00  0.00    -0.390 OA
ATOM     31  H6  UNL     1      20.703  27.828  14.272  1.00  0.00     0.210 HD
ENDBRANCH   8  30
BRANCH  10  32
HETATM   32  C21 UNL     1      21.780  28.897  11.452  1.00  0.00     0.065 C 
BRANCH  32  33
HETATM   33  C22 UNL     1      22.805  27.864  11.604  1.00  0.00     0.075 C 
BRANCH  33  34
HETATM   34  C23 UNL     1      23.161  27.042  10.423  1.00  0.00     0.277 C 
BRANCH  34  35
HETATM   35  N2  UNL     1      22.992  25.615  10.745  1.00  0.00     0.091 N 
HETATM   36  C24 UNL     1      23.492  24.821   9.615  1.00  0.00     0.291 C 
HETATM   37  C25 UNL     1      22.825  25.257   8.356  1.00  0.00     0.144 C 
HETATM   38  N3  UNL     1      21.397  25.306   8.387  1.00  0.00    -0.418 N 
HETATM   39  C26 UNL     1      20.818  25.764   9.627  1.00  0.00     0.144 C 
ATOM     40  H3  UNL     1      20.825  25.035   7.587  1.00  0.00     0.153 HD
HETATM   41  C27 UNL     1      21.574  25.308  10.828  1.00  0.00     0.291 C 
ENDBRANCH  34  35
ENDBRANCH  33  34
ENDBRANCH  32  33
ENDBRANCH  10  32
TORSDOF 13
ENDMDL
MODEL 2
REMARK VINA RESULT: -8.732198888      5.034      9.398
REMARK  13 active torsions:
REMARK  status: ('A' for Active; 'I' for Inactive)
REMARK    1  A    between atoms: C4_4  and  C5_5 
REMARK    2  A    between atoms: C5_5  and  O2_7 
REMARK    3  A    between atoms: O2_7  and  C6_8 
REMARK    4  A    between atoms: C8_11  and  C9_12 
REMARK    5  A    between atoms: C9_12  and  C10_13 
REMARK    6  A    between atoms: C11_14  and  C12_15 
REMARK    7  A    between atoms: C12_15  and  C13_16 
REMARK    8  A    between atoms: C13_16  and  C14_17 
REMARK    9  A    between atoms: C19_24  and  O6_25 
REMARK   10  A    between atoms: N1_28  and  C21_29 
REMARK   11  A    between atoms: C21_29  and  C22_30 
REMARK   12  A    between atoms: C22_30  and  C23_31 
REMARK   13  A    between atoms: C23_31  and  N2_32 
ROOT
HETATM    1  C1  UNL     1      16.898  34.613  15.187  1.00  0.00     0.016 C 
HETATM    2  C2  UNL     1      17.060  34.273  16.662  1.00  0.00    -0.028 C 
HETATM    3  C3  UNL     1      17.671  32.838  16.645  1.00  0.00     0.054 C 
HETATM    4  C4  UNL     1      16.875  32.003  15.707  1.00  0.00     0.014 C 
HETATM    5  C16 UNL     1      15.587  32.199  15.741  1.00  0.00    -0.013 C 
HETATM    6  C17 UNL     1      14.880  33.151  16.606  1.00  0.00     0.036 C 
HETATM    7  C18 UNL     1      15.788  34.082  17.384  1.00  0.00     0.032 C 
HETATM    8  C19 UNL     1      14.984  35.276  17.740  1.00  0.00     0.161 C 
HETATM    9  C20 UNL     1      15.585  36.615  17.477  1.00  0.00     0.095 C 
HETATM   10  N1  UNL     1      16.701  36.901  18.249  1.00  0.00    -0.366 N 
HETATM   11  C28 UNL     1      17.941  36.279  17.963  1.00  0.00     0.093 A 
HETATM   12  C29 UNL     1      18.243  35.035  18.771  1.00  0.00     0.033 A 
HETATM   13  C30 UNL     1      18.104  35.088  17.246  1.00  0.00     0.019 A 
ENDROOT
BRANCH   4  14
HETATM   14  C5  UNL     1      17.518  31.058  14.812  1.00  0.00     0.289 C 
HETATM   15  O1  UNL     1      17.410  29.801  14.988  1.00  0.00    -0.260 OA
BRANCH  14  16
HETATM   16  O2  UNL     1      18.291  31.443  13.711  1.00  0.00    -0.310 OA
BRANCH  16  17
HETATM   17  C6  UNL     1      19.624  31.050  13.642  1.00  0.00     0.158 C 
HETATM   18  C7  UNL     1      20.206  31.655  12.370  1.00  0.00     0.200 C 
HETATM   19  O3  UNL     1      21.318  32.385  12.737  1.00  0.00    -0.383 OA
HETATM   20  C8  UNL     1      21.786  31.872  13.948  1.00  0.00     0.127 C 
HETATM   21  C15 UNL     1      20.460  31.747  14.698  1.00  0.00     0.067 C 
BRANCH  20  22
HETATM   22  C9  UNL     1      22.674  32.829  14.684  1.00  0.00     0.059 C 
BRANCH  22  23
HETATM   23  C10 UNL     1      22.903  32.408  16.079  1.00  0.00    -0.028 C 
HETATM   24  C11 UNL     1      22.432  33.025  17.135  1.00  0.00    -0.030 C 
BRANCH  24  25
HETATM   25  C12 UNL     1      21.596  34.231  17.152  1.00  0.00     0.037 C 
BRANCH  25  26
HETATM   26  C13 UNL     1      22.059  35.069  18.357  1.00  0.00     0.117 C 
BRANCH  26  27
HETATM   27  C14 UNL     1      22.058  36.482  17.961  1.00  0.00     0.172 C 
HETATM   28  O4  UNL     1      21.332  36.811  16.961  1.00  0.00    -0.648 OA
HETATM   29  O5  UNL     1      22.826  37.379  18.670  1.00  0.00    -0.648 OA
ENDBRANCH  26  27
ENDBRANCH  25  26
ENDBRANCH  24  25
ENDBRANCH  22  23
ENDBRANCH  20  22
ENDBRANCH  16  17
ENDBRANCH  14  16
ENDBRANCH   4  14
BRANCH   8  30
HETATM   30  O6  UNL     1      14.647  35.180  19.084  1.00  0.00    -0.390 OA
ATOM     31  H6  UNL     1      14.749  36.041  19.474  1.00  0.00     0.210 HD
ENDBRANCH   8  30
BRANCH  10  32
HETATM   32  C21 UNL     1      16.842  38.245  18.647  1.00  0.00     0.065 C 
BRANCH  32  33
HETATM   33  C22 UNL     1      16.941  39.375  17.722  1.00  0.00     0.075 C 
BRANCH  33  34
HETATM   34  C23 UNL     1      18.210  39.574  16.984  1.00  0.00     0.277 C 
BRANCH  34  35
HETATM   35  N2  UNL     1      18.703  40.945  17.208  1.00  0.00     0.091 N 
HETATM   36  C24 UNL     1      19.728  41.240  16.200  1.00  0.00     0.291 C 
HETATM   37  C25 UNL     1      20.784  40.189  16.227  1.00  0.00     0.144 C 
HETATM   38  N3  UNL     1      21.355  39.906  17.506  1.00  0.00    -0.418 N 
HETATM   39  C26 UNL     1      20.435  39.941  18.618  1.00  0.00     0.144 C 
ATOM     40  H3  UNL     1      22.346  39.695  17.626  1.00  0.00     0.153 HD
HETATM   41  C27 UNL     1      19.396  41.001  18.485  1.00  0.00     0.291 C 
ENDBRANCH  34  35
ENDBRANCH  33  34
ENDBRANCH  32  33
ENDBRANCH  10  32
TORSDOF 13
ENDMDL
MODEL 3
REMARK VINA RESULT: -8.332168990      3.298      9.695
REMARK  13 active torsions:
REMARK  status: ('A' for Active; 'I' for Inactive)
REMARK    1  A    between atoms: C4_4  and  C5_5 
REMARK    2  A    between atoms: C5_5  and  O2_7 
REMARK    3  A    between atoms: O2_7  and  C6_8 
REMARK    4  A    between atoms: C8_11  and  C9_12 
REMARK    5  A    between atoms: C9_12  and  C10_13 
REMARK    6  A    between atoms: C11_14  and  C12_15 
REMARK    7  A    between atoms: C12_15  and  C13_16 
REMARK    8  A    between atoms: C13_16  and  C14_17 
REMARK    9  A    between atoms: C19_24  and  O6_25 
REMARK   10  A    between atoms: N1_28  and  C21_29 
REMARK   11  A    between atoms: C21_29  and  C22_30 
REMARK   12  A    between atoms: C22_30  and  C23_31 
REMARK   13  A    between atoms: C23_31  and  N2_32 
ROOT
HETATM    1  C1  UNL     1      20.929  30.751  12.523  1.00  0.00     0.016 C 
HETATM    2  C2  UNL     1      21.422  30.685  13.961  1.00  0.00    -0.028 C 
HETATM    3  C3  UNL     1      22.601  29.665  13.902  1.00  0.00     0.054 C 
HETATM    4  C4  UNL     1      22.142  28.466  13.151  1.00  0.00     0.014 C 
HETATM    5  C16 UNL     1      20.919  28.088  13.396  1.00  0.00    -0.013 C 
HETATM    6  C17 UNL     1      19.985  28.732  14.328  1.00  0.00     0.036 C 
HETATM    7  C18 UNL     1      20.479  30.047  14.899  1.00  0.00     0.032 C 
HETATM    8  C19 UNL     1      19.283  30.806  15.335  1.00  0.00     0.161 C 
HETATM    9  C20 UNL     1      19.183  32.234  14.916  1.00  0.00     0.095 C 
HETATM   10  N1  UNL     1      20.147  33.061  15.473  1.00  0.00    -0.366 N 
HETATM   11  C28 UNL     1      21.483  33.009  15.005  1.00  0.00     0.093 A 
HETATM   12  C29 UNL     1      22.414  32.120  15.802  1.00  0.00     0.033 A 
HETATM   13  C30 UNL     1      22.062  31.933  14.323  1.00  0.00     0.019 A 
ENDROOT
BRANCH   4  14
HETATM   14  C5  UNL     1      23.012  27.798  12.200  1.00  0.00     0.289 C 
HETATM   15  O1  UNL     1      24.097  28.336  11.806  1.00  0.00    -0.260 OA
BRANCH  14  16
HETATM   16  O2  UNL     1      22.736  26.540  11.653  1.00  0.00    -0.310 OA
BRANCH  16  17
HETATM   17  C6  UNL     1      22.452  26.434  10.295  1.00  0.00     0.158 C 
HETATM   18  C7  UNL     1      22.490  24.951   9.942  1.00  0.00     0.200 C 
HETATM   19  O3  UNL     1      21.279  24.641   9.359  1.00  0.00    -0.383 OA
HETATM   20  C8  UNL     1      20.743  25.817   8.833  1.00  0.00     0.127 C 
HETATM   21  C15 UNL     1      20.999  26.759  10.008  1.00  0.00     0.067 C 
BRANCH  20  22
HETATM   22  C9  UNL     1      19.266  25.729   8.591  1.00  0.00     0.059 C 
BRANCH  22  23
HETATM   23  C10 UNL     1      18.717  26.994   8.066  1.00  0.00    -0.028 C 
HETATM   24  C11 UNL     1      17.932  27.803   8.734  1.00  0.00    -0.030 C 
BRANCH  24  25
HETATM   25  C12 UNL     1      17.447  27.629  10.108  1.00  0.00     0.037 C 
BRANCH  25  26
HETATM   26  C13 UNL     1      18.066  28.766  10.940  1.00  0.00     0.117 C 
BRANCH  26  27
HETATM   27  C14 UNL     1      16.975  29.537  11.546  1.00  0.00     0.172 C 
HETATM   28  O4  UNL     1      17.248  30.222  12.591  1.00  0.00    -0.648 OA
HETATM   29  O5  UNL     1      15.722  29.492  10.974  1.00  0.00    -0.648 OA
ENDBRANCH  26  27
ENDBRANCH  25  26
ENDBRANCH  24  25
ENDBRANCH  22  23
ENDBRANCH  20  22
ENDBRANCH  16  17
ENDBRANCH  14  16
ENDBRANCH   4  14
BRANCH   8  30
HETATM   30  O6  UNL     1      19.209  30.729  16.720  1.00  0.00    -0.390 OA
ATOM     31  H6  UNL     1      18.304  30.870  16.974  1.00  0.00     0.210 HD
ENDBRANCH   8  30
BRANCH  10  32
HETATM   32  C21 UNL     1      19.726  34.370  15.783  1.00  0.00     0.065 C 
BRANCH  32  33
HETATM   33  C22 UNL     1      19.191  34.780  17.081  1.00  0.00     0.075 C 
BRANCH  33  34
HETATM   34  C23 UNL     1      17.777  34.467  17.393  1.00  0.00     0.277 C 
BRANCH  34  35
HETATM   35  N2  UNL     1      16.897  35.108  16.400  1.00  0.00     0.091 N 
HETATM   36  C24 UNL     1      15.954  35.981  17.111  1.00  0.00     0.291 C 
HETATM   37  C25 UNL     1      15.240  35.205  18.164  1.00  0.00     0.144 C 
HETATM   38  N3  UNL     1      14.627  33.986  17.739  1.00  0.00    -0.418 N 
HETATM   39  C26 UNL     1      15.365  33.230  16.755  1.00  0.00     0.144 C 
ATOM     40  H3  UNL     1      13.728  33.672  18.105  1.00  0.00     0.153 HD
HETATM   41  C27 UNL     1      16.073  34.092  15.766  1.00  0.00     0.291 C 
ENDBRANCH  34  35
ENDBRANCH  33  34
ENDBRANCH  32  33
ENDBRANCH  10  32
TORSDOF 13
ENDMDL
MODEL 4
REMARK VINA RESULT: -8.286431624      1.913      4.790
REMARK  13 active torsions:
REMARK  status: ('A' for Active; 'I' for Inactive)
REMARK    1  A    between atoms: C4_4  and  C5_5 
REMARK    2  A    between atoms: C5_5  and  O2_7 
REMARK    3  A    between atoms: O2_7  and  C6_8 
REMARK    4  A    between atoms: C8_11  and  C9_12 
REMARK    5  A    between atoms: C9_12  and  C10_13 
REMARK    6  A    between atoms: C11_14  and  C12_15 
REMARK    7  A    between atoms: C12_15  and  C13_16 
REMARK    8  A    between atoms: C13_16  and  C14_17 
REMARK    9  A    between atoms: C19_24  and  O6_25 
REMARK   10  A    between atoms: N1_28  and  C21_29 
REMARK   11  A    between atoms: C21_29  and  C22_30 
REMARK   12  A    between atoms: C22_30  and  C23_31 
REMARK   13  A    between atoms: C23_31  and  N2_32 
ROOT
HETATM    1  C1  UNL     1      20.236  33.791  15.083  1.00  0.00     0.016 C 
HETATM    2  C2  UNL     1      20.561  32.503  15.826  1.00  0.00    -0.028 C 
HETATM    3  C3  UNL     1      20.970  32.992  17.250  1.00  0.00     0.054 C 
HETATM    4  C4  UNL     1      21.945  34.104  17.099  1.00  0.00     0.014 C 
HETATM    5  C16 UNL     1      22.823  33.953  16.148  1.00  0.00    -0.013 C 
HETATM    6  C17 UNL     1      22.924  32.803  15.240  1.00  0.00     0.036 C 
HETATM    7  C18 UNL     1      21.777  31.817  15.350  1.00  0.00     0.032 C 
HETATM    8  C19 UNL     1      21.721  31.073  14.069  1.00  0.00     0.161 C 
HETATM    9  C20 UNL     1      20.391  30.935  13.410  1.00  0.00     0.095 C 
HETATM   10  N1  UNL     1      19.480  30.165  14.118  1.00  0.00    -0.366 N 
HETATM   11  C28 UNL     1      18.859  30.687  15.279  1.00  0.00     0.093 A 
HETATM   12  C29 UNL     1      19.524  30.318  16.589  1.00  0.00     0.033 A 
HETATM   13  C30 UNL     1      19.350  31.744  16.055  1.00  0.00     0.019 A 
ENDROOT
BRANCH   4  14
HETATM   14  C5  UNL     1      21.883  35.277  17.953  1.00  0.00     0.289 C 
HETATM   15  O1  UNL     1      22.481  35.308  19.078  1.00  0.00    -0.260 OA
BRANCH  14  16
HETATM   16  O2  UNL     1      21.180  36.439  17.619  1.00  0.00    -0.310 OA
BRANCH  16  17
HETATM   17  C6  UNL     1      20.005  36.745  18.299  1.00  0.00     0.158 C 
HETATM   18  C7  UNL     1      19.731  38.228  18.080  1.00  0.00     0.200 C 
HETATM   19  O3  UNL     1      18.459  38.334  17.556  1.00  0.00    -0.383 OA
HETATM   20  C8  UNL     1      17.746  37.193  17.928  1.00  0.00     0.127 C 
HETATM   21  C15 UNL     1      18.797  36.127  17.621  1.00  0.00     0.067 C 
BRANCH  20  22
HETATM   22  C9  UNL     1      16.541  36.951  17.070  1.00  0.00     0.059 C 
BRANCH  22  23
HETATM   23  C10 UNL     1      15.314  36.791  17.874  1.00  0.00    -0.028 C 
HETATM   24  C11 UNL     1      14.827  35.642  18.274  1.00  0.00    -0.030 C 
BRANCH  24  25
HETATM   25  C12 UNL     1      15.383  34.309  18.016  1.00  0.00     0.037 C 
BRANCH  25  26
HETATM   26  C13 UNL     1      14.690  33.781  16.747  1.00  0.00     0.117 C 
BRANCH  26  27
HETATM   27  C14 UNL     1      15.696  33.099  15.925  1.00  0.00     0.172 C 
HETATM   28  O4  UNL     1      15.685  31.820  15.924  1.00  0.00    -0.648 OA
HETATM   29  O5  UNL     1      16.595  33.851  15.201  1.00  0.00    -0.648 OA
ENDBRANCH  26  27
ENDBRANCH  25  26
ENDBRANCH  24  25
ENDBRANCH  22  23
ENDBRANCH  20  22
ENDBRANCH  16  17
ENDBRANCH  14  16
ENDBRANCH   4  14
BRANCH   8  30
HETATM   30  O6  UNL     1      22.259  29.810  14.284  1.00  0.00    -0.390 OA
ATOM     31  H6  UNL     1      22.675  29.527  13.478  1.00  0.00     0.210 HD
ENDBRANCH   8  30
BRANCH  10  32
HETATM   32  C21 UNL     1      18.609  29.377  13.339  1.00  0.00     0.065 C 
BRANCH  32  33
HETATM   33  C22 UNL     1      18.798  29.098  11.915  1.00  0.00     0.075 C 
BRANCH  33  34
HETATM   34  C23 UNL     1      19.141  27.715  11.506  1.00  0.00     0.277 C 
BRANCH  34  35
HETATM   35  N2  UNL     1      20.105  27.754  10.392  1.00  0.00     0.091 N 
HETATM   36  C24 UNL     1      20.186  26.412   9.801  1.00  0.00     0.291 C 
HETATM   37  C25 UNL     1      20.499  25.411  10.859  1.00  0.00     0.144 C 
HETATM   38  N3  UNL     1      21.629  25.702  11.684  1.00  0.00    -0.418 N 
HETATM   39  C26 UNL     1      21.805  27.094  12.026  1.00  0.00     0.144 C 
ATOM     40  H3  UNL     1      22.268  24.977  12.010  1.00  0.00     0.153 HD
HETATM   41  C27 UNL     1      21.434  28.019  10.919  1.00  0.00     0.291 C 
ENDBRANCH  34  35
ENDBRANCH  33  34
ENDBRANCH  32  33
ENDBRANCH  10  32
TORSDOF 13
ENDMDL
MODEL 5
REMARK VINA RESULT: -8.262356760      1.681      2.200
REMARK  13 active torsions:
REMARK  status: ('A' for Active; 'I' for Inactive)
REMARK    1  A    between atoms: C4_4  and  C5_5 
REMARK    2  A    between atoms: C5_5  and  O2_7 
REMARK    3  A    between atoms: O2_7  and  C6_8 
REMARK    4  A    between atoms: C8_11  and  C9_12 
REMARK    5  A    between atoms: C9_12  and  C10_13 
REMARK    6  A    between atoms: C11_14  and  C12_15 
REMARK    7  A    between atoms: C12_15  and  C13_16 
REMARK    8  A    between atoms: C13_16  and  C14_17 
REMARK    9  A    between atoms: C19_24  and  O6_25 
REMARK   10  A    between atoms: N1_28  and  C21_29 
REMARK   11  A    between atoms: C21_29  and  C22_30 
REMARK   12  A    between atoms: C22_30  and  C23_31 
REMARK   13  A    between atoms: C23_31  and  N2_32 
ROOT
HETATM    1  C1  UNL     1      19.532  32.355  13.578  1.00  0.00     0.016 C 
HETATM    2  C2  UNL     1      18.651  31.143  13.845  1.00  0.00    -0.028 C 
HETATM    3  C3  UNL     1      17.268  31.765  14.212  1.00  0.00     0.054 C 
HETATM    4  C4  UNL     1      17.492  32.837  15.219  1.00  0.00     0.014 C 
HETATM    5  C16 UNL     1      18.387  32.571  16.127  1.00  0.00    -0.013 C 
HETATM    6  C17 UNL     1      19.171  31.334  16.234  1.00  0.00     0.036 C 
HETATM    7  C18 UNL     1      19.007  30.388  15.061  1.00  0.00     0.032 C 
HETATM    8  C19 UNL     1      20.207  29.518  15.034  1.00  0.00     0.161 C 
HETATM    9  C20 UNL     1      20.902  29.342  13.726  1.00  0.00     0.095 C 
HETATM   10  N1  UNL     1      20.156  28.666  12.772  1.00  0.00    -0.366 N 
HETATM   11  C28 UNL     1      19.079  29.315  12.121  1.00  0.00     0.093 A 
HETATM   12  C29 UNL     1      17.713  29.069  12.727  1.00  0.00     0.033 A 
HETATM   13  C30 UNL     1      18.395  30.435  12.608  1.00  0.00     0.019 A 
ENDROOT
BRANCH   4  14
HETATM   14  C5  UNL     1      16.763  34.091  15.153  1.00  0.00     0.289 C 
HETATM   15  O1  UNL     1      16.942  34.910  14.194  1.00  0.00    -0.260 OA
BRANCH  14  16
HETATM   16  O2  UNL     1      15.829  34.492  16.115  1.00  0.00    -0.310 OA
BRANCH  16  17
HETATM   17  C6  UNL     1      16.111  35.588  16.924  1.00  0.00     0.158 C 
HETATM   18  C7  UNL     1      15.696  35.217  18.343  1.00  0.00     0.200 C 
HETATM   19  O3  UNL     1      16.798  35.404  19.152  1.00  0.00    -0.383 OA
HETATM   20  C8  UNL     1      17.637  36.328  18.526  1.00  0.00     0.127 C 
HETATM   21  C15 UNL     1      17.606  35.773  17.103  1.00  0.00     0.067 C 
BRANCH  20  22
HETATM   22  C9  UNL     1      19.044  36.280  19.038  1.00  0.00     0.059 C 
BRANCH  22  23
HETATM   23  C10 UNL     1      19.975  37.018  18.163  1.00  0.00    -0.028 C 
HETATM   24  C11 UNL     1      20.999  36.487  17.542  1.00  0.00    -0.030 C 
BRANCH  24  25
HETATM   25  C12 UNL     1      21.425  35.083  17.582  1.00  0.00     0.037 C 
BRANCH  25  26
HETATM   26  C13 UNL     1      21.420  34.580  16.128  1.00  0.00     0.117 C 
BRANCH  26  27
HETATM   27  C14 UNL     1      22.321  33.426  16.039  1.00  0.00     0.172 C 
HETATM   28  O4  UNL     1      23.002  33.293  14.965  1.00  0.00    -0.648 OA
HETATM   29  O5  UNL     1      22.397  32.548  17.099  1.00  0.00    -0.648 OA
ENDBRANCH  26  27
ENDBRANCH  25  26
ENDBRANCH  24  25
ENDBRANCH  22  23
ENDBRANCH  20  22
ENDBRANCH  16  17
ENDBRANCH  14  16
ENDBRANCH   4  14
BRANCH   8  30
HETATM   30  O6  UNL     1      19.846  28.273  15.533  1.00  0.00    -0.390 OA
ATOM     31  H6  UNL     1      20.232  27.609  14.974  1.00  0.00     0.210 HD
ENDBRANCH   8  30
BRANCH  10  32
HETATM   32  C21 UNL     1      20.886  27.821  11.911  1.00  0.00     0.065 C 
BRANCH  32  33
HETATM   33  C22 UNL     1      20.360  26.589  11.322  1.00  0.00     0.075 C 
BRANCH  33  34
HETATM   34  C23 UNL     1      20.160  26.537   9.855  1.00  0.00     0.277 C 
BRANCH  34  35
HETATM   35  N2  UNL     1      18.888  25.857   9.553  1.00  0.00     0.091 N 
HETATM   36  C24 UNL     1      18.876  25.507   8.127  1.00  0.00     0.291 C 
HETATM   37  C25 UNL     1      19.142  26.721   7.304  1.00  0.00     0.144 C 
HETATM   38  N3  UNL     1      18.325  27.860   7.584  1.00  0.00    -0.418 N 
HETATM   39  C26 UNL     1      18.006  28.068   8.976  1.00  0.00     0.144 C 
ATOM     40  H3  UNL     1      17.989  28.483   6.849  1.00  0.00     0.153 HD
HETATM   41  C27 UNL     1      17.792  26.797   9.724  1.00  0.00     0.291 C 
ENDBRANCH  34  35
ENDBRANCH  33  34
ENDBRANCH  32  33
ENDBRANCH  10  32
TORSDOF 13
ENDMDL
