MODEL 1
REMARK VINA RESULT: -9.425730874      0.000      0.000
REMARK  13 active torsions:
REMARK  status: ('A' for Active; 'I' for Inactive)
REMARK    1  A    between atoms: C2_2  and  C3_3 
REMARK    2  A    between atoms: C3_3  and  N1_4 
REMARK    3  A    between atoms: N1_4  and  C4_6 
REMARK    4  A    between atoms: C6_13  and  N4_14 
REMARK    5  A    between atoms: N4_14  and  C7_16 
REMARK    6  A    between atoms: C10_19  and  O2_20 
REMARK    7  A    between atoms: O2_20  and  C11_21 
REMARK    8  A    between atoms: C11_21  and  C12_22 
REMARK    9  A    between atoms: C12_22  and  C13_23 
REMARK   10  A    between atoms: C13_23  and  N5_24 
REMARK   11  A    between atoms: N6_27  and  C16_28 
REMARK   12  A    between atoms: C21_33  and  N7_34 
REMARK   13  A    between atoms: C28_41  and  O3_42 
ROOT
HETATM    1  C7  UNL     1      18.726  35.986  18.296  1.00  0.00     0.082 A 
HETATM    2  C8  UNL     1      18.562  34.815  17.587  1.00  0.00     0.036 A 
HETATM    3  C9  UNL     1      19.577  34.274  16.824  1.00  0.00     0.039 A 
HETATM    4  C10 UNL     1      20.813  34.864  16.724  1.00  0.00     0.071 A 
HETATM    5  C27 UNL     1      20.982  36.055  17.444  1.00  0.00     0.075 A 
HETATM    6  C28 UNL     1      19.961  36.582  18.200  1.00  0.00     0.098 A 
ENDROOT
BRANCH   4   7
HETATM    7  O2  UNL     1      21.880  34.407  16.004  1.00  0.00    -0.351 OA
BRANCH   7   8
HETATM    8  C11 UNL     1      22.766  33.393  16.392  1.00  0.00     0.177 C 
BRANCH   8   9
HETATM    9  C12 UNL     1      22.824  32.331  15.368  1.00  0.00     0.057 C 
BRANCH   9  10
HETATM   10  C13 UNL     1      22.004  32.453  14.137  1.00  0.00     0.274 C 
BRANCH  10  11
HETATM   11  N5  UNL     1      20.632  32.112  14.197  1.00  0.00     0.091 N 
HETATM   12  C14 UNL     1      20.473  30.838  14.959  1.00  0.00     0.292 C 
HETATM   13  C15 UNL     1      21.034  29.656  14.278  1.00  0.00     0.153 C 
HETATM   14  N6  UNL     1      21.173  29.718  12.862  1.00  0.00    -0.377 N 
HETATM   15  C25 UNL     1      20.783  30.893  12.074  1.00  0.00     0.153 C 
HETATM   16  C26 UNL     1      19.981  31.847  12.922  1.00  0.00     0.292 C 
BRANCH  14  17
HETATM   17  C16 UNL     1      21.707  28.615  12.144  1.00  0.00     0.032 A 
HETATM   18  C17 UNL     1      23.030  28.232  12.237  1.00  0.00     0.036 A 
HETATM   19  C18 UNL     1      23.563  27.174  11.555  1.00  0.00    -0.058 A 
HETATM   20  C19 UNL     1      24.994  26.791  11.681  1.00  0.00     0.048 C 
HETATM   21  C20 UNL     1      22.723  26.452  10.724  1.00  0.00     0.036 A 
HETATM   22  C21 UNL     1      21.384  26.781  10.583  1.00  0.00     0.032 A 
HETATM   23  C24 UNL     1      20.896  27.855  11.293  1.00  0.00     0.058 A 
BRANCH  22  24
HETATM   24  N7  UNL     1      20.588  25.998   9.718  1.00  0.00    -0.389 N 
HETATM   25  C22 UNL     1      19.151  25.895   9.966  1.00  0.00     0.149 C 
HETATM   26  C23 UNL     1      21.156  25.290   8.595  1.00  0.00     0.149 C 
ENDBRANCH  22  24
ENDBRANCH  14  17
ENDBRANCH  10  11
ENDBRANCH   9  10
ENDBRANCH   8   9
ENDBRANCH   7   8
ENDBRANCH   4   7
BRANCH   6  27
HETATM   27  O3  UNL     1      20.159  37.768  18.905  1.00  0.00    -0.354 OA
HETATM   28  C29 UNL     1      20.910  38.819  18.348  1.00  0.00     0.210 C 
ENDBRANCH   6  27
BRANCH   1  29
HETATM   29  N4  UNL     1      17.696  36.546  19.084  1.00  0.00    -0.188 N 
ATOM     30  H4  UNL     1      17.946  37.109  19.896  1.00  0.00     0.184 HD
BRANCH  29  31
HETATM   31  C6  UNL     1      16.457  36.368  18.809  1.00  0.00     0.701 A 
HETATM   32  N3  UNL     1      15.478  37.246  19.091  1.00  0.00    -0.140 N 
HETATM   33  C5  UNL     1      14.194  37.020  18.767  1.00  0.00     0.352 A 
ATOM     34  H3  UNL     1      15.719  38.114  19.569  1.00  0.00     0.189 HD
HETATM   35  N2  UNL     1      13.874  35.875  18.137  1.00  0.00    -0.140 N 
HETATM   36  O1  UNL     1      13.269  37.823  19.021  1.00  0.00    -0.246 OA
HETATM   37  C4  UNL     1      14.820  34.968  17.834  1.00  0.00     0.696 A 
ATOM     38  H2  UNL     1      12.902  35.692  17.886  1.00  0.00     0.189 HD
HETATM   39  N8  UNL     1      16.102  35.237  18.180  1.00  0.00    -0.022 N 
ATOM     40  H8  UNL     1      16.825  34.553  17.955  1.00  0.00     0.203 HD
BRANCH  37  41
HETATM   41  N1  UNL     1      14.572  33.867  17.224  1.00  0.00    -0.225 N 
ATOM     42  H1  UNL     1      13.900  33.225  17.642  1.00  0.00     0.177 HD
BRANCH  41  43
HETATM   43  C3  UNL     1      15.192  33.487  15.981  1.00  0.00     0.137 C 
BRANCH  43  44
HETATM   44  C2  UNL     1      15.687  32.052  16.123  1.00  0.00     0.016 C 
HETATM   45  C1  UNL     1      16.910  31.915  15.250  1.00  0.00     0.006 C 
ENDBRANCH  43  44
ENDBRANCH  41  43
ENDBRANCH  37  41
ENDBRANCH  29  31
ENDBRANCH   1  29
TORSDOF 13
ENDMDL
MODEL 2
REMARK VINA RESULT: -9.349360010      0.814      1.824
REMARK  13 active torsions:
REMARK  status: ('A' for Active; 'I' for Inactive)
REMARK    1  A    between atoms: C2_2  and  C3_3 
REMARK    2  A    between atoms: C3_3  and  N1_4 
REMARK    3  A    between atoms: N1_4  and  C4_6 
REMARK    4  A    between atoms: C6_13  and  N4_14 
REMARK    5  A    between atoms: N4_14  and  C7_16 
REMARK    6  A    between atoms: C10_19  and  O2_20 
REMARK    7  A    between atoms: O2_20  and  C11_21 
REMARK    8  A    between atoms: C11_21  and  C12_22 
REMARK    9  A    between atoms: C12_22  and  C13_23 
REMARK   10  A    between atoms: C13_23  and  N5_24 
REMARK   11  A    between atoms: N6_27  and  C16_28 
REMARK   12  A    between atoms: C21_33  and  N7_34 
REMARK   13  A    between atoms: C28_41  and  O3_42 
ROOT
HETATM    1  C7  UNL     1      18.791  35.866  18.269  1.00  0.00     0.082 A 
HETATM    2  C8  UNL     1      18.660  34.715  17.521  1.00  0.00     0.036 A 
HETATM    3  C9  UNL     1      19.677  34.248  16.714  1.00  0.00     0.039 A 
HETATM    4  C10 UNL     1      20.883  34.897  16.606  1.00  0.00     0.071 A 
HETATM    5  C27 UNL     1      21.019  36.067  17.365  1.00  0.00     0.075 A 
HETATM    6  C28 UNL     1      19.995  36.521  18.165  1.00  0.00     0.098 A 
ENDROOT
BRANCH   4   7
HETATM    7  O2  UNL     1      21.951  34.515  15.844  1.00  0.00    -0.351 OA
BRANCH   7   8
HETATM    8  C11 UNL     1      22.889  33.526  16.171  1.00  0.00     0.177 C 
BRANCH   8   9
HETATM    9  C12 UNL     1      23.201  32.693  14.994  1.00  0.00     0.057 C 
BRANCH   9  10
HETATM   10  C13 UNL     1      22.351  31.515  14.682  1.00  0.00     0.274 C 
BRANCH  10  11
HETATM   11  N5  UNL     1      20.944  31.661  14.728  1.00  0.00     0.091 N 
HETATM   12  C14 UNL     1      20.343  30.451  15.361  1.00  0.00     0.292 C 
HETATM   13  C15 UNL     1      20.479  29.221  14.558  1.00  0.00     0.153 C 
HETATM   14  N6  UNL     1      20.660  29.371  13.153  1.00  0.00    -0.377 N 
HETATM   15  C25 UNL     1      20.712  30.680  12.492  1.00  0.00     0.153 C 
HETATM   16  C26 UNL     1      20.268  31.763  13.443  1.00  0.00     0.292 C 
BRANCH  14  17
HETATM   17  C16 UNL     1      20.798  28.228  12.321  1.00  0.00     0.032 A 
HETATM   18  C17 UNL     1      19.720  27.588  11.744  1.00  0.00     0.036 A 
HETATM   19  C18 UNL     1      19.831  26.488  10.941  1.00  0.00    -0.058 A 
HETATM   20  C19 UNL     1      18.646  25.825  10.336  1.00  0.00     0.048 C 
HETATM   21  C20 UNL     1      21.101  25.992  10.699  1.00  0.00     0.036 A 
HETATM   22  C21 UNL     1      22.228  26.584  11.246  1.00  0.00     0.032 A 
HETATM   23  C24 UNL     1      22.061  27.692  12.047  1.00  0.00     0.058 A 
BRANCH  22  24
HETATM   24  N7  UNL     1      23.491  26.022  10.955  1.00  0.00    -0.389 N 
HETATM   25  C22 UNL     1      24.680  26.551  11.620  1.00  0.00     0.149 C 
HETATM   26  C23 UNL     1      23.641  24.939  10.011  1.00  0.00     0.149 C 
ENDBRANCH  22  24
ENDBRANCH  14  17
ENDBRANCH  10  11
ENDBRANCH   9  10
ENDBRANCH   8   9
ENDBRANCH   7   8
ENDBRANCH   4   7
BRANCH   6  27
HETATM   27  O3  UNL     1      20.158  37.687  18.909  1.00  0.00    -0.354 OA
HETATM   28  C29 UNL     1      20.895  38.771  18.394  1.00  0.00     0.210 C 
ENDBRANCH   6  27
BRANCH   1  29
HETATM   29  N4  UNL     1      17.757  36.350  19.102  1.00  0.00    -0.188 N 
ATOM     30  H4  UNL     1      18.004  36.817  19.974  1.00  0.00     0.184 HD
BRANCH  29  31
HETATM   31  C6  UNL     1      16.520  36.220  18.795  1.00  0.00     0.701 A 
HETATM   32  N3  UNL     1      15.570  37.140  19.042  1.00  0.00    -0.140 N 
HETATM   33  C5  UNL     1      14.287  36.963  18.685  1.00  0.00     0.352 A 
ATOM     34  H3  UNL     1      15.834  38.003  19.517  1.00  0.00     0.189 HD
HETATM   35  N2  UNL     1      13.937  35.825  18.059  1.00  0.00    -0.140 N 
HETATM   36  O1  UNL     1      13.390  37.806  18.906  1.00  0.00    -0.246 OA
HETATM   37  C4  UNL     1      14.853  34.876  17.791  1.00  0.00     0.696 A 
ATOM     38  H2  UNL     1      12.966  35.679  17.783  1.00  0.00     0.189 HD
HETATM   39  N8  UNL     1      16.135  35.097  18.169  1.00  0.00    -0.022 N 
ATOM     40  H8  UNL     1      16.835  34.382  17.970  1.00  0.00     0.203 HD
BRANCH  37  41
HETATM   41  N1  UNL     1      14.577  33.779  17.186  1.00  0.00    -0.225 N 
ATOM     42  H1  UNL     1      13.910  33.144  17.622  1.00  0.00     0.177 HD
BRANCH  41  43
HETATM   43  C3  UNL     1      15.156  33.396  15.925  1.00  0.00     0.137 C 
BRANCH  43  44
HETATM   44  C2  UNL     1      15.799  32.026  16.102  1.00  0.00     0.016 C 
HETATM   45  C1  UNL     1      16.950  31.944  15.129  1.00  0.00     0.006 C 
ENDBRANCH  43  44
ENDBRANCH  41  43
ENDBRANCH  37  41
ENDBRANCH  29  31
ENDBRANCH   1  29
TORSDOF 13
ENDMDL
MODEL 3
REMARK VINA RESULT: -9.252738905      3.187     11.481
REMARK  13 active torsions:
REMARK  status: ('A' for Active; 'I' for Inactive)
REMARK    1  A    between atoms: C2_2  and  C3_3 
REMARK    2  A    between atoms: C3_3  and  N1_4 
REMARK    3  A    between atoms: N1_4  and  C4_6 
REMARK    4  A    between atoms: C6_13  and  N4_14 
REMARK    5  A    between atoms: N4_14  and  C7_16 
REMARK    6  A    between atoms: C10_19  and  O2_20 
REMARK    7  A    between atoms: O2_20  and  C11_21 
REMARK    8  A    between atoms: C11_21  and  C12_22 
REMARK    9  A    between atoms: C12_22  and  C13_23 
REMARK   10  A    between atoms: C13_23  and  N5_24 
REMARK   11  A    between atoms: N6_27  and  C16_28 
REMARK   12  A    between atoms: C21_33  and  N7_34 
REMARK   13  A    between atoms: C28_41  and  O3_42 
ROOT
HETATM    1  C7  UNL     1      20.293  28.708  12.562  1.00  0.00     0.082 A 
HETATM    2  C8  UNL     1      21.370  28.948  13.388  1.00  0.00     0.036 A 
HETATM    3  C9  UNL     1      21.783  30.227  13.700  1.00  0.00     0.039 A 
HETATM    4  C10 UNL     1      21.147  31.342  13.209  1.00  0.00     0.071 A 
HETATM    5  C27 UNL     1      20.051  31.101  12.369  1.00  0.00     0.075 A 
HETATM    6  C28 UNL     1      19.653  29.819  12.067  1.00  0.00     0.098 A 
ENDROOT
BRANCH   4   7
HETATM    7  O2  UNL     1      21.472  32.645  13.461  1.00  0.00    -0.351 OA
BRANCH   7   8
HETATM    8  C11 UNL     1      22.191  33.119  14.567  1.00  0.00     0.177 C 
BRANCH   8   9
HETATM    9  C12 UNL     1      21.307  33.266  15.740  1.00  0.00     0.057 C 
BRANCH   9  10
HETATM   10  C13 UNL     1      19.958  33.862  15.571  1.00  0.00     0.274 C 
BRANCH  10  11
HETATM   11  N5  UNL     1      18.840  32.998  15.476  1.00  0.00     0.091 N 
HETATM   12  C14 UNL     1      17.835  33.592  14.546  1.00  0.00     0.292 C 
HETATM   13  C15 UNL     1      17.203  34.826  15.051  1.00  0.00     0.153 C 
HETATM   14  N6  UNL     1      17.193  35.027  16.461  1.00  0.00    -0.377 N 
HETATM   15  C25 UNL     1      17.774  34.069  17.408  1.00  0.00     0.153 C 
HETATM   16  C26 UNL     1      18.096  32.773  16.707  1.00  0.00     0.292 C 
BRANCH  14  17
HETATM   17  C16 UNL     1      16.601  36.194  17.015  1.00  0.00     0.032 A 
HETATM   18  C17 UNL     1      15.449  36.160  17.775  1.00  0.00     0.036 A 
HETATM   19  C18 UNL     1      14.863  37.271  18.316  1.00  0.00    -0.058 A 
HETATM   20  C19 UNL     1      13.622  37.194  19.130  1.00  0.00     0.048 C 
HETATM   21  C20 UNL     1      15.466  38.496  18.083  1.00  0.00     0.036 A 
HETATM   22  C21 UNL     1      16.624  38.603  17.329  1.00  0.00     0.032 A 
HETATM   23  C24 UNL     1      17.174  37.454  16.807  1.00  0.00     0.058 A 
BRANCH  22  24
HETATM   24  N7  UNL     1      17.181  39.887  17.134  1.00  0.00    -0.389 N 
HETATM   25  C22 UNL     1      16.312  41.060  17.197  1.00  0.00     0.149 C 
HETATM   26  C23 UNL     1      18.588  40.072  16.868  1.00  0.00     0.149 C 
ENDBRANCH  22  24
ENDBRANCH  14  17
ENDBRANCH  10  11
ENDBRANCH   9  10
ENDBRANCH   8   9
ENDBRANCH   7   8
ENDBRANCH   4   7
BRANCH   6  27
HETATM   27  O3  UNL     1      18.559  29.610  11.229  1.00  0.00    -0.354 OA
HETATM   28  C29 UNL     1      17.256  29.525  11.754  1.00  0.00     0.210 C 
ENDBRANCH   6  27
BRANCH   1  29
HETATM   29  N4  UNL     1      19.860  27.402  12.241  1.00  0.00    -0.188 N 
ATOM     30  H4  UNL     1      19.262  26.904  12.901  1.00  0.00     0.184 HD
BRANCH  29  31
HETATM   31  C6  UNL     1      20.194  26.824  11.147  1.00  0.00     0.701 A 
HETATM   32  N3  UNL     1      21.339  26.144  10.961  1.00  0.00    -0.140 N 
HETATM   33  C5  UNL     1      21.636  25.540   9.798  1.00  0.00     0.352 A 
ATOM     34  H3  UNL     1      22.005  26.084  11.730  1.00  0.00     0.189 HD
HETATM   35  N2  UNL     1      20.758  25.619   8.782  1.00  0.00    -0.140 N 
HETATM   36  O1  UNL     1      22.695  24.904   9.605  1.00  0.00    -0.246 OA
HETATM   37  C4  UNL     1      19.600  26.288   8.922  1.00  0.00     0.696 A 
ATOM     38  H2  UNL     1      20.973  25.165   7.894  1.00  0.00     0.189 HD
HETATM   39  N8  UNL     1      19.341  26.882  10.112  1.00  0.00    -0.022 N 
ATOM     40  H8  UNL     1      18.465  27.392  10.226  1.00  0.00     0.203 HD
BRANCH  37  41
HETATM   41  N1  UNL     1      18.722  26.384   7.991  1.00  0.00    -0.225 N 
ATOM     42  H1  UNL     1      18.153  25.564   7.780  1.00  0.00     0.177 HD
BRANCH  41  43
HETATM   43  C3  UNL     1      18.496  27.583   7.229  1.00  0.00     0.137 C 
BRANCH  43  44
HETATM   44  C2  UNL     1      18.764  27.264   5.762  1.00  0.00     0.016 C 
HETATM   45  C1  UNL     1      18.562  28.541   4.984  1.00  0.00     0.006 C 
ENDBRANCH  43  44
ENDBRANCH  41  43
ENDBRANCH  37  41
ENDBRANCH  29  31
ENDBRANCH   1  29
TORSDOF 13
ENDMDL
MODEL 4
REMARK VINA RESULT: -9.213959563      1.614      2.634
REMARK  13 active torsions:
REMARK  status: ('A' for Active; 'I' for Inactive)
REMARK    1  A    between atoms: C2_2  and  C3_3 
REMARK    2  A    between atoms: C3_3  and  N1_4 
REMARK    3  A    between atoms: N1_4  and  C4_6 
REMARK    4  A    between atoms: C6_13  and  N4_14 
REMARK    5  A    between atoms: N4_14  and  C7_16 
REMARK    6  A    between atoms: C10_19  and  O2_20 
REMARK    7  A    between atoms: O2_20  and  C11_21 
REMARK    8  A    between atoms: C11_21  and  C12_22 
REMARK    9  A    between atoms: C12_22  and  C13_23 
REMARK   10  A    between atoms: C13_23  and  N5_24 
REMARK   11  A    between atoms: N6_27  and  C16_28 
REMARK   12  A    between atoms: C21_33  and  N7_34 
REMARK   13  A    between atoms: C28_41  and  O3_42 
ROOT
HETATM    1  C7  UNL     1      18.936  36.969  18.678  1.00  0.00     0.082 A 
HETATM    2  C8  UNL     1      19.258  35.681  19.052  1.00  0.00     0.036 A 
HETATM    3  C9  UNL     1      20.394  35.048  18.591  1.00  0.00     0.039 A 
HETATM    4  C10 UNL     1      21.275  35.659  17.732  1.00  0.00     0.071 A 
HETATM    5  C27 UNL     1      20.950  36.967  17.351  1.00  0.00     0.075 A 
HETATM    6  C28 UNL     1      19.814  37.585  17.819  1.00  0.00     0.098 A 
ENDROOT
BRANCH   4   7
HETATM    7  O2  UNL     1      22.425  35.122  17.225  1.00  0.00    -0.351 OA
BRANCH   7   8
HETATM    8  C11 UNL     1      22.787  33.768  17.250  1.00  0.00     0.177 C 
BRANCH   8   9
HETATM    9  C12 UNL     1      22.858  33.222  15.881  1.00  0.00     0.057 C 
BRANCH   9  10
HETATM   10  C13 UNL     1      21.713  32.447  15.339  1.00  0.00     0.274 C 
BRANCH  10  11
HETATM   11  N5  UNL     1      20.447  32.585  15.956  1.00  0.00     0.091 N 
HETATM   12  C14 UNL     1      19.983  31.251  16.436  1.00  0.00     0.292 C 
HETATM   13  C15 UNL     1      19.674  30.296  15.355  1.00  0.00     0.153 C 
HETATM   14  N6  UNL     1      19.346  30.835  14.077  1.00  0.00    -0.377 N 
HETATM   15  C25 UNL     1      19.304  32.276  13.808  1.00  0.00     0.153 C 
HETATM   16  C26 UNL     1      19.365  33.051  15.100  1.00  0.00     0.292 C 
BRANCH  14  17
HETATM   17  C16 UNL     1      19.039  29.971  12.992  1.00  0.00     0.032 A 
HETATM   18  C17 UNL     1      17.826  29.999  12.334  1.00  0.00     0.036 A 
HETATM   19  C18 UNL     1      17.511  29.177  11.288  1.00  0.00    -0.058 A 
HETATM   20  C19 UNL     1      16.193  29.237  10.603  1.00  0.00     0.048 C 
HETATM   21  C20 UNL     1      18.468  28.267  10.872  1.00  0.00     0.036 A 
HETATM   22  C21 UNL     1      19.707  28.184  11.487  1.00  0.00     0.032 A 
HETATM   23  C24 UNL     1      19.975  29.036  12.535  1.00  0.00     0.058 A 
BRANCH  22  24
HETATM   24  N7  UNL     1      20.632  27.231  11.007  1.00  0.00    -0.389 N 
HETATM   25  C22 UNL     1      21.987  27.210  11.556  1.00  0.00     0.149 C 
HETATM   26  C23 UNL     1      20.278  26.276   9.984  1.00  0.00     0.149 C 
ENDBRANCH  22  24
ENDBRANCH  14  17
ENDBRANCH  10  11
ENDBRANCH   9  10
ENDBRANCH   8   9
ENDBRANCH   7   8
ENDBRANCH   4   7
BRANCH   6  27
HETATM   27  O3  UNL     1      19.517  38.887  17.422  1.00  0.00    -0.354 OA
HETATM   28  C29 UNL     1      20.292  39.972  17.874  1.00  0.00     0.210 C 
ENDBRANCH   6  27
BRANCH   1  29
HETATM   29  N4  UNL     1      17.779  37.628  19.149  1.00  0.00    -0.188 N 
ATOM     30  H4  UNL     1      17.882  38.505  19.658  1.00  0.00     0.184 HD
BRANCH  29  31
HETATM   31  C6  UNL     1      16.602  37.157  18.957  1.00  0.00     0.701 A 
HETATM   32  N3  UNL     1      15.466  37.866  19.080  1.00  0.00    -0.140 N 
HETATM   33  C5  UNL     1      14.255  37.330  18.850  1.00  0.00     0.352 A 
ATOM     34  H3  UNL     1      15.525  38.845  19.358  1.00  0.00     0.189 HD
HETATM   35  N2  UNL     1      14.175  36.038  18.483  1.00  0.00    -0.140 N 
HETATM   36  O1  UNL     1      13.188  37.972  18.960  1.00  0.00    -0.246 OA
HETATM   37  C4  UNL     1      15.285  35.290  18.347  1.00  0.00     0.696 A 
ATOM     38  H2  UNL     1      13.262  35.620  18.307  1.00  0.00     0.189 HD
HETATM   39  N8  UNL     1      16.485  35.872  18.589  1.00  0.00    -0.022 N 
ATOM     40  H8  UNL     1      17.331  35.311  18.488  1.00  0.00     0.203 HD
BRANCH  37  41
HETATM   41  N1  UNL     1      15.267  34.059  17.988  1.00  0.00    -0.225 N 
ATOM     42  H1  UNL     1      15.731  33.376  18.586  1.00  0.00     0.177 HD
BRANCH  41  43
HETATM   43  C3  UNL     1      14.628  33.588  16.787  1.00  0.00     0.137 C 
BRANCH  43  44
HETATM   44  C2  UNL     1      15.703  33.411  15.722  1.00  0.00     0.016 C 
HETATM   45  C1  UNL     1      16.126  31.963  15.751  1.00  0.00     0.006 C 
ENDBRANCH  43  44
ENDBRANCH  41  43
ENDBRANCH  37  41
ENDBRANCH  29  31
ENDBRANCH   1  29
TORSDOF 13
ENDMDL
MODEL 5
REMARK VINA RESULT: -9.088184645      3.172     11.203
REMARK  13 active torsions:
REMARK  status: ('A' for Active; 'I' for Inactive)
REMARK    1  A    between atoms: C2_2  and  C3_3 
REMARK    2  A    between atoms: C3_3  and  N1_4 
REMARK    3  A    between atoms: N1_4  and  C4_6 
REMARK    4  A    between atoms: C6_13  and  N4_14 
REMARK    5  A    between atoms: N4_14  and  C7_16 
REMARK    6  A    between atoms: C10_19  and  O2_20 
REMARK    7  A    between atoms: O2_20  and  C11_21 
REMARK    8  A    between atoms: C11_21  and  C12_22 
REMARK    9  A    between atoms: C12_22  and  C13_23 
REMARK   10  A    between atoms: C13_23  and  N5_24 
REMARK   11  A    between atoms: N6_27  and  C16_28 
REMARK   12  A    between atoms: C21_33  and  N7_34 
REMARK   13  A    between atoms: C28_41  and  O3_42 
ROOT
HETATM    1  C7  UNL     1      21.140  28.738  11.974  1.00  0.00     0.082 A 
HETATM    2  C8  UNL     1      22.143  28.908  12.904  1.00  0.00     0.036 A 
HETATM    3  C9  UNL     1      22.079  29.883  13.879  1.00  0.00     0.039 A 
HETATM    4  C10 UNL     1      21.013  30.743  13.985  1.00  0.00     0.071 A 
HETATM    5  C27 UNL     1      19.992  30.572  13.040  1.00  0.00     0.075 A 
HETATM    6  C28 UNL     1      20.071  29.596  12.074  1.00  0.00     0.098 A 
ENDROOT
BRANCH   4   7
HETATM    7  O2  UNL     1      20.852  31.733  14.913  1.00  0.00    -0.351 OA
BRANCH   7   8
HETATM    8  C11 UNL     1      20.545  31.554  16.269  1.00  0.00     0.177 C 
BRANCH   8   9
HETATM    9  C12 UNL     1      19.204  30.957  16.425  1.00  0.00     0.057 C 
BRANCH   9  10
HETATM   10  C13 UNL     1      18.013  31.840  16.508  1.00  0.00     0.274 C 
BRANCH  10  11
HETATM   11  N5  UNL     1      17.158  31.937  15.384  1.00  0.00     0.091 N 
HETATM   12  C14 UNL     1      17.583  33.091  14.539  1.00  0.00     0.292 C 
HETATM   13  C15 UNL     1      17.377  34.408  15.172  1.00  0.00     0.153 C 
HETATM   14  N6  UNL     1      16.389  34.497  16.194  1.00  0.00    -0.377 N 
HETATM   15  C25 UNL     1      15.585  33.348  16.628  1.00  0.00     0.153 C 
HETATM   16  C26 UNL     1      15.755  32.200  15.666  1.00  0.00     0.292 C 
BRANCH  14  17
HETATM   17  C16 UNL     1      16.140  35.735  16.845  1.00  0.00     0.032 A 
HETATM   18  C17 UNL     1      15.018  35.961  17.618  1.00  0.00     0.036 A 
HETATM   19  C18 UNL     1      14.760  37.144  18.252  1.00  0.00    -0.058 A 
HETATM   20  C19 UNL     1      13.541  37.351  19.077  1.00  0.00     0.048 C 
HETATM   21  C20 UNL     1      15.680  38.169  18.105  1.00  0.00     0.036 A 
HETATM   22  C21 UNL     1      16.827  38.011  17.344  1.00  0.00     0.032 A 
HETATM   23  C24 UNL     1      17.041  36.799  16.727  1.00  0.00     0.058 A 
BRANCH  22  24
HETATM   24  N7  UNL     1      17.719  39.102  17.240  1.00  0.00    -0.389 N 
HETATM   25  C22 UNL     1      17.196  40.423  16.899  1.00  0.00     0.149 C 
HETATM   26  C23 UNL     1      19.138  38.946  17.457  1.00  0.00     0.149 C 
ENDBRANCH  22  24
ENDBRANCH  14  17
ENDBRANCH  10  11
ENDBRANCH   9  10
ENDBRANCH   8   9
ENDBRANCH   7   8
ENDBRANCH   4   7
BRANCH   6  27
HETATM   27  O3  UNL     1      19.040  29.450  11.148  1.00  0.00    -0.354 OA
HETATM   28  C29 UNL     1      17.695  29.452  11.563  1.00  0.00     0.210 C 
ENDBRANCH   6  27
BRANCH   1  29
HETATM   29  N4  UNL     1      21.194  27.740  10.975  1.00  0.00    -0.188 N 
ATOM     30  H4  UNL     1      22.085  27.543  10.521  1.00  0.00     0.184 HD
BRANCH  29  31
HETATM   31  C6  UNL     1      20.157  27.074  10.623  1.00  0.00     0.701 A 
HETATM   32  N3  UNL     1      19.410  26.325  11.454  1.00  0.00    -0.140 N 
HETATM   33  C5  UNL     1      18.320  25.658  11.038  1.00  0.00     0.352 A 
ATOM     34  H3  UNL     1      19.681  26.261  12.435  1.00  0.00     0.189 HD
HETATM   35  N2  UNL     1      17.962  25.741   9.744  1.00  0.00    -0.140 N 
HETATM   36  O1  UNL     1      17.614  24.957  11.795  1.00  0.00    -0.246 OA
HETATM   37  C4  UNL     1      18.678  26.479   8.876  1.00  0.00     0.696 A 
ATOM     38  H2  UNL     1      17.137  25.239   9.416  1.00  0.00     0.189 HD
HETATM   39  N8  UNL     1      19.770  27.134   9.339  1.00  0.00    -0.022 N 
ATOM     40  H8  UNL     1      20.319  27.694   8.687  1.00  0.00     0.203 HD
BRANCH  37  41
HETATM   41  N1  UNL     1      18.374  26.602   7.636  1.00  0.00    -0.225 N 
ATOM     42  H1  UNL     1      18.071  25.771   7.129  1.00  0.00     0.177 HD
BRANCH  41  43
HETATM   43  C3  UNL     1      18.438  27.849   6.920  1.00  0.00     0.137 C 
BRANCH  43  44
HETATM   44  C2  UNL     1      18.716  27.535   5.455  1.00  0.00     0.016 C 
HETATM   45  C1  UNL     1      18.128  28.659   4.638  1.00  0.00     0.006 C 
ENDBRANCH  43  44
ENDBRANCH  41  43
ENDBRANCH  37  41
ENDBRANCH  29  31
ENDBRANCH   1  29
TORSDOF 13
ENDMDL
