MODEL 1
REMARK VINA RESULT: -8.823665811      0.000      0.000
REMARK  17 active torsions:
REMARK  status: ('A' for Active; 'I' for Inactive)
REMARK    1  A    between atoms: N2_10  and  C9_11 
REMARK    2  A    between atoms: C9_11  and  O1_12 
REMARK    3  A    between atoms: C9_11  and  C10_14 
REMARK    4  A    between atoms: C12_17  and  C13_18 
REMARK    5  A    between atoms: C13_18  and  C14_19 
REMARK    6  A    between atoms: C14_19  and  C15_20 
REMARK    7  A    between atoms: C15_20  and  C16_21 
REMARK    8  A    between atoms: C16_21  and  C17_22 
REMARK    9  A    between atoms: N5_28  and  C19_30 
REMARK   10  A    between atoms: C19_30  and  O2_31 
REMARK   11  A    between atoms: C19_30  and  C20_33 
REMARK   12  A    between atoms: C20_33  and  N6_34 
REMARK   13  A    between atoms: C20_33  and  C21_38 
REMARK   14  A    between atoms: C21_38  and  C22_39 
REMARK   15  A    between atoms: C22_39  and  C23_40 
REMARK   16  A    between atoms: C23_40  and  C24_41 
REMARK   17  A    between atoms: C24_41  and  N7_42 
ROOT
HETATM    1  C17 UNL     1      19.868  36.045  19.002  1.00  0.00     0.069 A 
HETATM    2  N3  UNL     1      19.344  37.248  19.107  1.00  0.00    -0.296 N 
ATOM      3  H3  UNL     1      19.914  38.013  19.467  1.00  0.00     0.187 HD
HETATM    4  N4  UNL     1      18.141  37.473  18.768  1.00  0.00    -0.279 N 
ATOM      5  H4  UNL     1      17.745  38.408  18.855  1.00  0.00     0.189 HD
HETATM    6  C18 UNL     1      17.406  36.466  18.295  1.00  0.00     0.166 A 
HETATM    7  N5  UNL     1      16.144  36.470  17.899  1.00  0.00    -0.318 N 
ATOM      8  H5  UNL     1      15.566  37.310  17.919  1.00  0.00     0.169 HD
HETATM    9  S2  UNL     1      18.512  35.166  18.356  1.00  0.00    -0.038 SA
ENDROOT
BRANCH   1  10
HETATM   10  C16 UNL     1      21.223  35.492  19.329  1.00  0.00     0.066 C 
BRANCH  10  11
HETATM   11  C15 UNL     1      22.204  35.883  18.241  1.00  0.00     0.007 C 
BRANCH  11  12
HETATM   12  C14 UNL     1      22.056  34.980  17.046  1.00  0.00     0.005 C 
BRANCH  12  13
HETATM   13  C13 UNL     1      22.687  33.652  17.128  1.00  0.00     0.046 C 
BRANCH  13  14
HETATM   14  C12 UNL     1      22.202  32.714  16.046  1.00  0.00    -0.017 A 
HETATM   15  S1  UNL     1      22.389  32.746  14.372  1.00  0.00    -0.105 SA
HETATM   16  C11 UNL     1      21.567  31.321  13.956  1.00  0.00     0.066 A 
HETATM   17  C10 UNL     1      21.134  30.808  15.203  1.00  0.00     0.022 A 
HETATM   18  C25 UNL     1      21.479  31.557  16.249  1.00  0.00     0.030 A 
BRANCH  17  19
HETATM   19  C9  UNL     1      20.312  29.594  15.181  1.00  0.00     0.149 C 
BRANCH  19  20
HETATM   20  N2  UNL     1      19.809  28.899  14.077  1.00  0.00    -0.359 N 
HETATM   21  C8  UNL     1      20.707  28.385  13.087  1.00  0.00     0.160 C 
HETATM   22  C7  UNL     1      20.008  28.315  11.716  1.00  0.00     0.240 C 
HETATM   23  N1  UNL     1      19.713  26.966  11.379  1.00  0.00     0.090 N 
HETATM   24  C6  UNL     1      19.002  29.349  11.501  1.00  0.00     0.038 C 
HETATM   25  C1  UNL     1      20.884  26.243  10.875  1.00  0.00     0.310 C 
HETATM   26  C2  UNL     1      18.625  26.746  10.487  1.00  0.00     0.273 C 
HETATM   27  C3  UNL     1      17.404  26.474  11.349  1.00  0.00     0.035 C 
HETATM   28  C4  UNL     1      17.243  27.685  12.239  1.00  0.00    -0.011 C 
HETATM   29  C5  UNL     1      17.576  28.987  11.575  1.00  0.00     0.007 C 
HETATM   30  C27 UNL     1      17.866  27.524  13.597  1.00  0.00     0.024 C 
HETATM   31  C26 UNL     1      18.334  28.800  14.194  1.00  0.00     0.125 C 
ENDBRANCH  19  20
BRANCH  19  32
HETATM   32  O1  UNL     1      19.987  29.065  16.336  1.00  0.00    -0.346 OA
ATOM     33  H1  UNL     1      20.556  29.322  17.052  1.00  0.00     0.219 HD
ENDBRANCH  19  32
ENDBRANCH  17  19
ENDBRANCH  13  14
ENDBRANCH  12  13
ENDBRANCH  11  12
ENDBRANCH  10  11
ENDBRANCH   1  10
BRANCH   7  34
HETATM   34  C19 UNL     1      15.670  35.256  17.456  1.00  0.00     0.148 C 
BRANCH  34  35
HETATM   35  O2  UNL     1      14.774  35.126  18.813  1.00  0.00    -0.348 OA
ATOM     36  H2  UNL     1      14.079  35.617  18.392  1.00  0.00     0.219 HD
ENDBRANCH  34  35
BRANCH  34  37
HETATM   37  C20 UNL     1      15.190  34.026  17.009  1.00  0.00     0.257 C 
BRANCH  37  38
HETATM   38  N6  UNL     1      13.709  34.017  16.931  1.00  0.00    -0.068 N 
ATOM     39  H63 UNL     1      13.301  34.766  17.491  1.00  0.00     0.275 HD
ATOM     40  H62 UNL     1      13.382  34.313  16.011  1.00  0.00     0.275 HD
ATOM     41  H61 UNL     1      13.327  33.107  17.187  1.00  0.00     0.275 HD
ENDBRANCH  37  38
BRANCH  37  42
HETATM   42  C21 UNL     1      15.757  33.563  15.676  1.00  0.00     0.041 C 
BRANCH  42  43
HETATM   43  C22 UNL     1      16.845  32.581  15.727  1.00  0.00     0.004 C 
BRANCH  43  44
HETATM   44  C23 UNL     1      17.644  32.267  14.528  1.00  0.00     0.027 C 
BRANCH  44  45
HETATM   45  C24 UNL     1      18.537  33.346  14.010  1.00  0.00     0.229 C 
BRANCH  45  46
HETATM   46  N7  UNL     1      19.045  34.184  15.099  1.00  0.00    -0.079 N 
ATOM     47  H73 UNL     1      18.553  35.077  15.146  1.00  0.00     0.274 HD
ATOM     48  H72 UNL     1      18.781  33.813  16.012  1.00  0.00     0.274 HD
ATOM     49  H71 UNL     1      20.054  34.317  15.026  1.00  0.00     0.274 HD
ENDBRANCH  45  46
ENDBRANCH  44  45
ENDBRANCH  43  44
ENDBRANCH  42  43
ENDBRANCH  37  42
ENDBRANCH  34  37
ENDBRANCH   7  34
TORSDOF 17
ENDMDL
MODEL 2
REMARK VINA RESULT: -8.674554302      2.444      9.655
REMARK  17 active torsions:
REMARK  status: ('A' for Active; 'I' for Inactive)
REMARK    1  A    between atoms: N2_10  and  C9_11 
REMARK    2  A    between atoms: C9_11  and  O1_12 
REMARK    3  A    between atoms: C9_11  and  C10_14 
REMARK    4  A    between atoms: C12_17  and  C13_18 
REMARK    5  A    between atoms: C13_18  and  C14_19 
REMARK    6  A    between atoms: C14_19  and  C15_20 
REMARK    7  A    between atoms: C15_20  and  C16_21 
REMARK    8  A    between atoms: C16_21  and  C17_22 
REMARK    9  A    between atoms: N5_28  and  C19_30 
REMARK   10  A    between atoms: C19_30  and  O2_31 
REMARK   11  A    between atoms: C19_30  and  C20_33 
REMARK   12  A    between atoms: C20_33  and  N6_34 
REMARK   13  A    between atoms: C20_33  and  C21_38 
REMARK   14  A    between atoms: C21_38  and  C22_39 
REMARK   15  A    between atoms: C22_39  and  C23_40 
REMARK   16  A    between atoms: C23_40  and  C24_41 
REMARK   17  A    between atoms: C24_41  and  N7_42 
ROOT
HETATM    1  C17 UNL     1      18.637  31.017  15.885  1.00  0.00     0.069 A 
HETATM    2  N3  UNL     1      19.384  30.222  16.621  1.00  0.00    -0.296 N 
ATOM      3  H3  UNL     1      19.403  30.348  17.634  1.00  0.00     0.187 HD
HETATM    4  N4  UNL     1      20.082  29.301  16.095  1.00  0.00    -0.279 N 
ATOM      5  H4  UNL     1      20.659  28.692  16.675  1.00  0.00     0.189 HD
HETATM    6  C18 UNL     1      20.047  29.143  14.772  1.00  0.00     0.166 A 
HETATM    7  N5  UNL     1      20.694  28.268  14.020  1.00  0.00    -0.318 N 
ATOM      8  H5  UNL     1      21.333  27.576  14.411  1.00  0.00     0.169 HD
HETATM    9  S2  UNL     1      18.966  30.378  14.300  1.00  0.00    -0.038 SA
ENDROOT
BRANCH   1  10
HETATM   10  C16 UNL     1      17.740  32.171  16.220  1.00  0.00     0.066 C 
BRANCH  10  11
HETATM   11  C15 UNL     1      16.306  31.810  15.886  1.00  0.00     0.007 C 
BRANCH  11  12
HETATM   12  C14 UNL     1      15.525  33.040  15.509  1.00  0.00     0.005 C 
BRANCH  12  13
HETATM   13  C13 UNL     1      14.597  33.580  16.517  1.00  0.00     0.046 C 
BRANCH  13  14
HETATM   14  C12 UNL     1      15.060  34.907  17.076  1.00  0.00    -0.017 A 
HETATM   15  S1  UNL     1      14.334  35.981  18.150  1.00  0.00    -0.105 SA
HETATM   16  C11 UNL     1      15.542  37.167  18.244  1.00  0.00     0.066 A 
HETATM   17  C10 UNL     1      16.558  36.679  17.386  1.00  0.00     0.022 A 
HETATM   18  C25 UNL     1      16.266  35.516  16.805  1.00  0.00     0.030 A 
BRANCH  17  19
HETATM   19  C9  UNL     1      17.736  37.530  17.186  1.00  0.00     0.149 C 
BRANCH  19  20
HETATM   20  N2  UNL     1      19.022  37.379  17.711  1.00  0.00    -0.359 N 
HETATM   21  C8  UNL     1      19.916  38.498  17.744  1.00  0.00     0.160 C 
HETATM   22  C7  UNL     1      21.377  38.016  17.670  1.00  0.00     0.240 C 
HETATM   23  N1  UNL     1      22.009  38.155  18.936  1.00  0.00     0.090 N 
HETATM   24  C6  UNL     1      21.569  36.794  16.899  1.00  0.00     0.038 C 
HETATM   25  C1  UNL     1      22.425  39.535  19.208  1.00  0.00     0.310 C 
HETATM   26  C2  UNL     1      23.106  37.289  19.209  1.00  0.00     0.273 C 
HETATM   27  C3  UNL     1      22.540  36.099  19.968  1.00  0.00     0.035 C 
HETATM   28  C4  UNL     1      21.481  35.499  19.072  1.00  0.00    -0.011 C 
HETATM   29  C5  UNL     1      21.819  35.529  17.612  1.00  0.00     0.007 C 
HETATM   30  C27 UNL     1      20.089  35.974  19.380  1.00  0.00     0.024 C 
HETATM   31  C26 UNL     1      19.189  35.988  18.199  1.00  0.00     0.125 C 
ENDBRANCH  19  20
BRANCH  19  32
HETATM   32  O1  UNL     1      17.594  38.583  16.416  1.00  0.00    -0.346 OA
ATOM     33  H1  UNL     1      17.250  38.387  15.553  1.00  0.00     0.219 HD
ENDBRANCH  19  32
ENDBRANCH  17  19
ENDBRANCH  13  14
ENDBRANCH  12  13
ENDBRANCH  11  12
ENDBRANCH  10  11
ENDBRANCH   1  10
BRANCH   7  34
HETATM   34  C19 UNL     1      20.439  28.361  12.670  1.00  0.00     0.148 C 
BRANCH  34  35
HETATM   35  O2  UNL     1      21.236  26.958  12.436  1.00  0.00    -0.348 OA
ATOM     36  H2  UNL     1      20.565  26.689  11.819  1.00  0.00     0.219 HD
ENDBRANCH  34  35
BRANCH  34  37
HETATM   37  C20 UNL     1      20.183  28.456  11.304  1.00  0.00     0.257 C 
BRANCH  37  38
HETATM   38  N6  UNL     1      21.059  27.550  10.523  1.00  0.00    -0.068 N 
ATOM     39  H63 UNL     1      21.130  27.847   9.549  1.00  0.00     0.275 HD
ATOM     40  H62 UNL     1      22.038  27.655  10.791  1.00  0.00     0.275 HD
ATOM     41  H61 UNL     1      20.754  26.580  10.597  1.00  0.00     0.275 HD
ENDBRANCH  37  38
BRANCH  37  42
HETATM   42  C21 UNL     1      18.737  28.208  10.904  1.00  0.00     0.041 C 
BRANCH  42  43
HETATM   43  C22 UNL     1      17.810  27.833  11.977  1.00  0.00     0.004 C 
BRANCH  43  44
HETATM   44  C23 UNL     1      17.294  26.457  12.093  1.00  0.00     0.027 C 
BRANCH  44  45
HETATM   45  C24 UNL     1      17.993  25.405  11.296  1.00  0.00     0.229 C 
BRANCH  45  46
HETATM   46  N7  UNL     1      19.104  24.818  12.049  1.00  0.00    -0.079 N 
ATOM     47  H73 UNL     1      19.952  24.764  11.485  1.00  0.00     0.274 HD
ATOM     48  H72 UNL     1      19.440  25.451  12.775  1.00  0.00     0.274 HD
ATOM     49  H71 UNL     1      18.851  23.907  12.434  1.00  0.00     0.274 HD
ENDBRANCH  45  46
ENDBRANCH  44  45
ENDBRANCH  43  44
ENDBRANCH  42  43
ENDBRANCH  37  42
ENDBRANCH  34  37
ENDBRANCH   7  34
TORSDOF 17
ENDMDL
MODEL 3
REMARK VINA RESULT: -8.650894972      2.870      9.818
REMARK  17 active torsions:
REMARK  status: ('A' for Active; 'I' for Inactive)
REMARK    1  A    between atoms: N2_10  and  C9_11 
REMARK    2  A    between atoms: C9_11  and  O1_12 
REMARK    3  A    between atoms: C9_11  and  C10_14 
REMARK    4  A    between atoms: C12_17  and  C13_18 
REMARK    5  A    between atoms: C13_18  and  C14_19 
REMARK    6  A    between atoms: C14_19  and  C15_20 
REMARK    7  A    between atoms: C15_20  and  C16_21 
REMARK    8  A    between atoms: C16_21  and  C17_22 
REMARK    9  A    between atoms: N5_28  and  C19_30 
REMARK   10  A    between atoms: C19_30  and  O2_31 
REMARK   11  A    between atoms: C19_30  and  C20_33 
REMARK   12  A    between atoms: C20_33  and  N6_34 
REMARK   13  A    between atoms: C20_33  and  C21_38 
REMARK   14  A    between atoms: C21_38  and  C22_39 
REMARK   15  A    between atoms: C22_39  and  C23_40 
REMARK   16  A    between atoms: C23_40  and  C24_41 
REMARK   17  A    between atoms: C24_41  and  N7_42 
ROOT
HETATM    1  C17 UNL     1      18.678  31.259  16.083  1.00  0.00     0.069 A 
HETATM    2  N3  UNL     1      19.188  30.412  16.952  1.00  0.00    -0.296 N 
ATOM      3  H3  UNL     1      18.920  30.479  17.934  1.00  0.00     0.187 HD
HETATM    4  N4  UNL     1      20.008  29.513  16.590  1.00  0.00    -0.279 N 
ATOM      5  H4  UNL     1      20.399  28.863  17.271  1.00  0.00     0.189 HD
HETATM    6  C18 UNL     1      20.349  29.432  15.304  1.00  0.00     0.166 A 
HETATM    7  N5  UNL     1      21.184  28.592  14.714  1.00  0.00    -0.318 N 
ATOM      8  H5  UNL     1      21.689  27.870  15.227  1.00  0.00     0.169 HD
HETATM    9  S2  UNL     1      19.443  30.708  14.620  1.00  0.00    -0.038 SA
ENDROOT
BRANCH   1  10
HETATM   10  C16 UNL     1      17.720  32.405  16.220  1.00  0.00     0.066 C 
BRANCH  10  11
HETATM   11  C15 UNL     1      16.325  31.945  15.843  1.00  0.00     0.007 C 
BRANCH  11  12
HETATM   12  C14 UNL     1      15.449  33.125  15.519  1.00  0.00     0.005 C 
BRANCH  12  13
HETATM   13  C13 UNL     1      14.579  33.629  16.596  1.00  0.00     0.046 C 
BRANCH  13  14
HETATM   14  C12 UNL     1      15.035  34.970  17.127  1.00  0.00    -0.017 A 
HETATM   15  S1  UNL     1      14.293  36.074  18.160  1.00  0.00    -0.105 SA
HETATM   16  C11 UNL     1      15.503  37.260  18.241  1.00  0.00     0.066 A 
HETATM   17  C10 UNL     1      16.531  36.747  17.413  1.00  0.00     0.022 A 
HETATM   18  C25 UNL     1      16.247  35.570  16.859  1.00  0.00     0.030 A 
BRANCH  17  19
HETATM   19  C9  UNL     1      17.714  37.591  17.210  1.00  0.00     0.149 C 
BRANCH  19  20
HETATM   20  N2  UNL     1      18.998  37.438  17.740  1.00  0.00    -0.359 N 
HETATM   21  C8  UNL     1      19.858  38.576  17.866  1.00  0.00     0.160 C 
HETATM   22  C7  UNL     1      21.334  38.143  17.777  1.00  0.00     0.240 C 
HETATM   23  N1  UNL     1      21.947  38.205  19.057  1.00  0.00     0.090 N 
HETATM   24  C6  UNL     1      21.569  36.987  16.920  1.00  0.00     0.038 C 
HETATM   25  C1  UNL     1      22.320  39.572  19.436  1.00  0.00     0.310 C 
HETATM   26  C2  UNL     1      23.065  37.352  19.281  1.00  0.00     0.273 C 
HETATM   27  C3  UNL     1      22.527  36.095  19.942  1.00  0.00     0.035 C 
HETATM   28  C4  UNL     1      21.495  35.533  18.991  1.00  0.00    -0.011 C 
HETATM   29  C5  UNL     1      21.848  35.680  17.541  1.00  0.00     0.007 C 
HETATM   30  C27 UNL     1      20.087  35.944  19.314  1.00  0.00     0.024 C 
HETATM   31  C26 UNL     1      19.200  36.021  18.126  1.00  0.00     0.125 C 
ENDBRANCH  19  20
BRANCH  19  32
HETATM   32  O1  UNL     1      17.579  38.639  16.432  1.00  0.00    -0.346 OA
ATOM     33  H1  UNL     1      18.199  38.669  15.713  1.00  0.00     0.219 HD
ENDBRANCH  19  32
ENDBRANCH  17  19
ENDBRANCH  13  14
ENDBRANCH  12  13
ENDBRANCH  11  12
ENDBRANCH  10  11
ENDBRANCH   1  10
BRANCH   7  34
HETATM   34  C19 UNL     1      21.321  28.767  13.355  1.00  0.00     0.148 C 
BRANCH  34  35
HETATM   35  O2  UNL     1      20.169  27.641  13.107  1.00  0.00    -0.348 OA
ATOM     36  H2  UNL     1      19.549  28.180  13.584  1.00  0.00     0.219 HD
ENDBRANCH  34  35
BRANCH  34  37
HETATM   37  C20 UNL     1      21.460  28.944  11.980  1.00  0.00     0.257 C 
BRANCH  37  38
HETATM   38  N6  UNL     1      21.526  30.382  11.621  1.00  0.00    -0.068 N 
ATOM     39  H63 UNL     1      20.627  30.723  11.282  1.00  0.00     0.275 HD
ATOM     40  H62 UNL     1      21.616  30.969  12.450  1.00  0.00     0.275 HD
ATOM     41  H61 UNL     1      22.273  30.565  10.951  1.00  0.00     0.275 HD
ENDBRANCH  37  38
BRANCH  37  42
HETATM   42  C21 UNL     1      22.648  28.226  11.358  1.00  0.00     0.041 C 
BRANCH  42  43
HETATM   43  C22 UNL     1      23.736  27.842  12.263  1.00  0.00     0.004 C 
BRANCH  43  44
HETATM   44  C23 UNL     1      24.831  26.966  11.810  1.00  0.00     0.027 C 
BRANCH  44  45
HETATM   45  C24 UNL     1      24.451  25.789  10.973  1.00  0.00     0.229 C 
BRANCH  45  46
HETATM   46  N7  UNL     1      24.880  25.965   9.583  1.00  0.00    -0.079 N 
ATOM     47  H73 UNL     1      25.567  26.713   9.494  1.00  0.00     0.274 HD
ATOM     48  H72 UNL     1      25.457  25.184   9.267  1.00  0.00     0.274 HD
ATOM     49  H71 UNL     1      24.082  26.114   8.965  1.00  0.00     0.274 HD
ENDBRANCH  45  46
ENDBRANCH  44  45
ENDBRANCH  43  44
ENDBRANCH  42  43
ENDBRANCH  37  42
ENDBRANCH  34  37
ENDBRANCH   7  34
TORSDOF 17
ENDMDL
MODEL 4
REMARK VINA RESULT: -8.603905572      2.100      4.210
REMARK  17 active torsions:
REMARK  status: ('A' for Active; 'I' for Inactive)
REMARK    1  A    between atoms: N2_10  and  C9_11 
REMARK    2  A    between atoms: C9_11  and  O1_12 
REMARK    3  A    between atoms: C9_11  and  C10_14 
REMARK    4  A    between atoms: C12_17  and  C13_18 
REMARK    5  A    between atoms: C13_18  and  C14_19 
REMARK    6  A    between atoms: C14_19  and  C15_20 
REMARK    7  A    between atoms: C15_20  and  C16_21 
REMARK    8  A    between atoms: C16_21  and  C17_22 
REMARK    9  A    between atoms: N5_28  and  C19_30 
REMARK   10  A    between atoms: C19_30  and  O2_31 
REMARK   11  A    between atoms: C19_30  and  C20_33 
REMARK   12  A    between atoms: C20_33  and  N6_34 
REMARK   13  A    between atoms: C20_33  and  C21_38 
REMARK   14  A    between atoms: C21_38  and  C22_39 
REMARK   15  A    between atoms: C22_39  and  C23_40 
REMARK   16  A    between atoms: C23_40  and  C24_41 
REMARK   17  A    between atoms: C24_41  and  N7_42 
ROOT
HETATM    1  C17 UNL     1      16.079  36.556  18.042  1.00  0.00     0.069 A 
HETATM    2  N3  UNL     1      16.190  37.817  18.405  1.00  0.00    -0.296 N 
ATOM      3  H3  UNL     1      15.363  38.415  18.395  1.00  0.00     0.187 HD
HETATM    4  N4  UNL     1      17.305  38.301  18.768  1.00  0.00    -0.279 N 
ATOM      5  H4  UNL     1      17.380  39.280  19.045  1.00  0.00     0.189 HD
HETATM    6  C18 UNL     1      18.378  37.510  18.781  1.00  0.00     0.166 A 
HETATM    7  N5  UNL     1      19.626  37.802  19.107  1.00  0.00    -0.318 N 
ATOM      8  H5  UNL     1      19.911  38.736  19.403  1.00  0.00     0.169 HD
HETATM    9  S2  UNL     1      17.724  36.026  18.245  1.00  0.00    -0.038 SA
ENDROOT
BRANCH   1  10
HETATM   10  C16 UNL     1      14.921  35.731  17.564  1.00  0.00     0.066 C 
BRANCH  10  11
HETATM   11  C15 UNL     1      15.246  34.260  17.734  1.00  0.00     0.007 C 
BRANCH  11  12
HETATM   12  C14 UNL     1      15.263  33.565  16.399  1.00  0.00     0.005 C 
BRANCH  12  13
HETATM   13  C13 UNL     1      16.301  33.981  15.441  1.00  0.00     0.046 C 
BRANCH  13  14
HETATM   14  C12 UNL     1      17.355  32.917  15.233  1.00  0.00    -0.017 A 
HETATM   15  S1  UNL     1      18.329  32.080  16.323  1.00  0.00    -0.105 SA
HETATM   16  C11 UNL     1      19.177  31.076  15.251  1.00  0.00     0.066 A 
HETATM   17  C10 UNL     1      18.656  31.426  13.981  1.00  0.00     0.022 A 
HETATM   18  C25 UNL     1      17.725  32.378  14.020  1.00  0.00     0.030 A 
BRANCH  17  19
HETATM   19  C9  UNL     1      19.248  30.774  12.809  1.00  0.00     0.149 C 
BRANCH  19  20
HETATM   20  N2  UNL     1      19.079  29.460  12.361  1.00  0.00    -0.359 N 
HETATM   21  C8  UNL     1      20.163  28.781  11.718  1.00  0.00     0.160 C 
HETATM   22  C7  UNL     1      19.623  27.730  10.729  1.00  0.00     0.240 C 
HETATM   23  N1  UNL     1      19.811  26.419  11.247  1.00  0.00     0.090 N 
HETATM   24  C6  UNL     1      18.351  28.085  10.110  1.00  0.00     0.038 C 
HETATM   25  C1  UNL     1      21.187  25.941  11.081  1.00  0.00     0.310 C 
HETATM   26  C2  UNL     1      18.921  25.408  10.786  1.00  0.00     0.273 C 
HETATM   27  C3  UNL     1      17.800  25.317  11.808  1.00  0.00     0.035 C 
HETATM   28  C4  UNL     1      17.189  26.698  11.881  1.00  0.00    -0.011 C 
HETATM   29  C5  UNL     1      17.121  27.413  10.565  1.00  0.00     0.007 C 
HETATM   30  C27 UNL     1      17.734  27.542  12.999  1.00  0.00     0.024 C 
HETATM   31  C26 UNL     1      17.714  28.998  12.711  1.00  0.00     0.125 C 
ENDBRANCH  19  20
BRANCH  19  32
HETATM   32  O1  UNL     1      20.050  31.493  12.061  1.00  0.00    -0.346 OA
ATOM     33  H1  UNL     1      20.912  31.628  12.436  1.00  0.00     0.219 HD
ENDBRANCH  19  32
ENDBRANCH  17  19
ENDBRANCH  13  14
ENDBRANCH  12  13
ENDBRANCH  11  12
ENDBRANCH  10  11
ENDBRANCH   1  10
BRANCH   7  34
HETATM   34  C19 UNL     1      20.512  36.752  19.018  1.00  0.00     0.148 C 
BRANCH  34  35
HETATM   35  O2  UNL     1      20.489  36.612  20.642  1.00  0.00    -0.348 OA
ATOM     36  H2  UNL     1      21.428  36.468  20.635  1.00  0.00     0.219 HD
ENDBRANCH  34  35
BRANCH  34  37
HETATM   37  C20 UNL     1      21.408  35.690  18.928  1.00  0.00     0.257 C 
BRANCH  37  38
HETATM   38  N6  UNL     1      21.246  34.744  20.059  1.00  0.00    -0.068 N 
ATOM     39  H63 UNL     1      22.033  34.100  20.123  1.00  0.00     0.275 HD
ATOM     40  H62 UNL     1      21.354  35.215  20.957  1.00  0.00     0.275 HD
ATOM     41  H61 UNL     1      20.358  34.246  20.004  1.00  0.00     0.275 HD
ENDBRANCH  37  38
BRANCH  37  42
HETATM   42  C21 UNL     1      21.351  34.910  17.623  1.00  0.00     0.041 C 
BRANCH  42  43
HETATM   43  C22 UNL     1      22.391  33.897  17.413  1.00  0.00     0.004 C 
BRANCH  43  44
HETATM   44  C23 UNL     1      22.281  32.906  16.327  1.00  0.00     0.027 C 
BRANCH  44  45
HETATM   45  C24 UNL     1      22.060  33.437  14.949  1.00  0.00     0.229 C 
BRANCH  45  46
HETATM   46  N7  UNL     1      22.300  32.406  13.937  1.00  0.00    -0.079 N 
ATOM     47  H73 UNL     1      22.897  32.750  13.185  1.00  0.00     0.274 HD
ATOM     48  H72 UNL     1      22.907  31.667  14.292  1.00  0.00     0.274 HD
ATOM     49  H71 UNL     1      21.423  32.029  13.576  1.00  0.00     0.274 HD
ENDBRANCH  45  46
ENDBRANCH  44  45
ENDBRANCH  43  44
ENDBRANCH  42  43
ENDBRANCH  37  42
ENDBRANCH  34  37
ENDBRANCH   7  34
TORSDOF 17
ENDMDL
MODEL 5
REMARK VINA RESULT: -8.526870358      1.945      4.224
REMARK  17 active torsions:
REMARK  status: ('A' for Active; 'I' for Inactive)
REMARK    1  A    between atoms: N2_10  and  C9_11 
REMARK    2  A    between atoms: C9_11  and  O1_12 
REMARK    3  A    between atoms: C9_11  and  C10_14 
REMARK    4  A    between atoms: C12_17  and  C13_18 
REMARK    5  A    between atoms: C13_18  and  C14_19 
REMARK    6  A    between atoms: C14_19  and  C15_20 
REMARK    7  A    between atoms: C15_20  and  C16_21 
REMARK    8  A    between atoms: C16_21  and  C17_22 
REMARK    9  A    between atoms: N5_28  and  C19_30 
REMARK   10  A    between atoms: C19_30  and  O2_31 
REMARK   11  A    between atoms: C19_30  and  C20_33 
REMARK   12  A    between atoms: C20_33  and  N6_34 
REMARK   13  A    between atoms: C20_33  and  C21_38 
REMARK   14  A    between atoms: C21_38  and  C22_39 
REMARK   15  A    between atoms: C22_39  and  C23_40 
REMARK   16  A    between atoms: C23_40  and  C24_41 
REMARK   17  A    between atoms: C24_41  and  N7_42 
ROOT
HETATM    1  C17 UNL     1      16.766  36.630  18.517  1.00  0.00     0.069 A 
HETATM    2  N3  UNL     1      17.356  37.746  18.890  1.00  0.00    -0.296 N 
ATOM      3  H3  UNL     1      16.786  38.548  19.159  1.00  0.00     0.187 HD
HETATM    4  N4  UNL     1      18.621  37.843  18.922  1.00  0.00    -0.279 N 
ATOM      5  H4  UNL     1      19.068  38.713  19.211  1.00  0.00     0.189 HD
HETATM    6  C18 UNL     1      19.357  36.787  18.572  1.00  0.00     0.166 A 
HETATM    7  N5  UNL     1      20.673  36.669  18.519  1.00  0.00    -0.318 N 
ATOM      8  H5  UNL     1      21.303  37.435  18.759  1.00  0.00     0.169 HD
HETATM    9  S2  UNL     1      18.156  35.635  18.188  1.00  0.00    -0.038 SA
ENDROOT
BRANCH   1  10
HETATM   10  C16 UNL     1      15.326  36.238  18.373  1.00  0.00     0.066 C 
BRANCH  10  11
HETATM   11  C15 UNL     1      15.129  35.512  17.057  1.00  0.00     0.007 C 
BRANCH  11  12
HETATM   12  C14 UNL     1      15.095  34.023  17.274  1.00  0.00     0.005 C 
BRANCH  12  13
HETATM   13  C13 UNL     1      14.945  33.176  16.079  1.00  0.00     0.046 C 
BRANCH  13  14
HETATM   14  C12 UNL     1      16.276  32.796  15.470  1.00  0.00    -0.017 A 
HETATM   15  S1  UNL     1      17.442  33.711  14.670  1.00  0.00    -0.105 SA
HETATM   16  C11 UNL     1      18.601  32.510  14.363  1.00  0.00     0.066 A 
HETATM   17  C10 UNL     1      18.029  31.342  14.925  1.00  0.00     0.022 A 
HETATM   18  C25 UNL     1      16.834  31.534  15.480  1.00  0.00     0.030 A 
BRANCH  17  19
HETATM   19  C9  UNL     1      18.767  30.085  14.757  1.00  0.00     0.149 C 
BRANCH  19  20
HETATM   20  N2  UNL     1      18.714  29.176  13.697  1.00  0.00    -0.359 N 
HETATM   21  C8  UNL     1      19.780  29.130  12.742  1.00  0.00     0.160 C 
HETATM   22  C7  UNL     1      19.254  28.647  11.377  1.00  0.00     0.240 C 
HETATM   23  N1  UNL     1      19.683  27.316  11.123  1.00  0.00     0.090 N 
HETATM   24  C6  UNL     1      17.874  29.026  11.097  1.00  0.00     0.038 C 
HETATM   25  C1  UNL     1      21.074  27.251  10.666  1.00  0.00     0.310 C 
HETATM   26  C2  UNL     1      18.880  26.535  10.244  1.00  0.00     0.273 C 
HETATM   27  C3  UNL     1      17.931  25.733  11.119  1.00  0.00     0.035 C 
HETATM   28  C4  UNL     1      17.158  26.746  11.933  1.00  0.00    -0.011 C 
HETATM   29  C5  UNL     1      16.817  28.003  11.191  1.00  0.00     0.007 C 
HETATM   30  C27 UNL     1      17.734  26.990  13.299  1.00  0.00     0.024 C 
HETATM   31  C26 UNL     1      17.483  28.358  13.818  1.00  0.00     0.125 C 
ENDBRANCH  19  20
BRANCH  19  32
HETATM   32  O1  UNL     1      19.595  29.741  15.714  1.00  0.00    -0.346 OA
ATOM     33  H1  UNL     1      20.510  29.769  15.461  1.00  0.00     0.219 HD
ENDBRANCH  19  32
ENDBRANCH  17  19
ENDBRANCH  13  14
ENDBRANCH  12  13
ENDBRANCH  11  12
ENDBRANCH  10  11
ENDBRANCH   1  10
BRANCH   7  34
HETATM   34  C19 UNL     1      21.130  35.435  18.115  1.00  0.00     0.148 C 
BRANCH  34  35
HETATM   35  O2  UNL     1      21.239  34.979  19.677  1.00  0.00    -0.348 OA
ATOM     36  H2  UNL     1      21.150  34.072  19.411  1.00  0.00     0.219 HD
ENDBRANCH  34  35
BRANCH  34  37
HETATM   37  C20 UNL     1      21.594  34.186  17.707  1.00  0.00     0.257 C 
BRANCH  37  38
HETATM   38  N6  UNL     1      20.508  33.375  17.104  1.00  0.00    -0.068 N 
ATOM     39  H63 UNL     1      19.866  33.954  16.563  1.00  0.00     0.275 HD
ATOM     40  H62 UNL     1      20.859  32.783  16.350  1.00  0.00     0.275 HD
ATOM     41  H61 UNL     1      20.015  32.827  17.808  1.00  0.00     0.275 HD
ENDBRANCH  37  38
BRANCH  37  42
HETATM   42  C21 UNL     1      22.774  34.220  16.749  1.00  0.00     0.041 C 
BRANCH  42  43
HETATM   43  C22 UNL     1      23.097  32.970  16.054  1.00  0.00     0.004 C 
BRANCH  43  44
HETATM   44  C23 UNL     1      23.026  32.875  14.584  1.00  0.00     0.027 C 
BRANCH  44  45
HETATM   45  C24 UNL     1      22.170  31.791  14.018  1.00  0.00     0.229 C 
BRANCH  45  46
HETATM   46  N7  UNL     1      22.333  30.540  14.763  1.00  0.00    -0.079 N 
ATOM     47  H73 UNL     1      23.317  30.338  14.945  1.00  0.00     0.274 HD
ATOM     48  H72 UNL     1      22.012  30.633  15.726  1.00  0.00     0.274 HD
ATOM     49  H71 UNL     1      21.874  29.763  14.288  1.00  0.00     0.274 HD
ENDBRANCH  45  46
ENDBRANCH  44  45
ENDBRANCH  43  44
ENDBRANCH  42  43
ENDBRANCH  37  42
ENDBRANCH  34  37
ENDBRANCH   7  34
TORSDOF 17
ENDMDL
