MODEL 1
REMARK VINA RESULT: -8.971790661      0.000      0.000
REMARK  11 active torsions:
REMARK  status: ('A' for Active; 'I' for Inactive)
REMARK    1  A    between atoms: C3_3  and  N1_4 
REMARK    2  A    between atoms: N1_4  and  C4_5 
REMARK    3  A    between atoms: N1_4  and  C23_33 
REMARK    4  A    between atoms: C4_5  and  C5_6 
REMARK    5  A    between atoms: C6_9  and  C7_10 
REMARK    6  A    between atoms: C7_10  and  C8_11 
REMARK    7  A    between atoms: C8_11  and  N3_12 
REMARK    8  A    between atoms: N3_12  and  C11_15 
REMARK    9  A    between atoms: C13_17  and  N4_18 
REMARK   10  A    between atoms: N4_18  and  C14_20 
REMARK   11  A    between atoms: C17_23  and  O1_24 
ROOT
HETATM    1  C1  UNL     1      23.623  33.074  15.226  1.00  0.00     0.018 C 
HETATM    2  C2  UNL     1      22.575  32.603  15.546  1.00  0.00    -0.072 C 
HETATM    3  C3  UNL     1      21.340  32.023  15.960  1.00  0.00     0.173 C 
ENDROOT
BRANCH   3   4
HETATM    4  N1  UNL     1      20.161  32.519  15.265  1.00  0.00    -0.180 N 
BRANCH   4   5
HETATM    5  C4  UNL     1      20.208  32.504  13.796  1.00  0.00     0.210 C 
BRANCH   5   6
HETATM    6  C5  UNL     1      20.276  31.123  13.237  1.00  0.00     0.097 A 
HETATM    7  N2  UNL     1      21.311  30.326  13.050  1.00  0.00    -0.354 N 
HETATM    8  C6  UNL     1      21.186  28.990  12.649  1.00  0.00     0.056 A 
ATOM      9  H2  UNL     1      22.247  30.700  13.206  1.00  0.00     0.166 HD
HETATM   10  C13 UNL     1      19.946  28.485  12.429  1.00  0.00     0.131 A 
HETATM   11  N5  UNL     1      18.875  29.344  12.627  1.00  0.00    -0.306 N 
HETATM   12  C22 UNL     1      18.996  30.599  13.014  1.00  0.00     0.271 A 
ATOM     13  H5  UNL     1      17.935  28.982  12.464  1.00  0.00     0.170 HD
HETATM   14  O2  UNL     1      17.978  31.324  13.179  1.00  0.00    -0.266 OA
BRANCH   8  15
HETATM   15  C7  UNL     1      22.452  28.199  12.575  1.00  0.00     0.089 C 
BRANCH  15  16
HETATM   16  C8  UNL     1      23.011  28.030  11.203  1.00  0.00     0.242 C 
BRANCH  16  17
HETATM   17  N3  UNL     1      23.589  26.758  10.882  1.00  0.00    -0.075 N 
HETATM   18  C9  UNL     1      24.177  26.607   9.605  1.00  0.00     0.272 C 
HETATM   19  C10 UNL     1      24.733  26.611  11.870  1.00  0.00     0.272 C 
BRANCH  17  20
HETATM   20  C11 UNL     1      22.705  25.668  11.210  1.00  0.00     0.232 C 
HETATM   21  C12 UNL     1      22.070  25.007  10.006  1.00  0.00     0.034 C 
ENDBRANCH  17  20
ENDBRANCH  16  17
ENDBRANCH  15  16
ENDBRANCH   8  15
BRANCH  10  22
HETATM   22  N4  UNL     1      19.624  27.118  12.174  1.00  0.00    -0.340 N 
ATOM     23  H4  UNL     1      19.781  26.378  12.858  1.00  0.00     0.167 HD
BRANCH  22  24
HETATM   24  C14 UNL     1      19.061  26.867  10.873  1.00  0.00     0.039 A 
HETATM   25  C15 UNL     1      19.363  27.643   9.792  1.00  0.00     0.033 A 
HETATM   26  C16 UNL     1      18.875  27.299   8.564  1.00  0.00     0.039 A 
HETATM   27  C17 UNL     1      18.067  26.156   8.397  1.00  0.00     0.068 A 
HETATM   28  C19 UNL     1      17.786  25.379   9.509  1.00  0.00     0.045 A 
HETATM   29  C20 UNL     1      18.285  25.750  10.739  1.00  0.00    -0.033 A 
HETATM   30  C21 UNL     1      17.796  24.988  11.929  1.00  0.00     0.050 C 
BRANCH  27  31
HETATM   31  O1  UNL     1      17.588  25.871   7.131  1.00  0.00    -0.356 OA
HETATM   32  C18 UNL     1      17.783  26.634   5.981  1.00  0.00     0.210 C 
ENDBRANCH  27  31
ENDBRANCH  22  24
ENDBRANCH  10  22
ENDBRANCH   5   6
ENDBRANCH   4   5
BRANCH   4  33
HETATM   33  C23 UNL     1      19.177  33.215  15.985  1.00  0.00     0.688 A 
HETATM   34  N6  UNL     1      19.394  33.853  17.126  1.00  0.00    -0.154 N 
HETATM   35  C24 UNL     1      18.296  34.284  17.780  1.00  0.00     0.279 A 
ATOM     36  H6  UNL     1      20.335  34.008  17.488  1.00  0.00     0.187 HD
HETATM   37  O3  UNL     1      18.325  34.911  18.880  1.00  0.00    -0.266 OA
HETATM   38  C25 UNL     1      16.991  34.071  17.283  1.00  0.00     0.100 A 
HETATM   39  S1  UNL     1      15.399  34.353  17.806  1.00  0.00    -0.094 SA
HETATM   40  C28 UNL     1      16.805  33.422  16.108  1.00  0.00     0.072 A 
HETATM   41  C26 UNL     1      14.539  33.649  16.533  1.00  0.00     0.053 A 
HETATM   42  C27 UNL     1      15.540  33.197  15.702  1.00  0.00     0.039 A 
HETATM   43  N7  UNL     1      17.942  32.999  15.466  1.00  0.00    -0.190 N 
ATOM     44  H7  UNL     1      17.857  32.508  14.576  1.00  0.00     0.184 HD
ENDBRANCH   4  33
ENDBRANCH   3   4
TORSDOF 11
ENDMDL
MODEL 2
REMARK VINA RESULT: -8.645011887      3.318      9.617
REMARK  11 active torsions:
REMARK  status: ('A' for Active; 'I' for Inactive)
REMARK    1  A    between atoms: C3_3  and  N1_4 
REMARK    2  A    between atoms: N1_4  and  C4_5 
REMARK    3  A    between atoms: N1_4  and  C23_33 
REMARK    4  A    between atoms: C4_5  and  C5_6 
REMARK    5  A    between atoms: C6_9  and  C7_10 
REMARK    6  A    between atoms: C7_10  and  C8_11 
REMARK    7  A    between atoms: C8_11  and  N3_12 
REMARK    8  A    between atoms: N3_12  and  C11_15 
REMARK    9  A    between atoms: C13_17  and  N4_18 
REMARK   10  A    between atoms: N4_18  and  C14_20 
REMARK   11  A    between atoms: C17_23  and  O1_24 
ROOT
HETATM    1  C1  UNL     1      22.262  32.705  13.916  1.00  0.00     0.018 C 
HETATM    2  C2  UNL     1      22.299  31.569  14.279  1.00  0.00    -0.072 C 
HETATM    3  C3  UNL     1      22.372  30.221  14.738  1.00  0.00     0.173 C 
ENDROOT
BRANCH   3   4
HETATM    4  N1  UNL     1      21.286  29.358  14.297  1.00  0.00    -0.180 N 
BRANCH   4   5
HETATM    5  C4  UNL     1      20.150  29.206  15.218  1.00  0.00     0.210 C 
BRANCH   5   6
HETATM    6  C5  UNL     1      19.336  30.450  15.337  1.00  0.00     0.097 A 
HETATM    7  N2  UNL     1      19.501  31.509  16.108  1.00  0.00    -0.354 N 
HETATM    8  C6  UNL     1      18.724  32.668  15.991  1.00  0.00     0.056 A 
ATOM      9  H2  UNL     1      20.229  31.482  16.823  1.00  0.00     0.166 HD
HETATM   10  C13 UNL     1      17.746  32.711  15.052  1.00  0.00     0.131 A 
HETATM   11  N5  UNL     1      17.590  31.584  14.258  1.00  0.00    -0.306 N 
HETATM   12  C22 UNL     1      18.330  30.497  14.365  1.00  0.00     0.271 A 
ATOM     13  H5  UNL     1      16.859  31.597  13.548  1.00  0.00     0.170 HD
HETATM   14  O2  UNL     1      18.136  29.509  13.606  1.00  0.00    -0.266 OA
BRANCH   8  15
HETATM   15  C7  UNL     1      19.102  33.811  16.879  1.00  0.00     0.089 C 
BRANCH  15  16
HETATM   16  C8  UNL     1      20.301  34.581  16.441  1.00  0.00     0.242 C 
BRANCH  16  17
HETATM   17  N3  UNL     1      20.960  35.387  17.427  1.00  0.00    -0.075 N 
HETATM   18  C9  UNL     1      21.487  36.631  17.012  1.00  0.00     0.272 C 
HETATM   19  C10 UNL     1      19.862  35.728  18.420  1.00  0.00     0.272 C 
BRANCH  17  20
HETATM   20  C11 UNL     1      21.904  34.623  18.202  1.00  0.00     0.232 C 
HETATM   21  C12 UNL     1      22.665  33.590  17.401  1.00  0.00     0.034 C 
ENDBRANCH  17  20
ENDBRANCH  16  17
ENDBRANCH  15  16
ENDBRANCH   8  15
BRANCH  10  22
HETATM   22  N4  UNL     1      16.973  33.854  14.690  1.00  0.00    -0.340 N 
ATOM     23  H4  UNL     1      16.888  34.179  13.726  1.00  0.00     0.167 HD
BRANCH  22  24
HETATM   24  C14 UNL     1      16.324  34.514  15.792  1.00  0.00     0.039 A 
HETATM   25  C15 UNL     1      16.680  35.767  16.197  1.00  0.00     0.033 A 
HETATM   26  C16 UNL     1      15.964  36.380  17.185  1.00  0.00     0.039 A 
HETATM   27  C17 UNL     1      14.865  35.738  17.791  1.00  0.00     0.068 A 
HETATM   28  C19 UNL     1      14.518  34.471  17.353  1.00  0.00     0.045 A 
HETATM   29  C20 UNL     1      15.259  33.871  16.359  1.00  0.00    -0.033 A 
HETATM   30  C21 UNL     1      14.960  32.436  16.060  1.00  0.00     0.050 C 
BRANCH  27  31
HETATM   31  O1  UNL     1      14.192  36.405  18.800  1.00  0.00    -0.356 OA
HETATM   32  C18 UNL     1      14.334  37.747  19.144  1.00  0.00     0.210 C 
ENDBRANCH  27  31
ENDBRANCH  22  24
ENDBRANCH  10  22
ENDBRANCH   5   6
ENDBRANCH   4   5
BRANCH   4  33
HETATM   33  C23 UNL     1      21.475  28.526  13.182  1.00  0.00     0.688 A 
HETATM   34  N6  UNL     1      20.502  27.883  12.554  1.00  0.00    -0.154 N 
HETATM   35  C24 UNL     1      20.891  26.969  11.641  1.00  0.00     0.279 A 
ATOM     36  H6  UNL     1      19.518  28.069  12.748  1.00  0.00     0.187 HD
HETATM   37  O3  UNL     1      20.090  26.269  10.951  1.00  0.00    -0.266 OA
HETATM   38  C25 UNL     1      22.251  26.708  11.369  1.00  0.00     0.100 A 
HETATM   39  S1  UNL     1      23.143  25.626  10.408  1.00  0.00    -0.094 SA
HETATM   40  C28 UNL     1      23.223  27.390  12.024  1.00  0.00     0.072 A 
HETATM   41  C26 UNL     1      24.714  26.059  10.854  1.00  0.00     0.053 A 
HETATM   42  C27 UNL     1      24.506  27.068  11.767  1.00  0.00     0.039 A 
HETATM   43  N7  UNL     1      22.794  28.314  12.943  1.00  0.00    -0.190 N 
ATOM     44  H7  UNL     1      23.485  28.857  13.461  1.00  0.00     0.184 HD
ENDBRANCH   4  33
ENDBRANCH   3   4
TORSDOF 11
ENDMDL
MODEL 3
REMARK VINA RESULT: -8.640508573      3.262     10.169
REMARK  11 active torsions:
REMARK  status: ('A' for Active; 'I' for Inactive)
REMARK    1  A    between atoms: C3_3  and  N1_4 
REMARK    2  A    between atoms: N1_4  and  C4_5 
REMARK    3  A    between atoms: N1_4  and  C23_33 
REMARK    4  A    between atoms: C4_5  and  C5_6 
REMARK    5  A    between atoms: C6_9  and  C7_10 
REMARK    6  A    between atoms: C7_10  and  C8_11 
REMARK    7  A    between atoms: C8_11  and  N3_12 
REMARK    8  A    between atoms: N3_12  and  C11_15 
REMARK    9  A    between atoms: C13_17  and  N4_18 
REMARK   10  A    between atoms: N4_18  and  C14_20 
REMARK   11  A    between atoms: C17_23  and  O1_24 
ROOT
HETATM    1  C1  UNL     1      15.978  28.248  11.300  1.00  0.00     0.018 C 
HETATM    2  C2  UNL     1      17.010  28.048  11.865  1.00  0.00    -0.072 C 
HETATM    3  C3  UNL     1      18.226  27.780  12.560  1.00  0.00     0.173 C 
ENDROOT
BRANCH   3   4
HETATM    4  N1  UNL     1      19.406  28.434  12.015  1.00  0.00    -0.180 N 
BRANCH   4   5
HETATM    5  C4  UNL     1      19.329  29.892  11.840  1.00  0.00     0.210 C 
BRANCH   5   6
HETATM    6  C5  UNL     1      19.408  30.632  13.131  1.00  0.00     0.097 A 
HETATM    7  N2  UNL     1      18.479  30.870  14.039  1.00  0.00    -0.354 N 
HETATM    8  C6  UNL     1      18.755  31.458  15.280  1.00  0.00     0.056 A 
ATOM      9  H2  UNL     1      17.515  30.613  13.826  1.00  0.00     0.166 HD
HETATM   10  C13 UNL     1      20.032  31.814  15.567  1.00  0.00     0.131 A 
HETATM   11  N5  UNL     1      20.989  31.557  14.596  1.00  0.00    -0.306 N 
HETATM   12  C22 UNL     1      20.727  30.995  13.432  1.00  0.00     0.271 A 
ATOM     13  H5  UNL     1      21.954  31.820  14.794  1.00  0.00     0.170 HD
HETATM   14  O2  UNL     1      21.648  30.786  12.596  1.00  0.00    -0.266 OA
BRANCH   8  15
HETATM   15  C7  UNL     1      17.605  31.572  16.228  1.00  0.00     0.089 C 
BRANCH  15  16
HETATM   16  C8  UNL     1      16.374  32.188  15.656  1.00  0.00     0.242 C 
BRANCH  16  17
HETATM   17  N3  UNL     1      16.119  33.562  15.975  1.00  0.00    -0.075 N 
HETATM   18  C9  UNL     1      16.473  34.536  15.013  1.00  0.00     0.272 C 
HETATM   19  C10 UNL     1      14.606  33.642  16.087  1.00  0.00     0.272 C 
BRANCH  17  20
HETATM   20  C11 UNL     1      16.583  33.903  17.295  1.00  0.00     0.232 C 
HETATM   21  C12 UNL     1      15.783  34.998  17.966  1.00  0.00     0.034 C 
ENDBRANCH  17  20
ENDBRANCH  16  17
ENDBRANCH  15  16
ENDBRANCH   8  15
BRANCH  10  22
HETATM   22  N4  UNL     1      20.516  32.273  16.829  1.00  0.00    -0.340 N 
ATOM     23  H4  UNL     1      20.626  31.657  17.634  1.00  0.00     0.167 HD
BRANCH  22  24
HETATM   24  C14 UNL     1      20.838  33.675  16.874  1.00  0.00     0.039 A 
HETATM   25  C15 UNL     1      19.874  34.640  16.832  1.00  0.00     0.033 A 
HETATM   26  C16 UNL     1      20.230  35.950  16.976  1.00  0.00     0.039 A 
HETATM   27  C17 UNL     1      21.578  36.319  17.168  1.00  0.00     0.068 A 
HETATM   28  C19 UNL     1      22.535  35.319  17.218  1.00  0.00     0.045 A 
HETATM   29  C20 UNL     1      22.150  34.005  17.065  1.00  0.00    -0.033 A 
HETATM   30  C21 UNL     1      23.240  32.989  16.938  1.00  0.00     0.050 C 
BRANCH  27  31
HETATM   31  O1  UNL     1      21.877  37.664  17.288  1.00  0.00    -0.356 OA
HETATM   32  C18 UNL     1      21.126  38.728  16.791  1.00  0.00     0.210 C 
ENDBRANCH  27  31
ENDBRANCH  22  24
ENDBRANCH  10  22
ENDBRANCH   5   6
ENDBRANCH   4   5
BRANCH   4  33
HETATM   33  C23 UNL     1      20.428  27.654  11.448  1.00  0.00     0.688 A 
HETATM   34  N6  UNL     1      20.224  26.552  10.742  1.00  0.00    -0.154 N 
HETATM   35  C24 UNL     1      21.322  25.823  10.457  1.00  0.00     0.279 A 
ATOM     36  H6  UNL     1      19.293  26.272  10.433  1.00  0.00     0.187 HD
HETATM   37  O3  UNL     1      21.306  24.745   9.790  1.00  0.00    -0.266 OA
HETATM   38  C25 UNL     1      22.613  26.206  10.883  1.00  0.00     0.100 A 
HETATM   39  S1  UNL     1      24.185  25.562  10.825  1.00  0.00    -0.094 SA
HETATM   40  C28 UNL     1      22.787  27.344  11.597  1.00  0.00     0.072 A 
HETATM   41  C26 UNL     1      25.021  26.742  11.699  1.00  0.00     0.053 A 
HETATM   42  C27 UNL     1      24.030  27.640  12.027  1.00  0.00     0.039 A 
HETATM   43  N7  UNL     1      21.651  28.065  11.869  1.00  0.00    -0.190 N 
ATOM     44  H7  UNL     1      21.728  28.932  12.400  1.00  0.00     0.184 HD
ENDBRANCH   4  33
ENDBRANCH   3   4
TORSDOF 11
ENDMDL
MODEL 4
REMARK VINA RESULT: -8.592708135      3.352      6.301
REMARK  11 active torsions:
REMARK  status: ('A' for Active; 'I' for Inactive)
REMARK    1  A    between atoms: C3_3  and  N1_4 
REMARK    2  A    between atoms: N1_4  and  C4_5 
REMARK    3  A    between atoms: N1_4  and  C23_33 
REMARK    4  A    between atoms: C4_5  and  C5_6 
REMARK    5  A    between atoms: C6_9  and  C7_10 
REMARK    6  A    between atoms: C7_10  and  C8_11 
REMARK    7  A    between atoms: C8_11  and  N3_12 
REMARK    8  A    between atoms: N3_12  and  C11_15 
REMARK    9  A    between atoms: C13_17  and  N4_18 
REMARK   10  A    between atoms: N4_18  and  C14_20 
REMARK   11  A    between atoms: C17_23  and  O1_24 
ROOT
HETATM    1  C1  UNL     1      13.742  37.147  18.734  1.00  0.00     0.018 C 
HETATM    2  C2  UNL     1      14.781  36.569  18.631  1.00  0.00    -0.072 C 
HETATM    3  C3  UNL     1      16.008  35.850  18.532  1.00  0.00     0.173 C 
ENDROOT
BRANCH   3   4
HETATM    4  N1  UNL     1      16.892  36.281  17.460  1.00  0.00    -0.180 N 
BRANCH   4   5
HETATM    5  C4  UNL     1      16.516  35.882  16.096  1.00  0.00     0.210 C 
BRANCH   5   6
HETATM    6  C5  UNL     1      17.052  34.543  15.719  1.00  0.00     0.097 A 
HETATM    7  N2  UNL     1      18.256  34.190  15.307  1.00  0.00    -0.354 N 
HETATM    8  C6  UNL     1      18.644  32.855  15.136  1.00  0.00     0.056 A 
ATOM      9  H2  UNL     1      18.935  34.923  15.104  1.00  0.00     0.166 HD
HETATM   10  C13 UNL     1      17.744  31.872  15.392  1.00  0.00     0.131 A 
HETATM   11  N5  UNL     1      16.486  32.270  15.819  1.00  0.00    -0.306 N 
HETATM   12  C22 UNL     1      16.126  33.528  15.988  1.00  0.00     0.271 A 
ATOM     13  H5  UNL     1      15.796  31.545  16.015  1.00  0.00     0.170 HD
HETATM   14  O2  UNL     1      14.965  33.818  16.384  1.00  0.00    -0.266 OA
BRANCH   8  15
HETATM   15  C7  UNL     1      20.071  32.624  14.753  1.00  0.00     0.089 C 
BRANCH  15  16
HETATM   16  C8  UNL     1      21.015  32.477  15.897  1.00  0.00     0.242 C 
BRANCH  16  17
HETATM   17  N3  UNL     1      22.016  33.491  16.055  1.00  0.00    -0.075 N 
HETATM   18  C9  UNL     1      21.619  34.838  15.890  1.00  0.00     0.272 C 
HETATM   19  C10 UNL     1      22.435  33.374  17.510  1.00  0.00     0.272 C 
BRANCH  17  20
HETATM   20  C11 UNL     1      23.217  33.180  15.322  1.00  0.00     0.232 C 
HETATM   21  C12 UNL     1      23.283  31.752  14.827  1.00  0.00     0.034 C 
ENDBRANCH  17  20
ENDBRANCH  16  17
ENDBRANCH  15  16
ENDBRANCH   8  15
BRANCH  10  22
HETATM   22  N4  UNL     1      18.011  30.471  15.424  1.00  0.00    -0.340 N 
ATOM     23  H4  UNL     1      18.029  29.933  16.291  1.00  0.00     0.167 HD
BRANCH  22  24
HETATM   24  C14 UNL     1      18.255  29.876  14.136  1.00  0.00     0.039 A 
HETATM   25  C15 UNL     1      17.411  30.065  13.081  1.00  0.00     0.033 A 
HETATM   26  C16 UNL     1      17.744  29.557  11.858  1.00  0.00     0.039 A 
HETATM   27  C17 UNL     1      18.945  28.842  11.671  1.00  0.00     0.068 A 
HETATM   28  C19 UNL     1      19.789  28.674  12.756  1.00  0.00     0.045 A 
HETATM   29  C20 UNL     1      19.428  29.192  13.981  1.00  0.00    -0.033 A 
HETATM   30  C21 UNL     1      20.279  28.820  15.153  1.00  0.00     0.050 C 
BRANCH  27  31
HETATM   31  O1  UNL     1      19.216  28.335  10.412  1.00  0.00    -0.356 OA
HETATM   32  C18 UNL     1      18.315  27.689   9.568  1.00  0.00     0.210 C 
ENDBRANCH  27  31
ENDBRANCH  22  24
ENDBRANCH  10  22
ENDBRANCH   5   6
ENDBRANCH   4   5
BRANCH   4  33
HETATM   33  C23 UNL     1      18.157  36.804  17.776  1.00  0.00     0.688 A 
HETATM   34  N6  UNL     1      18.779  37.737  17.070  1.00  0.00    -0.154 N 
HETATM   35  C24 UNL     1      20.067  37.965  17.399  1.00  0.00     0.279 A 
ATOM     36  H6  UNL     1      18.311  38.253  16.325  1.00  0.00     0.187 HD
HETATM   37  O3  UNL     1      20.805  38.823  16.827  1.00  0.00    -0.266 OA
HETATM   38  C25 UNL     1      20.719  37.254  18.430  1.00  0.00     0.100 A 
HETATM   39  S1  UNL     1      22.286  37.163  19.081  1.00  0.00    -0.094 SA
HETATM   40  C28 UNL     1      20.051  36.311  19.138  1.00  0.00     0.072 A 
HETATM   41  C26 UNL     1      22.061  35.943  20.228  1.00  0.00     0.053 A 
HETATM   42  C27 UNL     1      20.730  35.622  20.076  1.00  0.00     0.039 A 
HETATM   43  N7  UNL     1      18.741  36.105  18.781  1.00  0.00    -0.190 N 
ATOM     44  H7  UNL     1      18.193  35.408  19.286  1.00  0.00     0.184 HD
ENDBRANCH   4  33
ENDBRANCH   3   4
TORSDOF 11
ENDMDL
MODEL 5
REMARK VINA RESULT: -8.520996457      3.238      6.257
REMARK  11 active torsions:
REMARK  status: ('A' for Active; 'I' for Inactive)
REMARK    1  A    between atoms: C3_3  and  N1_4 
REMARK    2  A    between atoms: N1_4  and  C4_5 
REMARK    3  A    between atoms: N1_4  and  C23_33 
REMARK    4  A    between atoms: C4_5  and  C5_6 
REMARK    5  A    between atoms: C6_9  and  C7_10 
REMARK    6  A    between atoms: C7_10  and  C8_11 
REMARK    7  A    between atoms: C8_11  and  N3_12 
REMARK    8  A    between atoms: N3_12  and  C11_15 
REMARK    9  A    between atoms: C13_17  and  N4_18 
REMARK   10  A    between atoms: N4_18  and  C14_20 
REMARK   11  A    between atoms: C17_23  and  O1_24 
ROOT
HETATM    1  C1  UNL     1      14.417  38.191  19.103  1.00  0.00     0.018 C 
HETATM    2  C2  UNL     1      14.944  37.174  18.767  1.00  0.00    -0.072 C 
HETATM    3  C3  UNL     1      15.544  35.939  18.383  1.00  0.00     0.173 C 
ENDROOT
BRANCH   3   4
HETATM    4  N1  UNL     1      16.602  36.049  17.390  1.00  0.00    -0.180 N 
BRANCH   4   5
HETATM    5  C4  UNL     1      16.261  35.646  16.018  1.00  0.00     0.210 C 
BRANCH   5   6
HETATM    6  C5  UNL     1      16.854  34.332  15.640  1.00  0.00     0.097 A 
HETATM    7  N2  UNL     1      18.080  34.025  15.259  1.00  0.00    -0.354 N 
HETATM    8  C6  UNL     1      18.518  32.706  15.082  1.00  0.00     0.056 A 
ATOM      9  H2  UNL     1      18.740  34.783  15.085  1.00  0.00     0.166 HD
HETATM   10  C13 UNL     1      17.646  31.690  15.299  1.00  0.00     0.131 A 
HETATM   11  N5  UNL     1      16.363  32.039  15.694  1.00  0.00    -0.306 N 
HETATM   12  C22 UNL     1      15.956  33.282  15.869  1.00  0.00     0.271 A 
ATOM     13  H5  UNL     1      15.693  31.288  15.860  1.00  0.00     0.170 HD
HETATM   14  O2  UNL     1      14.774  33.527  16.234  1.00  0.00    -0.266 OA
BRANCH   8  15
HETATM   15  C7  UNL     1      19.963  32.529  14.738  1.00  0.00     0.089 C 
BRANCH  15  16
HETATM   16  C8  UNL     1      20.900  32.599  15.895  1.00  0.00     0.242 C 
BRANCH  16  17
HETATM   17  N3  UNL     1      21.881  33.645  15.883  1.00  0.00    -0.075 N 
HETATM   18  C9  UNL     1      21.445  34.957  16.178  1.00  0.00     0.272 C 
HETATM   19  C10 UNL     1      22.830  33.276  17.009  1.00  0.00     0.272 C 
BRANCH  17  20
HETATM   20  C11 UNL     1      22.706  33.594  14.703  1.00  0.00     0.232 C 
HETATM   21  C12 UNL     1      23.904  32.679  14.828  1.00  0.00     0.034 C 
ENDBRANCH  17  20
ENDBRANCH  16  17
ENDBRANCH  15  16
ENDBRANCH   8  15
BRANCH  10  22
HETATM   22  N4  UNL     1      17.960  30.298  15.321  1.00  0.00    -0.340 N 
ATOM     23  H4  UNL     1      17.976  29.751  16.182  1.00  0.00     0.167 HD
BRANCH  22  24
HETATM   24  C14 UNL     1      18.253  29.728  14.032  1.00  0.00     0.039 A 
HETATM   25  C15 UNL     1      17.424  29.896  12.962  1.00  0.00     0.033 A 
HETATM   26  C16 UNL     1      17.801  29.415  11.741  1.00  0.00     0.039 A 
HETATM   27  C17 UNL     1      19.033  28.749  11.571  1.00  0.00     0.068 A 
HETATM   28  C19 UNL     1      19.860  28.603  12.672  1.00  0.00     0.045 A 
HETATM   29  C20 UNL     1      19.455  29.092  13.895  1.00  0.00    -0.033 A 
HETATM   30  C21 UNL     1      20.296  28.741  15.080  1.00  0.00     0.050 C 
BRANCH  27  31
HETATM   31  O1  UNL     1      19.348  28.268  10.313  1.00  0.00    -0.356 OA
HETATM   32  C18 UNL     1      18.519  27.520   9.480  1.00  0.00     0.210 C 
ENDBRANCH  27  31
ENDBRANCH  22  24
ENDBRANCH  10  22
ENDBRANCH   5   6
ENDBRANCH   4   5
BRANCH   4  33
HETATM   33  C23 UNL     1      17.924  36.265  17.811  1.00  0.00     0.688 A 
HETATM   34  N6  UNL     1      18.539  35.554  18.745  1.00  0.00    -0.154 N 
HETATM   35  C24 UNL     1      19.727  36.034  19.166  1.00  0.00     0.279 A 
ATOM     36  H6  UNL     1      18.137  34.696  19.122  1.00  0.00     0.187 HD
HETATM   37  O3  UNL     1      20.445  35.477  20.049  1.00  0.00    -0.266 OA
HETATM   38  C25 UNL     1      20.286  37.222  18.647  1.00  0.00     0.100 A 
HETATM   39  S1  UNL     1      21.652  38.189  18.946  1.00  0.00    -0.094 SA
HETATM   40  C28 UNL     1      19.635  37.921  17.686  1.00  0.00     0.072 A 
HETATM   41  C26 UNL     1      21.370  39.447  17.853  1.00  0.00     0.053 A 
HETATM   42  C27 UNL     1      20.183  39.076  17.260  1.00  0.00     0.039 A 
HETATM   43  N7  UNL     1      18.430  37.405  17.277  1.00  0.00    -0.190 N 
ATOM     44  H7  UNL     1      17.902  37.892  16.553  1.00  0.00     0.184 HD
ENDBRANCH   4  33
ENDBRANCH   3   4
TORSDOF 11
ENDMDL
