MODEL 1
REMARK VINA RESULT: -6.567521644      0.000      0.000
REMARK  6 active torsions:
REMARK  status: ('A' for Active; 'I' for Inactive)
REMARK    1  A    between atoms: C1_4  and  N2_5 
REMARK    2  A    between atoms: N2_5  and  C2_7 
REMARK    3  A    between atoms: C2_7  and  C3_8 
REMARK    4  A    between atoms: C3_8  and  N3_9 
REMARK    5  A    between atoms: C4_11  and  N4_12 
REMARK    6  A    between atoms: N4_12  and  N5_14 
ROOT
HETATM    1  N3  UNL     1     -42.093 -18.976  48.437  1.00  0.00    -0.383 N 
ATOM      2  H3  UNL     1     -42.213 -18.837  47.433  1.00  0.00     0.160 HD
HETATM    3  C4  UNL     1     -41.779 -20.109  48.881  1.00  0.00     0.196 C 
ENDROOT
BRANCH   1   4
HETATM    4  C3  UNL     1     -42.282 -17.888  49.332  1.00  0.00     0.140 C 
BRANCH   4   5
HETATM    5  C2  UNL     1     -43.152 -16.796  48.768  1.00  0.00     0.140 C 
BRANCH   5   6
HETATM    6  N2  UNL     1     -44.426 -16.692  49.390  1.00  0.00    -0.385 N 
ATOM      7  H2  UNL     1     -44.752 -15.790  49.738  1.00  0.00     0.160 HD
BRANCH   6   8
HETATM    8  C1  UNL     1     -45.239 -17.834  49.527  1.00  0.00     0.168 C 
HETATM    9  N1  UNL     1     -46.505 -17.718  49.622  1.00  0.00    -0.396 N 
ATOM     10  H12 UNL     1     -46.917 -16.785  49.597  1.00  0.00     0.156 HD
ATOM     11  H11 UNL     1     -47.093 -18.545  49.721  1.00  0.00     0.156 HD
ENDBRANCH   6   8
ENDBRANCH   5   6
ENDBRANCH   4   5
ENDBRANCH   1   4
BRANCH   3  12
HETATM   12  N4  UNL     1     -41.588 -21.202  48.000  1.00  0.00    -0.260 N 
ATOM     13  H4  UNL     1     -42.075 -22.093  48.084  1.00  0.00     0.191 HD
BRANCH  12  14
HETATM   14  N5  UNL     1     -40.648 -20.910  46.998  1.00  0.00    -0.085 N 
HETATM   15  N6  UNL     1     -40.112 -21.496  45.948  1.00  0.00    -0.149 N 
HETATM   16  O1  UNL     1     -39.399 -20.435  45.717  1.00  0.00    -0.121 OA
ATOM     17  H6  UNL     1     -40.215 -22.407  45.500  1.00  0.00     0.221 HD
HETATM   18  N7  UNL     1     -39.903 -19.834  46.736  1.00  0.00     0.090 NA
ENDBRANCH  12  14
ENDBRANCH   3  12
TORSDOF 6
ENDMDL
MODEL 2
REMARK VINA RESULT: -6.491166610      3.477      5.953
REMARK  6 active torsions:
REMARK  status: ('A' for Active; 'I' for Inactive)
REMARK    1  A    between atoms: C1_4  and  N2_5 
REMARK    2  A    between atoms: N2_5  and  C2_7 
REMARK    3  A    between atoms: C2_7  and  C3_8 
REMARK    4  A    between atoms: C3_8  and  N3_9 
REMARK    5  A    between atoms: C4_11  and  N4_12 
REMARK    6  A    between atoms: N4_12  and  N5_14 
ROOT
HETATM    1  N3  UNL     1     -42.370 -18.452  50.016  1.00  0.00    -0.383 N 
ATOM      2  H3  UNL     1     -41.613 -18.762  50.625  1.00  0.00     0.160 HD
HETATM    3  C4  UNL     1     -43.260 -17.684  50.461  1.00  0.00     0.196 C 
ENDROOT
BRANCH   1   4
HETATM    4  C3  UNL     1     -42.419 -18.890  48.664  1.00  0.00     0.140 C 
BRANCH   4   5
HETATM    5  C2  UNL     1     -41.373 -19.923  48.335  1.00  0.00     0.140 C 
BRANCH   5   6
HETATM    6  N2  UNL     1     -40.455 -19.516  47.328  1.00  0.00    -0.385 N 
ATOM      7  H2  UNL     1     -40.038 -18.585  47.365  1.00  0.00     0.160 HD
BRANCH   6   8
HETATM    8  C1  UNL     1     -40.119 -20.396  46.281  1.00  0.00     0.168 C 
HETATM    9  N1  UNL     1     -40.471 -21.621  46.330  1.00  0.00    -0.396 N 
ATOM     10  H12 UNL     1     -40.998 -21.949  47.139  1.00  0.00     0.156 HD
ATOM     11  H11 UNL     1     -40.228 -22.258  45.572  1.00  0.00     0.156 HD
ENDBRANCH   6   8
ENDBRANCH   5   6
ENDBRANCH   4   5
ENDBRANCH   1   4
BRANCH   3  12
HETATM   12  N4  UNL     1     -43.224 -17.241  51.805  1.00  0.00    -0.260 N 
ATOM     13  H4  UNL     1     -44.015 -17.297  52.446  1.00  0.00     0.191 HD
BRANCH  12  14
HETATM   14  N5  UNL     1     -41.969 -16.713  52.151  1.00  0.00    -0.085 N 
HETATM   15  N6  UNL     1     -41.441 -15.549  52.464  1.00  0.00    -0.149 N 
HETATM   16  O1  UNL     1     -40.277 -16.111  52.599  1.00  0.00    -0.121 OA
ATOM     17  H6  UNL     1     -41.798 -14.598  52.561  1.00  0.00     0.221 HD
HETATM   18  N7  UNL     1     -40.761 -17.263  52.297  1.00  0.00     0.090 NA
ENDBRANCH  12  14
ENDBRANCH   3  12
TORSDOF 6
ENDMDL
MODEL 3
REMARK VINA RESULT: -6.467399191      4.042      6.537
REMARK  6 active torsions:
REMARK  status: ('A' for Active; 'I' for Inactive)
REMARK    1  A    between atoms: C1_4  and  N2_5 
REMARK    2  A    between atoms: N2_5  and  C2_7 
REMARK    3  A    between atoms: C2_7  and  C3_8 
REMARK    4  A    between atoms: C3_8  and  N3_9 
REMARK    5  A    between atoms: C4_11  and  N4_12 
REMARK    6  A    between atoms: N4_12  and  N5_14 
ROOT
HETATM    1  N3  UNL     1     -42.943 -18.731  50.146  1.00  0.00    -0.383 N 
ATOM      2  H3  UNL     1     -43.239 -19.659  50.449  1.00  0.00     0.160 HD
HETATM    3  C4  UNL     1     -43.089 -17.744  50.910  1.00  0.00     0.196 C 
ENDROOT
BRANCH   1   4
HETATM    4  C3  UNL     1     -42.367 -18.555  48.858  1.00  0.00     0.140 C 
BRANCH   4   5
HETATM    5  C2  UNL     1     -41.662 -19.785  48.348  1.00  0.00     0.140 C 
BRANCH   5   6
HETATM    6  N2  UNL     1     -40.549 -19.506  47.507  1.00  0.00    -0.385 N 
ATOM      7  H2  UNL     1     -39.926 -18.729  47.727  1.00  0.00     0.160 HD
BRANCH   6   8
HETATM    8  C1  UNL     1     -40.306 -20.303  46.372  1.00  0.00     0.168 C 
HETATM    9  N1  UNL     1     -40.517 -21.560  46.408  1.00  0.00    -0.396 N 
ATOM     10  H12 UNL     1     -40.863 -21.976  47.273  1.00  0.00     0.156 HD
ATOM     11  H11 UNL     1     -40.341 -22.137  45.585  1.00  0.00     0.156 HD
ENDBRANCH   6   8
ENDBRANCH   5   6
ENDBRANCH   4   5
ENDBRANCH   1   4
BRANCH   3  12
HETATM   12  N4  UNL     1     -43.662 -17.904  52.194  1.00  0.00    -0.260 N 
ATOM     13  H4  UNL     1     -44.450 -18.519  52.395  1.00  0.00     0.191 HD
BRANCH  12  14
HETATM   14  N5  UNL     1     -43.015 -17.114  53.160  1.00  0.00    -0.085 N 
HETATM   15  N6  UNL     1     -42.196 -16.085  53.204  1.00  0.00    -0.149 N 
HETATM   16  O1  UNL     1     -42.208 -16.128  54.503  1.00  0.00    -0.121 OA
ATOM     17  H6  UNL     1     -41.740 -15.496  52.507  1.00  0.00     0.221 HD
HETATM   18  N7  UNL     1     -43.009 -17.135  54.495  1.00  0.00     0.090 NA
ENDBRANCH  12  14
ENDBRANCH   3  12
TORSDOF 6
ENDMDL
MODEL 4
REMARK VINA RESULT: -6.433069517      1.316      1.870
REMARK  6 active torsions:
REMARK  status: ('A' for Active; 'I' for Inactive)
REMARK    1  A    between atoms: C1_4  and  N2_5 
REMARK    2  A    between atoms: N2_5  and  C2_7 
REMARK    3  A    between atoms: C2_7  and  C3_8 
REMARK    4  A    between atoms: C3_8  and  N3_9 
REMARK    5  A    between atoms: C4_11  and  N4_12 
REMARK    6  A    between atoms: N4_12  and  N5_14 
ROOT
HETATM    1  N3  UNL     1     -41.702 -19.948  50.145  1.00  0.00    -0.383 N 
ATOM      2  H3  UNL     1     -41.127 -20.689  50.545  1.00  0.00     0.160 HD
HETATM    3  C4  UNL     1     -42.022 -19.987  48.931  1.00  0.00     0.196 C 
ENDROOT
BRANCH   1   4
HETATM    4  C3  UNL     1     -42.141 -18.869  50.962  1.00  0.00     0.140 C 
BRANCH   4   5
HETATM    5  C2  UNL     1     -43.633 -18.661  50.924  1.00  0.00     0.140 C 
BRANCH   5   6
HETATM    6  N2  UNL     1     -44.023 -17.346  50.550  1.00  0.00    -0.385 N 
ATOM      7  H2  UNL     1     -44.356 -16.692  51.259  1.00  0.00     0.160 HD
BRANCH   6   8
HETATM    8  C1  UNL     1     -43.952 -16.946  49.201  1.00  0.00     0.168 C 
HETATM    9  N1  UNL     1     -43.266 -15.926  48.866  1.00  0.00    -0.396 N 
ATOM     10  H12 UNL     1     -42.771 -15.406  49.591  1.00  0.00     0.156 HD
ATOM     11  H11 UNL     1     -43.214 -15.637  47.890  1.00  0.00     0.156 HD
ENDBRANCH   6   8
ENDBRANCH   5   6
ENDBRANCH   4   5
ENDBRANCH   1   4
BRANCH   3  12
HETATM   12  N4  UNL     1     -41.592 -21.054  48.105  1.00  0.00    -0.260 N 
ATOM     13  H4  UNL     1     -41.925 -22.014  48.193  1.00  0.00     0.191 HD
BRANCH  12  14
HETATM   14  N5  UNL     1     -40.652 -20.633  47.150  1.00  0.00    -0.085 N 
HETATM   15  N6  UNL     1     -40.112 -19.510  46.727  1.00  0.00    -0.149 N 
HETATM   16  O1  UNL     1     -39.400 -20.174  45.866  1.00  0.00    -0.121 OA
ATOM     17  H6  UNL     1     -40.211 -18.525  46.972  1.00  0.00     0.221 HD
HETATM   18  N7  UNL     1     -39.908 -21.290  46.257  1.00  0.00     0.090 NA
ENDBRANCH  12  14
ENDBRANCH   3  12
TORSDOF 6
ENDMDL
MODEL 5
REMARK VINA RESULT: -6.400684052      2.098      2.759
REMARK  6 active torsions:
REMARK  status: ('A' for Active; 'I' for Inactive)
REMARK    1  A    between atoms: C1_4  and  N2_5 
REMARK    2  A    between atoms: N2_5  and  C2_7 
REMARK    3  A    between atoms: C2_7  and  C3_8 
REMARK    4  A    between atoms: C3_8  and  N3_9 
REMARK    5  A    between atoms: C4_11  and  N4_12 
REMARK    6  A    between atoms: N4_12  and  N5_14 
ROOT
HETATM    1  N3  UNL     1     -42.839 -17.938  48.669  1.00  0.00    -0.383 N 
ATOM      2  H3  UNL     1     -42.697 -17.275  47.906  1.00  0.00     0.160 HD
HETATM    3  C4  UNL     1     -41.984 -18.830  48.894  1.00  0.00     0.196 C 
ENDROOT
BRANCH   1   4
HETATM    4  C3  UNL     1     -44.006 -17.850  49.477  1.00  0.00     0.140 C 
BRANCH   4   5
HETATM    5  C2  UNL     1     -43.764 -18.229  50.915  1.00  0.00     0.140 C 
BRANCH   5   6
HETATM    6  N2  UNL     1     -43.398 -17.135  51.747  1.00  0.00    -0.385 N 
ATOM      7  H2  UNL     1     -44.073 -16.395  51.942  1.00  0.00     0.160 HD
BRANCH   6   8
HETATM    8  C1  UNL     1     -42.104 -17.073  52.301  1.00  0.00     0.168 C 
HETATM    9  N1  UNL     1     -41.666 -15.984  52.797  1.00  0.00    -0.396 N 
ATOM     10  H12 UNL     1     -42.269 -15.161  52.786  1.00  0.00     0.156 HD
ATOM     11  H11 UNL     1     -40.730 -15.940  53.198  1.00  0.00     0.156 HD
ENDBRANCH   6   8
ENDBRANCH   5   6
ENDBRANCH   4   5
ENDBRANCH   1   4
BRANCH   3  12
HETATM   12  N4  UNL     1     -40.818 -18.929  48.097  1.00  0.00    -0.260 N 
ATOM     13  H4  UNL     1     -40.041 -18.270  48.137  1.00  0.00     0.191 HD
BRANCH  12  14
HETATM   14  N5  UNL     1     -40.858 -20.044  47.243  1.00  0.00    -0.085 N 
HETATM   15  N6  UNL     1     -40.523 -20.353  46.008  1.00  0.00    -0.149 N 
HETATM   16  O1  UNL     1     -40.952 -21.565  46.192  1.00  0.00    -0.121 OA
ATOM     17  H6  UNL     1     -40.100 -19.849  45.228  1.00  0.00     0.221 HD
HETATM   18  N7  UNL     1     -41.291 -21.296  47.404  1.00  0.00     0.090 NA
ENDBRANCH  12  14
ENDBRANCH   3  12
TORSDOF 6
ENDMDL
