MODEL 1
REMARK VINA RESULT: -6.767578608      0.000      0.000
REMARK  6 active torsions:
REMARK  status: ('A' for Active; 'I' for Inactive)
REMARK    1  A    between atoms: C1_4  and  N2_5 
REMARK    2  A    between atoms: N2_5  and  C2_7 
REMARK    3  A    between atoms: C2_7  and  N3_8 
REMARK    4  A    between atoms: C3_10  and  C4_11 
REMARK    5  A    between atoms: C4_11  and  C5_12 
REMARK    6  A    between atoms: C5_12  and  N4_13 
ROOT
HETATM    1  N3  UNL     1     -41.689 -18.789  48.663  1.00  0.00    -0.386 N 
ATOM      2  H3  UNL     1     -41.133 -17.940  48.559  1.00  0.00     0.160 HD
HETATM    3  C3  UNL     1     -42.680 -18.758  49.449  1.00  0.00     0.059 C 
ENDROOT
BRANCH   3   4
HETATM    4  C4  UNL     1     -43.019 -17.527  50.193  1.00  0.00     0.067 C 
BRANCH   4   5
HETATM    5  C5  UNL     1     -42.787 -17.673  51.675  1.00  0.00     0.178 C 
BRANCH   5   6
HETATM    6  N4  UNL     1     -41.579 -16.974  52.068  1.00  0.00    -0.203 N 
HETATM    7  N5  UNL     1     -40.270 -17.211  52.093  1.00  0.00    -0.209 N 
HETATM    8  N6  UNL     1     -40.056 -16.019  52.595  1.00  0.00    -0.211 N 
ATOM      9  H5  UNL     1     -39.676 -17.998  51.829  1.00  0.00     0.211 HD
HETATM   10  N7  UNL     1     -41.356 -15.781  52.571  1.00  0.00    -0.209 N 
ATOM     11  H6  UNL     1     -39.231 -15.493  52.884  1.00  0.00     0.211 HD
ATOM     12  H7  UNL     1     -41.946 -14.993  52.836  1.00  0.00     0.211 HD
ENDBRANCH   5   6
ENDBRANCH   4   5
ENDBRANCH   3   4
BRANCH   1  13
HETATM   13  C2  UNL     1     -41.301 -19.944  47.911  1.00  0.00     0.243 C 
BRANCH  13  14
HETATM   14  N2  UNL     1     -40.263 -19.651  46.961  1.00  0.00    -0.370 N 
ATOM     15  H2  UNL     1     -39.803 -18.741  46.943  1.00  0.00     0.161 HD
BRANCH  14  16
HETATM   16  C1  UNL     1     -39.900 -20.681  46.044  1.00  0.00     0.170 C 
HETATM   17  N1  UNL     1     -40.256 -21.902  46.201  1.00  0.00    -0.396 N 
ATOM     18  H12 UNL     1     -40.821 -22.129  47.020  1.00  0.00     0.156 HD
ATOM     19  H11 UNL     1     -39.996 -22.638  45.546  1.00  0.00     0.156 HD
ENDBRANCH  14  16
ENDBRANCH  13  14
ENDBRANCH   1  13
TORSDOF 6
ENDMDL
MODEL 2
REMARK VINA RESULT: -6.596636218      3.040      6.078
REMARK  6 active torsions:
REMARK  status: ('A' for Active; 'I' for Inactive)
REMARK    1  A    between atoms: C1_4  and  N2_5 
REMARK    2  A    between atoms: N2_5  and  C2_7 
REMARK    3  A    between atoms: C2_7  and  N3_8 
REMARK    4  A    between atoms: C3_10  and  C4_11 
REMARK    5  A    between atoms: C4_11  and  C5_12 
REMARK    6  A    between atoms: C5_12  and  N4_13 
ROOT
HETATM    1  N3  UNL     1     -43.634 -18.390  49.349  1.00  0.00    -0.386 N 
ATOM      2  H3  UNL     1     -43.800 -19.197  49.950  1.00  0.00     0.160 HD
HETATM    3  C3  UNL     1     -42.502 -18.283  48.794  1.00  0.00     0.059 C 
ENDROOT
BRANCH   3   4
HETATM    4  C4  UNL     1     -41.452 -19.299  49.014  1.00  0.00     0.067 C 
BRANCH   4   5
HETATM    5  C5  UNL     1     -41.706 -20.561  48.229  1.00  0.00     0.178 C 
BRANCH   5   6
HETATM    6  N4  UNL     1     -40.786 -20.655  47.112  1.00  0.00    -0.203 N 
HETATM    7  N5  UNL     1     -40.346 -21.593  46.277  1.00  0.00    -0.209 N 
HETATM    8  N6  UNL     1     -39.584 -20.711  45.677  1.00  0.00    -0.211 N 
ATOM      9  H5  UNL     1     -40.527 -22.590  46.155  1.00  0.00     0.211 HD
HETATM   10  N7  UNL     1     -40.019 -19.778  46.506  1.00  0.00    -0.209 N 
ATOM     11  H6  UNL     1     -38.927 -20.735  44.896  1.00  0.00     0.211 HD
ATOM     12  H7  UNL     1     -39.835 -18.782  46.625  1.00  0.00     0.211 HD
ENDBRANCH   5   6
ENDBRANCH   4   5
ENDBRANCH   3   4
BRANCH   1  13
HETATM   13  C2  UNL     1     -44.698 -17.445  49.183  1.00  0.00     0.243 C 
BRANCH  13  14
HETATM   14  N2  UNL     1     -45.936 -17.917  49.740  1.00  0.00    -0.370 N 
ATOM     15  H2  UNL     1     -46.815 -17.429  49.567  1.00  0.00     0.161 HD
BRANCH  14  16
HETATM   16  C1  UNL     1     -45.888 -19.093  50.545  1.00  0.00     0.170 C 
HETATM   17  N1  UNL     1     -46.943 -19.681  50.972  1.00  0.00    -0.396 N 
ATOM     18  H12 UNL     1     -47.846 -19.278  50.717  1.00  0.00     0.156 HD
ATOM     19  H11 UNL     1     -46.909 -20.522  51.547  1.00  0.00     0.156 HD
ENDBRANCH  14  16
ENDBRANCH  13  14
ENDBRANCH   1  13
TORSDOF 6
ENDMDL
MODEL 3
REMARK VINA RESULT: -6.580346172      0.709      1.134
REMARK  6 active torsions:
REMARK  status: ('A' for Active; 'I' for Inactive)
REMARK    1  A    between atoms: C1_4  and  N2_5 
REMARK    2  A    between atoms: N2_5  and  C2_7 
REMARK    3  A    between atoms: C2_7  and  N3_8 
REMARK    4  A    between atoms: C3_10  and  C4_11 
REMARK    5  A    between atoms: C4_11  and  C5_12 
REMARK    6  A    between atoms: C5_12  and  N4_13 
ROOT
HETATM    1  N3  UNL     1     -41.480 -19.422  49.253  1.00  0.00    -0.386 N 
ATOM      2  H3  UNL     1     -40.861 -18.623  49.389  1.00  0.00     0.160 HD
HETATM    3  C3  UNL     1     -42.169 -19.817  50.238  1.00  0.00     0.059 C 
ENDROOT
BRANCH   3   4
HETATM    4  C4  UNL     1     -42.077 -19.137  51.547  1.00  0.00     0.067 C 
BRANCH   4   5
HETATM    5  C5  UNL     1     -42.505 -17.693  51.472  1.00  0.00     0.178 C 
BRANCH   5   6
HETATM    6  N4  UNL     1     -41.448 -16.827  51.958  1.00  0.00    -0.203 N 
HETATM    7  N5  UNL     1     -41.307 -15.553  52.314  1.00  0.00    -0.209 N 
HETATM    8  N6  UNL     1     -40.040 -15.761  52.583  1.00  0.00    -0.211 N 
ATOM      9  H5  UNL     1     -41.929 -14.746  52.360  1.00  0.00     0.211 HD
HETATM   10  N7  UNL     1     -40.179 -17.028  52.230  1.00  0.00    -0.209 N 
ATOM     11  H6  UNL     1     -39.270 -15.186  52.923  1.00  0.00     0.211 HD
ATOM     12  H7  UNL     1     -39.554 -17.833  52.186  1.00  0.00     0.211 HD
ENDBRANCH   5   6
ENDBRANCH   4   5
ENDBRANCH   3   4
BRANCH   1  13
HETATM   13  C2  UNL     1     -41.517 -20.032  47.957  1.00  0.00     0.243 C 
BRANCH  13  14
HETATM   14  N2  UNL     1     -40.410 -19.627  47.135  1.00  0.00    -0.370 N 
ATOM     15  H2  UNL     1     -39.965 -18.717  47.256  1.00  0.00     0.161 HD
BRANCH  14  16
HETATM   16  C1  UNL     1     -39.957 -20.545  46.142  1.00  0.00     0.170 C 
HETATM   17  N1  UNL     1     -40.236 -21.795  46.180  1.00  0.00    -0.396 N 
ATOM     18  H12 UNL     1     -40.805 -22.131  46.958  1.00  0.00     0.156 HD
ATOM     19  H11 UNL     1     -39.912 -22.452  45.471  1.00  0.00     0.156 HD
ENDBRANCH  14  16
ENDBRANCH  13  14
ENDBRANCH   1  13
TORSDOF 6
ENDMDL
MODEL 4
REMARK VINA RESULT: -6.500363301      3.006      5.959
REMARK  6 active torsions:
REMARK  status: ('A' for Active; 'I' for Inactive)
REMARK    1  A    between atoms: C1_4  and  N2_5 
REMARK    2  A    between atoms: N2_5  and  C2_7 
REMARK    3  A    between atoms: C2_7  and  N3_8 
REMARK    4  A    between atoms: C3_10  and  C4_11 
REMARK    5  A    between atoms: C4_11  and  C5_12 
REMARK    6  A    between atoms: C5_12  and  N4_13 
ROOT
HETATM    1  N3  UNL     1     -43.359 -19.540  50.377  1.00  0.00    -0.386 N 
ATOM      2  H3  UNL     1     -42.824 -18.744  50.029  1.00  0.00     0.160 HD
HETATM    3  C3  UNL     1     -42.972 -20.702  50.061  1.00  0.00     0.059 C 
ENDROOT
BRANCH   3   4
HETATM    4  C4  UNL     1     -41.778 -20.898  49.212  1.00  0.00     0.067 C 
BRANCH   4   5
HETATM    5  C5  UNL     1     -41.711 -19.900  48.083  1.00  0.00     0.178 C 
BRANCH   5   6
HETATM    6  N4  UNL     1     -40.811 -20.369  47.048  1.00  0.00    -0.203 N 
HETATM    7  N5  UNL     1     -40.570 -21.503  46.395  1.00  0.00    -0.209 N 
HETATM    8  N6  UNL     1     -39.621 -20.913  45.707  1.00  0.00    -0.211 N 
ATOM      9  H5  UNL     1     -40.962 -22.445  46.419  1.00  0.00     0.211 HD
HETATM   10  N7  UNL     1     -39.860 -19.786  46.355  1.00  0.00    -0.209 N 
ATOM     11  H6  UNL     1     -38.971 -21.204  44.977  1.00  0.00     0.211 HD
ATOM     12  H7  UNL     1     -39.466 -18.846  46.328  1.00  0.00     0.211 HD
ENDBRANCH   5   6
ENDBRANCH   4   5
ENDBRANCH   3   4
BRANCH   1  13
HETATM   13  C2  UNL     1     -44.505 -19.274  51.195  1.00  0.00     0.243 C 
BRANCH  13  14
HETATM   14  N2  UNL     1     -45.479 -18.463  50.519  1.00  0.00    -0.370 N 
ATOM     15  H2  UNL     1     -46.445 -18.414  50.843  1.00  0.00     0.161 HD
BRANCH  14  16
HETATM   16  C1  UNL     1     -45.044 -17.729  49.376  1.00  0.00     0.170 C 
HETATM   17  N1  UNL     1     -44.486 -16.580  49.465  1.00  0.00    -0.396 N 
ATOM     18  H12 UNL     1     -44.355 -16.188  50.398  1.00  0.00     0.156 HD
ATOM     19  H11 UNL     1     -44.175 -16.055  48.647  1.00  0.00     0.156 HD
ENDBRANCH  14  16
ENDBRANCH  13  14
ENDBRANCH   1  13
TORSDOF 6
ENDMDL
MODEL 5
REMARK VINA RESULT: -6.481287531      1.484      6.108
REMARK  6 active torsions:
REMARK  status: ('A' for Active; 'I' for Inactive)
REMARK    1  A    between atoms: C1_4  and  N2_5 
REMARK    2  A    between atoms: N2_5  and  C2_7 
REMARK    3  A    between atoms: C2_7  and  N3_8 
REMARK    4  A    between atoms: C3_10  and  C4_11 
REMARK    5  A    between atoms: C4_11  and  C5_12 
REMARK    6  A    between atoms: C5_12  and  N4_13 
ROOT
HETATM    1  N3  UNL     1     -42.986 -18.953  50.259  1.00  0.00    -0.386 N 
ATOM      2  H3  UNL     1     -42.656 -18.338  49.516  1.00  0.00     0.160 HD
HETATM    3  C3  UNL     1     -42.779 -20.196  50.139  1.00  0.00     0.059 C 
ENDROOT
BRANCH   3   4
HETATM    4  C4  UNL     1     -42.080 -20.736  48.954  1.00  0.00     0.067 C 
BRANCH   4   5
HETATM    5  C5  UNL     1     -41.318 -19.672  48.206  1.00  0.00     0.178 C 
BRANCH   5   6
HETATM    6  N4  UNL     1     -40.609 -20.253  47.083  1.00  0.00    -0.203 N 
HETATM    7  N5  UNL     1     -40.560 -21.423  46.451  1.00  0.00    -0.209 N 
HETATM    8  N6  UNL     1     -39.660 -20.946  45.624  1.00  0.00    -0.211 N 
ATOM      9  H5  UNL     1     -41.029 -22.322  46.563  1.00  0.00     0.211 HD
HETATM   10  N7  UNL     1     -39.707 -19.783  46.252  1.00  0.00    -0.209 N 
ATOM     11  H6  UNL     1     -39.140 -21.317  44.829  1.00  0.00     0.211 HD
ATOM     12  H7  UNL     1     -39.236 -18.886  46.137  1.00  0.00     0.211 HD
ENDBRANCH   5   6
ENDBRANCH   4   5
ENDBRANCH   3   4
BRANCH   1  13
HETATM   13  C2  UNL     1     -43.657 -18.359  51.377  1.00  0.00     0.243 C 
BRANCH  13  14
HETATM   14  N2  UNL     1     -43.183 -17.031  51.651  1.00  0.00    -0.370 N 
ATOM     15  H2  UNL     1     -43.796 -16.221  51.562  1.00  0.00     0.161 HD
BRANCH  14  16
HETATM   16  C1  UNL     1     -41.822 -16.888  52.053  1.00  0.00     0.170 C 
HETATM   17  N1  UNL     1     -41.412 -15.908  52.768  1.00  0.00    -0.396 N 
ATOM     18  H12 UNL     1     -42.100 -15.210  53.054  1.00  0.00     0.156 HD
ATOM     19  H11 UNL     1     -40.439 -15.806  53.056  1.00  0.00     0.156 HD
ENDBRANCH  14  16
ENDBRANCH  13  14
ENDBRANCH   1  13
TORSDOF 6
ENDMDL
