MODEL 1
REMARK VINA RESULT: -5.850052429      0.000      0.000
REMARK  5 active torsions:
REMARK  status: ('A' for Active; 'I' for Inactive)
REMARK    1  A    between atoms: C1_2  and  C2_3 
REMARK    2  A    between atoms: C2_3  and  O2_4 
REMARK    3  A    between atoms: C2_3  and  O3_6 
REMARK    4  A    between atoms: O3_6  and  C3_7 
REMARK    5  A    between atoms: C6_11  and  O5_12 
ROOT
HETATM    1  C3  UNL     1     -42.287  19.130  39.771  1.00  0.00     0.151 C 
HETATM    2  C4  UNL     1     -41.989  19.088  38.294  1.00  0.00     0.199 C 
HETATM    3  O4  UNL     1     -41.714  17.820  37.826  1.00  0.00    -0.386 OA
HETATM    4  C5  UNL     1     -42.797  16.973  37.833  1.00  0.00     0.199 C 
HETATM    5  C6  UNL     1     -43.735  17.356  38.954  1.00  0.00     0.144 C 
HETATM    6  C7  UNL     1     -42.879  17.763  40.138  1.00  0.00     0.068 C 
ENDROOT
BRANCH   1   7
HETATM    7  O3  UNL     1     -41.202  19.441  40.550  1.00  0.00    -0.347 OA
BRANCH   7   8
HETATM    8  C2  UNL     1     -41.579  20.300  41.586  1.00  0.00     0.320 C 
BRANCH   8   9
HETATM    9  C1  UNL     1     -40.426  20.335  42.563  1.00  0.00     0.291 C 
HETATM   10  O1  UNL     1     -40.043  21.515  42.895  1.00  0.00    -0.302 OA
ENDBRANCH   8   9
BRANCH   8  11
HETATM   11  O2  UNL     1     -41.795  21.549  41.002  1.00  0.00    -0.365 OA
ATOM     12  H2  UNL     1     -42.466  21.510  40.331  1.00  0.00     0.213 HD
ENDBRANCH   8  11
ENDBRANCH   7   8
ENDBRANCH   1   7
BRANCH   5  13
HETATM   13  O5  UNL     1     -44.602  16.319  39.277  1.00  0.00    -0.393 OA
ATOM     14  H5  UNL     1     -45.434  16.643  39.601  1.00  0.00     0.210 HD
ENDBRANCH   5  13
TORSDOF 5
ENDMDL
MODEL 2
REMARK VINA RESULT: -5.721593345      3.371      5.076
REMARK  5 active torsions:
REMARK  status: ('A' for Active; 'I' for Inactive)
REMARK    1  A    between atoms: C1_2  and  C2_3 
REMARK    2  A    between atoms: C2_3  and  O2_4 
REMARK    3  A    between atoms: C2_3  and  O3_6 
REMARK    4  A    between atoms: O3_6  and  C3_7 
REMARK    5  A    between atoms: C6_11  and  O5_12 
ROOT
HETATM    1  C3  UNL     1     -42.453  18.145  38.504  1.00  0.00     0.151 C 
HETATM    2  C4  UNL     1     -43.470  19.251  38.389  1.00  0.00     0.199 C 
HETATM    3  O4  UNL     1     -44.767  18.794  38.277  1.00  0.00    -0.386 OA
HETATM    4  C5  UNL     1     -45.252  18.198  39.417  1.00  0.00     0.199 C 
HETATM    5  C6  UNL     1     -44.115  17.559  40.179  1.00  0.00     0.144 C 
HETATM    6  C7  UNL     1     -43.170  16.956  39.157  1.00  0.00     0.068 C 
ENDROOT
BRANCH   1   7
HETATM    7  O3  UNL     1     -41.871  17.797  37.312  1.00  0.00    -0.347 OA
BRANCH   7   8
HETATM    8  C2  UNL     1     -42.315  16.535  36.906  1.00  0.00     0.320 C 
BRANCH   8   9
HETATM    9  C1  UNL     1     -43.112  16.740  35.639  1.00  0.00     0.291 C 
HETATM   10  O1  UNL     1     -42.828  15.921  34.692  1.00  0.00    -0.302 OA
ENDBRANCH   8   9
BRANCH   8  11
HETATM   11  O2  UNL     1     -41.170  15.772  36.675  1.00  0.00    -0.365 OA
ATOM     12  H2  UNL     1     -40.942  15.244  37.431  1.00  0.00     0.213 HD
ENDBRANCH   8  11
ENDBRANCH   7   8
ENDBRANCH   1   7
BRANCH   5  13
HETATM   13  O5  UNL     1     -44.572  16.607  41.084  1.00  0.00    -0.393 OA
ATOM     14  H5  UNL     1     -43.855  16.170  41.526  1.00  0.00     0.210 HD
ENDBRANCH   5  13
TORSDOF 5
ENDMDL
MODEL 3
REMARK VINA RESULT: -5.647338197      1.495      1.560
REMARK  5 active torsions:
REMARK  status: ('A' for Active; 'I' for Inactive)
REMARK    1  A    between atoms: C1_2  and  C2_3 
REMARK    2  A    between atoms: C2_3  and  O2_4 
REMARK    3  A    between atoms: C2_3  and  O3_6 
REMARK    4  A    between atoms: O3_6  and  C3_7 
REMARK    5  A    between atoms: C6_11  and  O5_12 
ROOT
HETATM    1  C3  UNL     1     -42.097  19.534  38.740  1.00  0.00     0.151 C 
HETATM    2  C4  UNL     1     -41.392  18.977  37.530  1.00  0.00     0.199 C 
HETATM    3  O4  UNL     1     -41.858  17.736  37.148  1.00  0.00    -0.386 OA
HETATM    4  C5  UNL     1     -43.136  17.748  36.642  1.00  0.00     0.199 C 
HETATM    5  C6  UNL     1     -43.924  18.869  37.280  1.00  0.00     0.144 C 
HETATM    6  C7  UNL     1     -43.510  18.937  38.738  1.00  0.00     0.068 C 
ENDROOT
BRANCH   1   7
HETATM    7  O3  UNL     1     -41.445  19.296  39.923  1.00  0.00    -0.347 OA
BRANCH   7   8
HETATM    8  C2  UNL     1     -41.910  20.163  40.916  1.00  0.00     0.320 C 
BRANCH   8   9
HETATM    9  C1  UNL     1     -40.897  20.124  42.037  1.00  0.00     0.291 C 
HETATM   10  O1  UNL     1     -41.347  20.512  43.176  1.00  0.00    -0.302 OA
ENDBRANCH   8   9
BRANCH   8  11
HETATM   11  O2  UNL     1     -41.982  21.428  40.331  1.00  0.00    -0.365 OA
ATOM     12  H2  UNL     1     -42.675  21.476  39.684  1.00  0.00     0.213 HD
ENDBRANCH   8  11
ENDBRANCH   7   8
ENDBRANCH   1   7
BRANCH   5  13
HETATM   13  O5  UNL     1     -45.294  18.680  37.141  1.00  0.00    -0.393 OA
ATOM     14  H5  UNL     1     -45.759  19.506  37.079  1.00  0.00     0.210 HD
ENDBRANCH   5  13
TORSDOF 5
ENDMDL
MODEL 4
REMARK VINA RESULT: -5.548770631      1.790      2.689
REMARK  5 active torsions:
REMARK  status: ('A' for Active; 'I' for Inactive)
REMARK    1  A    between atoms: C1_2  and  C2_3 
REMARK    2  A    between atoms: C2_3  and  O2_4 
REMARK    3  A    between atoms: C2_3  and  O3_6 
REMARK    4  A    between atoms: O3_6  and  C3_7 
REMARK    5  A    between atoms: C6_11  and  O5_12 
ROOT
HETATM    1  C3  UNL     1     -41.816  20.466  40.360  1.00  0.00     0.151 C 
HETATM    2  C4  UNL     1     -42.168  19.002  40.417  1.00  0.00     0.199 C 
HETATM    3  O4  UNL     1     -43.466  18.734  40.037  1.00  0.00    -0.386 OA
HETATM    4  C5  UNL     1     -43.714  18.944  38.701  1.00  0.00     0.199 C 
HETATM    5  C6  UNL     1     -42.811  20.040  38.183  1.00  0.00     0.144 C 
HETATM    6  C7  UNL     1     -42.704  21.088  39.274  1.00  0.00     0.068 C 
ENDROOT
BRANCH   1   7
HETATM    7  O3  UNL     1     -41.947  21.118  41.560  1.00  0.00    -0.347 OA
BRANCH   7   8
HETATM    8  C2  UNL     1     -40.918  20.743  42.430  1.00  0.00     0.320 C 
BRANCH   8   9
HETATM    9  C1  UNL     1     -40.211  22.015  42.838  1.00  0.00     0.291 C 
HETATM   10  O1  UNL     1     -40.107  22.891  41.905  1.00  0.00    -0.302 OA
ENDBRANCH   8   9
BRANCH   8  11
HETATM   11  O2  UNL     1     -41.531  20.123  43.519  1.00  0.00    -0.365 OA
ATOM     12  H2  UNL     1     -42.285  19.610  43.252  1.00  0.00     0.213 HD
ENDBRANCH   8  11
ENDBRANCH   7   8
ENDBRANCH   1   7
BRANCH   5  13
HETATM   13  O5  UNL     1     -43.287  20.580  36.994  1.00  0.00    -0.393 OA
ATOM     14  H5  UNL     1     -43.445  19.909  36.341  1.00  0.00     0.210 HD
ENDBRANCH   5  13
TORSDOF 5
ENDMDL
MODEL 5
REMARK VINA RESULT: -5.527761863      1.782      4.502
REMARK  5 active torsions:
REMARK  status: ('A' for Active; 'I' for Inactive)
REMARK    1  A    between atoms: C1_2  and  C2_3 
REMARK    2  A    between atoms: C2_3  and  O2_4 
REMARK    3  A    between atoms: C2_3  and  O3_6 
REMARK    4  A    between atoms: O3_6  and  C3_7 
REMARK    5  A    between atoms: C6_11  and  O5_12 
ROOT
HETATM    1  C3  UNL     1     -42.402  18.476  38.754  1.00  0.00     0.151 C 
HETATM    2  C4  UNL     1     -42.826  19.435  37.671  1.00  0.00     0.199 C 
HETATM    3  O4  UNL     1     -43.750  20.367  38.095  1.00  0.00    -0.386 OA
HETATM    4  C5  UNL     1     -43.250  21.286  38.986  1.00  0.00     0.199 C 
HETATM    5  C6  UNL     1     -42.141  20.657  39.797  1.00  0.00     0.144 C 
HETATM    6  C7  UNL     1     -42.550  19.225  40.085  1.00  0.00     0.068 C 
ENDROOT
BRANCH   1   7
HETATM    7  O3  UNL     1     -43.097  17.293  38.754  1.00  0.00    -0.347 OA
BRANCH   7   8
HETATM    8  C2  UNL     1     -43.670  17.068  40.009  1.00  0.00     0.320 C 
BRANCH   8   9
HETATM    9  C1  UNL     1     -45.137  17.411  39.884  1.00  0.00     0.291 C 
HETATM   10  O1  UNL     1     -45.785  17.393  40.993  1.00  0.00    -0.302 OA
ENDBRANCH   8   9
BRANCH   8  11
HETATM   11  O2  UNL     1     -43.480  15.715  40.291  1.00  0.00    -0.365 OA
ATOM     12  H2  UNL     1     -43.543  15.182  39.507  1.00  0.00     0.213 HD
ENDBRANCH   8  11
ENDBRANCH   7   8
ENDBRANCH   1   7
BRANCH   5  13
HETATM   13  O5  UNL     1     -41.890  21.366  40.965  1.00  0.00    -0.393 OA
ATOM     14  H5  UNL     1     -42.004  20.825  41.737  1.00  0.00     0.210 HD
ENDBRANCH   5  13
TORSDOF 5
ENDMDL
