MODEL 1
REMARK VINA RESULT: -7.441717851      0.000      0.000
REMARK  11 active torsions:
REMARK  status: ('A' for Active; 'I' for Inactive)
REMARK    1  A    between atoms: C1_4  and  C2_6 
REMARK    2  A    between atoms: C4_8  and  C5_9 
REMARK    3  A    between atoms: C6_10  and  C7_11 
REMARK    4  A    between atoms: C7_11  and  O1_12 
REMARK       I    between atoms: N3_14  and  C8_15 
REMARK    5  A    between atoms: C8_15  and  C9_17 
REMARK    6  A    between atoms: C9_17  and  O3_18 
REMARK    7  A    between atoms: C9_17  and  N4_20 
REMARK    8  A    between atoms: N4_20  and  O4_21 
REMARK    9  A    between atoms: O4_21  and  C10_22 
REMARK       I    between atoms: C10_22  and  N5_24 
REMARK   10  A    between atoms: N5_24  and  C11_26 
REMARK   11  A    between atoms: C13_33  and  N9_34 
ROOT
HETATM    1  C5  UNL     1      26.417   3.815   5.313  1.00  0.00     0.122 C 
HETATM    2  C6  UNL     1      26.100   3.796   4.040  1.00  0.00     0.074 C 
HETATM    3  N3  UNL     1      24.850   3.267   3.592  1.00  0.00    -0.311 N 
HETATM    4  C8  UNL     1      24.545   2.883   2.300  1.00  0.00     0.271 C 
HETATM    5  O2  UNL     1      25.375   2.990   1.363  1.00  0.00    -0.268 OA
HETATM    6  C14 UNL     1      23.843   3.172   4.662  1.00  0.00     0.159 C 
HETATM    7  C15 UNL     1      24.510   2.433   5.829  1.00  0.00     0.196 C 
HETATM    8  O6  UNL     1      25.547   3.281   6.258  1.00  0.00    -0.345 OA
ENDROOT
BRANCH   4   9
HETATM    9  C9  UNL     1      23.230   2.313   1.886  1.00  0.00     0.332 C 
BRANCH   9  10
HETATM   10  O3  UNL     1      22.973   2.658   0.564  1.00  0.00    -0.369 OA
ATOM     11  H3  UNL     1      22.093   2.384   0.331  1.00  0.00     0.212 HD
ENDBRANCH   9  10
BRANCH   9  12
HETATM   12  N4  UNL     1      23.197   0.868   2.032  1.00  0.00    -0.048 NA
BRANCH  12  13
HETATM   13  O4  UNL     1      21.990   0.341   1.719  1.00  0.00    -0.186 OA
BRANCH  13  14
HETATM   14  C10 UNL     1      21.879  -0.576   0.670  1.00  0.00     0.380 C 
HETATM   15  O5  UNL     1      21.204  -1.613   0.902  1.00  0.00    -0.237 OA
HETATM   16  N5  UNL     1      22.474  -0.384  -0.586  1.00  0.00    -0.311 N 
ATOM     17  H5  UNL     1      23.020   0.458  -0.772  1.00  0.00     0.167 HD
BRANCH  16  18
HETATM   18  C11 UNL     1      22.307  -1.385  -1.614  1.00  0.00     0.238 C 
HETATM   19  N6  UNL     1      23.031  -2.593  -1.200  1.00  0.00    -0.340 N 
HETATM   20  C12 UNL     1      23.592  -3.167  -2.378  1.00  0.00     0.187 C 
ATOM     21  H6  UNL     1      23.116  -2.953  -0.249  1.00  0.00     0.164 HD
HETATM   22  N7  UNL     1      24.059  -4.522  -2.400  1.00  0.00    -0.064 NA
HETATM   23  N8  UNL     1      23.585  -2.298  -3.304  1.00  0.00    -0.334 N 
HETATM   24  C13 UNL     1      23.029  -1.033  -2.899  1.00  0.00     0.326 C 
ATOM     25  H8  UNL     1      23.938  -2.478  -4.243  1.00  0.00     0.164 HD
BRANCH  24  26
HETATM   26  N9  UNL     1      22.061  -0.502  -3.829  1.00  0.00    -0.054 N 
ATOM     27  H93 UNL     1      21.173  -1.005  -3.802  1.00  0.00     0.276 HD
ATOM     28  H92 UNL     1      21.709   0.415  -3.551  1.00  0.00     0.276 HD
ATOM     29  H91 UNL     1      22.481  -0.497  -4.758  1.00  0.00     0.276 HD
ENDBRANCH  24  26
ENDBRANCH  16  18
ENDBRANCH  13  14
ENDBRANCH  12  13
ENDBRANCH   9  12
ENDBRANCH   4   9
BRANCH   2  30
HETATM   30  C7  UNL     1      27.022   4.353   3.057  1.00  0.00     0.224 C 
BRANCH  30  31
HETATM   31  O1  UNL     1      26.656   5.554   2.504  1.00  0.00    -0.395 OA
ATOM     32  H1  UNL     1      27.270   5.930   1.884  1.00  0.00     0.209 HD
ENDBRANCH  30  31
ENDBRANCH   2  30
BRANCH   1  33
HETATM   33  C4  UNL     1      27.646   4.366   5.858  1.00  0.00     0.093 A 
HETATM   34  C3  UNL     1      27.988   5.698   6.027  1.00  0.00     0.077 A 
HETATM   35  C2  UNL     1      29.270   5.734   6.519  1.00  0.00     0.141 A 
HETATM   36  O7  UNL     1      29.668   4.491   6.635  1.00  0.00    -0.234 OA
HETATM   37  N10 UNL     1      28.732   3.680   6.253  1.00  0.00    -0.258 N 
ATOM     38  H10 UNL     1      28.809   2.663   6.251  1.00  0.00     0.195 HD
BRANCH  35  39
HETATM   39  C1  UNL     1      30.085   6.897   6.865  1.00  0.00     0.146 C 
HETATM   40  N1  UNL     1      30.409   7.727   5.945  1.00  0.00    -0.385 N 
ATOM     41  H12 UNL     1      30.978   8.537   6.186  1.00  0.00     0.157 HD
ATOM     42  H11 UNL     1      30.097   7.568   4.987  1.00  0.00     0.157 HD
HETATM   43  N2  UNL     1      30.520   7.117   8.198  1.00  0.00    -0.080 NA
ENDBRANCH  35  39
ENDBRANCH   1  33
TORSDOF 11
ENDMDL
MODEL 2
REMARK VINA RESULT: -7.202161644      1.026      1.072
REMARK  11 active torsions:
REMARK  status: ('A' for Active; 'I' for Inactive)
REMARK    1  A    between atoms: C1_4  and  C2_6 
REMARK    2  A    between atoms: C4_8  and  C5_9 
REMARK    3  A    between atoms: C6_10  and  C7_11 
REMARK    4  A    between atoms: C7_11  and  O1_12 
REMARK       I    between atoms: N3_14  and  C8_15 
REMARK    5  A    between atoms: C8_15  and  C9_17 
REMARK    6  A    between atoms: C9_17  and  O3_18 
REMARK    7  A    between atoms: C9_17  and  N4_20 
REMARK    8  A    between atoms: N4_20  and  O4_21 
REMARK    9  A    between atoms: O4_21  and  C10_22 
REMARK       I    between atoms: C10_22  and  N5_24 
REMARK   10  A    between atoms: N5_24  and  C11_26 
REMARK   11  A    between atoms: C13_33  and  N9_34 
ROOT
HETATM    1  C5  UNL     1      26.503   3.812   5.289  1.00  0.00     0.122 C 
HETATM    2  C6  UNL     1      26.166   3.814   4.021  1.00  0.00     0.074 C 
HETATM    3  N3  UNL     1      24.912   3.289   3.583  1.00  0.00    -0.311 N 
HETATM    4  C8  UNL     1      24.588   2.926   2.289  1.00  0.00     0.271 C 
HETATM    5  O2  UNL     1      25.403   3.052   1.341  1.00  0.00    -0.268 OA
HETATM    6  C14 UNL     1      23.922   3.170   4.667  1.00  0.00     0.159 C 
HETATM    7  C15 UNL     1      24.610   2.414   5.810  1.00  0.00     0.196 C 
HETATM    8  O6  UNL     1      25.650   3.258   6.238  1.00  0.00    -0.345 OA
ENDROOT
BRANCH   4   9
HETATM    9  C9  UNL     1      23.268   2.358   1.886  1.00  0.00     0.332 C 
BRANCH   9  10
HETATM   10  O3  UNL     1      22.986   2.732   0.577  1.00  0.00    -0.369 OA
ATOM     11  H3  UNL     1      22.459   2.059   0.163  1.00  0.00     0.212 HD
ENDBRANCH   9  10
BRANCH   9  12
HETATM   12  N4  UNL     1      23.246   0.911   1.999  1.00  0.00    -0.048 NA
BRANCH  12  13
HETATM   13  O4  UNL     1      22.033   0.385   1.705  1.00  0.00    -0.186 OA
BRANCH  13  14
HETATM   14  C10 UNL     1      21.905  -0.537   0.662  1.00  0.00     0.380 C 
HETATM   15  O5  UNL     1      21.242  -1.577   0.913  1.00  0.00    -0.237 OA
HETATM   16  N5  UNL     1      22.472  -0.345  -0.607  1.00  0.00    -0.311 N 
ATOM     17  H5  UNL     1      23.009   0.499  -0.808  1.00  0.00     0.167 HD
BRANCH  16  18
HETATM   18  C11 UNL     1      22.289  -1.352  -1.628  1.00  0.00     0.238 C 
HETATM   19  N6  UNL     1      22.968  -2.577  -1.190  1.00  0.00    -0.340 N 
HETATM   20  C12 UNL     1      23.529  -3.181  -2.354  1.00  0.00     0.187 C 
ATOM     21  H6  UNL     1      23.028  -2.930  -0.235  1.00  0.00     0.164 HD
HETATM   22  N7  UNL     1      23.953  -4.550  -2.354  1.00  0.00    -0.064 NA
HETATM   23  N8  UNL     1      23.564  -2.322  -3.288  1.00  0.00    -0.334 N 
HETATM   24  C13 UNL     1      23.042  -1.036  -2.904  1.00  0.00     0.326 C 
ATOM     25  H8  UNL     1      23.926  -2.523  -4.220  1.00  0.00     0.164 HD
BRANCH  24  26
HETATM   26  N9  UNL     1      22.106  -0.485  -3.855  1.00  0.00    -0.054 N 
ATOM     27  H93 UNL     1      22.024   0.530  -3.784  1.00  0.00     0.276 HD
ATOM     28  H92 UNL     1      22.448  -0.530  -4.815  1.00  0.00     0.276 HD
ATOM     29  H91 UNL     1      21.212  -0.961  -3.733  1.00  0.00     0.276 HD
ENDBRANCH  24  26
ENDBRANCH  16  18
ENDBRANCH  13  14
ENDBRANCH  12  13
ENDBRANCH   9  12
ENDBRANCH   4   9
BRANCH   2  30
HETATM   30  C7  UNL     1      27.072   4.391   3.034  1.00  0.00     0.224 C 
BRANCH  30  31
HETATM   31  O1  UNL     1      26.701   5.608   2.519  1.00  0.00    -0.395 OA
ATOM     32  H1  UNL     1      27.188   6.359   2.837  1.00  0.00     0.209 HD
ENDBRANCH  30  31
ENDBRANCH   2  30
BRANCH   1  33
HETATM   33  C4  UNL     1      27.739   4.357   5.825  1.00  0.00     0.093 A 
HETATM   34  C3  UNL     1      29.040   4.039   5.472  1.00  0.00     0.077 A 
HETATM   35  C2  UNL     1      29.876   4.762   6.288  1.00  0.00     0.141 A 
HETATM   36  O7  UNL     1      29.112   5.471   7.082  1.00  0.00    -0.234 OA
HETATM   37  N10 UNL     1      27.862   5.246   6.825  1.00  0.00    -0.258 N 
ATOM     38  H10 UNL     1      27.081   5.682   7.314  1.00  0.00     0.195 HD
BRANCH  35  39
HETATM   39  C1  UNL     1      31.338   4.781   6.315  1.00  0.00     0.146 C 
HETATM   40  N1  UNL     1      31.981   4.882   5.213  1.00  0.00    -0.385 N 
ATOM     41  H12 UNL     1      33.000   4.895   5.232  1.00  0.00     0.157 HD
ATOM     42  H11 UNL     1      31.470   4.947   4.332  1.00  0.00     0.157 HD
HETATM   43  N2  UNL     1      32.049   4.692   7.540  1.00  0.00    -0.080 NA
ENDBRANCH  35  39
ENDBRANCH   1  33
TORSDOF 11
ENDMDL
MODEL 3
REMARK VINA RESULT: -7.037066254      2.759      4.110
REMARK  11 active torsions:
REMARK  status: ('A' for Active; 'I' for Inactive)
REMARK    1  A    between atoms: C1_4  and  C2_6 
REMARK    2  A    between atoms: C4_8  and  C5_9 
REMARK    3  A    between atoms: C6_10  and  C7_11 
REMARK    4  A    between atoms: C7_11  and  O1_12 
REMARK       I    between atoms: N3_14  and  C8_15 
REMARK    5  A    between atoms: C8_15  and  C9_17 
REMARK    6  A    between atoms: C9_17  and  O3_18 
REMARK    7  A    between atoms: C9_17  and  N4_20 
REMARK    8  A    between atoms: N4_20  and  O4_21 
REMARK    9  A    between atoms: O4_21  and  C10_22 
REMARK       I    between atoms: C10_22  and  N5_24 
REMARK   10  A    between atoms: N5_24  and  C11_26 
REMARK   11  A    between atoms: C13_33  and  N9_34 
ROOT
HETATM    1  C5  UNL     1      28.840   6.088   4.598  1.00  0.00     0.122 C 
HETATM    2  C6  UNL     1      28.770   4.801   4.352  1.00  0.00     0.074 C 
HETATM    3  N3  UNL     1      27.592   4.212   3.798  1.00  0.00    -0.311 N 
HETATM    4  C8  UNL     1      27.269   2.868   3.812  1.00  0.00     0.271 C 
HETATM    5  O2  UNL     1      28.033   2.008   4.319  1.00  0.00    -0.268 OA
HETATM    6  C14 UNL     1      26.699   5.193   3.158  1.00  0.00     0.159 C 
HETATM    7  C15 UNL     1      26.478   6.318   4.176  1.00  0.00     0.196 C 
HETATM    8  O6  UNL     1      27.742   6.907   4.355  1.00  0.00    -0.345 OA
ENDROOT
BRANCH   4   9
HETATM    9  C9  UNL     1      26.012   2.304   3.239  1.00  0.00     0.332 C 
BRANCH   9  10
HETATM   10  O3  UNL     1      26.210   0.966   2.920  1.00  0.00    -0.369 OA
ATOM     11  H3  UNL     1      25.453   0.461   3.193  1.00  0.00     0.212 HD
ENDBRANCH   9  10
BRANCH   9  12
HETATM   12  N4  UNL     1      24.896   2.430   4.160  1.00  0.00    -0.048 NA
BRANCH  12  13
HETATM   13  O4  UNL     1      23.866   3.135   3.634  1.00  0.00    -0.186 OA
BRANCH  13  14
HETATM   14  C10 UNL     1      23.029   2.545   2.684  1.00  0.00     0.380 C 
HETATM   15  O5  UNL     1      22.990   3.096   1.552  1.00  0.00    -0.237 OA
HETATM   16  N5  UNL     1      22.257   1.402   2.942  1.00  0.00    -0.311 N 
ATOM     17  H5  UNL     1      22.290   0.957   3.860  1.00  0.00     0.167 HD
BRANCH  16  18
HETATM   18  C11 UNL     1      21.417   0.859   1.899  1.00  0.00     0.238 C 
HETATM   19  N6  UNL     1      20.353   0.071   2.532  1.00  0.00    -0.340 N 
HETATM   20  C12 UNL     1      20.111  -1.054   1.689  1.00  0.00     0.187 C 
ATOM     21  H6  UNL     1      19.876   0.287   3.407  1.00  0.00     0.164 HD
HETATM   22  N7  UNL     1      18.915  -1.835   1.811  1.00  0.00    -0.064 NA
HETATM   23  N8  UNL     1      21.090  -1.191   0.893  1.00  0.00    -0.334 N 
HETATM   24  C13 UNL     1      22.119  -0.200   1.074  1.00  0.00     0.326 C 
ATOM     25  H8  UNL     1      21.142  -1.931   0.193  1.00  0.00     0.164 HD
BRANCH  24  26
HETATM   26  N9  UNL     1      22.559   0.408  -0.159  1.00  0.00    -0.054 N 
ATOM     27  H93 UNL     1      22.323  -0.152  -0.980  1.00  0.00     0.276 HD
ATOM     28  H92 UNL     1      22.021   1.241  -0.401  1.00  0.00     0.276 HD
ATOM     29  H91 UNL     1      23.559   0.594  -0.084  1.00  0.00     0.276 HD
ENDBRANCH  24  26
ENDBRANCH  16  18
ENDBRANCH  13  14
ENDBRANCH  12  13
ENDBRANCH   9  12
ENDBRANCH   4   9
BRANCH   2  30
HETATM   30  C7  UNL     1      29.925   3.950   4.617  1.00  0.00     0.224 C 
BRANCH  30  31
HETATM   31  O1  UNL     1      30.692   3.624   3.526  1.00  0.00    -0.395 OA
ATOM     32  H1  UNL     1      31.161   4.343   3.119  1.00  0.00     0.209 HD
ENDBRANCH  30  31
ENDBRANCH   2  30
BRANCH   1  33
HETATM   33  C4  UNL     1      30.008   6.773   5.124  1.00  0.00     0.093 A 
HETATM   34  C3  UNL     1      30.245   7.190   6.424  1.00  0.00     0.077 A 
HETATM   35  C2  UNL     1      31.452   7.845   6.433  1.00  0.00     0.141 A 
HETATM   36  O7  UNL     1      31.907   7.820   5.204  1.00  0.00    -0.234 OA
HETATM   37  N10 UNL     1      31.076   7.199   4.428  1.00  0.00    -0.258 N 
ATOM     38  H10 UNL     1      31.213   7.053   3.428  1.00  0.00     0.195 HD
BRANCH  35  39
HETATM   39  C1  UNL     1      32.146   8.471   7.557  1.00  0.00     0.146 C 
HETATM   40  N1  UNL     1      31.843   8.119   8.751  1.00  0.00    -0.385 N 
ATOM     41  H12 UNL     1      32.327   8.556   9.535  1.00  0.00     0.157 HD
ATOM     42  H11 UNL     1      31.124   7.412   8.903  1.00  0.00     0.157 HD
HETATM   43  N2  UNL     1      33.147   9.455   7.345  1.00  0.00    -0.080 NA
ENDBRANCH  35  39
ENDBRANCH   1  33
TORSDOF 11
ENDMDL
MODEL 4
REMARK VINA RESULT: -7.033010677      2.070      9.895
REMARK  11 active torsions:
REMARK  status: ('A' for Active; 'I' for Inactive)
REMARK    1  A    between atoms: C1_4  and  C2_6 
REMARK    2  A    between atoms: C4_8  and  C5_9 
REMARK    3  A    between atoms: C6_10  and  C7_11 
REMARK    4  A    between atoms: C7_11  and  O1_12 
REMARK       I    between atoms: N3_14  and  C8_15 
REMARK    5  A    between atoms: C8_15  and  C9_17 
REMARK    6  A    between atoms: C9_17  and  O3_18 
REMARK    7  A    between atoms: C9_17  and  N4_20 
REMARK    8  A    between atoms: N4_20  and  O4_21 
REMARK    9  A    between atoms: O4_21  and  C10_22 
REMARK       I    between atoms: C10_22  and  N5_24 
REMARK   10  A    between atoms: N5_24  and  C11_26 
REMARK   11  A    between atoms: C13_33  and  N9_34 
ROOT
HETATM    1  C5  UNL     1      22.409   0.904   1.511  1.00  0.00     0.122 C 
HETATM    2  C6  UNL     1      23.350   0.958   2.424  1.00  0.00     0.074 C 
HETATM    3  N3  UNL     1      23.379   1.998   3.404  1.00  0.00    -0.311 N 
HETATM    4  C8  UNL     1      24.465   2.358   4.178  1.00  0.00     0.271 C 
HETATM    5  O2  UNL     1      25.566   1.757   4.095  1.00  0.00    -0.268 OA
HETATM    6  C14 UNL     1      22.087   2.690   3.553  1.00  0.00     0.159 C 
HETATM    7  C15 UNL     1      21.643   3.101   2.144  1.00  0.00     0.196 C 
HETATM    8  O6  UNL     1      21.431   1.892   1.457  1.00  0.00    -0.345 OA
ENDROOT
BRANCH   4   9
HETATM    9  C9  UNL     1      24.451   3.469   5.174  1.00  0.00     0.332 C 
BRANCH   9  10
HETATM   10  O3  UNL     1      25.046   3.040   6.354  1.00  0.00    -0.369 OA
ATOM     11  H3  UNL     1      25.890   3.464   6.455  1.00  0.00     0.212 HD
ENDBRANCH   9  10
BRANCH   9  12
HETATM   12  N4  UNL     1      25.140   4.647   4.676  1.00  0.00    -0.048 NA
BRANCH  12  13
HETATM   13  O4  UNL     1      26.277   4.913   5.361  1.00  0.00    -0.186 OA
BRANCH  13  14
HETATM   14  C10 UNL     1      27.513   4.872   4.709  1.00  0.00     0.380 C 
HETATM   15  O5  UNL     1      27.484   4.659   3.469  1.00  0.00    -0.237 OA
HETATM   16  N5  UNL     1      28.737   5.055   5.370  1.00  0.00    -0.311 N 
ATOM     17  H5  UNL     1      28.757   5.228   6.375  1.00  0.00     0.167 HD
BRANCH  16  18
HETATM   18  C11 UNL     1      29.968   4.997   4.616  1.00  0.00     0.238 C 
HETATM   19  N6  UNL     1      30.312   3.585   4.407  1.00  0.00    -0.340 N 
HETATM   20  C12 UNL     1      31.732   3.486   4.489  1.00  0.00     0.187 C 
ATOM     21  H6  UNL     1      29.659   2.821   4.236  1.00  0.00     0.164 HD
HETATM   22  N7  UNL     1      32.431   2.338   3.991  1.00  0.00    -0.064 NA
HETATM   23  N8  UNL     1      32.188   4.534   5.042  1.00  0.00    -0.334 N 
HETATM   24  C13 UNL     1      31.165   5.479   5.410  1.00  0.00     0.326 C 
ATOM     25  H8  UNL     1      33.181   4.691   5.210  1.00  0.00     0.164 HD
BRANCH  24  26
HETATM   26  N9  UNL     1      31.458   6.834   5.006  1.00  0.00    -0.054 N 
ATOM     27  H93 UNL     1      31.222   7.013   4.030  1.00  0.00     0.276 HD
ATOM     28  H92 UNL     1      30.827   7.516   5.429  1.00  0.00     0.276 HD
ATOM     29  H91 UNL     1      32.438   7.023   5.215  1.00  0.00     0.276 HD
ENDBRANCH  24  26
ENDBRANCH  16  18
ENDBRANCH  13  14
ENDBRANCH  12  13
ENDBRANCH   9  12
ENDBRANCH   4   9
BRANCH   2  30
HETATM   30  C7  UNL     1      24.375  -0.079   2.468  1.00  0.00     0.224 C 
BRANCH  30  31
HETATM   31  O1  UNL     1      24.238  -1.016   3.461  1.00  0.00    -0.395 OA
ATOM     32  H1  UNL     1      24.639  -0.798   4.294  1.00  0.00     0.209 HD
ENDBRANCH  30  31
ENDBRANCH   2  30
BRANCH   1  33
HETATM   33  C4  UNL     1      22.284  -0.135   0.504  1.00  0.00     0.093 A 
HETATM   34  C3  UNL     1      22.754  -0.127  -0.800  1.00  0.00     0.077 A 
HETATM   35  C2  UNL     1      22.345  -1.298  -1.392  1.00  0.00     0.141 A 
HETATM   36  O7  UNL     1      21.669  -1.964  -0.488  1.00  0.00    -0.234 OA
HETATM   37  N10 UNL     1      21.623  -1.299   0.623  1.00  0.00    -0.258 N 
ATOM     38  H10 UNL     1      21.151  -1.615   1.470  1.00  0.00     0.195 HD
BRANCH  35  39
HETATM   39  C1  UNL     1      22.584  -1.766  -2.755  1.00  0.00     0.146 C 
HETATM   40  N1  UNL     1      22.284  -1.003  -3.738  1.00  0.00    -0.385 N 
ATOM     41  H12 UNL     1      22.450  -1.330  -4.689  1.00  0.00     0.157 HD
ATOM     42  H11 UNL     1      21.883  -0.082  -3.561  1.00  0.00     0.157 HD
HETATM   43  N2  UNL     1      23.143  -3.047  -3.003  1.00  0.00    -0.080 NA
ENDBRANCH  35  39
ENDBRANCH   1  33
TORSDOF 11
ENDMDL
MODEL 5
REMARK VINA RESULT: -6.948486314      3.143     11.229
REMARK  11 active torsions:
REMARK  status: ('A' for Active; 'I' for Inactive)
REMARK    1  A    between atoms: C1_4  and  C2_6 
REMARK    2  A    between atoms: C4_8  and  C5_9 
REMARK    3  A    between atoms: C6_10  and  C7_11 
REMARK    4  A    between atoms: C7_11  and  O1_12 
REMARK       I    between atoms: N3_14  and  C8_15 
REMARK    5  A    between atoms: C8_15  and  C9_17 
REMARK    6  A    between atoms: C9_17  and  O3_18 
REMARK    7  A    between atoms: C9_17  and  N4_20 
REMARK    8  A    between atoms: N4_20  and  O4_21 
REMARK    9  A    between atoms: O4_21  and  C10_22 
REMARK       I    between atoms: C10_22  and  N5_24 
REMARK   10  A    between atoms: N5_24  and  C11_26 
REMARK   11  A    between atoms: C13_33  and  N9_34 
ROOT
HETATM    1  C5  UNL     1      25.056   1.431   3.473  1.00  0.00     0.122 C 
HETATM    2  C6  UNL     1      25.623   2.564   3.132  1.00  0.00     0.074 C 
HETATM    3  N3  UNL     1      26.854   2.988   3.722  1.00  0.00    -0.311 N 
HETATM    4  C8  UNL     1      27.362   4.273   3.709  1.00  0.00     0.271 C 
HETATM    5  O2  UNL     1      26.766   5.217   3.132  1.00  0.00    -0.268 OA
HETATM    6  C14 UNL     1      27.595   1.892   4.368  1.00  0.00     0.159 C 
HETATM    7  C15 UNL     1      26.607   1.182   5.302  1.00  0.00     0.196 C 
HETATM    8  O6  UNL     1      25.631   0.629   4.454  1.00  0.00    -0.345 OA
ENDROOT
BRANCH   4   9
HETATM    9  C9  UNL     1      28.644   4.671   4.361  1.00  0.00     0.332 C 
BRANCH   9  10
HETATM   10  O3  UNL     1      29.712   4.174   3.623  1.00  0.00    -0.369 OA
ATOM     11  H3  UNL     1      30.457   4.041   4.197  1.00  0.00     0.212 HD
ENDBRANCH   9  10
BRANCH   9  12
HETATM   12  N4  UNL     1      28.761   6.113   4.485  1.00  0.00    -0.048 NA
BRANCH  12  13
HETATM   13  O4  UNL     1      30.046   6.537   4.437  1.00  0.00    -0.186 OA
BRANCH  13  14
HETATM   14  C10 UNL     1      30.587   7.255   5.507  1.00  0.00     0.380 C 
HETATM   15  O5  UNL     1      31.754   7.700   5.350  1.00  0.00    -0.237 OA
HETATM   16  N5  UNL     1      29.895   7.486   6.706  1.00  0.00    -0.311 N 
ATOM     17  H5  UNL     1      28.949   7.124   6.830  1.00  0.00     0.167 HD
BRANCH  16  18
HETATM   18  C11 UNL     1      30.531   8.239   7.761  1.00  0.00     0.238 C 
HETATM   19  N6  UNL     1      29.774   8.022   9.000  1.00  0.00    -0.340 N 
HETATM   20  C12 UNL     1      29.786   9.255   9.717  1.00  0.00     0.187 C 
ATOM     21  H6  UNL     1      29.326   7.154   9.293  1.00  0.00     0.164 HD
HETATM   22  N7  UNL     1      29.452   9.313  11.109  1.00  0.00    -0.064 NA
HETATM   23  N8  UNL     1      30.122  10.189   8.925  1.00  0.00    -0.334 N 
HETATM   24  C13 UNL     1      30.384   9.737   7.583  1.00  0.00     0.326 C 
ATOM     25  H8  UNL     1      30.199  11.165   9.212  1.00  0.00     0.164 HD
BRANCH  24  26
HETATM   26  N9  UNL     1      31.616  10.248   7.031  1.00  0.00    -0.054 N 
ATOM     27  H93 UNL     1      31.716  11.256   7.159  1.00  0.00     0.276 HD
ATOM     28  H92 UNL     1      32.436   9.959   7.565  1.00  0.00     0.276 HD
ATOM     29  H91 UNL     1      31.666   9.969   6.051  1.00  0.00     0.276 HD
ENDBRANCH  24  26
ENDBRANCH  16  18
ENDBRANCH  13  14
ENDBRANCH  12  13
ENDBRANCH   9  12
ENDBRANCH   4   9
BRANCH   2  30
HETATM   30  C7  UNL     1      25.008   3.400   2.107  1.00  0.00     0.224 C 
BRANCH  30  31
HETATM   31  O1  UNL     1      25.724   3.549   0.946  1.00  0.00    -0.395 OA
ATOM     32  H1  UNL     1      25.214   3.577   0.145  1.00  0.00     0.209 HD
ENDBRANCH  30  31
ENDBRANCH   2  30
BRANCH   1  33
HETATM   33  C4  UNL     1      23.829   0.907   2.899  1.00  0.00     0.093 A 
HETATM   34  C3  UNL     1      22.640   0.606   3.544  1.00  0.00     0.077 A 
HETATM   35  C2  UNL     1      21.784   0.081   2.607  1.00  0.00     0.141 A 
HETATM   36  O7  UNL     1      22.430   0.070   1.467  1.00  0.00    -0.234 OA
HETATM   37  N10 UNL     1      23.625   0.547   1.620  1.00  0.00    -0.258 N 
ATOM     38  H10 UNL     1      24.314   0.638   0.874  1.00  0.00     0.195 HD
BRANCH  35  39
HETATM   39  C1  UNL     1      20.412  -0.391   2.783  1.00  0.00     0.146 C 
HETATM   40  N1  UNL     1      19.857  -0.280   3.931  1.00  0.00    -0.385 N 
ATOM     41  H12 UNL     1      18.900  -0.610   4.054  1.00  0.00     0.157 HD
ATOM     42  H11 UNL     1      20.375   0.134   4.706  1.00  0.00     0.157 HD
HETATM   43  N2  UNL     1      19.691  -0.967   1.704  1.00  0.00    -0.080 NA
ENDBRANCH  35  39
ENDBRANCH   1  33
TORSDOF 11
ENDMDL
