MODEL 1
REMARK VINA RESULT: -6.608631122      0.000      0.000
REMARK  10 active torsions:
REMARK  status: ('A' for Active; 'I' for Inactive)
REMARK    1  A    between atoms: N2_4  and  N3_6 
REMARK    2  A    between atoms: N3_6  and  C3_8 
REMARK    3  A    between atoms: C6_16  and  N6_17 
REMARK    4  A    between atoms: N6_17  and  N7_19 
REMARK    5  A    between atoms: N7_19  and  C7_21 
REMARK    6  A    between atoms: C9_25  and  C10_26 
REMARK    7  A    between atoms: C10_26  and  O1_27 
REMARK    8  A    between atoms: C11_30  and  C12_31 
REMARK    9  A    between atoms: C12_31  and  N10_34 
REMARK   10  A    between atoms: C15_38  and  O3_39 
ROOT
HETATM    1  C12 UNL     1      26.127   4.150   3.980  1.00  0.00     0.235 C 
HETATM    2  C13 UNL     1      26.779   5.477   3.941  1.00  0.00     0.088 C 
HETATM    3  N9  UNL     1      27.295   6.499   3.927  1.00  0.00    -0.195 NA
ENDROOT
BRANCH   1   4
HETATM    4  C11 UNL     1      26.829   3.286   5.040  1.00  0.00     0.227 C 
HETATM    5  C7  UNL     1      25.997   3.153   6.242  1.00  0.00     0.124 C 
HETATM    6  N8  UNL     1      26.441   3.528   7.371  1.00  0.00    -0.374 N 
HETATM    7  C8  UNL     1      27.750   4.098   7.588  1.00  0.00     0.155 C 
ATOM      8  H8  UNL     1      25.831   3.418   8.181  1.00  0.00     0.161 HD
HETATM    9  C9  UNL     1      28.640   3.638   6.454  1.00  0.00     0.164 C 
HETATM   10  O2  UNL     1      28.071   3.810   5.223  1.00  0.00    -0.366 OA
BRANCH   5  11
HETATM   11  N7  UNL     1      24.674   2.594   6.121  1.00  0.00    -0.285 N 
ATOM     12  H7  UNL     1      23.883   3.233   6.031  1.00  0.00     0.188 HD
BRANCH  11  13
HETATM   13  N6  UNL     1      24.420   1.226   6.121  1.00  0.00    -0.284 N 
ATOM     14  H6  UNL     1      24.897   0.652   6.816  1.00  0.00     0.188 HD
BRANCH  13  15
HETATM   15  C6  UNL     1      23.547   0.583   5.221  1.00  0.00     0.142 C 
HETATM   16  N5  UNL     1      22.726  -0.264   5.777  1.00  0.00    -0.288 N 
HETATM   17  N4  UNL     1      21.744  -1.033   5.035  1.00  0.00    -0.296 N 
ATOM     18  H5  UNL     1      22.776  -0.392   6.788  1.00  0.00     0.188 HD
HETATM   19  C5  UNL     1      20.905  -0.652   3.951  1.00  0.00     0.367 C 
ATOM     20  H4  UNL     1      21.640  -2.001   5.338  1.00  0.00     0.183 HD
HETATM   21  S1  UNL     1      21.165  -1.424   2.302  1.00  0.00    -0.076 SA
HETATM   22  N12 UNL     1      21.481   0.638   3.525  1.00  0.00    -0.032 N 
HETATM   23  C4  UNL     1      22.479  -0.199   1.778  1.00  0.00     0.032 C 
HETATM   24  C3  UNL     1      22.787   0.042   0.537  1.00  0.00     0.123 C 
HETATM   25  C16 UNL     1      22.806   0.162   3.079  1.00  0.00     0.266 C 
HETATM   26  C15 UNL     1      23.737   0.997   3.778  1.00  0.00     0.224 C 
ATOM     27 2H12 UNL     1      20.940   1.171   2.844  1.00  0.00     0.281 HD
ATOM     28 1H12 UNL     1      21.480   1.384   4.221  1.00  0.00     0.281 HD
BRANCH  24  29
HETATM   29  N3  UNL     1      22.122  -0.632  -0.524  1.00  0.00    -0.310 N 
ATOM     30  H3  UNL     1      21.244  -0.283  -0.908  1.00  0.00     0.186 HD
BRANCH  29  31
HETATM   31  N2  UNL     1      22.722  -1.789  -1.016  1.00  0.00    -0.292 N 
HETATM   32  C2  UNL     1      23.043  -1.911  -2.261  1.00  0.00     0.103 C 
HETATM   33  C1  UNL     1      22.765  -0.795  -3.186  1.00  0.00     0.086 C 
HETATM   34  N1  UNL     1      23.653  -3.091  -2.754  1.00  0.00    -0.087 NA
ATOM     35  H2  UNL     1      22.912  -2.560  -0.376  1.00  0.00     0.188 HD
ENDBRANCH  29  31
ENDBRANCH  24  29
BRANCH  26  36
HETATM   36  O3  UNL     1      25.060   0.766   3.381  1.00  0.00    -0.385 OA
ATOM     37  H3  UNL     1      25.087   0.522   2.464  1.00  0.00     0.210 HD
ENDBRANCH  26  36
ENDBRANCH  13  15
ENDBRANCH  11  13
ENDBRANCH   5  11
BRANCH   9  38
HETATM   38  C10 UNL     1      29.123   2.202   6.673  1.00  0.00     0.197 C 
BRANCH  38  39
HETATM   39  O1  UNL     1      28.848   1.837   7.989  1.00  0.00    -0.398 OA
ATOM     40  H1  UNL     1      29.169   2.519   8.566  1.00  0.00     0.209 HD
ENDBRANCH  38  39
ENDBRANCH   9  38
ENDBRANCH   1   4
BRANCH   1  41
HETATM   41  N10 UNL     1      26.314   3.574   2.663  1.00  0.00    -0.308 N 
HETATM   42  C14 UNL     1      25.298   3.715   1.712  1.00  0.00     0.178 C 
HETATM   43  N11 UNL     1      24.436   3.817   0.919  1.00  0.00    -0.172 NA
ATOM     44  H10 UNL     1      27.173   3.074   2.434  1.00  0.00     0.173 HD
ENDBRANCH   1  41
TORSDOF 10
ENDMDL
MODEL 2
REMARK VINA RESULT: -6.568122183      3.615      9.008
REMARK  10 active torsions:
REMARK  status: ('A' for Active; 'I' for Inactive)
REMARK    1  A    between atoms: N2_4  and  N3_6 
REMARK    2  A    between atoms: N3_6  and  C3_8 
REMARK    3  A    between atoms: C6_16  and  N6_17 
REMARK    4  A    between atoms: N6_17  and  N7_19 
REMARK    5  A    between atoms: N7_19  and  C7_21 
REMARK    6  A    between atoms: C9_25  and  C10_26 
REMARK    7  A    between atoms: C10_26  and  O1_27 
REMARK    8  A    between atoms: C11_30  and  C12_31 
REMARK    9  A    between atoms: C12_31  and  N10_34 
REMARK   10  A    between atoms: C15_38  and  O3_39 
ROOT
HETATM    1  C12 UNL     1      24.156   0.049   2.588  1.00  0.00     0.235 C 
HETATM    2  C13 UNL     1      23.575  -0.968   1.683  1.00  0.00     0.088 C 
HETATM    3  N9  UNL     1      23.115  -1.741   0.975  1.00  0.00    -0.195 NA
ENDROOT
BRANCH   1   4
HETATM    4  C11 UNL     1      23.707   1.441   2.118  1.00  0.00     0.227 C 
HETATM    5  C7  UNL     1      22.920   2.116   3.158  1.00  0.00     0.124 C 
HETATM    6  N8  UNL     1      21.736   2.502   2.914  1.00  0.00    -0.374 N 
HETATM    7  C8  UNL     1      21.063   2.329   1.647  1.00  0.00     0.155 C 
ATOM      8  H8  UNL     1      21.224   2.967   3.664  1.00  0.00     0.161 HD
HETATM    9  C9  UNL     1      22.128   2.185   0.583  1.00  0.00     0.164 C 
HETATM   10  O2  UNL     1      23.097   1.278   0.913  1.00  0.00    -0.366 OA
BRANCH   5  11
HETATM   11  N7  UNL     1      23.512   2.332   4.455  1.00  0.00    -0.285 N 
ATOM     12  H7  UNL     1      23.492   1.567   5.130  1.00  0.00     0.188 HD
BRANCH  11  13
HETATM   13  N6  UNL     1      24.107   3.531   4.833  1.00  0.00    -0.284 N 
ATOM     14  H6  UNL     1      23.505   4.347   4.948  1.00  0.00     0.188 HD
BRANCH  13  15
HETATM   15  C6  UNL     1      25.486   3.691   5.068  1.00  0.00     0.142 C 
HETATM   16  N5  UNL     1      26.052   2.683   5.671  1.00  0.00    -0.288 N 
HETATM   17  N4  UNL     1      27.463   2.640   6.008  1.00  0.00    -0.296 N 
ATOM     18  H5  UNL     1      25.472   1.882   5.919  1.00  0.00     0.188 HD
HETATM   19  C5  UNL     1      28.599   3.068   5.267  1.00  0.00     0.367 C 
ATOM     20  H4  UNL     1      27.674   2.240   6.923  1.00  0.00     0.183 HD
HETATM   21  S1  UNL     1      29.600   4.478   5.894  1.00  0.00    -0.076 SA
HETATM   22  N12 UNL     1      28.003   3.872   4.183  1.00  0.00    -0.032 N 
HETATM   23  C4  UNL     1      28.525   5.783   5.092  1.00  0.00     0.032 C 
HETATM   24  C3  UNL     1      28.933   6.989   4.824  1.00  0.00     0.123 C 
HETATM   25  C16 UNL     1      27.413   4.954   4.997  1.00  0.00     0.266 C 
HETATM   26  C15 UNL     1      26.045   5.009   4.577  1.00  0.00     0.224 C 
ATOM     27 2H12 UNL     1      28.634   4.161   3.436  1.00  0.00     0.281 HD
ATOM     28 1H12 UNL     1      27.366   3.380   3.555  1.00  0.00     0.281 HD
BRANCH  24  29
HETATM   29  N3  UNL     1      30.259   7.396   5.134  1.00  0.00    -0.310 N 
ATOM     30  H3  UNL     1      31.046   7.147   4.536  1.00  0.00     0.186 HD
BRANCH  29  31
HETATM   31  N2  UNL     1      30.436   8.152   6.291  1.00  0.00    -0.292 N 
HETATM   32  C2  UNL     1      31.533   8.106   6.972  1.00  0.00     0.103 C 
HETATM   33  C1  UNL     1      32.627   7.229   6.510  1.00  0.00     0.086 C 
HETATM   34  N1  UNL     1      31.706   8.876   8.147  1.00  0.00    -0.087 NA
ATOM     35  H2  UNL     1      29.679   8.757   6.610  1.00  0.00     0.188 HD
ENDBRANCH  29  31
ENDBRANCH  24  29
BRANCH  26  36
HETATM   36  O3  UNL     1      25.351   6.074   5.165  1.00  0.00    -0.385 OA
ATOM     37  H3  UNL     1      25.291   6.799   4.555  1.00  0.00     0.210 HD
ENDBRANCH  26  36
ENDBRANCH  13  15
ENDBRANCH  11  13
ENDBRANCH   5  11
BRANCH   9  38
HETATM   38  C10 UNL     1      22.716   3.544   0.195  1.00  0.00     0.197 C 
BRANCH  38  39
HETATM   39  O1  UNL     1      22.187   3.922  -1.037  1.00  0.00    -0.398 OA
ATOM     40  H1  UNL     1      22.901   4.172  -1.610  1.00  0.00     0.209 HD
ENDBRANCH  38  39
ENDBRANCH   9  38
ENDBRANCH   1   4
BRANCH   1  41
HETATM   41  N10 UNL     1      25.594  -0.080   2.462  1.00  0.00    -0.308 N 
HETATM   42  C14 UNL     1      26.375  -0.107   3.623  1.00  0.00     0.178 C 
HETATM   43  N11 UNL     1      27.033  -0.111   4.597  1.00  0.00    -0.172 NA
ATOM     44  H10 UNL     1      26.030  -0.151   1.542  1.00  0.00     0.173 HD
ENDBRANCH   1  41
TORSDOF 10
ENDMDL
MODEL 3
REMARK VINA RESULT: -6.542617129      1.936      3.233
REMARK  10 active torsions:
REMARK  status: ('A' for Active; 'I' for Inactive)
REMARK    1  A    between atoms: N2_4  and  N3_6 
REMARK    2  A    between atoms: N3_6  and  C3_8 
REMARK    3  A    between atoms: C6_16  and  N6_17 
REMARK    4  A    between atoms: N6_17  and  N7_19 
REMARK    5  A    between atoms: N7_19  and  C7_21 
REMARK    6  A    between atoms: C9_25  and  C10_26 
REMARK    7  A    between atoms: C10_26  and  O1_27 
REMARK    8  A    between atoms: C11_30  and  C12_31 
REMARK    9  A    between atoms: C12_31  and  N10_34 
REMARK   10  A    between atoms: C15_38  and  O3_39 
ROOT
HETATM    1  C12 UNL     1      26.134   1.033   5.090  1.00  0.00     0.235 C 
HETATM    2  C13 UNL     1      24.997   0.854   6.021  1.00  0.00     0.088 C 
HETATM    3  N9  UNL     1      24.120   0.735   6.746  1.00  0.00    -0.195 NA
ENDROOT
BRANCH   1   4
HETATM    4  C11 UNL     1      26.485   2.527   5.021  1.00  0.00     0.227 C 
HETATM    5  C7  UNL     1      25.434   3.281   4.326  1.00  0.00     0.124 C 
HETATM    6  N8  UNL     1      25.712   3.959   3.290  1.00  0.00    -0.374 N 
HETATM    7  C8  UNL     1      27.031   4.061   2.708  1.00  0.00     0.155 C 
ATOM      8  H8  UNL     1      24.953   4.467   2.838  1.00  0.00     0.161 HD
HETATM    9  C9  UNL     1      28.034   3.756   3.799  1.00  0.00     0.164 C 
HETATM   10  O2  UNL     1      27.737   2.619   4.497  1.00  0.00    -0.366 OA
BRANCH   5  11
HETATM   11  N7  UNL     1      24.086   3.237   4.836  1.00  0.00    -0.285 N 
ATOM     12  H7  UNL     1      23.949   3.266   5.847  1.00  0.00     0.188 HD
BRANCH  11  13
HETATM   13  N6  UNL     1      22.963   3.156   4.020  1.00  0.00    -0.284 N 
ATOM     14  H6  UNL     1      22.466   4.021   3.804  1.00  0.00     0.188 HD
BRANCH  13  15
HETATM   15  C6  UNL     1      22.468   1.957   3.470  1.00  0.00     0.142 C 
HETATM   16  N5  UNL     1      21.954   1.135   4.342  1.00  0.00    -0.288 N 
HETATM   17  N4  UNL     1      21.387  -0.154   3.991  1.00  0.00    -0.296 N 
ATOM     18  H5  UNL     1      21.949   1.414   5.323  1.00  0.00     0.188 HD
HETATM   19  C5  UNL     1      20.576  -0.532   2.885  1.00  0.00     0.367 C 
ATOM     20  H4  UNL     1      21.607  -0.910   4.639  1.00  0.00     0.183 HD
HETATM   21  S1  UNL     1      21.251  -1.700   1.635  1.00  0.00    -0.076 SA
HETATM   22  N12 UNL     1      20.692   0.627   1.979  1.00  0.00    -0.032 N 
HETATM   23  C4  UNL     1      22.086  -0.363   0.628  1.00  0.00     0.032 C 
HETATM   24  C3  UNL     1      22.406  -0.498  -0.627  1.00  0.00     0.123 C 
HETATM   25  C16 UNL     1      22.136   0.542   1.681  1.00  0.00     0.266 C 
HETATM   26  C15 UNL     1      22.636   1.853   1.969  1.00  0.00     0.224 C 
ATOM     27 2H12 UNL     1      20.065   0.635   1.175  1.00  0.00     0.281 HD
ATOM     28 1H12 UNL     1      20.357   1.519   2.343  1.00  0.00     0.281 HD
BRANCH  24  29
HETATM   29  N3  UNL     1      22.130  -1.706  -1.324  1.00  0.00    -0.310 N 
ATOM     30  H3  UNL     1      21.345  -2.302  -1.065  1.00  0.00     0.186 HD
BRANCH  29  31
HETATM   31  N2  UNL     1      22.980  -2.039  -2.377  1.00  0.00    -0.292 N 
HETATM   32  C2  UNL     1      23.566  -3.188  -2.440  1.00  0.00     0.103 C 
HETATM   33  C1  UNL     1      23.330  -4.173  -1.366  1.00  0.00     0.086 C 
HETATM   34  N1  UNL     1      24.428  -3.519  -3.513  1.00  0.00    -0.087 NA
ATOM     35  H2  UNL     1      23.143  -1.357  -3.117  1.00  0.00     0.188 HD
ENDBRANCH  29  31
ENDBRANCH  24  29
BRANCH  26  36
HETATM   36  O3  UNL     1      23.985   1.995   1.626  1.00  0.00    -0.385 OA
ATOM     37  H3  UNL     1      24.473   2.348   2.360  1.00  0.00     0.210 HD
ENDBRANCH  26  36
ENDBRANCH  13  15
ENDBRANCH  11  13
ENDBRANCH   5  11
BRANCH   9  38
HETATM   38  C10 UNL     1      28.241   4.963   4.718  1.00  0.00     0.197 C 
BRANCH  38  39
HETATM   39  O1  UNL     1      27.803   6.107   4.055  1.00  0.00    -0.398 OA
ATOM     40  H1  UNL     1      26.865   6.188   4.178  1.00  0.00     0.209 HD
ENDBRANCH  38  39
ENDBRANCH   9  38
ENDBRANCH   1   4
BRANCH   1  41
HETATM   41  N10 UNL     1      25.668   0.570   3.798  1.00  0.00    -0.308 N 
HETATM   42  C14 UNL     1      24.970  -0.640   3.724  1.00  0.00     0.178 C 
HETATM   43  N11 UNL     1      24.400  -1.666   3.659  1.00  0.00    -0.172 NA
ATOM     44  H10 UNL     1      25.845   1.119   2.956  1.00  0.00     0.173 HD
ENDBRANCH   1  41
TORSDOF 10
ENDMDL
MODEL 4
REMARK VINA RESULT: -6.460565507      2.971      8.483
REMARK  10 active torsions:
REMARK  status: ('A' for Active; 'I' for Inactive)
REMARK    1  A    between atoms: N2_4  and  N3_6 
REMARK    2  A    between atoms: N3_6  and  C3_8 
REMARK    3  A    between atoms: C6_16  and  N6_17 
REMARK    4  A    between atoms: N6_17  and  N7_19 
REMARK    5  A    between atoms: N7_19  and  C7_21 
REMARK    6  A    between atoms: C9_25  and  C10_26 
REMARK    7  A    between atoms: C10_26  and  O1_27 
REMARK    8  A    between atoms: C11_30  and  C12_31 
REMARK    9  A    between atoms: C12_31  and  N10_34 
REMARK   10  A    between atoms: C15_38  and  O3_39 
ROOT
HETATM    1  C12 UNL     1      22.859  -1.391  -0.533  1.00  0.00     0.235 C 
HETATM    2  C13 UNL     1      23.357  -2.742  -0.192  1.00  0.00     0.088 C 
HETATM    3  N9  UNL     1      23.734  -3.786   0.090  1.00  0.00    -0.195 NA
ENDROOT
BRANCH   1   4
HETATM    4  C11 UNL     1      21.898  -0.926   0.573  1.00  0.00     0.227 C 
HETATM    5  C7  UNL     1      22.589  -0.062   1.538  1.00  0.00     0.124 C 
HETATM    6  N8  UNL     1      22.620  -0.375   2.768  1.00  0.00    -0.374 N 
HETATM    7  C8  UNL     1      22.008  -1.559   3.327  1.00  0.00     0.155 C 
ATOM      8  H8  UNL     1      23.111   0.252   3.405  1.00  0.00     0.161 HD
HETATM    9  C9  UNL     1      20.904  -1.988   2.386  1.00  0.00     0.164 C 
HETATM   10  O2  UNL     1      21.304  -2.040   1.080  1.00  0.00    -0.366 OA
BRANCH   5  11
HETATM   11  N7  UNL     1      23.230   1.141   1.070  1.00  0.00    -0.285 N 
ATOM     12  H7  UNL     1      23.735   1.108   0.184  1.00  0.00     0.188 HD
BRANCH  11  13
HETATM   13  N6  UNL     1      23.195   2.345   1.764  1.00  0.00    -0.284 N 
ATOM     14  H6  UNL     1      22.506   3.042   1.478  1.00  0.00     0.188 HD
BRANCH  13  15
HETATM   15  C6  UNL     1      24.049   2.665   2.838  1.00  0.00     0.142 C 
HETATM   16  N5  UNL     1      23.433   2.953   3.951  1.00  0.00    -0.288 N 
HETATM   17  N4  UNL     1      24.121   3.311   5.178  1.00  0.00    -0.296 N 
ATOM     18  H5  UNL     1      22.414   2.926   3.959  1.00  0.00     0.188 HD
HETATM   19  C5  UNL     1      25.304   2.774   5.759  1.00  0.00     0.367 C 
ATOM     20  H4  UNL     1      23.688   4.067   5.708  1.00  0.00     0.183 HD
HETATM   21  S1  UNL     1      26.801   3.835   5.885  1.00  0.00    -0.076 SA
HETATM   22  N12 UNL     1      25.872   1.966   4.664  1.00  0.00    -0.032 N 
HETATM   23  C4  UNL     1      27.406   3.431   4.161  1.00  0.00     0.032 C 
HETATM   24  C3  UNL     1      28.645   3.556   3.783  1.00  0.00     0.123 C 
HETATM   25  C16 UNL     1      26.152   3.049   3.700  1.00  0.00     0.266 C 
HETATM   26  C15 UNL     1      25.521   2.619   2.488  1.00  0.00     0.224 C 
ATOM     27 2H12 UNL     1      26.659   1.365   4.908  1.00  0.00     0.281 HD
ATOM     28 1H12 UNL     1      25.295   1.197   4.324  1.00  0.00     0.281 HD
BRANCH  24  29
HETATM   29  N3  UNL     1      29.640   4.022   4.687  1.00  0.00    -0.310 N 
ATOM     30  H3  UNL     1      29.832   3.537   5.562  1.00  0.00     0.186 HD
BRANCH  29  31
HETATM   31  N2  UNL     1      30.339   5.171   4.323  1.00  0.00    -0.292 N 
HETATM   32  C2  UNL     1      30.414   6.197   5.103  1.00  0.00     0.103 C 
HETATM   33  C1  UNL     1      29.738   6.151   6.415  1.00  0.00     0.086 C 
HETATM   34  N1  UNL     1      31.127   7.361   4.727  1.00  0.00    -0.087 NA
ATOM     35  H2  UNL     1      30.805   5.202   3.416  1.00  0.00     0.188 HD
ENDBRANCH  29  31
ENDBRANCH  24  29
BRANCH  26  36
HETATM   36  O3  UNL     1      25.787   3.478   1.416  1.00  0.00    -0.385 OA
ATOM     37  H3  UNL     1      26.474   4.090   1.652  1.00  0.00     0.210 HD
ENDBRANCH  26  36
ENDBRANCH  13  15
ENDBRANCH  11  13
ENDBRANCH   5  11
BRANCH   9  38
HETATM   38  C10 UNL     1      19.649  -1.132   2.573  1.00  0.00     0.197 C 
BRANCH  38  39
HETATM   39  O1  UNL     1      19.784  -0.396   3.748  1.00  0.00    -0.398 OA
ATOM     40  H1  UNL     1      19.706   0.527   3.539  1.00  0.00     0.209 HD
ENDBRANCH  38  39
ENDBRANCH   9  38
ENDBRANCH   1   4
BRANCH   1  41
HETATM   41  N10 UNL     1      22.146  -1.533  -1.787  1.00  0.00    -0.308 N 
HETATM   42  C14 UNL     1      22.452  -0.666  -2.841  1.00  0.00     0.178 C 
HETATM   43  N11 UNL     1      22.696   0.074  -3.721  1.00  0.00    -0.172 NA
ATOM     44  H10 UNL     1      21.432  -2.254  -1.898  1.00  0.00     0.173 HD
ENDBRANCH   1  41
TORSDOF 10
ENDMDL
MODEL 5
REMARK VINA RESULT: -6.430627473      3.309      8.278
REMARK  10 active torsions:
REMARK  status: ('A' for Active; 'I' for Inactive)
REMARK    1  A    between atoms: N2_4  and  N3_6 
REMARK    2  A    between atoms: N3_6  and  C3_8 
REMARK    3  A    between atoms: C6_16  and  N6_17 
REMARK    4  A    between atoms: N6_17  and  N7_19 
REMARK    5  A    between atoms: N7_19  and  C7_21 
REMARK    6  A    between atoms: C9_25  and  C10_26 
REMARK    7  A    between atoms: C10_26  and  O1_27 
REMARK    8  A    between atoms: C11_30  and  C12_31 
REMARK    9  A    between atoms: C12_31  and  N10_34 
REMARK   10  A    between atoms: C15_38  and  O3_39 
ROOT
HETATM    1  C12 UNL     1      24.028  -0.965   2.297  1.00  0.00     0.235 C 
HETATM    2  C13 UNL     1      24.056  -0.764   3.763  1.00  0.00     0.088 C 
HETATM    3  N9  UNL     1      24.059  -0.603   4.896  1.00  0.00    -0.195 NA
ENDROOT
BRANCH   1   4
HETATM    4  C11 UNL     1      22.572  -0.871   1.814  1.00  0.00     0.227 C 
HETATM    5  C7  UNL     1      22.093   0.517   1.863  1.00  0.00     0.124 C 
HETATM    6  N8  UNL     1      21.071   0.816   2.553  1.00  0.00    -0.374 N 
HETATM    7  C8  UNL     1      20.301  -0.129   3.330  1.00  0.00     0.155 C 
ATOM      8  H8  UNL     1      20.772   1.791   2.560  1.00  0.00     0.161 HD
HETATM    9  C9  UNL     1      20.532  -1.501   2.735  1.00  0.00     0.164 C 
HETATM   10  O2  UNL     1      21.855  -1.780   2.529  1.00  0.00    -0.366 OA
BRANCH   5  11
HETATM   11  N7  UNL     1      22.800   1.529   1.118  1.00  0.00    -0.285 N 
ATOM     12  H7  UNL     1      23.069   1.323   0.156  1.00  0.00     0.188 HD
BRANCH  11  13
HETATM   13  N6  UNL     1      23.134   2.771   1.646  1.00  0.00    -0.284 N 
ATOM     14  H6  UNL     1      22.710   3.598   1.225  1.00  0.00     0.188 HD
BRANCH  13  15
HETATM   15  C6  UNL     1      24.020   2.961   2.725  1.00  0.00     0.142 C 
HETATM   16  N5  UNL     1      23.437   3.130   3.879  1.00  0.00    -0.288 N 
HETATM   17  N4  UNL     1      24.162   3.342   5.119  1.00  0.00    -0.296 N 
ATOM     18  H5  UNL     1      22.418   3.112   3.912  1.00  0.00     0.188 HD
HETATM   19  C5  UNL     1      25.351   2.732   5.605  1.00  0.00     0.367 C 
ATOM     20  H4  UNL     1      23.753   4.039   5.741  1.00  0.00     0.183 HD
HETATM   21  S1  UNL     1      26.866   3.757   5.806  1.00  0.00    -0.076 SA
HETATM   22  N12 UNL     1      25.881   2.044   4.411  1.00  0.00    -0.032 N 
HETATM   23  C4  UNL     1      27.421   3.540   4.032  1.00  0.00     0.032 C 
HETATM   24  C3  UNL     1      28.651   3.694   3.636  1.00  0.00     0.123 C 
HETATM   25  C16 UNL     1      26.150   3.225   3.566  1.00  0.00     0.266 C 
HETATM   26  C15 UNL     1      25.481   2.938   2.332  1.00  0.00     0.224 C 
ATOM     27 2H12 UNL     1      26.666   1.412   4.565  1.00  0.00     0.281 HD
ATOM     28 1H12 UNL     1      25.284   1.324   4.004  1.00  0.00     0.281 HD
BRANCH  24  29
HETATM   29  N3  UNL     1      29.674   4.046   4.558  1.00  0.00    -0.310 N 
ATOM     30  H3  UNL     1      29.862   3.482   5.387  1.00  0.00     0.186 HD
BRANCH  29  31
HETATM   31  N2  UNL     1      30.411   5.195   4.279  1.00  0.00    -0.292 N 
HETATM   32  C2  UNL     1      30.491   6.172   5.121  1.00  0.00     0.103 C 
HETATM   33  C1  UNL     1      29.781   6.067   6.411  1.00  0.00     0.086 C 
HETATM   34  N1  UNL     1      31.241   7.338   4.831  1.00  0.00    -0.087 NA
ATOM     35  H2  UNL     1      30.900   5.267   3.387  1.00  0.00     0.188 HD
ENDBRANCH  29  31
ENDBRANCH  24  29
BRANCH  26  36
HETATM   36  O3  UNL     1      25.731   3.908   1.354  1.00  0.00    -0.385 OA
ATOM     37  H3  UNL     1      25.666   4.777   1.733  1.00  0.00     0.210 HD
ENDBRANCH  26  36
ENDBRANCH  13  15
ENDBRANCH  11  13
ENDBRANCH   5  11
BRANCH   9  38
HETATM   38  C10 UNL     1      19.693  -1.709   1.472  1.00  0.00     0.197 C 
BRANCH  38  39
HETATM   39  O1  UNL     1      18.346  -1.679   1.823  1.00  0.00    -0.398 OA
ATOM     40  H1  UNL     1      17.855  -1.285   1.112  1.00  0.00     0.209 HD
ENDBRANCH  38  39
ENDBRANCH   9  38
ENDBRANCH   1   4
BRANCH   1  41
HETATM   41  N10 UNL     1      24.543  -2.301   2.068  1.00  0.00    -0.308 N 
HETATM   42  C14 UNL     1      25.891  -2.561   2.337  1.00  0.00     0.178 C 
HETATM   43  N11 UNL     1      27.028  -2.775   2.546  1.00  0.00    -0.172 NA
ATOM     44  H10 UNL     1      23.933  -3.038   1.715  1.00  0.00     0.173 HD
ENDBRANCH   1  41
TORSDOF 10
ENDMDL
