MODEL 1
REMARK VINA RESULT: -7.603333415      0.000      0.000
REMARK  10 active torsions:
REMARK  status: ('A' for Active; 'I' for Inactive)
REMARK    1  A    between atoms: N1_1  and  C1_4 
REMARK    2  A    between atoms: C2_7  and  C3_8 
REMARK    3  A    between atoms: C3_8  and  O1_9 
REMARK    4  A    between atoms: C3_8  and  C4_11 
REMARK       I    between atoms: C4_11  and  N3_13 
REMARK    5  A    between atoms: N3_13  and  C5_15 
REMARK    6  A    between atoms: C6_18  and  C7_19 
REMARK    7  A    between atoms: C8_22  and  C9_23 
REMARK    8  A    between atoms: C11_25  and  C12_26 
REMARK    9  A    between atoms: C13_37  and  O6_38 
REMARK   10  A    between atoms: C14_40  and  N10_41 
ROOT
HETATM    1  C5  UNL     1      24.250   3.245   4.151  1.00  0.00     0.218 C 
HETATM    2  N4  UNL     1      24.896   3.393   5.425  1.00  0.00    -0.361 N 
ATOM      3  H4  UNL     1      24.357   3.214   6.272  1.00  0.00     0.162 HD
HETATM    4  C6  UNL     1      26.276   3.785   5.551  1.00  0.00     0.119 C 
HETATM    5  C8  UNL     1      26.838   4.503   4.614  1.00  0.00     0.042 C 
HETATM    6  C13 UNL     1      25.938   4.837   3.449  1.00  0.00     0.190 C 
HETATM    7  C14 UNL     1      25.217   3.533   3.054  1.00  0.00     0.258 C 
ENDROOT
BRANCH   1   8
HETATM    8  N3  UNL     1      23.668   1.927   4.119  1.00  0.00    -0.335 N 
HETATM    9  C4  UNL     1      22.428   1.664   3.481  1.00  0.00     0.255 C 
HETATM   10  O2  UNL     1      21.836   2.621   2.927  1.00  0.00    -0.270 OA
ATOM     11  H3  UNL     1      24.163   1.158   4.571  1.00  0.00     0.164 HD
BRANCH   9  12
HETATM   12  C3  UNL     1      21.823   0.300   3.453  1.00  0.00     0.279 C 
BRANCH  12  13
HETATM   13  C2  UNL     1      21.877  -0.248   2.080  1.00  0.00     0.143 A 
HETATM   14  N2  UNL     1      21.251  -1.302   1.577  1.00  0.00    -0.306 N 
HETATM   15  C1  UNL     1      21.607  -1.415   0.285  1.00  0.00     0.242 A 
ATOM     16  H2  UNL     1      20.613  -1.918   2.080  1.00  0.00     0.171 HD
HETATM   17  O7  UNL     1      22.448  -0.435  -0.005  1.00  0.00    -0.200 OA
HETATM   18  N11 UNL     1      22.613   0.275   1.084  1.00  0.00    -0.242 N 
ATOM     19  H11 UNL     1      23.208   1.099   1.163  1.00  0.00     0.196 HD
BRANCH  15  20
HETATM   20  N1  UNL     1      21.250  -2.280  -0.585  1.00  0.00    -0.364 N 
ATOM     21  H12 UNL     1      20.502  -2.097  -1.253  1.00  0.00     0.159 HD
ATOM     22  H11 UNL     1      21.612  -3.219  -0.754  1.00  0.00     0.159 HD
ENDBRANCH  15  20
ENDBRANCH  12  13
BRANCH  12  23
HETATM   23  O1  UNL     1      20.489   0.335   3.852  1.00  0.00    -0.378 OA
ATOM     24  H1  UNL     1      20.458   0.187   4.789  1.00  0.00     0.211 HD
ENDBRANCH  12  23
ENDBRANCH   9  12
ENDBRANCH   1   8
BRANCH   7  25
HETATM   25  N10 UNL     1      26.246   2.522   2.951  1.00  0.00    -0.069 N 
ATOM     26 3H10 UNL     1      26.358   2.018   3.830  1.00  0.00     0.275 HD
ATOM     27 2H10 UNL     1      25.945   1.748   2.358  1.00  0.00     0.275 HD
ATOM     28 1H10 UNL     1      27.135   2.906   2.630  1.00  0.00     0.275 HD
ENDBRANCH   7  25
BRANCH   4  29
HETATM   29  C7  UNL     1      26.968   3.297   6.757  1.00  0.00     0.227 C 
HETATM   30  O3  UNL     1      27.589   2.193   6.737  1.00  0.00    -0.643 OA
HETATM   31  O4  UNL     1      27.004   3.960   7.954  1.00  0.00    -0.643 OA
ENDBRANCH   4  29
BRANCH   6  32
HETATM   32  O6  UNL     1      26.609   5.285   2.352  1.00  0.00    -0.388 OA
ATOM     33  H6  UNL     1      26.039   5.607   1.663  1.00  0.00     0.210 HD
ENDBRANCH   6  32
BRANCH   5  34
HETATM   34  C9  UNL     1      28.212   4.971   4.622  1.00  0.00     0.112 A 
HETATM   35  C10 UNL     1      28.704   6.053   5.365  1.00  0.00     0.075 A 
HETATM   36  C11 UNL     1      30.050   6.178   5.117  1.00  0.00     0.104 A 
HETATM   37  N9  UNL     1      30.337   5.198   4.253  1.00  0.00    -0.257 N 
HETATM   38  O5  UNL     1      29.262   4.526   3.991  1.00  0.00    -0.237 OA
ATOM     39  H9  UNL     1      31.260   5.011   3.862  1.00  0.00     0.195 HD
BRANCH  36  40
HETATM   40  C12 UNL     1      30.964   7.172   5.683  1.00  0.00     0.163 A 
HETATM   41  N5  UNL     1      32.308   7.174   5.708  1.00  0.00    -0.265 N 
HETATM   42  N6  UNL     1      32.747   8.281   6.326  1.00  0.00    -0.005 NA
ATOM     43  H5  UNL     1      32.903   6.445   5.315  1.00  0.00     0.186 HD
HETATM   44  N7  UNL     1      31.682   8.972   6.690  1.00  0.00    -0.225 N 
HETATM   45  N8  UNL     1      30.610   8.306   6.304  1.00  0.00    -0.270 N 
ATOM     46  H7  UNL     1      31.687   9.865   7.183  1.00  0.00     0.205 HD
ATOM     47  H8  UNL     1      29.648   8.610   6.457  1.00  0.00     0.190 HD
ENDBRANCH  36  40
ENDBRANCH   5  34
TORSDOF 10
ENDMDL
MODEL 2
REMARK VINA RESULT: -7.471847902      1.182      1.474
REMARK  10 active torsions:
REMARK  status: ('A' for Active; 'I' for Inactive)
REMARK    1  A    between atoms: N1_1  and  C1_4 
REMARK    2  A    between atoms: C2_7  and  C3_8 
REMARK    3  A    between atoms: C3_8  and  O1_9 
REMARK    4  A    between atoms: C3_8  and  C4_11 
REMARK       I    between atoms: C4_11  and  N3_13 
REMARK    5  A    between atoms: N3_13  and  C5_15 
REMARK    6  A    between atoms: C6_18  and  C7_19 
REMARK    7  A    between atoms: C8_22  and  C9_23 
REMARK    8  A    between atoms: C11_25  and  C12_26 
REMARK    9  A    between atoms: C13_37  and  O6_38 
REMARK   10  A    between atoms: C14_40  and  N10_41 
ROOT
HETATM    1  C5  UNL     1      23.683   2.534   3.675  1.00  0.00     0.218 C 
HETATM    2  N4  UNL     1      24.271   2.895   4.935  1.00  0.00    -0.361 N 
ATOM      3  H4  UNL     1      23.677   2.928   5.763  1.00  0.00     0.162 HD
HETATM    4  C6  UNL     1      25.670   3.212   5.072  1.00  0.00     0.119 C 
HETATM    5  C8  UNL     1      26.335   3.685   4.051  1.00  0.00     0.042 C 
HETATM    6  C13 UNL     1      25.525   3.835   2.786  1.00  0.00     0.190 C 
HETATM    7  C14 UNL     1      24.726   2.528   2.611  1.00  0.00     0.258 C 
ENDROOT
BRANCH   1   8
HETATM    8  N3  UNL     1      23.001   1.280   3.867  1.00  0.00    -0.335 N 
HETATM    9  C4  UNL     1      21.836   0.934   3.136  1.00  0.00     0.255 C 
HETATM   10  O2  UNL     1      21.402   1.757   2.295  1.00  0.00    -0.270 OA
ATOM     11  H3  UNL     1      23.368   0.619   4.552  1.00  0.00     0.164 HD
BRANCH   9  12
HETATM   12  C3  UNL     1      21.127  -0.364   3.339  1.00  0.00     0.279 C 
BRANCH  12  13
HETATM   13  C2  UNL     1      20.845  -0.995   2.032  1.00  0.00     0.143 A 
HETATM   14  N2  UNL     1      21.678  -1.259   1.035  1.00  0.00    -0.306 N 
HETATM   15  C1  UNL     1      20.970  -1.838   0.049  1.00  0.00     0.242 A 
ATOM     16  H2  UNL     1      22.677  -1.058   1.019  1.00  0.00     0.171 HD
HETATM   17  O7  UNL     1      19.709  -1.930   0.436  1.00  0.00    -0.200 OA
HETATM   18  N11 UNL     1      19.631  -1.420   1.641  1.00  0.00    -0.242 N 
ATOM     19  H11 UNL     1      18.778  -1.354   2.198  1.00  0.00     0.196 HD
BRANCH  15  20
HETATM   20  N1  UNL     1      21.360  -2.257  -1.094  1.00  0.00    -0.364 N 
ATOM     21  H12 UNL     1      21.689  -1.620  -1.819  1.00  0.00     0.159 HD
ATOM     22  H11 UNL     1      21.408  -3.210  -1.455  1.00  0.00     0.159 HD
ENDBRANCH  15  20
ENDBRANCH  12  13
BRANCH  12  23
HETATM   23  O1  UNL     1      19.914  -0.175   3.997  1.00  0.00    -0.378 OA
ATOM     24  H1  UNL     1      19.572  -1.028   4.236  1.00  0.00     0.211 HD
ENDBRANCH  12  23
ENDBRANCH   9  12
ENDBRANCH   1   8
BRANCH   7  25
HETATM   25  N10 UNL     1      25.676   1.451   2.779  1.00  0.00    -0.069 N 
ATOM     26 3H10 UNL     1      26.250   1.593   3.610  1.00  0.00     0.275 HD
ATOM     27 2H10 UNL     1      25.208   0.586   3.051  1.00  0.00     0.275 HD
ATOM     28 1H10 UNL     1      26.254   1.311   1.950  1.00  0.00     0.275 HD
ENDBRANCH   7  25
BRANCH   4  29
HETATM   29  C7  UNL     1      26.257   2.933   6.395  1.00  0.00     0.227 C 
HETATM   30  O3  UNL     1      26.294   3.837   7.283  1.00  0.00    -0.643 OA
HETATM   31  O4  UNL     1      26.789   1.730   6.771  1.00  0.00    -0.643 OA
ENDBRANCH   4  29
BRANCH   6  32
HETATM   32  O6  UNL     1      26.286   4.004   1.669  1.00  0.00    -0.388 OA
ATOM     33  H6  UNL     1      27.119   3.549   1.703  1.00  0.00     0.210 HD
ENDBRANCH   6  32
BRANCH   5  34
HETATM   34  C9  UNL     1      27.739   4.051   4.058  1.00  0.00     0.112 A 
HETATM   35  C10 UNL     1      28.291   5.163   4.709  1.00  0.00     0.075 A 
HETATM   36  C11 UNL     1      29.649   5.167   4.493  1.00  0.00     0.104 A 
HETATM   37  N9  UNL     1      29.884   4.089   3.737  1.00  0.00    -0.257 N 
HETATM   38  O5  UNL     1      28.768   3.473   3.507  1.00  0.00    -0.237 OA
ATOM     39  H9  UNL     1      30.799   3.798   3.395  1.00  0.00     0.195 HD
BRANCH  36  40
HETATM   40  C12 UNL     1      30.620   6.144   4.989  1.00  0.00     0.163 A 
HETATM   41  N5  UNL     1      31.890   5.954   5.383  1.00  0.00    -0.265 N 
HETATM   42  N6  UNL     1      32.425   7.124   5.765  1.00  0.00    -0.005 NA
ATOM     43  H5  UNL     1      32.375   5.057   5.390  1.00  0.00     0.186 HD
HETATM   44  N7  UNL     1      31.492   8.046   5.613  1.00  0.00    -0.225 N 
HETATM   45  N8  UNL     1      30.406   7.458   5.147  1.00  0.00    -0.270 N 
ATOM     46  H7  UNL     1      31.593   9.040   5.819  1.00  0.00     0.205 HD
ATOM     47  H8  UNL     1      29.530   7.935   4.937  1.00  0.00     0.190 HD
ENDBRANCH  36  40
ENDBRANCH   5  34
TORSDOF 10
ENDMDL
MODEL 3
REMARK VINA RESULT: -7.404144798      2.083     10.071
REMARK  10 active torsions:
REMARK  status: ('A' for Active; 'I' for Inactive)
REMARK    1  A    between atoms: N1_1  and  C1_4 
REMARK    2  A    between atoms: C2_7  and  C3_8 
REMARK    3  A    between atoms: C3_8  and  O1_9 
REMARK    4  A    between atoms: C3_8  and  C4_11 
REMARK       I    between atoms: C4_11  and  N3_13 
REMARK    5  A    between atoms: N3_13  and  C5_15 
REMARK    6  A    between atoms: C6_18  and  C7_19 
REMARK    7  A    between atoms: C8_22  and  C9_23 
REMARK    8  A    between atoms: C11_25  and  C12_26 
REMARK    9  A    between atoms: C13_37  and  O6_38 
REMARK   10  A    between atoms: C14_40  and  N10_41 
ROOT
HETATM    1  C5  UNL     1      25.122   2.725   4.529  1.00  0.00     0.218 C 
HETATM    2  N4  UNL     1      24.152   3.286   3.631  1.00  0.00    -0.361 N 
ATOM      3  H4  UNL     1      23.959   4.287   3.679  1.00  0.00     0.162 HD
HETATM    4  C6  UNL     1      23.443   2.489   2.664  1.00  0.00     0.119 C 
HETATM    5  C8  UNL     1      23.247   1.216   2.886  1.00  0.00     0.042 C 
HETATM    6  C13 UNL     1      23.830   0.704   4.181  1.00  0.00     0.190 C 
HETATM    7  C14 UNL     1      25.264   1.264   4.277  1.00  0.00     0.258 C 
ENDROOT
BRANCH   1   8
HETATM    8  N3  UNL     1      26.334   3.490   4.380  1.00  0.00    -0.335 N 
HETATM    9  C4  UNL     1      26.405   4.867   4.712  1.00  0.00     0.255 C 
HETATM   10  O2  UNL     1      25.370   5.420   5.154  1.00  0.00    -0.270 OA
ATOM     11  H3  UNL     1      27.169   3.025   4.022  1.00  0.00     0.164 HD
BRANCH   9  12
HETATM   12  C3  UNL     1      27.660   5.659   4.552  1.00  0.00     0.279 C 
BRANCH  12  13
HETATM   13  C2  UNL     1      28.357   5.769   5.852  1.00  0.00     0.143 A 
HETATM   14  N2  UNL     1      29.437   6.470   6.163  1.00  0.00    -0.306 N 
HETATM   15  C1  UNL     1      29.703   6.262   7.464  1.00  0.00     0.242 A 
ATOM     16  H2  UNL     1      29.972   7.063   5.529  1.00  0.00     0.171 HD
HETATM   17  O7  UNL     1      28.791   5.436   7.952  1.00  0.00    -0.200 OA
HETATM   18  N11 UNL     1      27.972   5.137   6.974  1.00  0.00    -0.242 N 
ATOM     19  H11 UNL     1      27.165   4.518   7.052  1.00  0.00     0.196 HD
BRANCH  15  20
HETATM   20  N1  UNL     1      30.646   6.732   8.188  1.00  0.00    -0.364 N 
ATOM     21  H12 UNL     1      31.590   6.348   8.161  1.00  0.00     0.159 HD
ATOM     22  H11 UNL     1      30.629   7.501   8.858  1.00  0.00     0.159 HD
ENDBRANCH  15  20
ENDBRANCH  12  13
BRANCH  12  23
HETATM   23  O1  UNL     1      27.385   6.947   4.099  1.00  0.00    -0.378 OA
ATOM     24  H1  UNL     1      27.032   6.881   3.219  1.00  0.00     0.211 HD
ENDBRANCH  12  23
ENDBRANCH   9  12
ENDBRANCH   1   8
BRANCH   7  25
HETATM   25  N10 UNL     1      25.888   0.985   3.003  1.00  0.00    -0.069 N 
ATOM     26 3H10 UNL     1      25.230   1.110   2.234  1.00  0.00     0.275 HD
ATOM     27 2H10 UNL     1      26.564   1.709   2.758  1.00  0.00     0.275 HD
ATOM     28 1H10 UNL     1      26.315   0.059   2.975  1.00  0.00     0.275 HD
ENDBRANCH   7  25
BRANCH   4  29
HETATM   29  C7  UNL     1      23.010   3.201   1.448  1.00  0.00     0.227 C 
HETATM   30  O3  UNL     1      23.867   3.637   0.622  1.00  0.00    -0.643 OA
HETATM   31  O4  UNL     1      21.706   3.443   1.112  1.00  0.00    -0.643 OA
ENDBRANCH   4  29
BRANCH   6  32
HETATM   32  O6  UNL     1      23.913  -0.654   4.243  1.00  0.00    -0.388 OA
ATOM     33  H6  UNL     1      24.685  -0.967   4.700  1.00  0.00     0.210 HD
ENDBRANCH   6  32
BRANCH   5  34
HETATM   34  C9  UNL     1      22.543   0.305   2.002  1.00  0.00     0.112 A 
HETATM   35  C10 UNL     1      22.996  -0.132   0.749  1.00  0.00     0.075 A 
HETATM   36  C11 UNL     1      22.061  -0.991   0.222  1.00  0.00     0.104 A 
HETATM   37  N9  UNL     1      21.089  -1.054   1.139  1.00  0.00    -0.257 N 
HETATM   38  O5  UNL     1      21.398  -0.300   2.145  1.00  0.00    -0.237 OA
ATOM     39  H9  UNL     1      20.238  -1.609   1.057  1.00  0.00     0.195 HD
BRANCH  36  40
HETATM   40  C12 UNL     1      22.125  -1.684  -1.066  1.00  0.00     0.163 A 
HETATM   41  N5  UNL     1      21.555  -2.843  -1.437  1.00  0.00    -0.265 N 
HETATM   42  N6  UNL     1      21.871  -3.116  -2.712  1.00  0.00    -0.005 NA
ATOM     43  H5  UNL     1      20.970  -3.427  -0.840  1.00  0.00     0.186 HD
HETATM   44  N7  UNL     1      22.639  -2.130  -3.141  1.00  0.00    -0.225 N 
HETATM   45  N8  UNL     1      22.793  -1.270  -2.152  1.00  0.00    -0.270 N 
ATOM     46  H7  UNL     1      23.043  -2.049  -4.074  1.00  0.00     0.205 HD
ATOM     47  H8  UNL     1      23.342  -0.412  -2.207  1.00  0.00     0.190 HD
ENDBRANCH  36  40
ENDBRANCH   5  34
TORSDOF 10
ENDMDL
MODEL 4
REMARK VINA RESULT: -7.169353490      2.331      9.590
REMARK  10 active torsions:
REMARK  status: ('A' for Active; 'I' for Inactive)
REMARK    1  A    between atoms: N1_1  and  C1_4 
REMARK    2  A    between atoms: C2_7  and  C3_8 
REMARK    3  A    between atoms: C3_8  and  O1_9 
REMARK    4  A    between atoms: C3_8  and  C4_11 
REMARK       I    between atoms: C4_11  and  N3_13 
REMARK    5  A    between atoms: N3_13  and  C5_15 
REMARK    6  A    between atoms: C6_18  and  C7_19 
REMARK    7  A    between atoms: C8_22  and  C9_23 
REMARK    8  A    between atoms: C11_25  and  C12_26 
REMARK    9  A    between atoms: C13_37  and  O6_38 
REMARK   10  A    between atoms: C14_40  and  N10_41 
ROOT
HETATM    1  C5  UNL     1      23.704   2.764   4.790  1.00  0.00     0.218 C 
HETATM    2  N4  UNL     1      22.777   3.176   3.773  1.00  0.00    -0.361 N 
ATOM      3  H4  UNL     1      22.351   4.100   3.843  1.00  0.00     0.162 HD
HETATM    4  C6  UNL     1      22.428   2.333   2.658  1.00  0.00     0.119 C 
HETATM    5  C8  UNL     1      22.505   1.033   2.775  1.00  0.00     0.042 C 
HETATM    6  C13 UNL     1      22.988   0.548   4.120  1.00  0.00     0.190 C 
HETATM    7  C14 UNL     1      24.220   1.400   4.485  1.00  0.00     0.258 C 
ENDROOT
BRANCH   1   8
HETATM    8  N3  UNL     1      24.712   3.789   4.888  1.00  0.00    -0.335 N 
HETATM    9  C4  UNL     1      25.869   3.637   5.696  1.00  0.00     0.255 C 
HETATM   10  O2  UNL     1      26.003   2.567   6.336  1.00  0.00    -0.270 OA
ATOM     11  H3  UNL     1      24.591   4.652   4.358  1.00  0.00     0.164 HD
BRANCH   9  12
HETATM   12  C3  UNL     1      26.910   4.701   5.801  1.00  0.00     0.279 C 
BRANCH  12  13
HETATM   13  C2  UNL     1      28.125   4.292   5.064  1.00  0.00     0.143 A 
HETATM   14  N2  UNL     1      29.393   4.584   5.316  1.00  0.00    -0.306 N 
HETATM   15  C1  UNL     1      30.148   3.991   4.376  1.00  0.00     0.242 A 
ATOM     16  H2  UNL     1      29.735   5.158   6.087  1.00  0.00     0.171 HD
HETATM   17  O7  UNL     1      29.350   3.336   3.549  1.00  0.00    -0.200 OA
HETATM   18  N11 UNL     1      28.121   3.517   3.965  1.00  0.00    -0.242 N 
ATOM     19  H11 UNL     1      27.287   3.129   3.523  1.00  0.00     0.196 HD
BRANCH  15  20
HETATM   20  N1  UNL     1      31.417   4.000   4.226  1.00  0.00    -0.364 N 
ATOM     21  H12 UNL     1      31.960   4.862   4.273  1.00  0.00     0.159 HD
ATOM     22  H11 UNL     1      32.057   3.226   4.050  1.00  0.00     0.159 HD
ENDBRANCH  15  20
ENDBRANCH  12  13
BRANCH  12  23
HETATM   23  O1  UNL     1      27.265   4.926   7.129  1.00  0.00    -0.378 OA
ATOM     24  H1  UNL     1      26.808   4.291   7.667  1.00  0.00     0.211 HD
ENDBRANCH  12  23
ENDBRANCH   9  12
ENDBRANCH   1   8
BRANCH   7  25
HETATM   25  N10 UNL     1      25.078   1.385   3.321  1.00  0.00    -0.069 N 
ATOM     26 3H10 UNL     1      25.977   1.824   3.519  1.00  0.00     0.275 HD
ATOM     27 2H10 UNL     1      25.402   0.440   3.114  1.00  0.00     0.275 HD
ATOM     28 1H10 UNL     1      24.633   1.807   2.506  1.00  0.00     0.275 HD
ENDBRANCH   7  25
BRANCH   4  29
HETATM   29  C7  UNL     1      22.030   3.040   1.428  1.00  0.00     0.227 C 
HETATM   30  O3  UNL     1      20.822   3.374   1.242  1.00  0.00    -0.643 OA
HETATM   31  O4  UNL     1      22.889   3.387   0.420  1.00  0.00    -0.643 OA
ENDBRANCH   4  29
BRANCH   6  32
HETATM   32  O6  UNL     1      23.377  -0.758   4.121  1.00  0.00    -0.388 OA
ATOM     33  H6  UNL     1      23.010  -1.264   3.404  1.00  0.00     0.210 HD
ENDBRANCH   6  32
BRANCH   5  34
HETATM   34  C9  UNL     1      22.175   0.075   1.737  1.00  0.00     0.112 A 
HETATM   35  C10 UNL     1      22.930  -0.173   0.582  1.00  0.00     0.075 A 
HETATM   36  C11 UNL     1      22.302  -1.152  -0.150  1.00  0.00     0.104 A 
HETATM   37  N9  UNL     1      21.211  -1.468   0.555  1.00  0.00    -0.257 N 
HETATM   38  O5  UNL     1      21.169  -0.747   1.630  1.00  0.00    -0.237 OA
ATOM     39  H9  UNL     1      20.519  -2.168   0.288  1.00  0.00     0.195 HD
BRANCH  36  40
HETATM   40  C12 UNL     1      22.742  -1.722  -1.425  1.00  0.00     0.163 A 
HETATM   41  N5  UNL     1      23.168  -2.967  -1.698  1.00  0.00    -0.265 N 
HETATM   42  N6  UNL     1      23.474  -3.065  -3.001  1.00  0.00    -0.005 NA
ATOM     43  H5  UNL     1      23.246  -3.723  -1.018  1.00  0.00     0.186 HD
HETATM   44  N7  UNL     1      23.241  -1.884  -3.544  1.00  0.00    -0.225 N 
HETATM   45  N8  UNL     1      22.802  -1.076  -2.599  1.00  0.00    -0.270 N 
ATOM     46  H7  UNL     1      23.378  -1.640  -4.526  1.00  0.00     0.205 HD
ATOM     47  H8  UNL     1      22.545  -0.099  -2.740  1.00  0.00     0.190 HD
ENDBRANCH  36  40
ENDBRANCH   5  34
TORSDOF 10
ENDMDL
MODEL 5
REMARK VINA RESULT: -7.143727023      1.880      2.705
REMARK  10 active torsions:
REMARK  status: ('A' for Active; 'I' for Inactive)
REMARK    1  A    between atoms: N1_1  and  C1_4 
REMARK    2  A    between atoms: C2_7  and  C3_8 
REMARK    3  A    between atoms: C3_8  and  O1_9 
REMARK    4  A    between atoms: C3_8  and  C4_11 
REMARK       I    between atoms: C4_11  and  N3_13 
REMARK    5  A    between atoms: N3_13  and  C5_15 
REMARK    6  A    between atoms: C6_18  and  C7_19 
REMARK    7  A    between atoms: C8_22  and  C9_23 
REMARK    8  A    between atoms: C11_25  and  C12_26 
REMARK    9  A    between atoms: C13_37  and  O6_38 
REMARK   10  A    between atoms: C14_40  and  N10_41 
ROOT
HETATM    1  C5  UNL     1      25.374   2.416   3.038  1.00  0.00     0.218 C 
HETATM    2  N4  UNL     1      25.673   3.821   3.069  1.00  0.00    -0.361 N 
ATOM      3  H4  UNL     1      25.191   4.440   2.416  1.00  0.00     0.162 HD
HETATM    4  C6  UNL     1      26.627   4.388   3.987  1.00  0.00     0.119 C 
HETATM    5  C8  UNL     1      27.606   3.654   4.446  1.00  0.00     0.042 C 
HETATM    6  C13 UNL     1      27.612   2.228   3.949  1.00  0.00     0.190 C 
HETATM    7  C14 UNL     1      26.167   1.704   4.079  1.00  0.00     0.258 C 
ENDROOT
BRANCH   1   8
HETATM    8  N3  UNL     1      23.945   2.282   3.162  1.00  0.00    -0.335 N 
HETATM    9  C4  UNL     1      23.060   2.594   2.098  1.00  0.00     0.255 C 
HETATM   10  O2  UNL     1      23.557   2.996   1.019  1.00  0.00    -0.270 OA
ATOM     11  H3  UNL     1      23.556   1.951   4.046  1.00  0.00     0.164 HD
BRANCH   9  12
HETATM   12  C3  UNL     1      21.580   2.459   2.230  1.00  0.00     0.279 C 
BRANCH  12  13
HETATM   13  C2  UNL     1      21.174   1.063   1.960  1.00  0.00     0.143 A 
HETATM   14  N2  UNL     1      20.171   0.369   2.478  1.00  0.00    -0.306 N 
HETATM   15  C1  UNL     1      20.194  -0.859   1.933  1.00  0.00     0.242 A 
ATOM     16  H2  UNL     1      19.500   0.708   3.168  1.00  0.00     0.171 HD
HETATM   17  O7  UNL     1      21.206  -0.922   1.084  1.00  0.00    -0.200 OA
HETATM   18  N11 UNL     1      21.803   0.244   1.098  1.00  0.00    -0.242 N 
ATOM     19  H11 UNL     1      22.620   0.494   0.541  1.00  0.00     0.196 HD
BRANCH  15  20
HETATM   20  N1  UNL     1      19.418  -1.854   2.137  1.00  0.00    -0.364 N 
ATOM     21  H12 UNL     1      18.500  -1.744   2.566  1.00  0.00     0.159 HD
ATOM     22  H11 UNL     1      19.560  -2.842   1.928  1.00  0.00     0.159 HD
ENDBRANCH  15  20
ENDBRANCH  12  13
BRANCH  12  23
HETATM   23  O1  UNL     1      20.918   3.284   1.323  1.00  0.00    -0.378 OA
ATOM     24  H1  UNL     1      20.589   2.740   0.617  1.00  0.00     0.211 HD
ENDBRANCH  12  23
ENDBRANCH   9  12
ENDBRANCH   1   8
BRANCH   7  25
HETATM   25  N10 UNL     1      25.739   2.038   5.419  1.00  0.00    -0.069 N 
ATOM     26 3H10 UNL     1      24.722   2.098   5.477  1.00  0.00     0.275 HD
ATOM     27 2H10 UNL     1      25.892   1.259   6.060  1.00  0.00     0.275 HD
ATOM     28 1H10 UNL     1      26.178   2.891   5.765  1.00  0.00     0.275 HD
ENDBRANCH   7  25
BRANCH   4  29
HETATM   29  C7  UNL     1      26.386   5.791   4.367  1.00  0.00     0.227 C 
HETATM   30  O3  UNL     1      25.406   6.095   5.111  1.00  0.00    -0.643 OA
HETATM   31  O4  UNL     1      27.163   6.847   3.973  1.00  0.00    -0.643 OA
ENDBRANCH   4  29
BRANCH   6  32
HETATM   32  O6  UNL     1      28.415   1.401   4.675  1.00  0.00    -0.388 OA
ATOM     33  H6  UNL     1      29.252   1.224   4.260  1.00  0.00     0.210 HD
ENDBRANCH   6  32
BRANCH   5  34
HETATM   34  C9  UNL     1      28.635   4.102   5.365  1.00  0.00     0.112 A 
HETATM   35  C10 UNL     1      29.789   4.818   5.016  1.00  0.00     0.075 A 
HETATM   36  C11 UNL     1      30.511   5.068   6.158  1.00  0.00     0.104 A 
HETATM   37  N9  UNL     1      29.801   4.514   7.147  1.00  0.00    -0.257 N 
HETATM   38  O5  UNL     1      28.733   3.970   6.658  1.00  0.00    -0.237 OA
ATOM     39  H9  UNL     1      30.061   4.520   8.133  1.00  0.00     0.195 HD
BRANCH  36  40
HETATM   40  C12 UNL     1      31.782   5.788   6.260  1.00  0.00     0.163 A 
HETATM   41  N5  UNL     1      32.010   7.064   6.617  1.00  0.00    -0.265 N 
HETATM   42  N6  UNL     1      33.327   7.316   6.578  1.00  0.00    -0.005 NA
ATOM     43  H5  UNL     1      31.290   7.737   6.879  1.00  0.00     0.186 HD
HETATM   44  N7  UNL     1      33.925   6.202   6.197  1.00  0.00    -0.225 N 
HETATM   45  N8  UNL     1      32.997   5.283   6.005  1.00  0.00    -0.270 N 
ATOM     46  H7  UNL     1      34.929   6.074   6.072  1.00  0.00     0.205 HD
ATOM     47  H8  UNL     1      33.179   4.326   5.704  1.00  0.00     0.190 HD
ENDBRANCH  36  40
ENDBRANCH   5  34
TORSDOF 10
ENDMDL
