MODEL 1
REMARK VINA RESULT: -5.927643694      0.000      0.000
REMARK  7 active torsions:
REMARK  status: ('A' for Active; 'I' for Inactive)
REMARK    1  A    between atoms: C2_2  and  C3_3 
REMARK    2  A    between atoms: C6_6  and  O1_7 
REMARK    3  A    between atoms: C7_9  and  C8_10 
REMARK       I    between atoms: C8_10  and  N1_12 
REMARK    4  A    between atoms: N1_12  and  C9_14 
REMARK    5  A    between atoms: N2_16  and  C11_17 
REMARK    6  A    between atoms: C12_20  and  O3_21 
REMARK    7  A    between atoms: C12_20  and  C13_23 
ROOT
HETATM    1  C3  UNL     1     104.413  19.974  14.512  1.00  0.00     0.037 C 
HETATM    2  C4  UNL     1     104.752  19.418  13.135  1.00  0.00     0.025 C 
HETATM    3  C5  UNL     1     105.530  19.790  15.473  1.00  0.00     0.057 C 
HETATM    4  C6  UNL     1     105.600  18.423  16.144  1.00  0.00     0.175 C 
HETATM    5  C7  UNL     1     104.240  18.233  16.764  1.00  0.00     0.113 C 
HETATM    6  N2  UNL     1     103.338  18.123  15.613  1.00  0.00    -0.279 N 
HETATM    7  C12 UNL     1     103.100  19.437  15.012  1.00  0.00     0.242 C 
ENDROOT
BRANCH   5   8
HETATM    8  C8  UNL     1     104.086  17.405  17.899  1.00  0.00     0.267 C 
HETATM    9  O2  UNL     1     103.265  17.742  18.820  1.00  0.00    -0.266 OA
HETATM   10  N1  UNL     1     104.776  16.193  18.101  1.00  0.00    -0.356 N 
ATOM     11  H1  UNL     1     105.444  15.913  17.382  1.00  0.00     0.162 HD
BRANCH  10  12
HETATM   12  C9  UNL     1     104.625  15.325  19.218  1.00  0.00     0.118 C 
HETATM   13  C10 UNL     1     103.395  14.463  19.192  1.00  0.00     0.026 C 
ENDBRANCH  10  12
ENDBRANCH   5   8
BRANCH   4  14
HETATM   14  O1  UNL     1     106.594  18.489  17.105  1.00  0.00    -0.389 OA
ATOM     15  H1  UNL     1     107.260  17.855  16.866  1.00  0.00     0.210 HD
ENDBRANCH   4  14
BRANCH   6  16
HETATM   16  C11 UNL     1     102.891  16.898  15.123  1.00  0.00     0.190 C 
HETATM   17  N3  UNL     1     103.618  16.138  14.176  1.00  0.00    -0.070 NA
HETATM   18  S1  UNL     1     101.519  16.155  15.661  1.00  0.00    -0.044 SA
ENDBRANCH   6  16
BRANCH   7  19
HETATM   19  O3  UNL     1     102.725  20.231  16.137  1.00  0.00    -0.361 OA
ATOM     20  H3  UNL     1     102.044  19.756  16.597  1.00  0.00     0.213 HD
ENDBRANCH   7  19
BRANCH   7  21
HETATM   21  C13 UNL     1     102.030  19.540  14.036  1.00  0.00     0.233 C 
HETATM   22  O4  UNL     1     102.157  19.438  12.801  1.00  0.00    -0.644 OA
HETATM   23  O5  UNL     1     100.708  19.773  14.469  1.00  0.00    -0.644 OA
ENDBRANCH   7  21
BRANCH   1  24
HETATM   24  C2  UNL     1     104.272  21.461  14.318  1.00  0.00    -0.022 C 
HETATM   25  C1  UNL     1     105.343  22.140  13.966  1.00  0.00     0.008 C 
ENDBRANCH   1  24
TORSDOF 7
ENDMDL
MODEL 2
REMARK VINA RESULT: -5.789778173      2.441      5.144
REMARK  7 active torsions:
REMARK  status: ('A' for Active; 'I' for Inactive)
REMARK    1  A    between atoms: C2_2  and  C3_3 
REMARK    2  A    between atoms: C6_6  and  O1_7 
REMARK    3  A    between atoms: C7_9  and  C8_10 
REMARK       I    between atoms: C8_10  and  N1_12 
REMARK    4  A    between atoms: N1_12  and  C9_14 
REMARK    5  A    between atoms: N2_16  and  C11_17 
REMARK    6  A    between atoms: C12_20  and  O3_21 
REMARK    7  A    between atoms: C12_20  and  C13_23 
ROOT
HETATM    1  C3  UNL     1     104.368  16.924  17.724  1.00  0.00     0.037 C 
HETATM    2  C4  UNL     1     103.393  17.683  18.615  1.00  0.00     0.025 C 
HETATM    3  C5  UNL     1     105.752  17.445  17.850  1.00  0.00     0.057 C 
HETATM    4  C6  UNL     1     106.073  18.668  16.999  1.00  0.00     0.175 C 
HETATM    5  C7  UNL     1     105.712  18.260  15.594  1.00  0.00     0.113 C 
HETATM    6  N2  UNL     1     104.254  18.109  15.632  1.00  0.00    -0.279 N 
HETATM    7  C12 UNL     1     103.878  16.862  16.304  1.00  0.00     0.242 C 
ENDROOT
BRANCH   5   8
HETATM    8  C8  UNL     1     106.358  18.862  14.490  1.00  0.00     0.267 C 
HETATM    9  O2  UNL     1     106.560  20.124  14.488  1.00  0.00    -0.266 OA
HETATM   10  N1  UNL     1     106.825  18.160  13.360  1.00  0.00    -0.356 N 
ATOM     11  H1  UNL     1     106.663  17.153  13.339  1.00  0.00     0.162 HD
BRANCH  10  12
HETATM   12  C9  UNL     1     107.501  18.731  12.247  1.00  0.00     0.118 C 
HETATM   13  C10 UNL     1     106.736  18.699  10.953  1.00  0.00     0.026 C 
ENDBRANCH  10  12
ENDBRANCH   5   8
BRANCH   4  14
HETATM   14  O1  UNL     1     107.429  18.913  17.126  1.00  0.00    -0.389 OA
ATOM     15  H1  UNL     1     107.536  19.848  17.257  1.00  0.00     0.210 HD
ENDBRANCH   4  14
BRANCH   6  16
HETATM   16  C11 UNL     1     103.383  19.099  15.185  1.00  0.00     0.190 C 
HETATM   17  N3  UNL     1     102.892  20.127  16.026  1.00  0.00    -0.070 NA
HETATM   18  S1  UNL     1     102.906  19.243  13.612  1.00  0.00    -0.044 SA
ENDBRANCH   6  16
BRANCH   7  19
HETATM   19  O3  UNL     1     104.678  15.892  15.628  1.00  0.00    -0.361 OA
ATOM     20  H3  UNL     1     104.086  15.230  15.290  1.00  0.00     0.213 HD
ENDBRANCH   7  19
BRANCH   7  21
HETATM   21  C13 UNL     1     102.495  16.435  16.191  1.00  0.00     0.233 C 
HETATM   22  O4  UNL     1     101.579  16.713  16.988  1.00  0.00    -0.644 OA
HETATM   23  O5  UNL     1     102.097  15.633  15.102  1.00  0.00    -0.644 OA
ENDBRANCH   7  21
BRANCH   1  24
HETATM   24  C2  UNL     1     104.399  15.522  18.274  1.00  0.00    -0.022 C 
HETATM   25  C1  UNL     1     104.729  15.363  19.538  1.00  0.00     0.008 C 
ENDBRANCH   1  24
TORSDOF 7
ENDMDL
MODEL 3
REMARK VINA RESULT: -5.709431395      2.410      3.269
REMARK  7 active torsions:
REMARK  status: ('A' for Active; 'I' for Inactive)
REMARK    1  A    between atoms: C2_2  and  C3_3 
REMARK    2  A    between atoms: C6_6  and  O1_7 
REMARK    3  A    between atoms: C7_9  and  C8_10 
REMARK       I    between atoms: C8_10  and  N1_12 
REMARK    4  A    between atoms: N1_12  and  C9_14 
REMARK    5  A    between atoms: N2_16  and  C11_17 
REMARK    6  A    between atoms: C12_20  and  O3_21 
REMARK    7  A    between atoms: C12_20  and  C13_23 
ROOT
HETATM    1  C3  UNL     1     106.016  18.952  13.442  1.00  0.00     0.037 C 
HETATM    2  C4  UNL     1     105.401  19.306  12.094  1.00  0.00     0.025 C 
HETATM    3  C5  UNL     1     105.922  17.498  13.727  1.00  0.00     0.057 C 
HETATM    4  C6  UNL     1     104.597  17.028  14.314  1.00  0.00     0.175 C 
HETATM    5  C7  UNL     1     104.392  17.892  15.532  1.00  0.00     0.113 C 
HETATM    6  N2  UNL     1     104.190  19.237  14.984  1.00  0.00    -0.279 N 
HETATM    7  C12 UNL     1     105.462  19.814  14.542  1.00  0.00     0.242 C 
ENDROOT
BRANCH   5   8
HETATM    8  C8  UNL     1     103.621  17.419  16.618  1.00  0.00     0.267 C 
HETATM    9  O2  UNL     1     103.639  18.052  17.729  1.00  0.00    -0.266 OA
HETATM   10  N1  UNL     1     102.797  16.276  16.572  1.00  0.00    -0.356 N 
ATOM     11  H1  UNL     1     102.779  15.752  15.697  1.00  0.00     0.162 HD
BRANCH  10  12
HETATM   12  C9  UNL     1     101.990  15.788  17.637  1.00  0.00     0.118 C 
HETATM   13  C10 UNL     1     102.717  14.961  18.659  1.00  0.00     0.026 C 
ENDBRANCH  10  12
ENDBRANCH   5   8
BRANCH   4  14
HETATM   14  O1  UNL     1     104.747  15.696  14.654  1.00  0.00    -0.389 OA
ATOM     15  H1  UNL     1     104.204  15.536  15.417  1.00  0.00     0.210 HD
ENDBRANCH   4  14
BRANCH   6  16
HETATM   16  C11 UNL     1     102.927  19.798  14.816  1.00  0.00     0.190 C 
HETATM   17  N3  UNL     1     102.375  20.735  15.723  1.00  0.00    -0.070 NA
HETATM   18  S1  UNL     1     101.978  19.510  13.497  1.00  0.00    -0.044 SA
ENDBRANCH   6  16
BRANCH   7  19
HETATM   19  O3  UNL     1     106.301  19.629  15.681  1.00  0.00    -0.361 OA
ATOM     20  H3  UNL     1     105.741  19.349  16.396  1.00  0.00     0.213 HD
ENDBRANCH   7  19
BRANCH   7  21
HETATM   21  C13 UNL     1     105.475  21.230  14.223  1.00  0.00     0.233 C 
HETATM   22  O4  UNL     1     104.675  21.816  13.468  1.00  0.00    -0.644 OA
HETATM   23  O5  UNL     1     106.460  22.066  14.789  1.00  0.00    -0.644 OA
ENDBRANCH   7  21
BRANCH   1  24
HETATM   24  C2  UNL     1     107.485  19.254  13.300  1.00  0.00    -0.022 C 
HETATM   25  C1  UNL     1     108.104  18.811  12.226  1.00  0.00     0.008 C 
ENDBRANCH   1  24
TORSDOF 7
ENDMDL
MODEL 4
REMARK VINA RESULT: -5.515325240      2.723      5.259
REMARK  7 active torsions:
REMARK  status: ('A' for Active; 'I' for Inactive)
REMARK    1  A    between atoms: C2_2  and  C3_3 
REMARK    2  A    between atoms: C6_6  and  O1_7 
REMARK    3  A    between atoms: C7_9  and  C8_10 
REMARK       I    between atoms: C8_10  and  N1_12 
REMARK    4  A    between atoms: N1_12  and  C9_14 
REMARK    5  A    between atoms: N2_16  and  C11_17 
REMARK    6  A    between atoms: C12_20  and  O3_21 
REMARK    7  A    between atoms: C12_20  and  C13_23 
ROOT
HETATM    1  C3  UNL     1     104.496  17.331  18.784  1.00  0.00     0.037 C 
HETATM    2  C4  UNL     1     103.368  18.214  19.302  1.00  0.00     0.025 C 
HETATM    3  C5  UNL     1     105.577  18.130  18.153  1.00  0.00     0.057 C 
HETATM    4  C6  UNL     1     105.340  18.522  16.699  1.00  0.00     0.175 C 
HETATM    5  C7  UNL     1     105.069  17.219  15.993  1.00  0.00     0.113 C 
HETATM    6  N2  UNL     1     103.789  16.773  16.552  1.00  0.00    -0.279 N 
HETATM    7  C12 UNL     1     103.971  16.233  17.901  1.00  0.00     0.242 C 
ENDROOT
BRANCH   5   8
HETATM    8  C8  UNL     1     105.355  17.084  14.615  1.00  0.00     0.267 C 
HETATM    9  O2  UNL     1     105.139  15.967  14.032  1.00  0.00    -0.266 OA
HETATM   10  N1  UNL     1     105.863  18.117  13.802  1.00  0.00    -0.356 N 
ATOM     11  H1  UNL     1     106.052  19.013  14.253  1.00  0.00     0.162 HD
BRANCH  10  12
HETATM   12  C9  UNL     1     106.138  18.022  12.409  1.00  0.00     0.118 C 
HETATM   13  C10 UNL     1     107.347  18.784  11.945  1.00  0.00     0.026 C 
ENDBRANCH  10  12
ENDBRANCH   5   8
BRANCH   4  14
HETATM   14  O1  UNL     1     106.502  19.118  16.241  1.00  0.00    -0.389 OA
ATOM     15  H1  UNL     1     107.094  19.189  16.981  1.00  0.00     0.210 HD
ENDBRANCH   4  14
BRANCH   6  16
HETATM   16  C11 UNL     1     102.575  16.967  15.899  1.00  0.00     0.190 C 
HETATM   17  N3  UNL     1     102.061  18.252  15.598  1.00  0.00    -0.070 NA
HETATM   18  S1  UNL     1     101.651  15.729  15.319  1.00  0.00    -0.044 SA
ENDBRANCH   6  16
BRANCH   7  19
HETATM   19  O3  UNL     1     105.035  15.298  17.721  1.00  0.00    -0.361 OA
ATOM     20  H3  UNL     1     105.347  15.401  16.831  1.00  0.00     0.213 HD
ENDBRANCH   7  19
BRANCH   7  21
HETATM   21  C13 UNL     1     102.857  15.510  18.486  1.00  0.00     0.233 C 
HETATM   22  O4  UNL     1     102.885  14.334  18.897  1.00  0.00    -0.644 OA
HETATM   23  O5  UNL     1     101.606  16.147  18.627  1.00  0.00    -0.644 OA
ENDBRANCH   7  21
BRANCH   1  24
HETATM   24  C2  UNL     1     105.105  16.703  20.009  1.00  0.00    -0.022 C 
HETATM   25  C1  UNL     1     106.017  17.388  20.666  1.00  0.00     0.008 C 
ENDBRANCH   1  24
TORSDOF 7
ENDMDL
MODEL 5
REMARK VINA RESULT: -5.512858953      1.285      1.631
REMARK  7 active torsions:
REMARK  status: ('A' for Active; 'I' for Inactive)
REMARK    1  A    between atoms: C2_2  and  C3_3 
REMARK    2  A    between atoms: C6_6  and  O1_7 
REMARK    3  A    between atoms: C7_9  and  C8_10 
REMARK       I    between atoms: C8_10  and  N1_12 
REMARK    4  A    between atoms: N1_12  and  C9_14 
REMARK    5  A    between atoms: N2_16  and  C11_17 
REMARK    6  A    between atoms: C12_20  and  O3_21 
REMARK    7  A    between atoms: C12_20  and  C13_23 
ROOT
HETATM    1  C3  UNL     1     103.611  20.834  13.946  1.00  0.00     0.037 C 
HETATM    2  C4  UNL     1     103.698  20.431  12.479  1.00  0.00     0.025 C 
HETATM    3  C5  UNL     1     104.954  21.060  14.537  1.00  0.00     0.057 C 
HETATM    4  C6  UNL     1     105.677  19.809  15.021  1.00  0.00     0.175 C 
HETATM    5  C7  UNL     1     104.708  19.152  15.969  1.00  0.00     0.113 C 
HETATM    6  N2  UNL     1     103.601  18.726  15.107  1.00  0.00    -0.279 N 
HETATM    7  C12 UNL     1     102.766  19.870  14.731  1.00  0.00     0.242 C 
ENDROOT
BRANCH   5   8
HETATM    8  C8  UNL     1     105.184  18.326  17.014  1.00  0.00     0.267 C 
HETATM    9  O2  UNL     1     106.405  17.949  17.013  1.00  0.00    -0.266 OA
HETATM   10  N1  UNL     1     104.400  17.880  18.097  1.00  0.00    -0.356 N 
ATOM     11  H1  UNL     1     103.419  18.162  18.108  1.00  0.00     0.162 HD
BRANCH  10  12
HETATM   12  C9  UNL     1     104.854  17.071  19.175  1.00  0.00     0.118 C 
HETATM   13  C10 UNL     1     104.689  15.591  18.974  1.00  0.00     0.026 C 
ENDBRANCH  10  12
ENDBRANCH   5   8
BRANCH   4  14
HETATM   14  O1  UNL     1     106.825  20.224  15.672  1.00  0.00    -0.389 OA
ATOM     15  H1  UNL     1     106.568  20.890  16.300  1.00  0.00     0.210 HD
ENDBRANCH   4  14
BRANCH   6  16
HETATM   16  C11 UNL     1     103.472  17.421  14.638  1.00  0.00     0.190 C 
HETATM   17  N3  UNL     1     104.268  16.899  13.590  1.00  0.00    -0.070 NA
HETATM   18  S1  UNL     1     102.451  16.314  15.313  1.00  0.00    -0.044 SA
ENDBRANCH   6  16
BRANCH   7  19
HETATM   19  O3  UNL     1     102.492  20.483  15.990  1.00  0.00    -0.361 OA
ATOM     20  H3  UNL     1     102.504  21.422  15.850  1.00  0.00     0.213 HD
ENDBRANCH   7  19
BRANCH   7  21
HETATM   21  C13 UNL     1     101.488  19.584  14.104  1.00  0.00     0.233 C 
HETATM   22  O4  UNL     1     101.291  19.440  12.882  1.00  0.00    -0.644 OA
HETATM   23  O5  UNL     1     100.333  19.446  14.901  1.00  0.00    -0.644 OA
ENDBRANCH   7  21
BRANCH   1  24
HETATM   24  C2  UNL     1     102.924  22.175  13.949  1.00  0.00    -0.022 C 
HETATM   25  C1  UNL     1     102.854  22.834  12.812  1.00  0.00     0.008 C 
ENDBRANCH   1  24
TORSDOF 7
ENDMDL
