MODEL 1
REMARK VINA RESULT: -6.994144864      0.000      0.000
REMARK  6 active torsions:
REMARK  status: ('A' for Active; 'I' for Inactive)
REMARK       I    between atoms: C2_2  and  N1_4 
REMARK    1  A    between atoms: C4_6  and  C5_7 
REMARK       I    between atoms: C5_7  and  N2_9 
REMARK    2  A    between atoms: N2_9  and  N3_11 
REMARK       I    between atoms: N3_11  and  C6_13 
REMARK       I    between atoms: C6_13  and  N4_15 
REMARK    3  A    between atoms: N4_15  and  C7_17 
REMARK    4  A    between atoms: C7_17  and  C10_20 
REMARK    5  A    between atoms: C10_20  and  O4_21 
REMARK    6  A    between atoms: C12_24  and  C13_25 
ROOT
HETATM    1  C5  UNL     1     105.581  18.688  14.624  1.00  0.00     0.241 C 
HETATM    2  O2  UNL     1     104.684  18.818  13.749  1.00  0.00    -0.271 OA
HETATM    3  N2  UNL     1     106.920  18.325  14.228  1.00  0.00    -0.266 N 
ATOM      4  H2  UNL     1     107.643  18.222  14.940  1.00  0.00     0.190 HD
ENDROOT
BRANCH   3   5
HETATM    5  N3  UNL     1     107.244  18.114  12.892  1.00  0.00    -0.249 N 
HETATM    6  C6  UNL     1     108.495  18.492  12.389  1.00  0.00     0.335 C 
HETATM    7  O3  UNL     1     109.333  19.024  13.134  1.00  0.00    -0.246 OA
HETATM    8  N4  UNL     1     108.818  18.271  11.023  1.00  0.00    -0.331 N 
ATOM      9  H4  UNL     1     108.112  17.834  10.430  1.00  0.00     0.165 HD
ATOM     10  H3  UNL     1     106.561  17.679  12.271  1.00  0.00     0.192 HD
BRANCH   8  11
HETATM   11  C7  UNL     1     110.073  18.623  10.424  1.00  0.00     0.048 C 
HETATM   12  C8  UNL     1     110.340  20.113  10.454  1.00  0.00     0.040 C 
HETATM   13  C9  UNL     1     110.016  18.217   8.947  1.00  0.00     0.040 C 
BRANCH  11  14
HETATM   14  C10 UNL     1     111.166  17.840  11.079  1.00  0.00     0.194 C 
BRANCH  14  15
HETATM   15  O4  UNL     1     111.728  16.884  10.239  1.00  0.00    -0.398 OA
ATOM     16  H4  UNL     1     112.602  17.115   9.947  1.00  0.00     0.209 HD
ENDBRANCH  14  15
ENDBRANCH  11  14
ENDBRANCH   8  11
ENDBRANCH   3   5
BRANCH   1  17
HETATM   17  C4  UNL     1     105.247  18.910  16.048  1.00  0.00     0.100 C 
HETATM   18  C3  UNL     1     106.386  18.427  16.910  1.00  0.00     0.141 C 
HETATM   19  N1  UNL     1     105.810  18.049  18.174  1.00  0.00    -0.337 N 
HETATM   20  C2  UNL     1     106.498  17.961  19.397  1.00  0.00     0.216 C 
HETATM   21  C12 UNL     1     104.404  17.771  17.995  1.00  0.00     0.189 C 
HETATM   22  C1  UNL     1     107.947  18.276  19.436  1.00  0.00     0.117 C 
HETATM   23  O1  UNL     1     105.914  17.618  20.476  1.00  0.00    -0.274 OA
HETATM   24  C11 UNL     1     104.103  18.049  16.537  1.00  0.00     0.052 C 
BRANCH  21  25
HETATM   25  C13 UNL     1     104.047  16.387  18.369  1.00  0.00     0.197 C 
HETATM   26  O5  UNL     1     102.852  16.124  18.637  1.00  0.00    -0.646 OA
HETATM   27  O6  UNL     1     104.956  15.340  18.445  1.00  0.00    -0.646 OA
ENDBRANCH  21  25
ENDBRANCH   1  17
TORSDOF 6
ENDMDL
MODEL 2
REMARK VINA RESULT: -6.970247974      2.098      2.710
REMARK  6 active torsions:
REMARK  status: ('A' for Active; 'I' for Inactive)
REMARK       I    between atoms: C2_2  and  N1_4 
REMARK    1  A    between atoms: C4_6  and  C5_7 
REMARK       I    between atoms: C5_7  and  N2_9 
REMARK    2  A    between atoms: N2_9  and  N3_11 
REMARK       I    between atoms: N3_11  and  C6_13 
REMARK       I    between atoms: C6_13  and  N4_15 
REMARK    3  A    between atoms: N4_15  and  C7_17 
REMARK    4  A    between atoms: C7_17  and  C10_20 
REMARK    5  A    between atoms: C10_20  and  O4_21 
REMARK    6  A    between atoms: C12_24  and  C13_25 
ROOT
HETATM    1  C5  UNL     1     106.877  18.630  15.423  1.00  0.00     0.241 C 
HETATM    2  O2  UNL     1     108.042  19.099  15.314  1.00  0.00    -0.271 OA
HETATM    3  N2  UNL     1     106.282  17.927  14.312  1.00  0.00    -0.266 N 
ATOM      4  H2  UNL     1     105.339  17.549  14.407  1.00  0.00     0.190 HD
ENDROOT
BRANCH   3   5
HETATM    5  N3  UNL     1     106.969  17.757  13.116  1.00  0.00    -0.249 N 
HETATM    6  C6  UNL     1     106.693  18.570  12.009  1.00  0.00     0.335 C 
HETATM    7  O3  UNL     1     105.826  19.454  12.083  1.00  0.00    -0.246 OA
HETATM    8  N4  UNL     1     107.402  18.390  10.790  1.00  0.00    -0.331 N 
ATOM      9  H4  UNL     1     108.108  17.655  10.753  1.00  0.00     0.165 HD
ATOM     10  H3  UNL     1     107.683  17.032  13.044  1.00  0.00     0.192 HD
BRANCH   8  11
HETATM   11  C7  UNL     1     107.187  19.176   9.609  1.00  0.00     0.048 C 
HETATM   12  C8  UNL     1     106.016  18.685   8.783  1.00  0.00     0.040 C 
HETATM   13  C9  UNL     1     108.432  19.043   8.727  1.00  0.00     0.040 C 
BRANCH  11  14
HETATM   14  C10 UNL     1     107.042  20.613   9.996  1.00  0.00     0.194 C 
BRANCH  14  15
HETATM   15  O4  UNL     1     105.791  21.136   9.683  1.00  0.00    -0.398 OA
ATOM     16  H4  UNL     1     105.840  21.910   9.134  1.00  0.00     0.209 HD
ENDBRANCH  14  15
ENDBRANCH  11  14
ENDBRANCH   8  11
ENDBRANCH   3   5
BRANCH   1  17
HETATM   17  C4  UNL     1     106.137  18.807  16.692  1.00  0.00     0.100 C 
HETATM   18  C3  UNL     1     106.958  18.257  17.831  1.00  0.00     0.141 C 
HETATM   19  N1  UNL     1     106.026  17.848  18.847  1.00  0.00    -0.337 N 
HETATM   20  C2  UNL     1     106.316  17.692  20.215  1.00  0.00     0.216 C 
HETATM   21  C12 UNL     1     104.733  17.620  18.246  1.00  0.00     0.189 C 
HETATM   22  C1  UNL     1     107.693  17.961  20.696  1.00  0.00     0.117 C 
HETATM   23  O1  UNL     1     105.431  17.326  21.054  1.00  0.00    -0.274 OA
HETATM   24  C11 UNL     1     104.885  17.962  16.779  1.00  0.00     0.052 C 
BRANCH  21  25
HETATM   25  C13 UNL     1     104.257  16.234  18.433  1.00  0.00     0.197 C 
HETATM   26  O5  UNL     1     105.098  15.306  18.473  1.00  0.00    -0.646 OA
HETATM   27  O6  UNL     1     102.921  15.879  18.570  1.00  0.00    -0.646 OA
ENDBRANCH  21  25
ENDBRANCH   1  17
TORSDOF 6
ENDMDL
MODEL 3
REMARK VINA RESULT: -6.957866370      1.796      2.373
REMARK  6 active torsions:
REMARK  status: ('A' for Active; 'I' for Inactive)
REMARK       I    between atoms: C2_2  and  N1_4 
REMARK    1  A    between atoms: C4_6  and  C5_7 
REMARK       I    between atoms: C5_7  and  N2_9 
REMARK    2  A    between atoms: N2_9  and  N3_11 
REMARK       I    between atoms: N3_11  and  C6_13 
REMARK       I    between atoms: C6_13  and  N4_15 
REMARK    3  A    between atoms: N4_15  and  C7_17 
REMARK    4  A    between atoms: C7_17  and  C10_20 
REMARK    5  A    between atoms: C10_20  and  O4_21 
REMARK    6  A    between atoms: C12_24  and  C13_25 
ROOT
HETATM    1  C5  UNL     1     105.646  17.809  13.670  1.00  0.00     0.241 C 
HETATM    2  O2  UNL     1     105.266  16.919  12.863  1.00  0.00    -0.271 OA
HETATM    3  N2  UNL     1     106.960  18.389  13.531  1.00  0.00    -0.266 N 
ATOM      4  H2  UNL     1     107.261  19.109  14.187  1.00  0.00     0.190 HD
ENDROOT
BRANCH   3   5
HETATM    5  N3  UNL     1     107.821  17.983  12.518  1.00  0.00    -0.249 N 
HETATM    6  C6  UNL     1     109.124  18.491  12.439  1.00  0.00     0.335 C 
HETATM    7  O3  UNL     1     109.526  19.315  13.276  1.00  0.00    -0.246 OA
HETATM    8  N4  UNL     1     109.999  18.069  11.401  1.00  0.00    -0.331 N 
ATOM      9  H4  UNL     1     109.645  17.393  10.724  1.00  0.00     0.165 HD
ATOM     10  H3  UNL     1     107.500  17.307  11.824  1.00  0.00     0.192 HD
BRANCH   8  11
HETATM   11  C7  UNL     1     111.347  18.534  11.245  1.00  0.00     0.048 C 
HETATM   12  C8  UNL     1     111.436  20.039  11.099  1.00  0.00     0.040 C 
HETATM   13  C9  UNL     1     111.901  17.934   9.949  1.00  0.00     0.040 C 
BRANCH  11  14
HETATM   14  C10 UNL     1     112.176  18.028  12.383  1.00  0.00     0.194 C 
BRANCH  14  15
HETATM   15  O4  UNL     1     112.528  16.689  12.244  1.00  0.00    -0.398 OA
ATOM     16  H4  UNL     1     112.676  16.256  13.076  1.00  0.00     0.209 HD
ENDBRANCH  14  15
ENDBRANCH  11  14
ENDBRANCH   8  11
ENDBRANCH   3   5
BRANCH   1  17
HETATM   17  C4  UNL     1     104.736  18.247  14.752  1.00  0.00     0.100 C 
HETATM   18  C3  UNL     1     105.070  17.502  16.020  1.00  0.00     0.141 C 
HETATM   19  N1  UNL     1     103.856  17.437  16.789  1.00  0.00    -0.337 N 
HETATM   20  C2  UNL     1     103.773  17.239  18.179  1.00  0.00     0.216 C 
HETATM   21  C12 UNL     1     102.724  17.607  15.909  1.00  0.00     0.189 C 
HETATM   22  C1  UNL     1     105.022  17.077  18.962  1.00  0.00     0.117 C 
HETATM   23  O1  UNL     1     102.655  17.194  18.787  1.00  0.00    -0.274 OA
HETATM   24  C11 UNL     1     103.296  17.841  14.526  1.00  0.00     0.052 C 
BRANCH  21  25
HETATM   25  C13 UNL     1     101.810  16.447  15.929  1.00  0.00     0.197 C 
HETATM   26  O5  UNL     1     102.177  15.379  15.385  1.00  0.00    -0.646 OA
HETATM   27  O6  UNL     1     100.551  16.454  16.517  1.00  0.00    -0.646 OA
ENDBRANCH  21  25
ENDBRANCH   1  17
TORSDOF 6
ENDMDL
MODEL 4
REMARK VINA RESULT: -6.809526857      2.608      3.220
REMARK  6 active torsions:
REMARK  status: ('A' for Active; 'I' for Inactive)
REMARK       I    between atoms: C2_2  and  N1_4 
REMARK    1  A    between atoms: C4_6  and  C5_7 
REMARK       I    between atoms: C5_7  and  N2_9 
REMARK    2  A    between atoms: N2_9  and  N3_11 
REMARK       I    between atoms: N3_11  and  C6_13 
REMARK       I    between atoms: C6_13  and  N4_15 
REMARK    3  A    between atoms: N4_15  and  C7_17 
REMARK    4  A    between atoms: C7_17  and  C10_20 
REMARK    5  A    between atoms: C10_20  and  O4_21 
REMARK    6  A    between atoms: C12_24  and  C13_25 
ROOT
HETATM    1  C5  UNL     1     105.542  17.615  14.011  1.00  0.00     0.241 C 
HETATM    2  O2  UNL     1     105.211  16.723  13.185  1.00  0.00    -0.271 OA
HETATM    3  N2  UNL     1     106.808  18.292  13.865  1.00  0.00    -0.266 N 
ATOM      4  H2  UNL     1     107.070  19.013  14.537  1.00  0.00     0.190 HD
ENDROOT
BRANCH   3   5
HETATM    5  N3  UNL     1     107.676  17.979  12.826  1.00  0.00    -0.249 N 
HETATM    6  C6  UNL     1     107.677  18.729  11.643  1.00  0.00     0.335 C 
HETATM    7  O3  UNL     1     106.898  19.686  11.508  1.00  0.00    -0.246 OA
HETATM    8  N4  UNL     1     108.569  18.403  10.585  1.00  0.00    -0.331 N 
ATOM      9  H4  UNL     1     109.198  17.612  10.718  1.00  0.00     0.165 HD
ATOM     10  H3  UNL     1     108.320  17.194  12.925  1.00  0.00     0.192 HD
BRANCH   8  11
HETATM   11  C7  UNL     1     108.640  19.117   9.342  1.00  0.00     0.048 C 
HETATM   12  C8  UNL     1     107.317  19.147   8.606  1.00  0.00     0.040 C 
HETATM   13  C9  UNL     1     109.630  18.378   8.435  1.00  0.00     0.040 C 
BRANCH  11  14
HETATM   14  C10 UNL     1     109.177  20.490   9.594  1.00  0.00     0.194 C 
BRANCH  14  15
HETATM   15  O4  UNL     1     108.202  21.478   9.509  1.00  0.00    -0.398 OA
ATOM     16  H4  UNL     1     108.537  22.300   9.170  1.00  0.00     0.209 HD
ENDBRANCH  14  15
ENDBRANCH  11  14
ENDBRANCH   8  11
ENDBRANCH   3   5
BRANCH   1  17
HETATM   17  C4  UNL     1     104.626  17.954  15.122  1.00  0.00     0.100 C 
HETATM   18  C3  UNL     1     104.630  16.836  16.134  1.00  0.00     0.141 C 
HETATM   19  N1  UNL     1     103.346  16.866  16.782  1.00  0.00    -0.337 N 
HETATM   20  C2  UNL     1     103.051  16.327  18.048  1.00  0.00     0.216 C 
HETATM   21  C12 UNL     1     102.395  17.540  15.930  1.00  0.00     0.189 C 
HETATM   22  C1  UNL     1     104.128  15.659  18.817  1.00  0.00     0.117 C 
HETATM   23  O1  UNL     1     101.884  16.396  18.554  1.00  0.00    -0.274 OA
HETATM   24  C11 UNL     1     103.170  17.990  14.709  1.00  0.00     0.052 C 
BRANCH  21  25
HETATM   25  C13 UNL     1     101.253  16.679  15.560  1.00  0.00     0.197 C 
HETATM   26  O5  UNL     1     101.483  15.555  15.056  1.00  0.00    -0.646 OA
HETATM   27  O6  UNL     1      99.921  17.031  15.734  1.00  0.00    -0.646 OA
ENDBRANCH  21  25
ENDBRANCH   1  17
TORSDOF 6
ENDMDL
MODEL 5
REMARK VINA RESULT: -6.752334490      3.078      4.142
REMARK  6 active torsions:
REMARK  status: ('A' for Active; 'I' for Inactive)
REMARK       I    between atoms: C2_2  and  N1_4 
REMARK    1  A    between atoms: C4_6  and  C5_7 
REMARK       I    between atoms: C5_7  and  N2_9 
REMARK    2  A    between atoms: N2_9  and  N3_11 
REMARK       I    between atoms: N3_11  and  C6_13 
REMARK       I    between atoms: C6_13  and  N4_15 
REMARK    3  A    between atoms: N4_15  and  C7_17 
REMARK    4  A    between atoms: C7_17  and  C10_20 
REMARK    5  A    between atoms: C10_20  and  O4_21 
REMARK    6  A    between atoms: C12_24  and  C13_25 
ROOT
HETATM    1  C5  UNL     1     108.216  19.270  13.220  1.00  0.00     0.241 C 
HETATM    2  O2  UNL     1     108.119  18.370  12.343  1.00  0.00    -0.271 OA
HETATM    3  N2  UNL     1     109.489  19.908  13.454  1.00  0.00    -0.266 N 
ATOM      4  H2  UNL     1     109.561  20.636  14.164  1.00  0.00     0.190 HD
ENDROOT
BRANCH   3   5
HETATM    5  N3  UNL     1     110.618  19.547  12.728  1.00  0.00    -0.249 N 
HETATM    6  C6  UNL     1     111.817  20.259  12.867  1.00  0.00     0.335 C 
HETATM    7  O3  UNL     1     111.884  21.225  13.642  1.00  0.00    -0.246 OA
HETATM    8  N4  UNL     1     112.968  19.882  12.122  1.00  0.00    -0.331 N 
ATOM      9  H4  UNL     1     112.887  19.086  11.490  1.00  0.00     0.165 HD
ATOM     10  H3  UNL     1     110.574  18.755  12.087  1.00  0.00     0.192 HD
BRANCH   8  11
HETATM   11  C7  UNL     1     114.234  20.551  12.203  1.00  0.00     0.048 C 
HETATM   12  C8  UNL     1     114.138  22.030  11.890  1.00  0.00     0.040 C 
HETATM   13  C9  UNL     1     115.155  19.937  11.143  1.00  0.00     0.040 C 
BRANCH  11  14
HETATM   14  C10 UNL     1     114.839  20.297  13.547  1.00  0.00     0.194 C 
BRANCH  14  15
HETATM   15  O4  UNL     1     114.685  21.367  14.423  1.00  0.00    -0.398 OA
ATOM     16  H4  UNL     1     115.445  21.505  14.975  1.00  0.00     0.209 HD
ENDBRANCH  14  15
ENDBRANCH  11  14
ENDBRANCH   8  11
ENDBRANCH   3   5
BRANCH   1  17
HETATM   17  C4  UNL     1     107.019  19.660  13.998  1.00  0.00     0.100 C 
HETATM   18  C3  UNL     1     106.926  18.804  15.236  1.00  0.00     0.141 C 
HETATM   19  N1  UNL     1     105.530  18.730  15.578  1.00  0.00    -0.337 N 
HETATM   20  C2  UNL     1     105.011  18.427  16.849  1.00  0.00     0.216 C 
HETATM   21  C12 UNL     1     104.735  19.019  14.408  1.00  0.00     0.189 C 
HETATM   22  C1  UNL     1     105.947  18.151  17.966  1.00  0.00     0.117 C 
HETATM   23  O1  UNL     1     103.758  18.383  17.073  1.00  0.00    -0.274 OA
HETATM   24  C11 UNL     1     105.717  19.336  13.299  1.00  0.00     0.052 C 
BRANCH  21  25
HETATM   25  C13 UNL     1     103.843  17.901  14.039  1.00  0.00     0.197 C 
HETATM   26  O5  UNL     1     102.605  18.043  14.182  1.00  0.00    -0.646 OA
HETATM   27  O6  UNL     1     104.283  16.683  13.536  1.00  0.00    -0.646 OA
ENDBRANCH  21  25
ENDBRANCH   1  17
TORSDOF 6
ENDMDL
