MODEL 1
REMARK VINA RESULT: -6.244512260      0.000      0.000
REMARK  5 active torsions:
REMARK  status: ('A' for Active; 'I' for Inactive)
REMARK    1  A    between atoms: C2_2  and  N1_5 
REMARK       I    between atoms: N1_5  and  C5_7 
REMARK    2  A    between atoms: C5_7  and  C6_9 
REMARK    3  A    between atoms: N2_10  and  C7_11 
REMARK    4  A    between atoms: C7_11  and  C8_12 
REMARK    5  A    between atoms: C7_11  and  C9_17 
ROOT
HETATM    1  C6  UNL     1     102.830  17.777  16.293  1.00  0.00     0.212 C 
HETATM    2  N2  UNL     1     103.396  18.309  15.043  1.00  0.00    -0.301 N 
HETATM    3  C10 UNL     1     103.924  17.136  14.424  1.00  0.00     0.176 C 
HETATM    4  S1  UNL     1     105.270  16.968  13.515  1.00  0.00    -0.041 SA
HETATM    5  N6  UNL     1     103.015  16.064  14.782  1.00  0.00    -0.356 N 
ATOM      6  H6  UNL     1     103.075  15.091  14.483  1.00  0.00     0.162 HD
HETATM    7  C11 UNL     1     102.007  16.642  15.646  1.00  0.00     0.054 C 
HETATM    8  C12 UNL     1     100.888  17.317  14.893  1.00  0.00     0.041 C 
HETATM    9  C13 UNL     1     101.428  15.704  16.637  1.00  0.00     0.041 C 
ENDROOT
BRANCH   2  10
HETATM   10  C7  UNL     1     103.427  19.630  14.537  1.00  0.00     0.144 C 
BRANCH  10  11
HETATM   11  C8  UNL     1     102.196  20.385  14.420  1.00  0.00     0.142 C 
HETATM   12  N3  UNL     1     101.677  21.065  15.355  1.00  0.00    -0.386 N 
ATOM     13  H32 UNL     1     102.182  21.073  16.241  1.00  0.00     0.157 HD
ATOM     14  H31 UNL     1     100.810  21.597  15.273  1.00  0.00     0.157 HD
HETATM   15  N4  UNL     1     101.492  20.375  13.185  1.00  0.00    -0.081 NA
ENDBRANCH  10  11
BRANCH  10  16
HETATM   16  C9  UNL     1     104.578  20.408  15.039  1.00  0.00     0.285 C 
HETATM   17  N5  UNL     1     104.614  21.822  14.826  1.00  0.00    -0.056 NA
HETATM   18  O2  UNL     1     105.555  19.927  15.653  1.00  0.00    -0.269 OA
ENDBRANCH  10  16
ENDBRANCH   2  10
BRANCH   1  19
HETATM   19  C5  UNL     1     103.896  17.227  17.117  1.00  0.00     0.244 C 
HETATM   20  N1  UNL     1     104.050  17.493  18.505  1.00  0.00    -0.351 N 
ATOM     21  H1  UNL     1     103.372  18.108  18.957  1.00  0.00     0.163 HD
HETATM   22  O1  UNL     1     104.755  16.468  16.620  1.00  0.00    -0.271 OA
BRANCH  20  23
HETATM   23  C2  UNL     1     105.108  16.941  19.306  1.00  0.00     0.022 C 
HETATM   24  C1  UNL     1     106.471  17.417  18.814  1.00  0.00     0.037 C 
HETATM   25  C3  UNL     1     105.115  15.419  19.262  1.00  0.00     0.037 C 
HETATM   26  C4  UNL     1     105.021  17.349  20.753  1.00  0.00     0.037 C 
ENDBRANCH  20  23
ENDBRANCH   1  19
TORSDOF 5
ENDMDL
MODEL 2
REMARK VINA RESULT: -6.212575248      1.873      5.638
REMARK  5 active torsions:
REMARK  status: ('A' for Active; 'I' for Inactive)
REMARK    1  A    between atoms: C2_2  and  N1_5 
REMARK       I    between atoms: N1_5  and  C5_7 
REMARK    2  A    between atoms: C5_7  and  C6_9 
REMARK    3  A    between atoms: N2_10  and  C7_11 
REMARK    4  A    between atoms: C7_11  and  C8_12 
REMARK    5  A    between atoms: C7_11  and  C9_17 
ROOT
HETATM    1  C6  UNL     1     104.893  18.842  16.626  1.00  0.00     0.212 C 
HETATM    2  N2  UNL     1     104.548  17.419  16.474  1.00  0.00    -0.301 N 
HETATM    3  C10 UNL     1     105.027  17.127  15.161  1.00  0.00     0.176 C 
HETATM    4  S1  UNL     1     104.397  16.129  14.033  1.00  0.00    -0.041 SA
HETATM    5  N6  UNL     1     106.222  17.932  14.994  1.00  0.00    -0.356 N 
ATOM      6  H6  UNL     1     106.836  17.947  14.181  1.00  0.00     0.162 HD
HETATM    7  C11 UNL     1     106.374  18.710  16.207  1.00  0.00     0.054 C 
HETATM    8  C12 UNL     1     107.056  17.958  17.320  1.00  0.00     0.041 C 
HETATM    9  C13 UNL     1     107.046  20.019  16.022  1.00  0.00     0.041 C 
ENDROOT
BRANCH   2  10
HETATM   10  C7  UNL     1     103.914  16.527  17.370  1.00  0.00     0.144 C 
BRANCH  10  11
HETATM   11  C8  UNL     1     104.413  16.391  18.724  1.00  0.00     0.142 C 
HETATM   12  N3  UNL     1     104.288  17.269  19.629  1.00  0.00    -0.386 N 
ATOM     13  H32 UNL     1     103.792  18.120  19.366  1.00  0.00     0.157 HD
ATOM     14  H31 UNL     1     104.639  17.173  20.582  1.00  0.00     0.157 HD
HETATM   15  N4  UNL     1     105.104  15.203  19.091  1.00  0.00    -0.081 NA
ENDBRANCH  10  11
BRANCH  10  16
HETATM   16  C9  UNL     1     102.440  16.556  17.260  1.00  0.00     0.285 C 
HETATM   17  N5  UNL     1     101.647  16.163  18.383  1.00  0.00    -0.056 NA
HETATM   18  O2  UNL     1     101.805  16.904  16.241  1.00  0.00    -0.269 OA
ENDBRANCH  10  16
ENDBRANCH   2  10
BRANCH   1  19
HETATM   19  C5  UNL     1     104.156  19.630  15.649  1.00  0.00     0.244 C 
HETATM   20  N1  UNL     1     102.847  19.315  15.193  1.00  0.00    -0.351 N 
ATOM     21  H1  UNL     1     102.391  18.484  15.571  1.00  0.00     0.163 HD
HETATM   22  O1  UNL     1     104.663  20.658  15.150  1.00  0.00    -0.271 OA
BRANCH  20  23
HETATM   23  C2  UNL     1     102.131  20.104  14.228  1.00  0.00     0.022 C 
HETATM   24  C1  UNL     1     100.823  19.429  13.832  1.00  0.00     0.037 C 
HETATM   25  C3  UNL     1     102.941  20.309  12.954  1.00  0.00     0.037 C 
HETATM   26  C4  UNL     1     101.757  21.467  14.748  1.00  0.00     0.037 C 
ENDBRANCH  20  23
ENDBRANCH   1  19
TORSDOF 5
ENDMDL
MODEL 3
REMARK VINA RESULT: -6.178928244      1.273      1.825
REMARK  5 active torsions:
REMARK  status: ('A' for Active; 'I' for Inactive)
REMARK    1  A    between atoms: C2_2  and  N1_5 
REMARK       I    between atoms: N1_5  and  C5_7 
REMARK    2  A    between atoms: C5_7  and  C6_9 
REMARK    3  A    between atoms: N2_10  and  C7_11 
REMARK    4  A    between atoms: C7_11  and  C8_12 
REMARK    5  A    between atoms: C7_11  and  C9_17 
ROOT
HETATM    1  C6  UNL     1     102.690  17.817  16.321  1.00  0.00     0.212 C 
HETATM    2  N2  UNL     1     103.195  18.445  15.090  1.00  0.00    -0.301 N 
HETATM    3  C10 UNL     1     103.760  17.336  14.391  1.00  0.00     0.176 C 
HETATM    4  S1  UNL     1     105.086  17.284  13.441  1.00  0.00    -0.041 SA
HETATM    5  N6  UNL     1     102.913  16.202  14.709  1.00  0.00    -0.356 N 
ATOM      6  H6  UNL     1     103.010  15.252  14.354  1.00  0.00     0.162 HD
HETATM    7  C11 UNL     1     101.903  16.682  15.630  1.00  0.00     0.054 C 
HETATM    8  C12 UNL     1     100.733  17.342  14.947  1.00  0.00     0.041 C 
HETATM    9  C13 UNL     1     101.397  15.662  16.580  1.00  0.00     0.041 C 
ENDROOT
BRANCH   2  10
HETATM   10  C7  UNL     1     103.150  19.792  14.660  1.00  0.00     0.144 C 
BRANCH  10  11
HETATM   11  C8  UNL     1     104.221  20.699  15.022  1.00  0.00     0.142 C 
HETATM   12  N3  UNL     1     104.128  21.963  15.014  1.00  0.00    -0.386 N 
ATOM     13  H32 UNL     1     103.225  22.347  14.735  1.00  0.00     0.157 HD
ATOM     14  H31 UNL     1     104.882  22.601  15.269  1.00  0.00     0.157 HD
HETATM   15  N4  UNL     1     105.479  20.164  15.411  1.00  0.00    -0.081 NA
ENDBRANCH  10  11
BRANCH  10  16
HETATM   16  C9  UNL     1     102.671  19.934  13.270  1.00  0.00     0.285 C 
HETATM   17  N5  UNL     1     103.528  20.528  12.291  1.00  0.00    -0.056 NA
HETATM   18  O2  UNL     1     101.547  19.570  12.859  1.00  0.00    -0.269 OA
ENDBRANCH  10  16
ENDBRANCH   2  10
BRANCH   1  19
HETATM   19  C5  UNL     1     103.803  17.273  17.085  1.00  0.00     0.244 C 
HETATM   20  N1  UNL     1     103.985  17.471  18.481  1.00  0.00    -0.351 N 
ATOM     21  H1  UNL     1     103.295  18.029  18.983  1.00  0.00     0.163 HD
HETATM   22  O1  UNL     1     104.681  16.582  16.524  1.00  0.00    -0.271 OA
BRANCH  20  23
HETATM   23  C2  UNL     1     105.091  16.927  19.222  1.00  0.00     0.022 C 
HETATM   24  C1  UNL     1     106.419  17.447  18.683  1.00  0.00     0.037 C 
HETATM   25  C3  UNL     1     105.131  15.407  19.140  1.00  0.00     0.037 C 
HETATM   26  C4  UNL     1     105.057  17.299  20.681  1.00  0.00     0.037 C 
ENDBRANCH  20  23
ENDBRANCH   1  19
TORSDOF 5
ENDMDL
MODEL 4
REMARK VINA RESULT: -6.079136617      2.928      6.099
REMARK  5 active torsions:
REMARK  status: ('A' for Active; 'I' for Inactive)
REMARK    1  A    between atoms: C2_2  and  N1_5 
REMARK       I    between atoms: N1_5  and  C5_7 
REMARK    2  A    between atoms: C5_7  and  C6_9 
REMARK    3  A    between atoms: N2_10  and  C7_11 
REMARK    4  A    between atoms: C7_11  and  C8_12 
REMARK    5  A    between atoms: C7_11  and  C9_17 
ROOT
HETATM    1  C6  UNL     1     103.389  20.198  13.120  1.00  0.00     0.212 C 
HETATM    2  N2  UNL     1     103.833  19.203  14.109  1.00  0.00    -0.301 N 
HETATM    3  C10 UNL     1     104.797  19.935  14.866  1.00  0.00     0.176 C 
HETATM    4  S1  UNL     1     106.187  19.412  15.544  1.00  0.00    -0.041 SA
HETATM    5  N6  UNL     1     104.304  21.298  14.910  1.00  0.00    -0.356 N 
ATOM      6  H6  UNL     1     104.733  22.084  15.397  1.00  0.00     0.162 HD
HETATM    7  C11 UNL     1     103.085  21.327  14.129  1.00  0.00     0.054 C 
HETATM    8  C12 UNL     1     101.869  20.880  14.898  1.00  0.00     0.041 C 
HETATM    9  C13 UNL     1     102.797  22.628  13.478  1.00  0.00     0.041 C 
ENDROOT
BRANCH   2  10
HETATM   10  C7  UNL     1     103.433  17.860  14.305  1.00  0.00     0.144 C 
BRANCH  10  11
HETATM   11  C8  UNL     1     104.359  16.784  14.011  1.00  0.00     0.142 C 
HETATM   12  N3  UNL     1     104.445  15.707  14.674  1.00  0.00    -0.386 N 
ATOM     13  H32 UNL     1     103.804  15.610  15.461  1.00  0.00     0.157 HD
ATOM     14  H31 UNL     1     105.096  14.950  14.467  1.00  0.00     0.157 HD
HETATM   15  N4  UNL     1     105.252  16.919  12.914  1.00  0.00    -0.081 NA
ENDBRANCH  10  11
BRANCH  10  16
HETATM   16  C9  UNL     1     102.647  17.671  15.541  1.00  0.00     0.285 C 
HETATM   17  N5  UNL     1     101.241  17.428  15.446  1.00  0.00    -0.056 NA
HETATM   18  O2  UNL     1     103.115  17.707  16.700  1.00  0.00    -0.269 OA
ENDBRANCH  10  16
ENDBRANCH   2  10
BRANCH   1  19
HETATM   19  C5  UNL     1     104.505  20.568  12.263  1.00  0.00     0.244 C 
HETATM   20  N1  UNL     1     105.572  19.692  11.918  1.00  0.00    -0.351 N 
ATOM     21  H1  UNL     1     105.557  18.743  12.293  1.00  0.00     0.163 HD
HETATM   22  O1  UNL     1     104.579  21.716  11.775  1.00  0.00    -0.271 OA
BRANCH  20  23
HETATM   23  C2  UNL     1     106.668  20.072  11.070  1.00  0.00     0.022 C 
HETATM   24  C1  UNL     1     107.656  18.922  10.906  1.00  0.00     0.037 C 
HETATM   25  C3  UNL     1     107.439  21.255  11.641  1.00  0.00     0.037 C 
HETATM   26  C4  UNL     1     106.230  20.449   9.680  1.00  0.00     0.037 C 
ENDBRANCH  20  23
ENDBRANCH   1  19
TORSDOF 5
ENDMDL
MODEL 5
REMARK VINA RESULT: -5.991681637      8.932     10.977
REMARK  5 active torsions:
REMARK  status: ('A' for Active; 'I' for Inactive)
REMARK    1  A    between atoms: C2_2  and  N1_5 
REMARK       I    between atoms: N1_5  and  C5_7 
REMARK    2  A    between atoms: C5_7  and  C6_9 
REMARK    3  A    between atoms: N2_10  and  C7_11 
REMARK    4  A    between atoms: C7_11  and  C8_12 
REMARK    5  A    between atoms: C7_11  and  C9_17 
ROOT
HETATM    1  C6  UNL     1     111.034  21.031  11.721  1.00  0.00     0.212 C 
HETATM    2  N2  UNL     1     112.396  20.475  11.716  1.00  0.00    -0.301 N 
HETATM    3  C10 UNL     1     112.878  20.860  10.429  1.00  0.00     0.176 C 
HETATM    4  S1  UNL     1     113.871  20.051   9.416  1.00  0.00    -0.041 SA
HETATM    5  N6  UNL     1     112.282  22.154  10.160  1.00  0.00    -0.356 N 
ATOM      6  H6  UNL     1     112.435  22.735   9.337  1.00  0.00     0.162 HD
HETATM    7  C11 UNL     1     111.425  22.461  11.287  1.00  0.00     0.054 C 
HETATM    8  C12 UNL     1     112.164  23.062  12.455  1.00  0.00     0.041 C 
HETATM    9  C13 UNL     1     110.255  23.312  10.963  1.00  0.00     0.041 C 
ENDROOT
BRANCH   2  10
HETATM   10  C7  UNL     1     113.096  19.747  12.707  1.00  0.00     0.144 C 
BRANCH  10  11
HETATM   11  C8  UNL     1     113.150  18.301  12.633  1.00  0.00     0.142 C 
HETATM   12  N3  UNL     1     114.218  17.617  12.659  1.00  0.00    -0.386 N 
ATOM     13  H32 UNL     1     115.087  18.143  12.744  1.00  0.00     0.157 HD
ATOM     14  H31 UNL     1     114.256  16.600  12.607  1.00  0.00     0.157 HD
HETATM   15  N4  UNL     1     111.938  17.567  12.515  1.00  0.00    -0.081 NA
ENDBRANCH  10  11
BRANCH  10  16
HETATM   16  C9  UNL     1     114.368  20.389  13.098  1.00  0.00     0.285 C 
HETATM   17  N5  UNL     1     114.389  21.274  14.221  1.00  0.00    -0.056 NA
HETATM   18  O2  UNL     1     115.462  20.223  12.516  1.00  0.00    -0.269 OA
ENDBRANCH  10  16
ENDBRANCH   2  10
BRANCH   1  19
HETATM   19  C5  UNL     1     110.239  20.385  10.688  1.00  0.00     0.244 C 
HETATM   20  N1  UNL     1     110.287  18.995  10.395  1.00  0.00    -0.351 N 
ATOM     21  H1  UNL     1     110.919  18.408  10.941  1.00  0.00     0.163 HD
HETATM   22  O1  UNL     1     109.448  21.052   9.985  1.00  0.00    -0.271 OA
BRANCH  20  23
HETATM   23  C2  UNL     1     109.494  18.371   9.370  1.00  0.00     0.022 C 
HETATM   24  C1  UNL     1     109.837  16.891   9.239  1.00  0.00     0.037 C 
HETATM   25  C3  UNL     1     109.725  19.013   8.009  1.00  0.00     0.037 C 
HETATM   26  C4  UNL     1     108.017  18.435   9.654  1.00  0.00     0.037 C 
ENDBRANCH  20  23
ENDBRANCH   1  19
TORSDOF 5
ENDMDL
