MODEL 1
REMARK VINA RESULT: -8.633248181      0.000      0.000
REMARK  6 active torsions:
REMARK  status: ('A' for Active; 'I' for Inactive)
REMARK       I    between atoms: C2_4  and  N2_5 
REMARK       I    between atoms: C2_4  and  N3_17 
REMARK    1  A    between atoms: N2_5  and  C3_7 
REMARK    2  A    between atoms: C3_7  and  C4_8 
REMARK    3  A    between atoms: C7_11  and  C8_12 
REMARK    4  A    between atoms: N3_17  and  N4_19 
REMARK       I    between atoms: N4_19  and  C11_21 
REMARK    5  A    between atoms: C11_21  and  C12_23 
REMARK    6  A    between atoms: C12_23  and  N5_25 
REMARK       I    between atoms: N5_25  and  C14_27 
ROOT
HETATM    1  C1  UNL     1     107.955  18.396  11.711  1.00  0.00     0.165 C 
HETATM    2  N1  UNL     1     107.798  18.360  13.124  1.00  0.00    -0.229 N 
ATOM      3  H1  UNL     1     107.287  17.553  13.483  1.00  0.00     0.177 HD
HETATM    4  C2  UNL     1     108.195  19.177  14.004  1.00  0.00     0.688 C 
HETATM    5  N2  UNL     1     107.941  18.970  15.393  1.00  0.00    -0.221 N 
ATOM      6  H2  UNL     1     108.759  18.945  16.003  1.00  0.00     0.178 HD
HETATM    7  N3  UNL     1     108.922  20.353  13.662  1.00  0.00    -0.130 N 
ATOM      8  H3  UNL     1     108.409  21.232  13.591  1.00  0.00     0.205 HD
ENDROOT
BRANCH   5   9
HETATM    9  C3  UNL     1     106.689  18.796  16.019  1.00  0.00     0.176 C 
BRANCH   9  10
HETATM   10  C4  UNL     1     106.870  18.506  17.456  1.00  0.00    -0.040 A 
HETATM   11  C5  UNL     1     105.820  17.940  18.173  1.00  0.00     0.010 A 
HETATM   12  C6  UNL     1     105.912  17.649  19.516  1.00  0.00     0.019 A 
HETATM   13  C7  UNL     1     107.104  17.935  20.175  1.00  0.00     0.040 A 
HETATM   14  C9  UNL     1     108.158  18.494  19.493  1.00  0.00     0.019 A 
HETATM   15  C10 UNL     1     108.011  18.766  18.145  1.00  0.00     0.010 A 
BRANCH  13  16
HETATM   16  C8  UNL     1     107.232  17.657  21.587  1.00  0.00     0.209 C 
HETATM   17  O1  UNL     1     108.397  17.574  22.077  1.00  0.00    -0.644 OA
HETATM   18  O2  UNL     1     106.111  17.494  22.357  1.00  0.00    -0.644 OA
ENDBRANCH  13  16
ENDBRANCH   9  10
ENDBRANCH   5   9
BRANCH   7  19
HETATM   19  N4  UNL     1     110.287  20.371  13.421  1.00  0.00    -0.254 N 
HETATM   20  C11 UNL     1     110.990  21.566  13.187  1.00  0.00     0.259 C 
HETATM   21  O3  UNL     1     110.300  22.651  13.204  1.00  0.00    -0.269 OA
ATOM     22  H4  UNL     1     110.798  19.488  13.413  1.00  0.00     0.190 HD
BRANCH  20  23
HETATM   23  C12 UNL     1     112.414  21.718  12.931  1.00  0.00     0.174 C 
HETATM   24  C13 UNL     1     112.697  22.307  11.552  1.00  0.00     0.042 C 
BRANCH  23  25
HETATM   25  N5  UNL     1     113.125  20.486  13.061  1.00  0.00    -0.348 N 
HETATM   26  C14 UNL     1     114.341  20.425  13.764  1.00  0.00     0.214 C 
HETATM   27  C15 UNL     1     115.081  19.156  13.907  1.00  0.00     0.117 C 
HETATM   28  O4  UNL     1     114.801  21.491  14.283  1.00  0.00    -0.274 OA
ATOM     29  H5  UNL     1     112.746  19.639  12.639  1.00  0.00     0.163 HD
ENDBRANCH  23  25
ENDBRANCH  20  23
ENDBRANCH   7  19
TORSDOF 6
ENDMDL
MODEL 2
REMARK VINA RESULT: -8.469857084      5.283      8.120
REMARK  6 active torsions:
REMARK  status: ('A' for Active; 'I' for Inactive)
REMARK       I    between atoms: C2_4  and  N2_5 
REMARK       I    between atoms: C2_4  and  N3_17 
REMARK    1  A    between atoms: N2_5  and  C3_7 
REMARK    2  A    between atoms: C3_7  and  C4_8 
REMARK    3  A    between atoms: C7_11  and  C8_12 
REMARK    4  A    between atoms: N3_17  and  N4_19 
REMARK       I    between atoms: N4_19  and  C11_21 
REMARK    5  A    between atoms: C11_21  and  C12_23 
REMARK    6  A    between atoms: C12_23  and  N5_25 
REMARK       I    between atoms: N5_25  and  C14_27 
ROOT
HETATM    1  C1  UNL     1     105.790  20.531  14.245  1.00  0.00     0.165 C 
HETATM    2  N1  UNL     1     106.076  19.930  15.503  1.00  0.00    -0.229 N 
ATOM      3  H1  UNL     1     106.541  20.538  16.177  1.00  0.00     0.177 HD
HETATM    4  C2  UNL     1     105.842  18.757  15.911  1.00  0.00     0.688 C 
HETATM    5  N2  UNL     1     106.206  18.330  17.224  1.00  0.00    -0.221 N 
ATOM      6  H2  UNL     1     105.451  17.967  17.807  1.00  0.00     0.178 HD
HETATM    7  N3  UNL     1     105.200  17.789  15.087  1.00  0.00    -0.130 N 
ATOM      8  H3  UNL     1     105.783  17.114  14.592  1.00  0.00     0.205 HD
ENDROOT
BRANCH   5   9
HETATM    9  C3  UNL     1     107.491  18.353  17.807  1.00  0.00     0.176 C 
BRANCH   9  10
HETATM   10  C4  UNL     1     107.391  18.193  19.273  1.00  0.00    -0.040 A 
HETATM   11  C5  UNL     1     106.235  17.646  19.821  1.00  0.00     0.010 A 
HETATM   12  C6  UNL     1     106.067  17.474  21.176  1.00  0.00     0.019 A 
HETATM   13  C7  UNL     1     107.098  17.864  22.025  1.00  0.00     0.040 A 
HETATM   14  C9  UNL     1     108.253  18.407  21.514  1.00  0.00     0.019 A 
HETATM   15  C10 UNL     1     108.367  18.557  20.143  1.00  0.00     0.010 A 
BRANCH  13  16
HETATM   16  C8  UNL     1     106.952  17.711  23.455  1.00  0.00     0.209 C 
HETATM   17  O1  UNL     1     107.967  17.914  24.185  1.00  0.00    -0.644 OA
HETATM   18  O2  UNL     1     105.739  17.359  23.985  1.00  0.00    -0.644 OA
ENDBRANCH  13  16
ENDBRANCH   9  10
ENDBRANCH   5   9
BRANCH   7  19
HETATM   19  N4  UNL     1     103.825  17.711  14.921  1.00  0.00    -0.254 N 
HETATM   20  C11 UNL     1     102.985  17.143  15.894  1.00  0.00     0.259 C 
HETATM   21  O3  UNL     1     103.556  16.691  16.954  1.00  0.00    -0.269 OA
ATOM     22  H4  UNL     1     103.410  18.078  14.064  1.00  0.00     0.190 HD
BRANCH  20  23
HETATM   23  C12 UNL     1     101.537  17.010  15.843  1.00  0.00     0.174 C 
HETATM   24  C13 UNL     1     101.083  15.555  15.931  1.00  0.00     0.042 C 
BRANCH  23  25
HETATM   25  N5  UNL     1     100.978  17.597  14.666  1.00  0.00    -0.348 N 
HETATM   26  C14 UNL     1      99.703  18.189  14.691  1.00  0.00     0.214 C 
HETATM   27  C15 UNL     1      99.119  18.801  13.482  1.00  0.00     0.117 C 
HETATM   28  O4  UNL     1      99.051  18.190  15.783  1.00  0.00    -0.274 OA
ATOM     29  H5  UNL     1     101.510  17.586  13.797  1.00  0.00     0.163 HD
ENDBRANCH  23  25
ENDBRANCH  20  23
ENDBRANCH   7  19
TORSDOF 6
ENDMDL
MODEL 3
REMARK VINA RESULT: -8.438954550      2.731      3.988
REMARK  6 active torsions:
REMARK  status: ('A' for Active; 'I' for Inactive)
REMARK       I    between atoms: C2_4  and  N2_5 
REMARK       I    between atoms: C2_4  and  N3_17 
REMARK    1  A    between atoms: N2_5  and  C3_7 
REMARK    2  A    between atoms: C3_7  and  C4_8 
REMARK    3  A    between atoms: C7_11  and  C8_12 
REMARK    4  A    between atoms: N3_17  and  N4_19 
REMARK       I    between atoms: N4_19  and  C11_21 
REMARK    5  A    between atoms: C11_21  and  C12_23 
REMARK    6  A    between atoms: C12_23  and  N5_25 
REMARK       I    between atoms: N5_25  and  C14_27 
ROOT
HETATM    1  C1  UNL     1     102.512  20.312  14.579  1.00  0.00     0.165 C 
HETATM    2  N1  UNL     1     103.128  19.291  15.355  1.00  0.00    -0.229 N 
ATOM      3  H1  UNL     1     102.511  18.527  15.632  1.00  0.00     0.177 HD
HETATM    4  C2  UNL     1     104.323  19.186  15.752  1.00  0.00     0.688 C 
HETATM    5  N2  UNL     1     104.763  18.073  16.530  1.00  0.00    -0.221 N 
ATOM      6  H2  UNL     1     105.545  17.538  16.152  1.00  0.00     0.178 HD
HETATM    7  N3  UNL     1     105.305  20.171  15.448  1.00  0.00    -0.130 N 
ATOM      8  H3  UNL     1     105.511  20.880  16.152  1.00  0.00     0.205 HD
ENDROOT
BRANCH   5   9
HETATM    9  C3  UNL     1     104.239  17.628  17.763  1.00  0.00     0.176 C 
BRANCH   9  10
HETATM   10  C4  UNL     1     105.283  17.669  18.808  1.00  0.00    -0.040 A 
HETATM   11  C5  UNL     1     106.566  18.090  18.472  1.00  0.00     0.010 A 
HETATM   12  C6  UNL     1     107.590  18.147  19.390  1.00  0.00     0.019 A 
HETATM   13  C7  UNL     1     107.325  17.767  20.702  1.00  0.00     0.040 A 
HETATM   14  C9  UNL     1     106.068  17.346  21.064  1.00  0.00     0.019 A 
HETATM   15  C10 UNL     1     105.076  17.309  20.100  1.00  0.00     0.010 A 
BRANCH  13  16
HETATM   16  C8  UNL     1     108.380  17.799  21.690  1.00  0.00     0.209 C 
HETATM   17  O1  UNL     1     109.576  17.679  21.292  1.00  0.00    -0.644 OA
HETATM   18  O2  UNL     1     108.071  17.960  23.015  1.00  0.00    -0.644 OA
ENDBRANCH  13  16
ENDBRANCH   9  10
ENDBRANCH   5   9
BRANCH   7  19
HETATM   19  N4  UNL     1     105.997  20.222  14.247  1.00  0.00    -0.254 N 
HETATM   20  C11 UNL     1     107.192  19.509  14.042  1.00  0.00     0.259 C 
HETATM   21  O3  UNL     1     107.617  18.804  15.030  1.00  0.00    -0.269 OA
ATOM     22  H4  UNL     1     105.628  20.795  13.488  1.00  0.00     0.190 HD
BRANCH  20  23
HETATM   23  C12 UNL     1     108.002  19.473  12.835  1.00  0.00     0.174 C 
HETATM   24  C13 UNL     1     107.156  19.372  11.568  1.00  0.00     0.042 C 
BRANCH  23  25
HETATM   25  N5  UNL     1     108.946  18.400  12.845  1.00  0.00    -0.348 N 
HETATM   26  C14 UNL     1     110.276  18.605  12.441  1.00  0.00     0.214 C 
HETATM   27  C15 UNL     1     111.259  17.503  12.452  1.00  0.00     0.117 C 
HETATM   28  O4  UNL     1     110.627  19.766  12.061  1.00  0.00    -0.274 OA
ATOM     29  H5  UNL     1     108.650  17.473  13.149  1.00  0.00     0.163 HD
ENDBRANCH  23  25
ENDBRANCH  20  23
ENDBRANCH   7  19
TORSDOF 6
ENDMDL
MODEL 4
REMARK VINA RESULT: -8.274146733      2.682      3.438
REMARK  6 active torsions:
REMARK  status: ('A' for Active; 'I' for Inactive)
REMARK       I    between atoms: C2_4  and  N2_5 
REMARK       I    between atoms: C2_4  and  N3_17 
REMARK    1  A    between atoms: N2_5  and  C3_7 
REMARK    2  A    between atoms: C3_7  and  C4_8 
REMARK    3  A    between atoms: C7_11  and  C8_12 
REMARK    4  A    between atoms: N3_17  and  N4_19 
REMARK       I    between atoms: N4_19  and  C11_21 
REMARK    5  A    between atoms: C11_21  and  C12_23 
REMARK    6  A    between atoms: C12_23  and  N5_25 
REMARK       I    between atoms: N5_25  and  C14_27 
ROOT
HETATM    1  C1  UNL     1     104.132  19.969  13.281  1.00  0.00     0.165 C 
HETATM    2  N1  UNL     1     104.282  19.084  14.385  1.00  0.00    -0.229 N 
ATOM      3  H1  UNL     1     103.410  18.719  14.769  1.00  0.00     0.177 HD
HETATM    4  C2  UNL     1     105.332  18.679  14.962  1.00  0.00     0.688 C 
HETATM    5  N2  UNL     1     105.284  17.778  16.067  1.00  0.00    -0.221 N 
ATOM      6  H2  UNL     1     105.807  16.908  15.964  1.00  0.00     0.178 HD
HETATM    7  N3  UNL     1     106.627  19.098  14.544  1.00  0.00    -0.130 N 
ATOM      8  H3  UNL     1     107.073  19.863  15.050  1.00  0.00     0.205 HD
ENDROOT
BRANCH   5   9
HETATM    9  C3  UNL     1     104.596  17.953  17.287  1.00  0.00     0.176 C 
BRANCH   9  10
HETATM   10  C4  UNL     1     105.540  17.898  18.421  1.00  0.00    -0.040 A 
HETATM   11  C5  UNL     1     106.862  18.289  18.226  1.00  0.00     0.010 A 
HETATM   12  C6  UNL     1     107.800  18.258  19.233  1.00  0.00     0.019 A 
HETATM   13  C7  UNL     1     107.405  17.817  20.492  1.00  0.00     0.040 A 
HETATM   14  C9  UNL     1     106.106  17.425  20.716  1.00  0.00     0.019 A 
HETATM   15  C10 UNL     1     105.205  17.477  19.668  1.00  0.00     0.010 A 
BRANCH  13  16
HETATM   16  C8  UNL     1     108.365  17.757  21.570  1.00  0.00     0.209 C 
HETATM   17  O1  UNL     1     107.953  17.955  22.751  1.00  0.00    -0.644 OA
HETATM   18  O2  UNL     1     109.681  17.489  21.300  1.00  0.00    -0.644 OA
ENDBRANCH  13  16
ENDBRANCH   9  10
ENDBRANCH   5   9
BRANCH   7  19
HETATM   19  N4  UNL     1     107.317  18.525  13.486  1.00  0.00    -0.254 N 
HETATM   20  C11 UNL     1     108.121  19.284  12.618  1.00  0.00     0.259 C 
HETATM   21  O3  UNL     1     108.185  20.547  12.851  1.00  0.00    -0.269 OA
ATOM     22  H4  UNL     1     107.238  17.519  13.333  1.00  0.00     0.190 HD
BRANCH  20  23
HETATM   23  C12 UNL     1     108.896  18.803  11.484  1.00  0.00     0.174 C 
HETATM   24  C13 UNL     1     108.013  18.387  10.310  1.00  0.00     0.042 C 
BRANCH  23  25
HETATM   25  N5  UNL     1     109.747  17.710  11.831  1.00  0.00    -0.348 N 
HETATM   26  C14 UNL     1     111.065  17.930  12.266  1.00  0.00     0.214 C 
HETATM   27  C15 UNL     1     111.950  16.806  12.629  1.00  0.00     0.117 C 
HETATM   28  O4  UNL     1     111.491  19.126  12.343  1.00  0.00    -0.274 OA
ATOM     29  H5  UNL     1     109.393  16.756  11.762  1.00  0.00     0.163 HD
ENDBRANCH  23  25
ENDBRANCH  20  23
ENDBRANCH   7  19
TORSDOF 6
ENDMDL
MODEL 5
REMARK VINA RESULT: -8.251892862      3.358      4.512
REMARK  6 active torsions:
REMARK  status: ('A' for Active; 'I' for Inactive)
REMARK       I    between atoms: C2_4  and  N2_5 
REMARK       I    between atoms: C2_4  and  N3_17 
REMARK    1  A    between atoms: N2_5  and  C3_7 
REMARK    2  A    between atoms: C3_7  and  C4_8 
REMARK    3  A    between atoms: C7_11  and  C8_12 
REMARK    4  A    between atoms: N3_17  and  N4_19 
REMARK       I    between atoms: N4_19  and  C11_21 
REMARK    5  A    between atoms: C11_21  and  C12_23 
REMARK    6  A    between atoms: C12_23  and  N5_25 
REMARK       I    between atoms: N5_25  and  C14_27 
ROOT
HETATM    1  C1  UNL     1     102.598  20.150  14.369  1.00  0.00     0.165 C 
HETATM    2  N1  UNL     1     103.235  19.176  15.186  1.00  0.00    -0.229 N 
ATOM      3  H1  UNL     1     102.652  18.379  15.444  1.00  0.00     0.177 HD
HETATM    4  C2  UNL     1     104.414  19.147  15.642  1.00  0.00     0.688 C 
HETATM    5  N2  UNL     1     104.881  18.071  16.455  1.00  0.00    -0.221 N 
ATOM      6  H2  UNL     1     105.711  17.580  16.122  1.00  0.00     0.178 HD
HETATM    7  N3  UNL     1     105.349  20.187  15.372  1.00  0.00    -0.130 N 
ATOM      8  H3  UNL     1     105.478  20.914  16.076  1.00  0.00     0.205 HD
ENDROOT
BRANCH   5   9
HETATM    9  C3  UNL     1     104.325  17.609  17.667  1.00  0.00     0.176 C 
BRANCH   9  10
HETATM   10  C4  UNL     1     105.331  17.665  18.747  1.00  0.00    -0.040 A 
HETATM   11  C5  UNL     1     106.622  18.094  18.453  1.00  0.00     0.010 A 
HETATM   12  C6  UNL     1     107.614  18.166  19.405  1.00  0.00     0.019 A 
HETATM   13  C7  UNL     1     107.307  17.792  20.710  1.00  0.00     0.040 A 
HETATM   14  C9  UNL     1     106.041  17.364  21.031  1.00  0.00     0.019 A 
HETATM   15  C10 UNL     1     105.083  17.312  20.034  1.00  0.00     0.010 A 
BRANCH  13  16
HETATM   16  C8  UNL     1     108.326  17.841  21.733  1.00  0.00     0.209 C 
HETATM   17  O1  UNL     1     109.536  17.723  21.378  1.00  0.00    -0.644 OA
HETATM   18  O2  UNL     1     107.971  18.012  23.045  1.00  0.00    -0.644 OA
ENDBRANCH  13  16
ENDBRANCH   9  10
ENDBRANCH   5   9
BRANCH   7  19
HETATM   19  N4  UNL     1     106.095  20.266  14.206  1.00  0.00    -0.254 N 
HETATM   20  C11 UNL     1     107.302  19.565  14.040  1.00  0.00     0.259 C 
HETATM   21  O3  UNL     1     107.686  18.842  15.031  1.00  0.00    -0.269 OA
ATOM     22  H4  UNL     1     105.757  20.853  13.443  1.00  0.00     0.190 HD
BRANCH  20  23
HETATM   23  C12 UNL     1     108.167  19.558  12.871  1.00  0.00     0.174 C 
HETATM   24  C13 UNL     1     109.009  20.827  12.762  1.00  0.00     0.042 C 
BRANCH  23  25
HETATM   25  N5  UNL     1     107.438  19.383  11.655  1.00  0.00    -0.348 N 
HETATM   26  C14 UNL     1     107.941  18.577  10.620  1.00  0.00     0.214 C 
HETATM   27  C15 UNL     1     107.193  18.388   9.362  1.00  0.00     0.117 C 
HETATM   28  O4  UNL     1     109.065  18.004  10.784  1.00  0.00    -0.274 OA
ATOM     29  H5  UNL     1     106.539  19.851  11.536  1.00  0.00     0.163 HD
ENDBRANCH  23  25
ENDBRANCH  20  23
ENDBRANCH   7  19
TORSDOF 6
ENDMDL
