MODEL 1
REMARK VINA RESULT: -6.538109858      0.000      0.000
REMARK  6 active torsions:
REMARK  status: ('A' for Active; 'I' for Inactive)
REMARK    1  A    between atoms: S1_2  and  N1_5 
REMARK    2  A    between atoms: N1_5  and  C2_7 
REMARK    3  A    between atoms: C3_8  and  O3_9 
REMARK    4  A    between atoms: C6_13  and  N2_14 
REMARK       I    between atoms: N2_14  and  C7_16 
REMARK       I    between atoms: C7_16  and  N3_18 
REMARK    5  A    between atoms: N3_18  and  C8_20 
REMARK    6  A    between atoms: C13_25  and  O5_26 
ROOT
HETATM    1  N2  UNL     1     102.794  18.456  14.171  1.00  0.00    -0.336 N 
ATOM      2  H2  UNL     1     103.313  19.136  13.615  1.00  0.00     0.164 HD
HETATM    3  C7  UNL     1     101.413  18.654  14.428  1.00  0.00     0.316 C 
HETATM    4  O4  UNL     1     100.802  17.806  15.112  1.00  0.00    -0.247 OA
HETATM    5  N3  UNL     1     100.708  19.777  13.936  1.00  0.00    -0.336 N 
ATOM      6  H3  UNL     1     101.191  20.480  13.376  1.00  0.00     0.164 HD
ENDROOT
BRANCH   1   7
HETATM    7  C6  UNL     1     103.454  17.302  14.694  1.00  0.00     0.112 C 
HETATM    8  C2  UNL     1     104.061  17.519  16.060  1.00  0.00     0.144 C 
HETATM    9  C3  UNL     1     105.455  18.039  15.811  1.00  0.00     0.143 C 
HETATM   10  C4  UNL     1     105.778  17.752  14.374  1.00  0.00     0.036 C 
HETATM   11  C5  UNL     1     104.635  16.944  13.849  1.00  0.00     0.030 C 
BRANCH   8  12
HETATM   12  N1  UNL     1     104.100  16.249  16.730  1.00  0.00    -0.310 N 
ATOM     13  H1  UNL     1     104.661  15.460  16.409  1.00  0.00     0.172 HD
BRANCH  12  14
HETATM   14  S1  UNL     1     103.101  16.194  18.132  1.00  0.00     0.223 S 
HETATM   15  C1  UNL     1     103.592  14.897  19.212  1.00  0.00     0.185 C 
HETATM   16  O1  UNL     1     101.654  16.045  17.786  1.00  0.00    -0.206 OA
HETATM   17  O2  UNL     1     103.260  17.506  18.846  1.00  0.00    -0.206 OA
ENDBRANCH  12  14
ENDBRANCH   8  12
BRANCH   9  18
HETATM   18  O3  UNL     1     105.473  19.419  16.081  1.00  0.00    -0.393 OA
ATOM     19  H3  UNL     1     106.352  19.665  16.342  1.00  0.00     0.210 HD
ENDBRANCH   9  18
ENDBRANCH   1   7
BRANCH   5  20
HETATM   20  C8  UNL     1      99.322  19.922  14.227  1.00  0.00     0.115 C 
HETATM   21  C9  UNL     1      98.454  19.848  12.950  1.00  0.00     0.033 C 
HETATM   22  C10 UNL     1      97.397  20.797  13.356  1.00  0.00    -0.006 A 
HETATM   23  C11 UNL     1      97.140  22.155  13.127  1.00  0.00     0.012 A 
HETATM   24  C12 UNL     1      98.433  21.963  13.637  1.00  0.00     0.021 A 
HETATM   25  C13 UNL     1      99.000  21.306  14.830  1.00  0.00     0.145 C 
BRANCH  25  26
HETATM   26  O5  UNL     1     100.219  21.906  15.159  1.00  0.00    -0.393 OA
ATOM     27  H5  UNL     1     100.157  22.188  16.064  1.00  0.00     0.210 HD
ENDBRANCH  25  26
ENDBRANCH   5  20
TORSDOF 6
ENDMDL
MODEL 2
REMARK VINA RESULT: -6.491277801      5.837      8.979
REMARK  6 active torsions:
REMARK  status: ('A' for Active; 'I' for Inactive)
REMARK    1  A    between atoms: S1_2  and  N1_5 
REMARK    2  A    between atoms: N1_5  and  C2_7 
REMARK    3  A    between atoms: C3_8  and  O3_9 
REMARK    4  A    between atoms: C6_13  and  N2_14 
REMARK       I    between atoms: N2_14  and  C7_16 
REMARK       I    between atoms: C7_16  and  N3_18 
REMARK    5  A    between atoms: N3_18  and  C8_20 
REMARK    6  A    between atoms: C13_25  and  O5_26 
ROOT
HETATM    1  N2  UNL     1     107.525  19.112  16.939  1.00  0.00    -0.336 N 
ATOM      2  H2  UNL     1     108.038  19.976  17.113  1.00  0.00     0.164 HD
HETATM    3  C7  UNL     1     107.280  18.204  18.000  1.00  0.00     0.316 C 
HETATM    4  O4  UNL     1     106.649  17.154  17.758  1.00  0.00    -0.247 OA
HETATM    5  N3  UNL     1     107.726  18.448  19.320  1.00  0.00    -0.336 N 
ATOM      6  H3  UNL     1     108.243  19.301  19.536  1.00  0.00     0.164 HD
ENDROOT
BRANCH   1   7
HETATM    7  C6  UNL     1     107.050  18.811  15.625  1.00  0.00     0.112 C 
HETATM    8  C2  UNL     1     107.828  19.499  14.528  1.00  0.00     0.144 C 
HETATM    9  C3  UNL     1     107.154  20.833  14.322  1.00  0.00     0.143 C 
HETATM   10  C4  UNL     1     105.810  20.750  14.985  1.00  0.00     0.036 C 
HETATM   11  C5  UNL     1     105.661  19.333  15.436  1.00  0.00     0.030 C 
BRANCH   8  12
HETATM   12  N1  UNL     1     107.731  18.688  13.346  1.00  0.00    -0.310 N 
ATOM     13  H1  UNL     1     107.035  17.952  13.225  1.00  0.00     0.172 HD
BRANCH  12  14
HETATM   14  S1  UNL     1     108.910  19.086  12.156  1.00  0.00     0.223 S 
HETATM   15  C1  UNL     1     110.359  19.753  12.893  1.00  0.00     0.185 C 
HETATM   16  O1  UNL     1     108.377  20.038  11.133  1.00  0.00    -0.206 OA
HETATM   17  O2  UNL     1     109.271  17.814  11.442  1.00  0.00    -0.206 OA
ENDBRANCH  12  14
ENDBRANCH   8  12
BRANCH   9  18
HETATM   18  O3  UNL     1     107.956  21.834  14.900  1.00  0.00    -0.393 OA
ATOM     19  H3  UNL     1     107.720  21.919  15.816  1.00  0.00     0.210 HD
ENDBRANCH   9  18
ENDBRANCH   1   7
BRANCH   5  20
HETATM   20  C8  UNL     1     107.450  17.499  20.344  1.00  0.00     0.115 C 
HETATM   21  C9  UNL     1     106.043  17.701  20.953  1.00  0.00     0.033 C 
HETATM   22  C10 UNL     1     106.352  17.296  22.340  1.00  0.00    -0.006 A 
HETATM   23  C11 UNL     1     106.667  17.971  23.526  1.00  0.00     0.012 A 
HETATM   24  C12 UNL     1     107.520  18.357  22.481  1.00  0.00     0.021 A 
HETATM   25  C13 UNL     1     108.411  17.648  21.543  1.00  0.00     0.145 C 
BRANCH  25  26
HETATM   26  O5  UNL     1     109.442  18.502  21.142  1.00  0.00    -0.393 OA
ATOM     27  H5  UNL     1     109.097  19.387  21.163  1.00  0.00     0.210 HD
ENDBRANCH  25  26
ENDBRANCH   5  20
TORSDOF 6
ENDMDL
MODEL 3
REMARK VINA RESULT: -6.480349177      3.211      7.728
REMARK  6 active torsions:
REMARK  status: ('A' for Active; 'I' for Inactive)
REMARK    1  A    between atoms: S1_2  and  N1_5 
REMARK    2  A    between atoms: N1_5  and  C2_7 
REMARK    3  A    between atoms: C3_8  and  O3_9 
REMARK    4  A    between atoms: C6_13  and  N2_14 
REMARK       I    between atoms: N2_14  and  C7_16 
REMARK       I    between atoms: C7_16  and  N3_18 
REMARK    5  A    between atoms: N3_18  and  C8_20 
REMARK    6  A    between atoms: C13_25  and  O5_26 
ROOT
HETATM    1  N2  UNL     1     104.260  16.512  16.577  1.00  0.00    -0.336 N 
ATOM      2  H2  UNL     1     104.152  15.544  16.879  1.00  0.00     0.164 HD
HETATM    3  C7  UNL     1     104.954  17.440  17.395  1.00  0.00     0.316 C 
HETATM    4  O4  UNL     1     105.072  18.618  17.000  1.00  0.00    -0.247 OA
HETATM    5  N3  UNL     1     105.516  17.073  18.640  1.00  0.00    -0.336 N 
ATOM      6  H3  UNL     1     105.430  16.115  18.979  1.00  0.00     0.164 HD
ENDROOT
BRANCH   1   7
HETATM    7  C6  UNL     1     103.713  16.939  15.328  1.00  0.00     0.112 C 
HETATM    8  C2  UNL     1     102.442  17.744  15.467  1.00  0.00     0.144 C 
HETATM    9  C3  UNL     1     101.318  16.738  15.463  1.00  0.00     0.143 C 
HETATM   10  C4  UNL     1     101.886  15.451  14.941  1.00  0.00     0.036 C 
HETATM   11  C5  UNL     1     103.283  15.761  14.512  1.00  0.00     0.030 C 
BRANCH   8  12
HETATM   12  N1  UNL     1     102.350  18.619  14.332  1.00  0.00    -0.310 N 
ATOM     13  H1  UNL     1     102.523  18.317  13.373  1.00  0.00     0.172 HD
BRANCH  12  14
HETATM   14  S1  UNL     1     101.917  20.231  14.755  1.00  0.00     0.223 S 
HETATM   15  C1  UNL     1     102.328  21.359  13.472  1.00  0.00     0.185 C 
HETATM   16  O1  UNL     1     102.555  20.666  16.036  1.00  0.00    -0.206 OA
HETATM   17  O2  UNL     1     100.429  20.254  14.963  1.00  0.00    -0.206 OA
ENDBRANCH  12  14
ENDBRANCH   8  12
BRANCH   9  18
HETATM   18  O3  UNL     1     100.839  16.597  16.779  1.00  0.00    -0.393 OA
ATOM     19  H3  UNL     1      99.989  17.017  16.837  1.00  0.00     0.210 HD
ENDBRANCH   9  18
ENDBRANCH   1   7
BRANCH   5  20
HETATM   20  C8  UNL     1     106.203  18.049  19.417  1.00  0.00     0.115 C 
HETATM   21  C9  UNL     1     107.706  18.112  19.066  1.00  0.00     0.033 C 
HETATM   22  C10 UNL     1     108.226  18.440  20.410  1.00  0.00    -0.006 A 
HETATM   23  C11 UNL     1     108.780  17.706  21.467  1.00  0.00     0.012 A 
HETATM   24  C12 UNL     1     107.541  17.175  21.075  1.00  0.00     0.021 A 
HETATM   25  C13 UNL     1     106.175  17.710  20.923  1.00  0.00     0.145 C 
BRANCH  25  26
HETATM   26  O5  UNL     1     105.247  16.679  21.098  1.00  0.00    -0.393 OA
ATOM     27  H5  UNL     1     105.427  16.280  21.941  1.00  0.00     0.210 HD
ENDBRANCH  25  26
ENDBRANCH   5  20
TORSDOF 6
ENDMDL
MODEL 4
REMARK VINA RESULT: -6.415047889      4.077      7.429
REMARK  6 active torsions:
REMARK  status: ('A' for Active; 'I' for Inactive)
REMARK    1  A    between atoms: S1_2  and  N1_5 
REMARK    2  A    between atoms: N1_5  and  C2_7 
REMARK    3  A    between atoms: C3_8  and  O3_9 
REMARK    4  A    between atoms: C6_13  and  N2_14 
REMARK       I    between atoms: N2_14  and  C7_16 
REMARK       I    between atoms: C7_16  and  N3_18 
REMARK    5  A    between atoms: N3_18  and  C8_20 
REMARK    6  A    between atoms: C13_25  and  O5_26 
ROOT
HETATM    1  N2  UNL     1     106.090  17.703  14.099  1.00  0.00    -0.336 N 
ATOM      2  H2  UNL     1     106.045  16.690  13.981  1.00  0.00     0.164 HD
HETATM    3  C7  UNL     1     106.908  18.483  13.243  1.00  0.00     0.316 C 
HETATM    4  O4  UNL     1     106.944  19.720  13.410  1.00  0.00    -0.247 OA
HETATM    5  N3  UNL     1     107.684  17.907  12.210  1.00  0.00    -0.336 N 
ATOM      6  H3  UNL     1     107.668  16.898  12.059  1.00  0.00     0.164 HD
ENDROOT
BRANCH   1   7
HETATM    7  C6  UNL     1     105.328  18.340  15.126  1.00  0.00     0.112 C 
HETATM    8  C2  UNL     1     104.708  17.374  16.108  1.00  0.00     0.144 C 
HETATM    9  C3  UNL     1     103.366  17.005  15.527  1.00  0.00     0.143 C 
HETATM   10  C4  UNL     1     103.056  18.019  14.465  1.00  0.00     0.036 C 
HETATM   11  C5  UNL     1     104.142  19.042  14.543  1.00  0.00     0.030 C 
BRANCH   8  12
HETATM   12  N1  UNL     1     104.553  18.060  17.360  1.00  0.00    -0.310 N 
ATOM     13  H1  UNL     1     104.061  18.949  17.458  1.00  0.00     0.172 HD
BRANCH  12  14
HETATM   14  S1  UNL     1     105.281  17.229  18.681  1.00  0.00     0.223 S 
HETATM   15  C1  UNL     1     106.928  17.781  18.949  1.00  0.00     0.185 C 
HETATM   16  O1  UNL     1     105.269  15.746  18.487  1.00  0.00    -0.206 OA
HETATM   17  O2  UNL     1     104.464  17.529  19.904  1.00  0.00    -0.206 OA
ENDBRANCH  12  14
ENDBRANCH   8  12
BRANCH   9  18
HETATM   18  O3  UNL     1     103.451  15.706  14.993  1.00  0.00    -0.393 OA
ATOM     19  H3  UNL     1     102.797  15.616  14.311  1.00  0.00     0.210 HD
ENDBRANCH   9  18
ENDBRANCH   1   7
BRANCH   5  20
HETATM   20  C8  UNL     1     108.487  18.742  11.382  1.00  0.00     0.115 C 
HETATM   21  C9  UNL     1     107.876  18.916   9.974  1.00  0.00     0.033 C 
HETATM   22  C10 UNL     1     109.134  19.004   9.205  1.00  0.00    -0.006 A 
HETATM   23  C11 UNL     1     109.910  18.105   8.462  1.00  0.00     0.012 A 
HETATM   24  C12 UNL     1     109.667  17.617   9.755  1.00  0.00     0.021 A 
HETATM   25  C13 UNL     1     109.880  18.129  11.123  1.00  0.00     0.145 C 
BRANCH  25  26
HETATM   26  O5  UNL     1     110.029  17.055  12.005  1.00  0.00    -0.393 OA
ATOM     27  H5  UNL     1     110.960  16.883  12.082  1.00  0.00     0.210 HD
ENDBRANCH  25  26
ENDBRANCH   5  20
TORSDOF 6
ENDMDL
MODEL 5
REMARK VINA RESULT: -6.249826329      4.450      8.289
REMARK  6 active torsions:
REMARK  status: ('A' for Active; 'I' for Inactive)
REMARK    1  A    between atoms: S1_2  and  N1_5 
REMARK    2  A    between atoms: N1_5  and  C2_7 
REMARK    3  A    between atoms: C3_8  and  O3_9 
REMARK    4  A    between atoms: C6_13  and  N2_14 
REMARK       I    between atoms: N2_14  and  C7_16 
REMARK       I    between atoms: C7_16  and  N3_18 
REMARK    5  A    between atoms: N3_18  and  C8_20 
REMARK    6  A    between atoms: C13_25  and  O5_26 
ROOT
HETATM    1  N2  UNL     1     106.802  18.067  13.741  1.00  0.00    -0.336 N 
ATOM      2  H2  UNL     1     106.587  17.170  13.304  1.00  0.00     0.164 HD
HETATM    3  C7  UNL     1     107.999  18.751  13.407  1.00  0.00     0.316 C 
HETATM    4  O4  UNL     1     108.238  19.847  13.956  1.00  0.00    -0.247 OA
HETATM    5  N3  UNL     1     108.929  18.232  12.476  1.00  0.00    -0.336 N 
ATOM      6  H3  UNL     1     108.752  17.338  12.018  1.00  0.00     0.164 HD
ENDROOT
BRANCH   1   7
HETATM    7  C6  UNL     1     105.900  18.639  14.689  1.00  0.00     0.112 C 
HETATM    8  C2  UNL     1     105.384  17.650  15.707  1.00  0.00     0.144 C 
HETATM    9  C3  UNL     1     104.146  17.041  15.097  1.00  0.00     0.143 C 
HETATM   10  C4  UNL     1     103.741  17.928  13.956  1.00  0.00     0.036 C 
HETATM   11  C5  UNL     1     104.653  19.110  14.010  1.00  0.00     0.030 C 
BRANCH   8  12
HETATM   12  N1  UNL     1     105.061  18.378  16.903  1.00  0.00    -0.310 N 
ATOM     13  H1  UNL     1     104.966  19.393  16.934  1.00  0.00     0.172 HD
BRANCH  12  14
HETATM   14  S1  UNL     1     104.850  17.362  18.277  1.00  0.00     0.223 S 
HETATM   15  C1  UNL     1     106.043  17.715  19.518  1.00  0.00     0.185 C 
HETATM   16  O1  UNL     1     104.907  15.911  17.917  1.00  0.00    -0.206 OA
HETATM   17  O2  UNL     1     103.480  17.635  18.829  1.00  0.00    -0.206 OA
ENDBRANCH  12  14
ENDBRANCH   8  12
BRANCH   9  18
HETATM   18  O3  UNL     1     104.457  15.741  14.657  1.00  0.00    -0.393 OA
ATOM     19  H3  UNL     1     103.681  15.200  14.743  1.00  0.00     0.210 HD
ENDBRANCH   9  18
ENDBRANCH   1   7
BRANCH   5  20
HETATM   20  C8  UNL     1     110.114  18.965  12.182  1.00  0.00     0.115 C 
HETATM   21  C9  UNL     1     110.103  19.524  10.741  1.00  0.00     0.033 C 
HETATM   22  C10 UNL     1     111.550  19.419  10.461  1.00  0.00    -0.006 A 
HETATM   23  C11 UNL     1     112.372  18.492   9.807  1.00  0.00     0.012 A 
HETATM   24  C12 UNL     1     111.589  17.870  10.792  1.00  0.00     0.021 A 
HETATM   25  C13 UNL     1     111.373  18.073  12.238  1.00  0.00     0.145 C 
BRANCH  25  26
HETATM   26  O5  UNL     1     110.996  16.863  12.827  1.00  0.00    -0.393 OA
ATOM     27  H5  UNL     1     110.818  17.040  13.743  1.00  0.00     0.210 HD
ENDBRANCH  25  26
ENDBRANCH   5  20
TORSDOF 6
ENDMDL
