MODEL 1
REMARK VINA RESULT: -6.864748705      0.000      0.000
REMARK  6 active torsions:
REMARK  status: ('A' for Active; 'I' for Inactive)
REMARK    1  A    between atoms: C2_2  and  C3_3 
REMARK    2  A    between atoms: C3_3  and  C4_4 
REMARK    3  A    between atoms: C4_4  and  C5_5 
REMARK    4  A    between atoms: C5_5  and  N1_7 
REMARK    5  A    between atoms: N1_7  and  N2_9 
REMARK       I    between atoms: N2_9  and  C6_11 
REMARK       I    between atoms: C6_11  and  N5_17 
REMARK       I    between atoms: N3_12  and  C7_14 
REMARK       I    between atoms: N5_17  and  C8_19 
REMARK    6  A    between atoms: C8_19  and  C9_21 
ROOT
HETATM    1  N2  UNL     1     102.411  15.807  16.363  1.00  0.00    -0.131 N 
ATOM      2  H2  UNL     1     101.468  15.576  16.052  1.00  0.00     0.205 HD
HETATM    3  C6  UNL     1     103.209  16.623  15.547  1.00  0.00     0.703 C 
HETATM    4  N3  UNL     1     104.438  16.263  15.338  1.00  0.00    -0.142 N 
ATOM      5  H3  UNL     1     104.768  15.404  15.776  1.00  0.00     0.189 HD
HETATM    6  C7  UNL     1     105.336  16.989  14.544  1.00  0.00     0.347 C 
HETATM    7  N4  UNL     1     105.713  16.569  13.226  1.00  0.00    -0.039 NA
HETATM    8  O1  UNL     1     105.876  18.069  14.946  1.00  0.00    -0.250 OA
HETATM    9  N5  UNL     1     102.728  17.790  14.955  1.00  0.00    -0.158 N 
ATOM     10  H5  UNL     1     103.361  18.333  14.367  1.00  0.00     0.187 HD
HETATM   11  C8  UNL     1     101.401  18.259  15.132  1.00  0.00     0.240 C 
HETATM   12  O2  UNL     1     100.535  17.684  15.831  1.00  0.00    -0.272 OA
ENDROOT
BRANCH   1  13
HETATM   13  N1  UNL     1     102.864  15.293  17.603  1.00  0.00    -0.280 N 
ATOM     14  H1  UNL     1     102.778  14.289  17.765  1.00  0.00     0.188 HD
BRANCH  13  15
HETATM   15  C5  UNL     1     103.426  16.083  18.628  1.00  0.00     0.092 C 
HETATM   16  S1  UNL     1     102.479  17.131  19.436  1.00  0.00    -0.064 SA
BRANCH  15  17
HETATM   17  C4  UNL     1     104.862  15.977  18.982  1.00  0.00     0.071 C 
BRANCH  17  18
HETATM   18  C3  UNL     1     105.495  17.318  18.684  1.00  0.00     0.006 C 
BRANCH  18  19
HETATM   19  C2  UNL     1     106.542  17.680  19.716  1.00  0.00    -0.004 C 
HETATM   20  C1  UNL     1     106.030  17.358  21.095  1.00  0.00     0.005 C 
ENDBRANCH  18  19
ENDBRANCH  17  18
ENDBRANCH  15  17
ENDBRANCH  13  15
ENDBRANCH   1  13
BRANCH  11  21
HETATM   21  C9  UNL     1     100.936  19.521  14.470  1.00  0.00     0.087 A 
HETATM   22  C10 UNL     1     102.063  20.281  13.787  1.00  0.00     0.024 A 
HETATM   23  C11 UNL     1     101.316  20.843  15.002  1.00  0.00    -0.035 A 
HETATM   24  C12 UNL     1     102.082  20.994  16.298  1.00  0.00     0.015 C 
HETATM   25  C13 UNL     1     100.445  22.029  14.659  1.00  0.00     0.015 C 
ENDBRANCH  11  21
TORSDOF 6
ENDMDL
MODEL 2
REMARK VINA RESULT: -6.404004581      3.212      4.474
REMARK  6 active torsions:
REMARK  status: ('A' for Active; 'I' for Inactive)
REMARK    1  A    between atoms: C2_2  and  C3_3 
REMARK    2  A    between atoms: C3_3  and  C4_4 
REMARK    3  A    between atoms: C4_4  and  C5_5 
REMARK    4  A    between atoms: C5_5  and  N1_7 
REMARK    5  A    between atoms: N1_7  and  N2_9 
REMARK       I    between atoms: N2_9  and  C6_11 
REMARK       I    between atoms: C6_11  and  N5_17 
REMARK       I    between atoms: N3_12  and  C7_14 
REMARK       I    between atoms: N5_17  and  C8_19 
REMARK    6  A    between atoms: C8_19  and  C9_21 
ROOT
HETATM    1  N2  UNL     1     106.561  17.245  18.984  1.00  0.00    -0.131 N 
ATOM      2  H2  UNL     1     106.289  16.273  19.125  1.00  0.00     0.205 HD
HETATM    3  C6  UNL     1     106.195  17.881  17.788  1.00  0.00     0.703 C 
HETATM    4  N3  UNL     1     107.096  18.578  17.166  1.00  0.00    -0.142 N 
ATOM      5  H3  UNL     1     108.029  18.632  17.575  1.00  0.00     0.189 HD
HETATM    6  C7  UNL     1     106.859  19.259  15.965  1.00  0.00     0.347 C 
HETATM    7  N4  UNL     1     107.342  18.784  14.701  1.00  0.00    -0.039 NA
HETATM    8  O1  UNL     1     106.200  20.347  15.922  1.00  0.00    -0.250 OA
HETATM    9  N5  UNL     1     104.914  17.784  17.249  1.00  0.00    -0.158 N 
ATOM     10  H5  UNL     1     104.718  18.266  16.371  1.00  0.00     0.187 HD
HETATM   11  C8  UNL     1     103.869  17.048  17.863  1.00  0.00     0.240 C 
HETATM   12  O2  UNL     1     103.985  16.418  18.939  1.00  0.00    -0.272 OA
ENDROOT
BRANCH   1  13
HETATM   13  N1  UNL     1     107.294  17.902  20.004  1.00  0.00    -0.280 N 
ATOM     14  H1  UNL     1     108.044  18.534  19.724  1.00  0.00     0.188 HD
BRANCH  13  15
HETATM   15  C5  UNL     1     107.050  17.735  21.384  1.00  0.00     0.092 C 
HETATM   16  S1  UNL     1     108.284  17.879  22.435  1.00  0.00    -0.064 SA
BRANCH  15  17
HETATM   17  C4  UNL     1     105.691  17.430  21.894  1.00  0.00     0.071 C 
BRANCH  17  18
HETATM   18  C3  UNL     1     105.699  17.712  23.380  1.00  0.00     0.006 C 
BRANCH  18  19
HETATM   19  C2  UNL     1     104.480  17.127  24.063  1.00  0.00    -0.004 C 
HETATM   20  C1  UNL     1     103.419  16.827  23.038  1.00  0.00     0.005 C 
ENDBRANCH  18  19
ENDBRANCH  17  18
ENDBRANCH  15  17
ENDBRANCH  13  15
ENDBRANCH   1  13
BRANCH  11  21
HETATM   21  C9  UNL     1     102.508  16.976  17.238  1.00  0.00     0.087 A 
HETATM   22  C10 UNL     1     102.047  15.548  16.986  1.00  0.00     0.024 A 
HETATM   23  C11 UNL     1     102.335  16.528  15.844  1.00  0.00    -0.035 A 
HETATM   24  C12 UNL     1     103.516  16.241  14.943  1.00  0.00     0.015 C 
HETATM   25  C13 UNL     1     101.086  16.954  15.106  1.00  0.00     0.015 C 
ENDBRANCH  11  21
TORSDOF 6
ENDMDL
MODEL 3
REMARK VINA RESULT: -6.177408161      1.079      1.466
REMARK  6 active torsions:
REMARK  status: ('A' for Active; 'I' for Inactive)
REMARK    1  A    between atoms: C2_2  and  C3_3 
REMARK    2  A    between atoms: C3_3  and  C4_4 
REMARK    3  A    between atoms: C4_4  and  C5_5 
REMARK    4  A    between atoms: C5_5  and  N1_7 
REMARK    5  A    between atoms: N1_7  and  N2_9 
REMARK       I    between atoms: N2_9  and  C6_11 
REMARK       I    between atoms: C6_11  and  N5_17 
REMARK       I    between atoms: N3_12  and  C7_14 
REMARK       I    between atoms: N5_17  and  C8_19 
REMARK    6  A    between atoms: C8_19  and  C9_21 
ROOT
HETATM    1  N2  UNL     1     102.703  16.843  16.485  1.00  0.00    -0.131 N 
ATOM      2  H2  UNL     1     101.714  17.055  16.361  1.00  0.00     0.205 HD
HETATM    3  C6  UNL     1     103.639  17.500  15.673  1.00  0.00     0.703 C 
HETATM    4  N3  UNL     1     104.577  16.791  15.124  1.00  0.00    -0.142 N 
ATOM      5  H3  UNL     1     104.592  15.788  15.309  1.00  0.00     0.189 HD
HETATM    6  C7  UNL     1     105.571  17.325  14.293  1.00  0.00     0.347 C 
HETATM    7  N4  UNL     1     105.559  17.156  12.870  1.00  0.00    -0.039 NA
HETATM    8  O1  UNL     1     106.550  17.995  14.753  1.00  0.00    -0.250 OA
HETATM    9  N5  UNL     1     103.592  18.872  15.433  1.00  0.00    -0.158 N 
ATOM     10  H5  UNL     1     104.301  19.284  14.826  1.00  0.00     0.187 HD
HETATM   11  C8  UNL     1     102.605  19.723  15.994  1.00  0.00     0.240 C 
HETATM   12  O2  UNL     1     101.687  19.336  16.754  1.00  0.00    -0.272 OA
ENDROOT
BRANCH   1  13
HETATM   13  N1  UNL     1     103.079  15.896  17.471  1.00  0.00    -0.280 N 
ATOM     14  H1  UNL     1     102.873  14.913  17.294  1.00  0.00     0.188 HD
BRANCH  13  15
HETATM   15  C5  UNL     1     103.720  16.231  18.683  1.00  0.00     0.092 C 
HETATM   16  S1  UNL     1     102.832  16.794  19.925  1.00  0.00    -0.064 SA
BRANCH  15  17
HETATM   17  C4  UNL     1     105.186  16.080  18.844  1.00  0.00     0.071 C 
BRANCH  17  18
HETATM   18  C3  UNL     1     105.795  17.457  18.701  1.00  0.00     0.006 C 
BRANCH  18  19
HETATM   19  C2  UNL     1     106.889  17.691  19.721  1.00  0.00    -0.004 C 
HETATM   20  C1  UNL     1     106.344  17.477  21.109  1.00  0.00     0.005 C 
ENDBRANCH  18  19
ENDBRANCH  17  18
ENDBRANCH  15  17
ENDBRANCH  13  15
ENDBRANCH   1  13
BRANCH  11  21
HETATM   21  C9  UNL     1     102.600  21.193  15.701  1.00  0.00     0.087 A 
HETATM   22  C10 UNL     1     101.392  21.909  16.287  1.00  0.00     0.024 A 
HETATM   23  C11 UNL     1     101.613  21.780  14.776  1.00  0.00    -0.035 A 
HETATM   24  C12 UNL     1     100.647  20.923  13.988  1.00  0.00     0.015 C 
HETATM   25  C13 UNL     1     101.947  23.098  14.116  1.00  0.00     0.015 C 
ENDBRANCH  11  21
TORSDOF 6
ENDMDL
MODEL 4
REMARK VINA RESULT: -6.160657146      3.186      4.111
REMARK  6 active torsions:
REMARK  status: ('A' for Active; 'I' for Inactive)
REMARK    1  A    between atoms: C2_2  and  C3_3 
REMARK    2  A    between atoms: C3_3  and  C4_4 
REMARK    3  A    between atoms: C4_4  and  C5_5 
REMARK    4  A    between atoms: C5_5  and  N1_7 
REMARK    5  A    between atoms: N1_7  and  N2_9 
REMARK       I    between atoms: N2_9  and  C6_11 
REMARK       I    between atoms: C6_11  and  N5_17 
REMARK       I    between atoms: N3_12  and  C7_14 
REMARK       I    between atoms: N5_17  and  C8_19 
REMARK    6  A    between atoms: C8_19  and  C9_21 
ROOT
HETATM    1  N2  UNL     1     107.419  18.051  17.151  1.00  0.00    -0.131 N 
ATOM      2  H2  UNL     1     107.315  17.065  16.916  1.00  0.00     0.205 HD
HETATM    3  C6  UNL     1     106.975  19.014  16.233  1.00  0.00     0.703 C 
HETATM    4  N3  UNL     1     107.756  20.017  15.974  1.00  0.00    -0.142 N 
ATOM      5  H3  UNL     1     108.657  20.061  16.449  1.00  0.00     0.189 HD
HETATM    6  C7  UNL     1     107.430  21.044  15.077  1.00  0.00     0.347 C 
HETATM    7  N4  UNL     1     108.013  21.140  13.771  1.00  0.00    -0.039 NA
HETATM    8  O1  UNL     1     106.596  21.959  15.370  1.00  0.00    -0.250 OA
HETATM    9  N5  UNL     1     105.740  18.926  15.593  1.00  0.00    -0.158 N 
ATOM     10  H5  UNL     1     105.483  19.658  14.931  1.00  0.00     0.187 HD
HETATM   11  C8  UNL     1     104.824  17.867  15.819  1.00  0.00     0.240 C 
HETATM   12  O2  UNL     1     105.024  16.915  16.608  1.00  0.00    -0.272 OA
ENDROOT
BRANCH   1  13
HETATM   13  N1  UNL     1     108.008  18.396  18.394  1.00  0.00    -0.280 N 
ATOM     14  H1  UNL     1     108.853  18.967  18.381  1.00  0.00     0.188 HD
BRANCH  13  15
HETATM   15  C5  UNL     1     107.497  17.997  19.647  1.00  0.00     0.092 C 
HETATM   16  S1  UNL     1     108.455  18.076  20.961  1.00  0.00    -0.064 SA
BRANCH  15  17
HETATM   17  C4  UNL     1     106.105  17.506  19.790  1.00  0.00     0.071 C 
BRANCH  17  18
HETATM   18  C3  UNL     1     105.839  17.344  21.270  1.00  0.00     0.006 C 
BRANCH  18  19
HETATM   19  C2  UNL     1     104.388  17.006  21.541  1.00  0.00    -0.004 C 
HETATM   20  C1  UNL     1     103.654  16.838  20.236  1.00  0.00     0.005 C 
ENDBRANCH  18  19
ENDBRANCH  17  18
ENDBRANCH  15  17
ENDBRANCH  13  15
ENDBRANCH   1  13
BRANCH  11  21
HETATM   21  C9  UNL     1     103.509  17.820  15.102  1.00  0.00     0.087 A 
HETATM   22  C10 UNL     1     102.949  19.203  14.803  1.00  0.00     0.024 A 
HETATM   23  C11 UNL     1     102.262  18.234  15.772  1.00  0.00    -0.035 A 
HETATM   24  C12 UNL     1     102.227  18.604  17.238  1.00  0.00     0.015 C 
HETATM   25  C13 UNL     1     100.952  17.700  15.240  1.00  0.00     0.015 C 
ENDBRANCH  11  21
TORSDOF 6
ENDMDL
MODEL 5
REMARK VINA RESULT: -6.134188413      1.549      1.803
REMARK  6 active torsions:
REMARK  status: ('A' for Active; 'I' for Inactive)
REMARK    1  A    between atoms: C2_2  and  C3_3 
REMARK    2  A    between atoms: C3_3  and  C4_4 
REMARK    3  A    between atoms: C4_4  and  C5_5 
REMARK    4  A    between atoms: C5_5  and  N1_7 
REMARK    5  A    between atoms: N1_7  and  N2_9 
REMARK       I    between atoms: N2_9  and  C6_11 
REMARK       I    between atoms: C6_11  and  N5_17 
REMARK       I    between atoms: N3_12  and  C7_14 
REMARK       I    between atoms: N5_17  and  C8_19 
REMARK    6  A    between atoms: C8_19  and  C9_21 
ROOT
HETATM    1  N2  UNL     1     102.670  15.971  16.606  1.00  0.00    -0.131 N 
ATOM      2  H2  UNL     1     101.714  15.685  16.396  1.00  0.00     0.205 HD
HETATM    3  C6  UNL     1     103.363  16.745  15.664  1.00  0.00     0.703 C 
HETATM    4  N3  UNL     1     104.584  16.409  15.376  1.00  0.00    -0.142 N 
ATOM      5  H3  UNL     1     104.983  15.598  15.848  1.00  0.00     0.189 HD
HETATM    6  C7  UNL     1     105.383  17.098  14.454  1.00  0.00     0.347 C 
HETATM    7  N4  UNL     1     105.663  16.588  13.144  1.00  0.00    -0.039 NA
HETATM    8  O1  UNL     1     105.912  18.223  14.725  1.00  0.00    -0.250 OA
HETATM    9  N5  UNL     1     102.790  17.845  15.029  1.00  0.00    -0.158 N 
ATOM     10  H5  UNL     1     103.350  18.360  14.348  1.00  0.00     0.187 HD
HETATM   11  C8  UNL     1     101.466  18.284  15.285  1.00  0.00     0.240 C 
HETATM   12  O2  UNL     1     100.685  17.738  16.098  1.00  0.00    -0.272 OA
ENDROOT
BRANCH   1  13
HETATM   13  N1  UNL     1     103.246  15.570  17.838  1.00  0.00    -0.280 N 
ATOM     14  H1  UNL     1     103.372  14.571  18.005  1.00  0.00     0.188 HD
BRANCH  13  15
HETATM   15  C5  UNL     1     103.655  16.467  18.847  1.00  0.00     0.092 C 
HETATM   16  S1  UNL     1     105.201  16.974  18.884  1.00  0.00    -0.064 SA
BRANCH  15  17
HETATM   17  C4  UNL     1     102.704  16.956  19.874  1.00  0.00     0.071 C 
BRANCH  17  18
HETATM   18  C3  UNL     1     103.319  16.666  21.225  1.00  0.00     0.006 C 
BRANCH  18  19
HETATM   19  C2  UNL     1     102.356  16.975  22.352  1.00  0.00    -0.004 C 
HETATM   20  C1  UNL     1     102.992  16.630  23.673  1.00  0.00     0.005 C 
ENDBRANCH  18  19
ENDBRANCH  17  18
ENDBRANCH  15  17
ENDBRANCH  13  15
ENDBRANCH   1  13
BRANCH  11  21
HETATM   21  C9  UNL     1     100.898  19.474  14.572  1.00  0.00     0.087 A 
HETATM   22  C10 UNL     1     101.931  20.208  13.731  1.00  0.00     0.024 A 
HETATM   23  C11 UNL     1     101.275  20.845  14.962  1.00  0.00    -0.035 A 
HETATM   24  C12 UNL     1     102.148  21.122  16.166  1.00  0.00     0.015 C 
HETATM   25  C13 UNL     1     100.334  21.974  14.609  1.00  0.00     0.015 C 
ENDBRANCH  11  21
TORSDOF 6
ENDMDL
