MODEL 1
REMARK VINA RESULT: -6.463769862      0.000      0.000
REMARK  4 active torsions:
REMARK  status: ('A' for Active; 'I' for Inactive)
REMARK    1  A    between atoms: C2_2  and  C3_3 
REMARK    2  A    between atoms: C3_3  and  N1_4 
REMARK       I    between atoms: N1_4  and  C4_6 
REMARK       I    between atoms: C4_6  and  N2_8 
REMARK    3  A    between atoms: N2_8  and  C5_10 
REMARK    4  A    between atoms: C12_21  and  C13_22 
ROOT
HETATM    1  C5  UNL     1     104.029  16.744  19.529  1.00  0.00     0.194 C 
HETATM    2  C6  UNL     1     104.182  15.447  18.832  1.00  0.00     0.242 C 
HETATM    3  O2  UNL     1     104.015  14.327  19.340  1.00  0.00    -0.271 OA
HETATM    4  N3  UNL     1     104.548  15.781  17.502  1.00  0.00    -0.353 N 
ATOM      5  H3  UNL     1     104.907  15.113  16.819  1.00  0.00     0.163 HD
HETATM    6  C7  UNL     1     104.350  17.172  17.242  1.00  0.00     0.114 C 
HETATM    7  C8  UNL     1     103.522  17.619  18.423  1.00  0.00     0.103 C 
HETATM    8  S1  UNL     1     101.860  17.132  17.881  1.00  0.00    -0.149 SA
HETATM    9  C9  UNL     1     102.202  16.952  16.084  1.00  0.00     0.015 C 
HETATM   10  C10 UNL     1     101.970  15.567  15.617  1.00  0.00     0.027 C 
HETATM   11  C11 UNL     1     101.233  17.919  15.398  1.00  0.00     0.027 C 
HETATM   12  C12 UNL     1     103.572  17.493  15.999  1.00  0.00     0.116 C 
ENDROOT
BRANCH   1  13
HETATM   13  N2  UNL     1     103.166  16.687  20.659  1.00  0.00    -0.329 N 
HETATM   14  C4  UNL     1     103.675  16.966  21.956  1.00  0.00     0.317 C 
HETATM   15  N1  UNL     1     102.858  16.923  23.110  1.00  0.00    -0.340 N 
HETATM   16  O1  UNL     1     104.895  17.265  22.096  1.00  0.00    -0.247 OA
ATOM     17  H1  UNL     1     101.871  16.685  23.021  1.00  0.00     0.164 HD
ATOM     18  H2  UNL     1     102.182  16.445  20.539  1.00  0.00     0.165 HD
BRANCH  15  19
HETATM   19  C3  UNL     1     103.406  17.212  24.408  1.00  0.00     0.150 C 
BRANCH  19  20
HETATM   20  C2  UNL     1     103.413  16.000  25.306  1.00  0.00    -0.018 C 
HETATM   21  C1  UNL     1     102.938  14.846  24.857  1.00  0.00     0.008 C 
ENDBRANCH  19  20
ENDBRANCH  15  19
ENDBRANCH   1  13
BRANCH  12  22
HETATM   22  C13 UNL     1     104.351  17.166  14.819  1.00  0.00     0.238 C 
HETATM   23  N4  UNL     1     104.429  18.077  13.739  1.00  0.00    -0.062 NA
HETATM   24  O3  UNL     1     104.963  16.083  14.732  1.00  0.00    -0.276 OA
ENDBRANCH  12  22
TORSDOF 4
ENDMDL
MODEL 2
REMARK VINA RESULT: -6.237784076      3.635      7.940
REMARK  4 active torsions:
REMARK  status: ('A' for Active; 'I' for Inactive)
REMARK    1  A    between atoms: C2_2  and  C3_3 
REMARK    2  A    between atoms: C3_3  and  N1_4 
REMARK       I    between atoms: N1_4  and  C4_6 
REMARK       I    between atoms: C4_6  and  N2_8 
REMARK    3  A    between atoms: N2_8  and  C5_10 
REMARK    4  A    between atoms: C12_21  and  C13_22 
ROOT
HETATM    1  C5  UNL     1     105.321  18.391  14.637  1.00  0.00     0.194 C 
HETATM    2  C6  UNL     1     104.535  17.175  14.332  1.00  0.00     0.242 C 
HETATM    3  O2  UNL     1     104.896  16.244  13.593  1.00  0.00    -0.271 OA
HETATM    4  N3  UNL     1     103.324  17.323  15.056  1.00  0.00    -0.353 N 
ATOM      5  H3  UNL     1     102.494  16.747  14.914  1.00  0.00     0.163 HD
HETATM    6  C7  UNL     1     103.415  18.383  16.010  1.00  0.00     0.114 C 
HETATM    7  C8  UNL     1     104.896  18.674  16.047  1.00  0.00     0.103 C 
HETATM    8  S1  UNL     1     105.469  17.394  17.198  1.00  0.00    -0.149 SA
HETATM    9  C9  UNL     1     103.853  16.979  17.969  1.00  0.00     0.015 C 
HETATM   10  C10 UNL     1     103.476  15.569  17.729  1.00  0.00     0.027 C 
HETATM   11  C11 UNL     1     104.053  17.235  19.466  1.00  0.00     0.027 C 
HETATM   12  C12 UNL     1     102.990  18.035  17.406  1.00  0.00     0.116 C 
ENDROOT
BRANCH   1  13
HETATM   13  N2  UNL     1     106.725  18.217  14.483  1.00  0.00    -0.329 N 
HETATM   14  C4  UNL     1     107.381  18.724  13.330  1.00  0.00     0.317 C 
HETATM   15  N1  UNL     1     108.774  18.577  13.130  1.00  0.00    -0.340 N 
HETATM   16  O1  UNL     1     106.710  19.328  12.446  1.00  0.00    -0.247 OA
ATOM     17  H1  UNL     1     109.335  18.094  13.830  1.00  0.00     0.164 HD
ATOM     18  H2  UNL     1     107.261  17.729  15.201  1.00  0.00     0.165 HD
BRANCH  15  19
HETATM   19  C3  UNL     1     109.405  19.103  11.951  1.00  0.00     0.150 C 
BRANCH  19  20
HETATM   20  C2  UNL     1     109.535  18.067  10.863  1.00  0.00    -0.018 C 
HETATM   21  C1  UNL     1     110.626  17.316  10.797  1.00  0.00     0.008 C 
ENDBRANCH  19  20
ENDBRANCH  15  19
ENDBRANCH   1  13
BRANCH  12  22
HETATM   22  C13 UNL     1     101.555  17.826  17.459  1.00  0.00     0.238 C 
HETATM   23  N4  UNL     1     100.787  17.830  16.269  1.00  0.00    -0.062 NA
HETATM   24  O3  UNL     1     100.971  17.640  18.545  1.00  0.00    -0.276 OA
ENDBRANCH  12  22
TORSDOF 4
ENDMDL
MODEL 3
REMARK VINA RESULT: -6.166892829      3.823      7.748
REMARK  4 active torsions:
REMARK  status: ('A' for Active; 'I' for Inactive)
REMARK    1  A    between atoms: C2_2  and  C3_3 
REMARK    2  A    between atoms: C3_3  and  N1_4 
REMARK       I    between atoms: N1_4  and  C4_6 
REMARK       I    between atoms: C4_6  and  N2_8 
REMARK    3  A    between atoms: N2_8  and  C5_10 
REMARK    4  A    between atoms: C12_21  and  C13_22 
ROOT
HETATM    1  C5  UNL     1     105.430  18.384  14.754  1.00  0.00     0.194 C 
HETATM    2  C6  UNL     1     104.666  17.163  14.411  1.00  0.00     0.242 C 
HETATM    3  O2  UNL     1     105.069  16.233  13.694  1.00  0.00    -0.271 OA
HETATM    4  N3  UNL     1     103.419  17.305  15.073  1.00  0.00    -0.353 N 
ATOM      5  H3  UNL     1     102.601  16.724  14.890  1.00  0.00     0.163 HD
HETATM    6  C7  UNL     1     103.457  18.367  16.028  1.00  0.00     0.114 C 
HETATM    7  C8  UNL     1     104.932  18.667  16.140  1.00  0.00     0.103 C 
HETATM    8  S1  UNL     1     105.453  17.392  17.320  1.00  0.00    -0.149 SA
HETATM    9  C9  UNL     1     103.803  16.969  18.010  1.00  0.00     0.015 C 
HETATM   10  C10 UNL     1     103.445  15.556  17.753  1.00  0.00     0.027 C 
HETATM   11  C11 UNL     1     103.924  17.228  19.514  1.00  0.00     0.027 C 
HETATM   12  C12 UNL     1     102.963  18.019  17.402  1.00  0.00     0.116 C 
ENDROOT
BRANCH   1  13
HETATM   13  N2  UNL     1     106.841  18.218  14.672  1.00  0.00    -0.329 N 
HETATM   14  C4  UNL     1     107.605  19.056  13.818  1.00  0.00     0.317 C 
HETATM   15  N1  UNL     1     109.010  18.931  13.701  1.00  0.00    -0.340 N 
HETATM   16  O1  UNL     1     107.025  19.947  13.135  1.00  0.00    -0.247 OA
ATOM     17  H1  UNL     1     109.500  18.219  14.242  1.00  0.00     0.164 HD
ATOM     18  H2  UNL     1     107.303  17.496  15.226  1.00  0.00     0.165 HD
BRANCH  15  19
HETATM   19  C3  UNL     1     109.753  19.797  12.827  1.00  0.00     0.150 C 
BRANCH  19  20
HETATM   20  C2  UNL     1     111.146  19.281  12.563  1.00  0.00    -0.018 C 
HETATM   21  C1  UNL     1     112.192  20.063  12.794  1.00  0.00     0.008 C 
ENDBRANCH  19  20
ENDBRANCH  15  19
ENDBRANCH   1  13
BRANCH  12  22
HETATM   22  C13 UNL     1     101.528  17.803  17.382  1.00  0.00     0.238 C 
HETATM   23  N4  UNL     1     100.815  17.844  16.160  1.00  0.00    -0.062 NA
HETATM   24  O3  UNL     1     100.897  17.576  18.433  1.00  0.00    -0.276 OA
ENDBRANCH  12  22
TORSDOF 4
ENDMDL
MODEL 4
REMARK VINA RESULT: -6.122739966      3.254      7.881
REMARK  4 active torsions:
REMARK  status: ('A' for Active; 'I' for Inactive)
REMARK    1  A    between atoms: C2_2  and  C3_3 
REMARK    2  A    between atoms: C3_3  and  N1_4 
REMARK       I    between atoms: N1_4  and  C4_6 
REMARK       I    between atoms: C4_6  and  N2_8 
REMARK    3  A    between atoms: N2_8  and  C5_10 
REMARK    4  A    between atoms: C12_21  and  C13_22 
ROOT
HETATM    1  C5  UNL     1     104.848  17.879  14.840  1.00  0.00     0.194 C 
HETATM    2  C6  UNL     1     103.983  16.677  14.826  1.00  0.00     0.242 C 
HETATM    3  O2  UNL     1     104.146  15.674  14.112  1.00  0.00    -0.271 OA
HETATM    4  N3  UNL     1     102.969  16.937  15.783  1.00  0.00    -0.353 N 
ATOM      5  H3  UNL     1     102.115  16.389  15.881  1.00  0.00     0.163 HD
HETATM    6  C7  UNL     1     103.298  18.067  16.595  1.00  0.00     0.114 C 
HETATM    7  C8  UNL     1     104.757  18.294  16.277  1.00  0.00     0.103 C 
HETATM    8  S1  UNL     1     105.541  17.089  17.382  1.00  0.00    -0.149 SA
HETATM    9  C9  UNL     1     104.129  16.810  18.526  1.00  0.00     0.015 C 
HETATM   10  C10 UNL     1     103.673  15.402  18.503  1.00  0.00     0.027 C 
HETATM   11  C11 UNL     1     104.665  17.178  19.913  1.00  0.00     0.027 C 
HETATM   12  C12 UNL     1     103.188  17.853  18.076  1.00  0.00     0.116 C 
ENDROOT
BRANCH   1  13
HETATM   13  N2  UNL     1     106.177  17.631  14.395  1.00  0.00    -0.329 N 
HETATM   14  C4  UNL     1     106.723  18.395  13.330  1.00  0.00     0.317 C 
HETATM   15  N1  UNL     1     108.038  18.188  12.852  1.00  0.00    -0.340 N 
HETATM   16  O1  UNL     1     106.022  19.293  12.783  1.00  0.00    -0.247 OA
ATOM     17  H1  UNL     1     108.623  17.470  13.279  1.00  0.00     0.164 HD
ATOM     18  H2  UNL     1     106.738  16.905  14.842  1.00  0.00     0.165 HD
BRANCH  15  19
HETATM   19  C3  UNL     1     108.560  18.980  11.772  1.00  0.00     0.150 C 
BRANCH  19  20
HETATM   20  C2  UNL     1     109.228  18.135  10.716  1.00  0.00    -0.018 C 
HETATM   21  C1  UNL     1     110.292  17.410  11.031  1.00  0.00     0.008 C 
ENDBRANCH  19  20
ENDBRANCH  15  19
ENDBRANCH   1  13
BRANCH  12  22
HETATM   22  C13 UNL     1     101.796  17.713  18.463  1.00  0.00     0.238 C 
HETATM   23  N4  UNL     1     101.406  17.903  19.810  1.00  0.00    -0.062 NA
HETATM   24  O3  UNL     1     100.921  17.425  17.623  1.00  0.00    -0.276 OA
ENDBRANCH  12  22
TORSDOF 4
ENDMDL
MODEL 5
REMARK VINA RESULT: -6.104434306      2.683      7.513
REMARK  4 active torsions:
REMARK  status: ('A' for Active; 'I' for Inactive)
REMARK    1  A    between atoms: C2_2  and  C3_3 
REMARK    2  A    between atoms: C3_3  and  N1_4 
REMARK       I    between atoms: N1_4  and  C4_6 
REMARK       I    between atoms: C4_6  and  N2_8 
REMARK    3  A    between atoms: N2_8  and  C5_10 
REMARK    4  A    between atoms: C12_21  and  C13_22 
ROOT
HETATM    1  C5  UNL     1     102.024  17.631  16.233  1.00  0.00     0.194 C 
HETATM    2  C6  UNL     1     102.151  16.161  16.356  1.00  0.00     0.242 C 
HETATM    3  O2  UNL     1     102.209  15.356  15.413  1.00  0.00    -0.271 OA
HETATM    4  N3  UNL     1     102.190  15.907  17.752  1.00  0.00    -0.353 N 
ATOM      5  H3  UNL     1     102.087  14.983  18.172  1.00  0.00     0.163 HD
HETATM    6  C7  UNL     1     102.392  17.111  18.494  1.00  0.00     0.114 C 
HETATM    7  C8  UNL     1     102.801  18.098  17.427  1.00  0.00     0.103 C 
HETATM    8  S1  UNL     1     104.570  17.724  17.274  1.00  0.00    -0.149 SA
HETATM    9  C9  UNL     1     104.797  16.830  18.863  1.00  0.00     0.015 C 
HETATM   10  C10 UNL     1     105.224  15.429  18.649  1.00  0.00     0.027 C 
HETATM   11  C11 UNL     1     105.881  17.615  19.607  1.00  0.00     0.027 C 
HETATM   12  C12 UNL     1     103.493  17.066  19.512  1.00  0.00     0.116 C 
ENDROOT
BRANCH   1  13
HETATM   13  N2  UNL     1     102.506  18.144  14.996  1.00  0.00    -0.329 N 
HETATM   14  C4  UNL     1     101.819  19.208  14.353  1.00  0.00     0.317 C 
HETATM   15  N1  UNL     1     102.258  19.753  13.124  1.00  0.00    -0.340 N 
HETATM   16  O1  UNL     1     100.782  19.694  14.887  1.00  0.00    -0.247 OA
ATOM     17  H1  UNL     1     103.093  19.378  12.675  1.00  0.00     0.164 HD
ATOM     18  H2  UNL     1     103.344  17.748  14.571  1.00  0.00     0.165 HD
BRANCH  15  19
HETATM   19  C3  UNL     1     101.539  20.831  12.501  1.00  0.00     0.150 C 
BRANCH  19  20
HETATM   20  C2  UNL     1     100.916  20.418  11.191  1.00  0.00    -0.018 C 
HETATM   21  C1  UNL     1      99.820  19.671  11.191  1.00  0.00     0.008 C 
ENDBRANCH  19  20
ENDBRANCH  15  19
ENDBRANCH   1  13
BRANCH  12  22
HETATM   22  C13 UNL     1     103.125  16.197  20.615  1.00  0.00     0.238 C 
HETATM   23  N4  UNL     1     103.170  16.674  21.947  1.00  0.00    -0.062 NA
HETATM   24  O3  UNL     1     102.763  15.021  20.414  1.00  0.00    -0.276 OA
ENDBRANCH  12  22
TORSDOF 4
ENDMDL
