MODEL 1
REMARK VINA RESULT: -7.419054196      0.000      0.000
REMARK  4 active torsions:
REMARK  status: ('A' for Active; 'I' for Inactive)
REMARK    1  A    between atoms: C2_2  and  N2_6 
REMARK    2  A    between atoms: N2_6  and  C3_8 
REMARK    3  A    between atoms: N3_11  and  C6_12 
REMARK    4  A    between atoms: C6_12  and  C7_13 
REMARK       I    between atoms: N6_20  and  C10_21 
ROOT
HETATM    1  C6  UNL     1     104.049  16.468  18.634  1.00  0.00     0.086 C 
HETATM    2  C8  UNL     1     105.506  16.131  18.446  1.00  0.00     0.058 C 
HETATM    3  C9  UNL     1     106.288  17.416  18.778  1.00  0.00     0.128 C 
HETATM    4  N6  UNL     1     106.238  17.485  20.216  1.00  0.00    -0.352 N 
HETATM    5  C10 UNL     1     107.315  18.017  20.936  1.00  0.00     0.215 C 
HETATM    6  C11 UNL     1     108.525  18.519  20.255  1.00  0.00     0.117 C 
HETATM    7  O1  UNL     1     107.260  18.071  22.191  1.00  0.00    -0.274 OA
HETATM    8  C12 UNL     1     105.036  16.982  20.844  1.00  0.00     0.128 C 
HETATM    9  C13 UNL     1     103.912  17.289  19.872  1.00  0.00     0.058 C 
ENDROOT
BRANCH   1  10
HETATM   10  N3  UNL     1     103.526  16.988  17.459  1.00  0.00    -0.397 N 
HETATM   11  C5  UNL     1     102.792  18.198  17.533  1.00  0.00     0.120 C 
HETATM   12  C4  UNL     1     101.385  17.896  17.037  1.00  0.00     0.044 C 
HETATM   13  C3  UNL     1     101.592  17.582  15.546  1.00  0.00     0.085 C 
HETATM   14  C15 UNL     1     102.414  16.341  15.473  1.00  0.00     0.044 C 
HETATM   15  C14 UNL     1     103.768  16.479  16.191  1.00  0.00     0.120 C 
BRANCH  13  16
HETATM   16  N2  UNL     1     100.310  17.342  14.965  1.00  0.00    -0.376 N 
ATOM     17  H2  UNL     1      99.770  16.506  15.188  1.00  0.00     0.161 HD
BRANCH  16  18
HETATM   18  C2  UNL     1      99.817  18.336  14.050  1.00  0.00     0.066 C 
HETATM   19  C1  UNL     1     100.623  19.525  13.761  1.00  0.00     0.088 C 
HETATM   20  N1  UNL     1      98.670  18.172  13.492  1.00  0.00    -0.389 N 
ATOM     21  H12 UNL     1      98.320  18.877  12.844  1.00  0.00     0.157 HD
ATOM     22  H11 UNL     1      98.109  17.344  13.693  1.00  0.00     0.157 HD
ENDBRANCH  16  18
ENDBRANCH  13  16
ENDBRANCH   1  10
BRANCH   1  23
HETATM   23  C7  UNL     1     103.340  15.171  18.939  1.00  0.00     0.115 C 
HETATM   24  N4  UNL     1     104.051  14.160  19.255  1.00  0.00    -0.389 N 
ATOM     25  H42 UNL     1     105.065  14.259  19.317  1.00  0.00     0.157 HD
ATOM     26  H41 UNL     1     103.572  13.284  19.461  1.00  0.00     0.157 HD
HETATM   27  N5  UNL     1     101.926  15.034  18.853  1.00  0.00    -0.085 NA
ENDBRANCH   1  23
TORSDOF 4
ENDMDL
MODEL 2
REMARK VINA RESULT: -6.748796857      1.217      1.610
REMARK  4 active torsions:
REMARK  status: ('A' for Active; 'I' for Inactive)
REMARK    1  A    between atoms: C2_2  and  N2_6 
REMARK    2  A    between atoms: N2_6  and  C3_8 
REMARK    3  A    between atoms: N3_11  and  C6_12 
REMARK    4  A    between atoms: C6_12  and  C7_13 
REMARK       I    between atoms: N6_20  and  C10_21 
ROOT
HETATM    1  C6  UNL     1     104.013  16.357  18.893  1.00  0.00     0.086 C 
HETATM    2  C8  UNL     1     105.192  16.137  17.982  1.00  0.00     0.058 C 
HETATM    3  C9  UNL     1     105.894  17.503  17.851  1.00  0.00     0.128 C 
HETATM    4  N6  UNL     1     106.582  17.654  19.107  1.00  0.00    -0.352 N 
HETATM    5  C10 UNL     1     107.814  18.320  19.162  1.00  0.00     0.215 C 
HETATM    6  C11 UNL     1     108.440  18.883  17.949  1.00  0.00     0.117 C 
HETATM    7  O1  UNL     1     108.406  18.446  20.263  1.00  0.00    -0.274 OA
HETATM    8  C12 UNL     1     105.935  17.088  20.270  1.00  0.00     0.128 C 
HETATM    9  C13 UNL     1     104.447  17.237  20.018  1.00  0.00     0.058 C 
ENDROOT
BRANCH   1  10
HETATM   10  N3  UNL     1     102.910  16.758  18.155  1.00  0.00    -0.397 N 
HETATM   11  C5  UNL     1     102.518  15.957  17.052  1.00  0.00     0.120 C 
HETATM   12  C4  UNL     1     102.614  16.833  15.811  1.00  0.00     0.044 C 
HETATM   13  C3  UNL     1     101.509  17.880  16.027  1.00  0.00     0.085 C 
HETATM   14  C15 UNL     1     101.896  18.681  17.222  1.00  0.00     0.044 C 
HETATM   15  C14 UNL     1     102.080  17.819  18.484  1.00  0.00     0.120 C 
BRANCH  13  16
HETATM   16  N2  UNL     1     101.472  18.724  14.876  1.00  0.00    -0.376 N 
ATOM     17  H2  UNL     1     102.259  19.324  14.627  1.00  0.00     0.161 HD
BRANCH  16  18
HETATM   18  C2  UNL     1     100.272  18.689  14.084  1.00  0.00     0.066 C 
HETATM   19  C1  UNL     1     100.010  19.749  13.107  1.00  0.00     0.088 C 
HETATM   20  N1  UNL     1      99.436  17.724  14.242  1.00  0.00    -0.389 N 
ATOM     21  H12 UNL     1      98.584  17.699  13.680  1.00  0.00     0.157 HD
ATOM     22  H11 UNL     1      99.618  16.986  14.922  1.00  0.00     0.157 HD
ENDBRANCH  16  18
ENDBRANCH  13  16
ENDBRANCH   1  10
BRANCH   1  23
HETATM   23  C7  UNL     1     103.703  15.025  19.531  1.00  0.00     0.115 C 
HETATM   24  N4  UNL     1     104.479  14.044  19.275  1.00  0.00    -0.389 N 
ATOM     25  H42 UNL     1     105.291  14.190  18.675  1.00  0.00     0.157 HD
ATOM     26  H41 UNL     1     104.269  13.144  19.706  1.00  0.00     0.157 HD
HETATM   27  N5  UNL     1     102.570  14.822  20.369  1.00  0.00    -0.085 NA
ENDBRANCH   1  23
TORSDOF 4
ENDMDL
MODEL 3
REMARK VINA RESULT: -6.663343486      3.276      6.209
REMARK  4 active torsions:
REMARK  status: ('A' for Active; 'I' for Inactive)
REMARK    1  A    between atoms: C2_2  and  N2_6 
REMARK    2  A    between atoms: N2_6  and  C3_8 
REMARK    3  A    between atoms: N3_11  and  C6_12 
REMARK    4  A    between atoms: C6_12  and  C7_13 
REMARK       I    between atoms: N6_20  and  C10_21 
ROOT
HETATM    1  C6  UNL     1     103.334  17.089  16.537  1.00  0.00     0.086 C 
HETATM    2  C8  UNL     1     103.024  18.302  15.700  1.00  0.00     0.058 C 
HETATM    3  C9  UNL     1     104.380  18.968  15.393  1.00  0.00     0.128 C 
HETATM    4  N6  UNL     1     104.958  18.118  14.384  1.00  0.00    -0.352 N 
HETATM    5  C10 UNL     1     105.765  18.663  13.377  1.00  0.00     0.215 C 
HETATM    6  C11 UNL     1     106.047  20.111  13.316  1.00  0.00     0.117 C 
HETATM    7  O1  UNL     1     106.263  17.912  12.502  1.00  0.00    -0.274 OA
HETATM    8  C12 UNL     1     104.655  16.707  14.480  1.00  0.00     0.128 C 
HETATM    9  C13 UNL     1     104.538  16.417  15.965  1.00  0.00     0.058 C 
ENDROOT
BRANCH   1  10
HETATM   10  N3  UNL     1     103.372  17.435  17.880  1.00  0.00    -0.397 N 
HETATM   11  C5  UNL     1     104.595  17.272  18.577  1.00  0.00     0.120 C 
HETATM   12  C4  UNL     1     104.337  16.282  19.704  1.00  0.00     0.044 C 
HETATM   13  C3  UNL     1     103.381  17.045  20.637  1.00  0.00     0.085 C 
HETATM   14  C15 UNL     1     102.118  17.265  19.879  1.00  0.00     0.044 C 
HETATM   15  C14 UNL     1     102.335  18.045  18.570  1.00  0.00     0.120 C 
BRANCH  13  16
HETATM   16  N2  UNL     1     103.121  16.219  21.772  1.00  0.00    -0.376 N 
ATOM     17  H2  UNL     1     102.885  15.232  21.672  1.00  0.00     0.161 HD
BRANCH  16  18
HETATM   18  C2  UNL     1     103.209  16.845  23.063  1.00  0.00     0.066 C 
HETATM   19  C1  UNL     1     104.517  17.225  23.603  1.00  0.00     0.088 C 
HETATM   20  N1  UNL     1     102.135  17.067  23.736  1.00  0.00    -0.389 N 
ATOM     21  H12 UNL     1     102.197  17.511  24.652  1.00  0.00     0.157 HD
ATOM     22  H11 UNL     1     101.224  16.803  23.360  1.00  0.00     0.157 HD
ENDBRANCH  16  18
ENDBRANCH  13  16
ENDBRANCH   1  10
BRANCH   1  23
HETATM   23  C7  UNL     1     102.201  16.115  16.327  1.00  0.00     0.115 C 
HETATM   24  N4  UNL     1     102.289  14.967  16.875  1.00  0.00    -0.389 N 
ATOM     25  H42 UNL     1     103.100  14.748  17.454  1.00  0.00     0.157 HD
ATOM     26  H41 UNL     1     101.523  14.308  16.733  1.00  0.00     0.157 HD
HETATM   27  N5  UNL     1     101.069  16.421  15.520  1.00  0.00    -0.085 NA
ENDBRANCH   1  23
TORSDOF 4
ENDMDL
MODEL 4
REMARK VINA RESULT: -6.569742505      3.344      4.555
REMARK  4 active torsions:
REMARK  status: ('A' for Active; 'I' for Inactive)
REMARK    1  A    between atoms: C2_2  and  N2_6 
REMARK    2  A    between atoms: N2_6  and  C3_8 
REMARK    3  A    between atoms: N3_11  and  C6_12 
REMARK    4  A    between atoms: C6_12  and  C7_13 
REMARK       I    between atoms: N6_20  and  C10_21 
ROOT
HETATM    1  C6  UNL     1     103.132  17.160  16.606  1.00  0.00     0.086 C 
HETATM    2  C8  UNL     1     104.211  16.271  17.166  1.00  0.00     0.058 C 
HETATM    3  C9  UNL     1     104.924  17.097  18.255  1.00  0.00     0.128 C 
HETATM    4  N6  UNL     1     103.998  17.080  19.357  1.00  0.00    -0.352 N 
HETATM    5  C10 UNL     1     104.470  17.073  20.677  1.00  0.00     0.215 C 
HETATM    6  C11 UNL     1     105.916  17.083  20.978  1.00  0.00     0.117 C 
HETATM    7  O1  UNL     1     103.653  17.057  21.631  1.00  0.00    -0.274 OA
HETATM    8  C12 UNL     1     102.592  17.070  19.019  1.00  0.00     0.128 C 
HETATM    9  C13 UNL     1     102.478  17.877  17.739  1.00  0.00     0.058 C 
ENDROOT
BRANCH   1  10
HETATM   10  N3  UNL     1     103.640  17.929  15.569  1.00  0.00    -0.397 N 
HETATM   11  C5  UNL     1     104.086  17.263  14.400  1.00  0.00     0.120 C 
HETATM   12  C4  UNL     1     105.565  17.583  14.242  1.00  0.00     0.044 C 
HETATM   13  C3  UNL     1     105.574  19.090  13.937  1.00  0.00     0.085 C 
HETATM   14  C15 UNL     1     105.050  19.782  15.147  1.00  0.00     0.044 C 
HETATM   15  C14 UNL     1     103.635  19.316  15.536  1.00  0.00     0.120 C 
BRANCH  13  16
HETATM   16  N2  UNL     1     106.927  19.484  13.707  1.00  0.00    -0.376 N 
ATOM     17  H2  UNL     1     107.430  20.077  14.367  1.00  0.00     0.161 HD
BRANCH  16  18
HETATM   18  C2  UNL     1     107.546  19.005  12.501  1.00  0.00     0.066 C 
HETATM   19  C1  UNL     1     106.885  19.211  11.209  1.00  0.00     0.088 C 
HETATM   20  N1  UNL     1     108.678  18.398  12.566  1.00  0.00    -0.389 N 
ATOM     21  H12 UNL     1     109.117  18.058  11.710  1.00  0.00     0.157 HD
ATOM     22  H11 UNL     1     109.139  18.255  13.465  1.00  0.00     0.157 HD
ENDBRANCH  16  18
ENDBRANCH  13  16
ENDBRANCH   1  10
BRANCH   1  23
HETATM   23  C7  UNL     1     102.067  16.249  16.047  1.00  0.00     0.115 C 
HETATM   24  N4  UNL     1     102.236  14.990  16.161  1.00  0.00    -0.389 N 
ATOM     25  H42 UNL     1     103.063  14.636  16.643  1.00  0.00     0.157 HD
ATOM     26  H41 UNL     1     101.516  14.374  15.783  1.00  0.00     0.157 HD
HETATM   27  N5  UNL     1     100.913  16.743  15.375  1.00  0.00    -0.085 NA
ENDBRANCH   1  23
TORSDOF 4
ENDMDL
MODEL 5
REMARK VINA RESULT: -6.553312819      3.003      6.836
REMARK  4 active torsions:
REMARK  status: ('A' for Active; 'I' for Inactive)
REMARK    1  A    between atoms: C2_2  and  N2_6 
REMARK    2  A    between atoms: N2_6  and  C3_8 
REMARK    3  A    between atoms: N3_11  and  C6_12 
REMARK    4  A    between atoms: C6_12  and  C7_13 
REMARK       I    between atoms: N6_20  and  C10_21 
ROOT
HETATM    1  C6  UNL     1     103.279  17.398  15.937  1.00  0.00     0.086 C 
HETATM    2  C8  UNL     1     102.257  18.066  16.820  1.00  0.00     0.058 C 
HETATM    3  C9  UNL     1     102.517  19.581  16.705  1.00  0.00     0.128 C 
HETATM    4  N6  UNL     1     101.981  19.922  15.413  1.00  0.00    -0.352 N 
HETATM    5  C10 UNL     1     101.388  21.173  15.201  1.00  0.00     0.215 C 
HETATM    6  C11 UNL     1     101.293  22.174  16.283  1.00  0.00     0.117 C 
HETATM    7  O1  UNL     1     100.922  21.459  14.069  1.00  0.00    -0.274 OA
HETATM    8  C12 UNL     1     102.092  18.913  14.382  1.00  0.00     0.128 C 
HETATM    9  C13 UNL     1     103.389  18.180  14.671  1.00  0.00     0.058 C 
ENDROOT
BRANCH   1  10
HETATM   10  N3  UNL     1     104.445  17.166  16.650  1.00  0.00    -0.397 N 
HETATM   11  C5  UNL     1     104.375  16.327  17.791  1.00  0.00     0.120 C 
HETATM   12  C4  UNL     1     104.806  17.164  18.986  1.00  0.00     0.044 C 
HETATM   13  C3  UNL     1     106.295  17.436  18.714  1.00  0.00     0.085 C 
HETATM   14  C15 UNL     1     106.367  18.269  17.481  1.00  0.00     0.044 C 
HETATM   15  C14 UNL     1     105.707  17.593  16.265  1.00  0.00     0.120 C 
BRANCH  13  16
HETATM   16  N2  UNL     1     106.818  18.171  19.820  1.00  0.00    -0.376 N 
ATOM     17  H2  UNL     1     106.254  18.859  20.319  1.00  0.00     0.161 HD
BRANCH  16  18
HETATM   18  C2  UNL     1     108.178  17.895  20.197  1.00  0.00     0.066 C 
HETATM   19  C1  UNL     1     108.508  17.635  21.601  1.00  0.00     0.088 C 
HETATM   20  N1  UNL     1     109.096  17.880  19.296  1.00  0.00    -0.389 N 
ATOM     21  H12 UNL     1     110.061  17.685  19.564  1.00  0.00     0.157 HD
ATOM     22  H11 UNL     1     108.866  18.061  18.319  1.00  0.00     0.157 HD
ENDBRANCH  16  18
ENDBRANCH  13  16
ENDBRANCH   1  10
BRANCH   1  23
HETATM   23  C7  UNL     1     102.695  16.067  15.530  1.00  0.00     0.115 C 
HETATM   24  N4  UNL     1     103.316  15.387  14.646  1.00  0.00    -0.389 N 
ATOM     25  H42 UNL     1     104.190  15.744  14.260  1.00  0.00     0.157 HD
ATOM     26  H41 UNL     1     102.922  14.488  14.370  1.00  0.00     0.157 HD
HETATM   27  N5  UNL     1     101.475  15.569  16.068  1.00  0.00    -0.085 NA
ENDBRANCH   1  23
TORSDOF 4
ENDMDL
