MODEL 1
REMARK VINA RESULT: -6.089567342      0.000      0.000
REMARK  6 active torsions:
REMARK  status: ('A' for Active; 'I' for Inactive)
REMARK    1  A    between atoms: C2_2  and  O1_3 
REMARK    2  A    between atoms: O1_3  and  C3_4 
REMARK    3  A    between atoms: C3_4  and  C4_6 
REMARK    4  A    between atoms: C7_9  and  N1_10 
REMARK       I    between atoms: N1_10  and  C8_12 
REMARK       I    between atoms: C8_12  and  N2_14 
REMARK    5  A    between atoms: N2_14  and  C9_16 
REMARK    6  A    between atoms: C13_20  and  C14_21 
ROOT
HETATM    1  C4  UNL     1     103.604  16.763  16.330  1.00  0.00     0.178 C 
HETATM    2  C5  UNL     1     104.065  16.305  14.966  1.00  0.00     0.037 C 
HETATM    3  C6  UNL     1     104.039  17.487  13.990  1.00  0.00     0.030 C 
HETATM    4  C7  UNL     1     105.024  18.559  14.481  1.00  0.00     0.119 C 
HETATM    5  C13 UNL     1     104.830  18.809  15.961  1.00  0.00     0.202 C 
HETATM    6  N3  UNL     1     103.657  18.181  16.497  1.00  0.00    -0.394 N 
ATOM      7  H3  UNL     1     102.917  18.707  16.961  1.00  0.00     0.155 HD
ENDROOT
BRANCH   4   8
HETATM    8  N1  UNL     1     106.383  18.161  14.183  1.00  0.00    -0.336 N 
HETATM    9  C8  UNL     1     107.082  18.642  13.044  1.00  0.00     0.317 C 
HETATM   10  O3  UNL     1     106.502  19.440  12.265  1.00  0.00    -0.247 OA
HETATM   11  N2  UNL     1     108.414  18.211  12.812  1.00  0.00    -0.335 N 
ATOM     12  H2  UNL     1     108.872  17.562  13.453  1.00  0.00     0.165 HD
ATOM     13  H1  UNL     1     106.857  17.514  14.814  1.00  0.00     0.164 HD
BRANCH  11  14
HETATM   14  C9  UNL     1     109.112  18.716  11.637  1.00  0.00     0.023 C 
HETATM   15  C10 UNL     1     110.285  17.805  11.367  1.00  0.00     0.037 C 
HETATM   16  C11 UNL     1     108.200  18.748  10.431  1.00  0.00     0.037 C 
HETATM   17  C12 UNL     1     109.586  20.135  11.883  1.00  0.00     0.037 C 
ENDBRANCH  11  14
ENDBRANCH   4   8
BRANCH   5  18
HETATM   18  C14 UNL     1     106.047  18.527  16.751  1.00  0.00     0.198 C 
HETATM   19  O4  UNL     1     106.163  17.570  17.559  1.00  0.00    -0.646 OA
HETATM   20  O5  UNL     1     107.149  19.359  16.609  1.00  0.00    -0.646 OA
ENDBRANCH   5  18
BRANCH   1  21
HETATM   21  C3  UNL     1     102.207  16.322  16.617  1.00  0.00     0.281 C 
HETATM   22  O2  UNL     1     101.293  16.393  15.741  1.00  0.00    -0.263 OA
BRANCH  21  23
HETATM   23  O1  UNL     1     101.828  15.810  17.848  1.00  0.00    -0.320 OA
BRANCH  23  24
HETATM   24  C2  UNL     1     102.805  15.316  18.780  1.00  0.00     0.174 C 
HETATM   25  C1  UNL     1     102.932  16.245  19.948  1.00  0.00     0.034 C 
ENDBRANCH  23  24
ENDBRANCH  21  23
ENDBRANCH   1  21
TORSDOF 6
ENDMDL
MODEL 2
REMARK VINA RESULT: -5.924514906      1.427      1.743
REMARK  6 active torsions:
REMARK  status: ('A' for Active; 'I' for Inactive)
REMARK    1  A    between atoms: C2_2  and  O1_3 
REMARK    2  A    between atoms: O1_3  and  C3_4 
REMARK    3  A    between atoms: C3_4  and  C4_6 
REMARK    4  A    between atoms: C7_9  and  N1_10 
REMARK       I    between atoms: N1_10  and  C8_12 
REMARK       I    between atoms: C8_12  and  N2_14 
REMARK    5  A    between atoms: N2_14  and  C9_16 
REMARK    6  A    between atoms: C13_20  and  C14_21 
ROOT
HETATM    1  C4  UNL     1     103.293  17.597  15.917  1.00  0.00     0.178 C 
HETATM    2  C5  UNL     1     104.452  16.630  15.832  1.00  0.00     0.037 C 
HETATM    3  C6  UNL     1     104.682  16.231  14.369  1.00  0.00     0.030 C 
HETATM    4  C7  UNL     1     105.058  17.484  13.565  1.00  0.00     0.119 C 
HETATM    5  C13 UNL     1     104.109  18.617  13.887  1.00  0.00     0.202 C 
HETATM    6  N3  UNL     1     102.976  18.208  14.665  1.00  0.00    -0.394 N 
ATOM      7  H3  UNL     1     102.016  18.344  14.349  1.00  0.00     0.155 HD
ENDROOT
BRANCH   4   8
HETATM    8  N1  UNL     1     106.434  17.851  13.828  1.00  0.00    -0.336 N 
HETATM    9  C8  UNL     1     107.320  18.258  12.795  1.00  0.00     0.317 C 
HETATM   10  O3  UNL     1     106.899  18.302  11.612  1.00  0.00    -0.247 OA
HETATM   11  N2  UNL     1     108.657  18.605  13.124  1.00  0.00    -0.335 N 
ATOM     12  H2  UNL     1     108.985  18.564  14.090  1.00  0.00     0.165 HD
ATOM     13  H1  UNL     1     106.778  17.817  14.787  1.00  0.00     0.164 HD
BRANCH  11  14
HETATM   14  C9  UNL     1     109.550  19.021  12.050  1.00  0.00     0.023 C 
HETATM   15  C10 UNL     1     110.896  19.330  12.660  1.00  0.00     0.037 C 
HETATM   16  C11 UNL     1     109.697  17.931  11.010  1.00  0.00     0.037 C 
HETATM   17  C12 UNL     1     108.989  20.241  11.348  1.00  0.00     0.037 C 
ENDBRANCH  11  14
ENDBRANCH   4   8
BRANCH   5  18
HETATM   18  C14 UNL     1     104.800  19.796  14.451  1.00  0.00     0.198 C 
HETATM   19  O4  UNL     1     105.169  19.898  15.649  1.00  0.00    -0.646 OA
HETATM   20  O5  UNL     1     105.072  20.876  13.622  1.00  0.00    -0.646 OA
ENDBRANCH   5  18
BRANCH   1  21
HETATM   21  C3  UNL     1     102.058  16.933  16.427  1.00  0.00     0.281 C 
HETATM   22  O2  UNL     1     101.349  16.186  15.687  1.00  0.00    -0.263 OA
BRANCH  21  23
HETATM   23  O1  UNL     1     101.615  17.090  17.731  1.00  0.00    -0.320 OA
BRANCH  23  24
HETATM   24  C2  UNL     1     102.434  16.701  18.846  1.00  0.00     0.174 C 
HETATM   25  C1  UNL     1     102.650  15.219  18.846  1.00  0.00     0.034 C 
ENDBRANCH  23  24
ENDBRANCH  21  23
ENDBRANCH   1  21
TORSDOF 6
ENDMDL
MODEL 3
REMARK VINA RESULT: -5.868965443      4.284      5.777
REMARK  6 active torsions:
REMARK  status: ('A' for Active; 'I' for Inactive)
REMARK    1  A    between atoms: C2_2  and  O1_3 
REMARK    2  A    between atoms: O1_3  and  C3_4 
REMARK    3  A    between atoms: C3_4  and  C4_6 
REMARK    4  A    between atoms: C7_9  and  N1_10 
REMARK       I    between atoms: N1_10  and  C8_12 
REMARK       I    between atoms: C8_12  and  N2_14 
REMARK    5  A    between atoms: N2_14  and  C9_16 
REMARK    6  A    between atoms: C13_20  and  C14_21 
ROOT
HETATM    1  C4  UNL     1     103.191  15.806  18.039  1.00  0.00     0.178 C 
HETATM    2  C5  UNL     1     101.998  16.727  18.168  1.00  0.00     0.037 C 
HETATM    3  C6  UNL     1     102.417  18.161  17.825  1.00  0.00     0.030 C 
HETATM    4  C7  UNL     1     102.886  18.206  16.364  1.00  0.00     0.119 C 
HETATM    5  C13 UNL     1     103.840  17.065  16.084  1.00  0.00     0.202 C 
HETATM    6  N3  UNL     1     104.254  16.366  17.266  1.00  0.00    -0.394 N 
ATOM      7  H3  UNL     1     105.234  16.276  17.535  1.00  0.00     0.155 HD
ENDROOT
BRANCH   4   8
HETATM    8  N1  UNL     1     101.746  18.176  15.472  1.00  0.00    -0.336 N 
HETATM    9  C8  UNL     1     101.435  19.254  14.601  1.00  0.00     0.317 C 
HETATM   10  O3  UNL     1     102.173  20.271  14.602  1.00  0.00    -0.247 OA
HETATM   11  N2  UNL     1     100.301  19.157  13.753  1.00  0.00    -0.335 N 
ATOM     12  H2  UNL     1      99.710  18.325  13.764  1.00  0.00     0.165 HD
ATOM     13  H1  UNL     1     101.145  17.351  15.469  1.00  0.00     0.164 HD
BRANCH  11  14
HETATM   14  C9  UNL     1     100.000  20.274  12.867  1.00  0.00     0.023 C 
HETATM   15  C10 UNL     1      98.761  19.921  12.080  1.00  0.00     0.037 C 
HETATM   16  C11 UNL     1      99.763  21.545  13.652  1.00  0.00     0.037 C 
HETATM   17  C12 UNL     1     101.168  20.530  11.936  1.00  0.00     0.037 C 
ENDBRANCH  11  14
ENDBRANCH   4   8
BRANCH   5  18
HETATM   18  C14 UNL     1     103.352  16.161  15.022  1.00  0.00     0.198 C 
HETATM   19  O4  UNL     1     102.277  15.509  15.081  1.00  0.00    -0.646 OA
HETATM   20  O5  UNL     1     104.111  16.004  13.871  1.00  0.00    -0.646 OA
ENDBRANCH   5  18
BRANCH   1  21
HETATM   21  C3  UNL     1     103.744  15.431  19.373  1.00  0.00     0.281 C 
HETATM   22  O2  UNL     1     103.149  14.611  20.135  1.00  0.00    -0.263 OA
BRANCH  21  23
HETATM   23  O1  UNL     1     104.936  15.951  19.856  1.00  0.00    -0.320 OA
BRANCH  23  24
HETATM   24  C2  UNL     1     104.947  17.077  20.750  1.00  0.00     0.174 C 
HETATM   25  C1  UNL     1     106.353  17.493  21.052  1.00  0.00     0.034 C 
ENDBRANCH  23  24
ENDBRANCH  21  23
ENDBRANCH   1  21
TORSDOF 6
ENDMDL
MODEL 4
REMARK VINA RESULT: -5.827393363      3.882      5.978
REMARK  6 active torsions:
REMARK  status: ('A' for Active; 'I' for Inactive)
REMARK    1  A    between atoms: C2_2  and  O1_3 
REMARK    2  A    between atoms: O1_3  and  C3_4 
REMARK    3  A    between atoms: C3_4  and  C4_6 
REMARK    4  A    between atoms: C7_9  and  N1_10 
REMARK       I    between atoms: N1_10  and  C8_12 
REMARK       I    between atoms: C8_12  and  N2_14 
REMARK    5  A    between atoms: N2_14  and  C9_16 
REMARK    6  A    between atoms: C13_20  and  C14_21 
ROOT
HETATM    1  C4  UNL     1     103.787  16.438  17.737  1.00  0.00     0.178 C 
HETATM    2  C5  UNL     1     102.280  16.467  17.845  1.00  0.00     0.037 C 
HETATM    3  C6  UNL     1     101.795  17.921  17.883  1.00  0.00     0.030 C 
HETATM    4  C7  UNL     1     102.183  18.609  16.566  1.00  0.00     0.119 C 
HETATM    5  C13 UNL     1     103.628  18.314  16.227  1.00  0.00     0.202 C 
HETATM    6  N3  UNL     1     104.345  17.676  17.293  1.00  0.00    -0.394 N 
ATOM      7  H3  UNL     1     105.189  18.076  17.702  1.00  0.00     0.155 HD
ENDROOT
BRANCH   4   8
HETATM    8  N1  UNL     1     101.292  18.193  15.504  1.00  0.00    -0.336 N 
HETATM    9  C8  UNL     1     100.740  19.112  14.573  1.00  0.00     0.317 C 
HETATM   10  O3  UNL     1     101.033  20.330  14.672  1.00  0.00    -0.247 OA
HETATM   11  N2  UNL     1      99.873  18.634  13.556  1.00  0.00    -0.335 N 
ATOM     12  H2  UNL     1      99.644  17.643  13.488  1.00  0.00     0.165 HD
ATOM     13  H1  UNL     1     101.053  17.205  15.421  1.00  0.00     0.164 HD
BRANCH  11  14
HETATM   14  C9  UNL     1      99.318  19.595  12.611  1.00  0.00     0.023 C 
HETATM   15  C10 UNL     1      98.457  18.836  11.630  1.00  0.00     0.037 C 
HETATM   16  C11 UNL     1      98.485  20.640  13.320  1.00  0.00     0.037 C 
HETATM   17  C12 UNL     1     100.435  20.321  11.888  1.00  0.00     0.037 C 
ENDBRANCH  11  14
ENDBRANCH   4   8
BRANCH   5  18
HETATM   18  C14 UNL     1     103.779  17.617  14.932  1.00  0.00     0.198 C 
HETATM   19  O4  UNL     1     103.656  16.375  14.776  1.00  0.00    -0.646 OA
HETATM   20  O5  UNL     1     104.075  18.361  13.798  1.00  0.00    -0.646 OA
ENDBRANCH   5  18
BRANCH   1  21
HETATM   21  C3  UNL     1     104.426  16.091  19.040  1.00  0.00     0.281 C 
HETATM   22  O2  UNL     1     104.835  14.917  19.289  1.00  0.00    -0.263 OA
BRANCH  21  23
HETATM   23  O1  UNL     1     104.612  17.024  20.049  1.00  0.00    -0.320 OA
BRANCH  23  24
HETATM   24  C2  UNL     1     105.930  17.381  20.497  1.00  0.00     0.174 C 
HETATM   25  C1  UNL     1     105.972  17.460  21.992  1.00  0.00     0.034 C 
ENDBRANCH  23  24
ENDBRANCH  21  23
ENDBRANCH   1  21
TORSDOF 6
ENDMDL
MODEL 5
REMARK VINA RESULT: -5.823034244      1.015      1.842
REMARK  6 active torsions:
REMARK  status: ('A' for Active; 'I' for Inactive)
REMARK    1  A    between atoms: C2_2  and  O1_3 
REMARK    2  A    between atoms: O1_3  and  C3_4 
REMARK    3  A    between atoms: C3_4  and  C4_6 
REMARK    4  A    between atoms: C7_9  and  N1_10 
REMARK       I    between atoms: N1_10  and  C8_12 
REMARK       I    between atoms: C8_12  and  N2_14 
REMARK    5  A    between atoms: N2_14  and  C9_16 
REMARK    6  A    between atoms: C13_20  and  C14_21 
ROOT
HETATM    1  C4  UNL     1     103.779  16.997  16.284  1.00  0.00     0.178 C 
HETATM    2  C5  UNL     1     104.224  16.495  14.929  1.00  0.00     0.037 C 
HETATM    3  C6  UNL     1     104.245  17.659  13.931  1.00  0.00     0.030 C 
HETATM    4  C7  UNL     1     105.269  18.701  14.403  1.00  0.00     0.119 C 
HETATM    5  C13 UNL     1     105.084  18.987  15.877  1.00  0.00     0.202 C 
HETATM    6  N3  UNL     1     103.888  18.414  16.423  1.00  0.00    -0.394 N 
ATOM      7  H3  UNL     1     103.168  18.978  16.876  1.00  0.00     0.155 HD
ENDROOT
BRANCH   4   8
HETATM    8  N1  UNL     1     106.613  18.245  14.115  1.00  0.00    -0.336 N 
HETATM    9  C8  UNL     1     107.356  18.730  13.006  1.00  0.00     0.317 C 
HETATM   10  O3  UNL     1     106.833  19.584  12.247  1.00  0.00    -0.247 OA
HETATM   11  N2  UNL     1     108.670  18.240  12.782  1.00  0.00    -0.335 N 
ATOM     12  H2  UNL     1     109.082  17.546  13.407  1.00  0.00     0.165 HD
ATOM     13  H1  UNL     1     107.040  17.552  14.729  1.00  0.00     0.164 HD
BRANCH  11  14
HETATM   14  C9  UNL     1     109.415  18.751  11.639  1.00  0.00     0.023 C 
HETATM   15  C10 UNL     1     110.650  17.899  11.472  1.00  0.00     0.037 C 
HETATM   16  C11 UNL     1     108.583  18.699  10.377  1.00  0.00     0.037 C 
HETATM   17  C12 UNL     1     109.795  20.200  11.870  1.00  0.00     0.037 C 
ENDBRANCH  11  14
ENDBRANCH   4   8
BRANCH   5  18
HETATM   18  C14 UNL     1     106.289  18.673  16.675  1.00  0.00     0.198 C 
HETATM   19  O4  UNL     1     106.371  17.722  17.494  1.00  0.00    -0.646 OA
HETATM   20  O5  UNL     1     107.419  19.465  16.526  1.00  0.00    -0.646 OA
ENDBRANCH   5  18
BRANCH   1  21
HETATM   21  C3  UNL     1     102.367  16.616  16.576  1.00  0.00     0.281 C 
HETATM   22  O2  UNL     1     102.067  15.473  17.034  1.00  0.00    -0.263 OA
BRANCH  21  23
HETATM   23  O1  UNL     1     101.305  17.483  16.368  1.00  0.00    -0.320 OA
BRANCH  23  24
HETATM   24  C2  UNL     1     100.664  17.578  15.085  1.00  0.00     0.174 C 
HETATM   25  C1  UNL     1     100.891  18.931  14.485  1.00  0.00     0.034 C 
ENDBRANCH  23  24
ENDBRANCH  21  23
ENDBRANCH   1  21
TORSDOF 6
ENDMDL
