MODEL 1
REMARK VINA RESULT: -7.454281776      0.000      0.000
REMARK  7 active torsions:
REMARK  status: ('A' for Active; 'I' for Inactive)
REMARK    1  A    between atoms: C1_2  and  C2_4 
REMARK    2  A    between atoms: C2_4  and  C3_5 
REMARK    3  A    between atoms: C3_5  and  C4_7 
REMARK       I    between atoms: C4_7  and  N1_9 
REMARK    4  A    between atoms: N1_9  and  N2_11 
REMARK    5  A    between atoms: N2_11  and  C5_13 
REMARK    6  A    between atoms: C5_13  and  N3_15 
REMARK       I    between atoms: N3_15  and  C6_17 
REMARK    7  A    between atoms: C6_17  and  C7_19 
ROOT
HETATM    1  N2  UNL     1     101.550  17.304  19.208  1.00  0.00    -0.273 N 
ATOM      2  H2  UNL     1     100.584  17.525  18.965  1.00  0.00     0.189 HD
ENDROOT
BRANCH   1   3
HETATM    3  N1  UNL     1     101.917  17.052  20.525  1.00  0.00    -0.261 N 
HETATM    4  C4  UNL     1     101.260  17.739  21.576  1.00  0.00     0.306 C 
HETATM    5  O4  UNL     1     100.353  18.553  21.334  1.00  0.00    -0.263 OA
ATOM      6  H1  UNL     1     102.654  16.379  20.733  1.00  0.00     0.190 HD
BRANCH   4   7
HETATM    7  C3  UNL     1     101.658  17.485  22.949  1.00  0.00     0.228 C 
HETATM    8  O3  UNL     1     100.907  17.761  23.931  1.00  0.00    -0.287 OA
BRANCH   7   9
HETATM    9  C2  UNL     1     102.979  16.880  23.214  1.00  0.00     0.202 C 
BRANCH   9  10
HETATM   10  C1  UNL     1     102.992  16.064  24.463  1.00  0.00     0.180 C 
HETATM   11  O1  UNL     1     103.365  16.632  25.516  1.00  0.00    -0.648 OA
HETATM   12  O2  UNL     1     102.620  14.738  24.518  1.00  0.00    -0.648 OA
ENDBRANCH   9  10
ENDBRANCH   7   9
ENDBRANCH   4   7
ENDBRANCH   1   3
BRANCH   1  13
HETATM   13  C5  UNL     1     102.572  17.243  18.197  1.00  0.00     0.193 C 
HETATM   14  S1  UNL     1     102.226  16.601  16.724  1.00  0.00    -0.039 SA
BRANCH  13  15
HETATM   15  N3  UNL     1     103.879  17.724  18.434  1.00  0.00    -0.298 N 
HETATM   16  C6  UNL     1     104.800  17.054  19.246  1.00  0.00     0.257 C 
HETATM   17  O5  UNL     1     104.469  15.957  19.806  1.00  0.00    -0.267 OA
ATOM     18  H3  UNL     1     104.165  18.598  17.993  1.00  0.00     0.171 HD
BRANCH  16  19
HETATM   19  C7  UNL     1     106.167  17.557  19.502  1.00  0.00     0.032 A 
HETATM   20  C8  UNL     1     107.011  17.978  18.504  1.00  0.00     0.017 A 
HETATM   21  C9  UNL     1     108.300  18.446  18.768  1.00  0.00     0.001 A 
HETATM   22  C10 UNL     1     108.740  18.487  20.077  1.00  0.00     0.000 A 
HETATM   23  C11 UNL     1     107.914  18.069  21.098  1.00  0.00     0.001 A 
HETATM   24  C12 UNL     1     106.650  17.613  20.807  1.00  0.00     0.017 A 
ENDBRANCH  16  19
ENDBRANCH  13  15
ENDBRANCH   1  13
TORSDOF 7
ENDMDL
MODEL 2
REMARK VINA RESULT: -7.205997687      3.717      6.497
REMARK  7 active torsions:
REMARK  status: ('A' for Active; 'I' for Inactive)
REMARK    1  A    between atoms: C1_2  and  C2_4 
REMARK    2  A    between atoms: C2_4  and  C3_5 
REMARK    3  A    between atoms: C3_5  and  C4_7 
REMARK       I    between atoms: C4_7  and  N1_9 
REMARK    4  A    between atoms: N1_9  and  N2_11 
REMARK    5  A    between atoms: N2_11  and  C5_13 
REMARK    6  A    between atoms: C5_13  and  N3_15 
REMARK       I    between atoms: N3_15  and  C6_17 
REMARK    7  A    between atoms: C6_17  and  C7_19 
ROOT
HETATM    1  N2  UNL     1     104.065  15.932  17.647  1.00  0.00    -0.273 N 
ATOM      2  H2  UNL     1     103.992  14.915  17.692  1.00  0.00     0.189 HD
ENDROOT
BRANCH   1   3
HETATM    3  N1  UNL     1     104.738  16.555  16.602  1.00  0.00    -0.261 N 
HETATM    4  C4  UNL     1     104.137  16.612  15.321  1.00  0.00     0.306 C 
HETATM    5  O4  UNL     1     103.012  16.123  15.123  1.00  0.00    -0.263 OA
ATOM      6  H1  UNL     1     105.658  16.967  16.757  1.00  0.00     0.190 HD
BRANCH   4   7
HETATM    7  C3  UNL     1     104.851  17.249  14.229  1.00  0.00     0.228 C 
HETATM    8  O3  UNL     1     105.280  16.597  13.232  1.00  0.00    -0.287 OA
BRANCH   7   9
HETATM    9  C2  UNL     1     105.082  18.708  14.274  1.00  0.00     0.202 C 
BRANCH   9  10
HETATM   10  C1  UNL     1     106.352  19.064  14.970  1.00  0.00     0.180 C 
HETATM   11  O1  UNL     1     106.277  19.365  16.184  1.00  0.00    -0.648 OA
HETATM   12  O2  UNL     1     107.586  19.077  14.356  1.00  0.00    -0.648 OA
ENDBRANCH   9  10
ENDBRANCH   7   9
ENDBRANCH   4   7
ENDBRANCH   1   3
BRANCH   1  13
HETATM   13  C5  UNL     1     103.474  16.763  18.662  1.00  0.00     0.193 C 
HETATM   14  S1  UNL     1     102.010  17.461  18.395  1.00  0.00    -0.039 SA
BRANCH  13  15
HETATM   15  N3  UNL     1     104.120  17.001  19.896  1.00  0.00    -0.298 N 
HETATM   16  C6  UNL     1     105.485  17.291  19.995  1.00  0.00     0.257 C 
HETATM   17  O5  UNL     1     106.197  17.353  18.939  1.00  0.00    -0.267 OA
ATOM     18  H3  UNL     1     103.567  16.959  20.752  1.00  0.00     0.171 HD
BRANCH  16  19
HETATM   19  C7  UNL     1     106.166  17.535  21.285  1.00  0.00     0.032 A 
HETATM   20  C8  UNL     1     105.520  17.494  22.496  1.00  0.00     0.017 A 
HETATM   21  C9  UNL     1     106.183  17.730  23.701  1.00  0.00     0.001 A 
HETATM   22  C10 UNL     1     107.534  18.015  23.675  1.00  0.00     0.000 A 
HETATM   23  C11 UNL     1     108.208  18.064  22.474  1.00  0.00     0.001 A 
HETATM   24  C12 UNL     1     107.528  17.827  21.303  1.00  0.00     0.017 A 
ENDBRANCH  16  19
ENDBRANCH  13  15
ENDBRANCH   1  13
TORSDOF 7
ENDMDL
MODEL 3
REMARK VINA RESULT: -7.196358748      3.745      6.443
REMARK  7 active torsions:
REMARK  status: ('A' for Active; 'I' for Inactive)
REMARK    1  A    between atoms: C1_2  and  C2_4 
REMARK    2  A    between atoms: C2_4  and  C3_5 
REMARK    3  A    between atoms: C3_5  and  C4_7 
REMARK       I    between atoms: C4_7  and  N1_9 
REMARK    4  A    between atoms: N1_9  and  N2_11 
REMARK    5  A    between atoms: N2_11  and  C5_13 
REMARK    6  A    between atoms: C5_13  and  N3_15 
REMARK       I    between atoms: N3_15  and  C6_17 
REMARK    7  A    between atoms: C6_17  and  C7_19 
ROOT
HETATM    1  N2  UNL     1     104.086  15.915  17.644  1.00  0.00    -0.273 N 
ATOM      2  H2  UNL     1     104.012  14.899  17.690  1.00  0.00     0.189 HD
ENDROOT
BRANCH   1   3
HETATM    3  N1  UNL     1     104.746  16.538  16.591  1.00  0.00    -0.261 N 
HETATM    4  C4  UNL     1     104.125  16.602  15.319  1.00  0.00     0.306 C 
HETATM    5  O4  UNL     1     102.996  16.118  15.137  1.00  0.00    -0.263 OA
ATOM      6  H1  UNL     1     105.670  16.946  16.733  1.00  0.00     0.190 HD
BRANCH   4   7
HETATM    7  C3  UNL     1     104.826  17.239  14.218  1.00  0.00     0.228 C 
HETATM    8  O3  UNL     1     105.241  16.587  13.215  1.00  0.00    -0.287 OA
BRANCH   7   9
HETATM    9  C2  UNL     1     105.059  18.697  14.262  1.00  0.00     0.202 C 
BRANCH   9  10
HETATM   10  C1  UNL     1     106.326  19.052  14.964  1.00  0.00     0.180 C 
HETATM   11  O1  UNL     1     106.239  19.390  16.168  1.00  0.00    -0.648 OA
HETATM   12  O2  UNL     1     107.568  19.027  14.367  1.00  0.00    -0.648 OA
ENDBRANCH   9  10
ENDBRANCH   7   9
ENDBRANCH   4   7
ENDBRANCH   1   3
BRANCH   1  13
HETATM   13  C5  UNL     1     103.509  16.747  18.668  1.00  0.00     0.193 C 
HETATM   14  S1  UNL     1     102.036  17.435  18.427  1.00  0.00    -0.039 SA
BRANCH  13  15
HETATM   15  N3  UNL     1     104.178  16.993  19.888  1.00  0.00    -0.298 N 
HETATM   16  C6  UNL     1     105.541  17.296  19.960  1.00  0.00     0.257 C 
HETATM   17  O5  UNL     1     106.231  17.363  18.890  1.00  0.00    -0.267 OA
ATOM     18  H3  UNL     1     103.642  16.947  20.755  1.00  0.00     0.171 HD
BRANCH  16  19
HETATM   19  C7  UNL     1     106.246  17.548  21.236  1.00  0.00     0.032 A 
HETATM   20  C8  UNL     1     107.587  17.835  21.308  1.00  0.00     0.017 A 
HETATM   21  C9  UNL     1     108.233  18.066  22.524  1.00  0.00     0.001 A 
HETATM   22  C10 UNL     1     107.499  18.003  23.693  1.00  0.00     0.000 A 
HETATM   23  C11 UNL     1     106.151  17.715  23.649  1.00  0.00     0.001 A 
HETATM   24  C12 UNL     1     105.542  17.492  22.437  1.00  0.00     0.017 A 
ENDBRANCH  16  19
ENDBRANCH  13  15
ENDBRANCH   1  13
TORSDOF 7
ENDMDL
MODEL 4
REMARK VINA RESULT: -7.177146485      3.438      6.024
REMARK  7 active torsions:
REMARK  status: ('A' for Active; 'I' for Inactive)
REMARK    1  A    between atoms: C1_2  and  C2_4 
REMARK    2  A    between atoms: C2_4  and  C3_5 
REMARK    3  A    between atoms: C3_5  and  C4_7 
REMARK       I    between atoms: C4_7  and  N1_9 
REMARK    4  A    between atoms: N1_9  and  N2_11 
REMARK    5  A    between atoms: N2_11  and  C5_13 
REMARK    6  A    between atoms: C5_13  and  N3_15 
REMARK       I    between atoms: N3_15  and  C6_17 
REMARK    7  A    between atoms: C6_17  and  C7_19 
ROOT
HETATM    1  N2  UNL     1     102.287  17.402  18.673  1.00  0.00    -0.273 N 
ATOM      2  H2  UNL     1     101.400  17.816  18.961  1.00  0.00     0.189 HD
ENDROOT
BRANCH   1   3
HETATM    3  N1  UNL     1     102.907  17.791  17.491  1.00  0.00    -0.261 N 
HETATM    4  C4  UNL     1     102.128  17.978  16.323  1.00  0.00     0.306 C 
HETATM    5  O4  UNL     1     100.897  17.810  16.346  1.00  0.00    -0.263 OA
ATOM      6  H1  UNL     1     103.916  17.939  17.465  1.00  0.00     0.190 HD
BRANCH   4   7
HETATM    7  C3  UNL     1     102.782  18.368  15.087  1.00  0.00     0.228 C 
HETATM    8  O3  UNL     1     102.166  18.968  14.157  1.00  0.00    -0.287 OA
BRANCH   7   9
HETATM    9  C2  UNL     1     104.216  18.063  14.905  1.00  0.00     0.202 C 
BRANCH   9  10
HETATM   10  C1  UNL     1     104.440  16.839  14.081  1.00  0.00     0.180 C 
HETATM   11  O1  UNL     1     105.302  16.908  13.174  1.00  0.00    -0.648 OA
HETATM   12  O2  UNL     1     103.759  15.655  14.265  1.00  0.00    -0.648 OA
ENDBRANCH   9  10
ENDBRANCH   7   9
ENDBRANCH   4   7
ENDBRANCH   1   3
BRANCH   1  13
HETATM   13  C5  UNL     1     102.933  16.398  19.477  1.00  0.00     0.193 C 
HETATM   14  S1  UNL     1     102.658  14.806  19.171  1.00  0.00    -0.039 SA
BRANCH  13  15
HETATM   15  N3  UNL     1     103.806  16.741  20.533  1.00  0.00    -0.298 N 
HETATM   16  C6  UNL     1     105.134  17.128  20.327  1.00  0.00     0.257 C 
HETATM   17  O5  UNL     1     105.598  17.184  19.141  1.00  0.00    -0.267 OA
ATOM     18  H3  UNL     1     103.452  16.706  21.489  1.00  0.00     0.171 HD
BRANCH  16  19
HETATM   19  C7  UNL     1     106.053  17.482  21.430  1.00  0.00     0.032 A 
HETATM   20  C8  UNL     1     105.653  17.572  22.741  1.00  0.00     0.017 A 
HETATM   21  C9  UNL     1     106.538  17.911  23.766  1.00  0.00     0.001 A 
HETATM   22  C10 UNL     1     107.859  18.165  23.451  1.00  0.00     0.000 A 
HETATM   23  C11 UNL     1     108.287  18.083  22.144  1.00  0.00     0.001 A 
HETATM   24  C12 UNL     1     107.392  17.747  21.155  1.00  0.00     0.017 A 
ENDBRANCH  16  19
ENDBRANCH  13  15
ENDBRANCH   1  13
TORSDOF 7
ENDMDL
MODEL 5
REMARK VINA RESULT: -7.161910037      3.419      5.714
REMARK  7 active torsions:
REMARK  status: ('A' for Active; 'I' for Inactive)
REMARK    1  A    between atoms: C1_2  and  C2_4 
REMARK    2  A    between atoms: C2_4  and  C3_5 
REMARK    3  A    between atoms: C3_5  and  C4_7 
REMARK       I    between atoms: C4_7  and  N1_9 
REMARK    4  A    between atoms: N1_9  and  N2_11 
REMARK    5  A    between atoms: N2_11  and  C5_13 
REMARK    6  A    between atoms: C5_13  and  N3_15 
REMARK       I    between atoms: N3_15  and  C6_17 
REMARK    7  A    between atoms: C6_17  and  C7_19 
ROOT
HETATM    1  N2  UNL     1     102.186  17.427  18.794  1.00  0.00    -0.273 N 
ATOM      2  H2  UNL     1     101.298  17.785  19.147  1.00  0.00     0.189 HD
ENDROOT
BRANCH   1   3
HETATM    3  N1  UNL     1     102.730  17.908  17.608  1.00  0.00    -0.261 N 
HETATM    4  C4  UNL     1     101.903  18.044  16.466  1.00  0.00     0.306 C 
HETATM    5  O4  UNL     1     100.698  17.749  16.515  1.00  0.00    -0.263 OA
ATOM      6  H1  UNL     1     103.717  18.160  17.561  1.00  0.00     0.190 HD
BRANCH   4   7
HETATM    7  C3  UNL     1     102.480  18.531  15.226  1.00  0.00     0.228 C 
HETATM    8  O3  UNL     1     101.765  18.958  14.272  1.00  0.00    -0.287 OA
BRANCH   7   9
HETATM    9  C2  UNL     1     103.949  18.536  15.068  1.00  0.00     0.202 C 
BRANCH   9  10
HETATM   10  C1  UNL     1     104.495  17.182  14.761  1.00  0.00     0.180 C 
HETATM   11  O1  UNL     1     104.789  16.449  15.733  1.00  0.00    -0.648 OA
HETATM   12  O2  UNL     1     104.688  16.705  13.483  1.00  0.00    -0.648 OA
ENDBRANCH   9  10
ENDBRANCH   7   9
ENDBRANCH   4   7
ENDBRANCH   1   3
BRANCH   1  13
HETATM   13  C5  UNL     1     102.912  16.409  19.507  1.00  0.00     0.193 C 
HETATM   14  S1  UNL     1     102.704  14.828  19.109  1.00  0.00    -0.039 SA
BRANCH  13  15
HETATM   15  N3  UNL     1     103.808  16.730  20.551  1.00  0.00    -0.298 N 
HETATM   16  C6  UNL     1     105.116  17.169  20.322  1.00  0.00     0.257 C 
HETATM   17  O5  UNL     1     105.540  17.296  19.126  1.00  0.00    -0.267 OA
ATOM     18  H3  UNL     1     103.487  16.638  21.515  1.00  0.00     0.171 HD
BRANCH  16  19
HETATM   19  C7  UNL     1     106.059  17.500  21.412  1.00  0.00     0.032 A 
HETATM   20  C8  UNL     1     107.395  17.739  21.202  1.00  0.00     0.017 A 
HETATM   21  C9  UNL     1     108.269  18.047  22.247  1.00  0.00     0.001 A 
HETATM   22  C10 UNL     1     107.773  18.112  23.534  1.00  0.00     0.000 A 
HETATM   23  C11 UNL     1     106.436  17.876  23.774  1.00  0.00     0.001 A 
HETATM   24  C12 UNL     1     105.600  17.575  22.725  1.00  0.00     0.017 A 
ENDBRANCH  16  19
ENDBRANCH  13  15
ENDBRANCH   1  13
TORSDOF 7
ENDMDL
