MODEL 1
REMARK VINA RESULT: -7.037698484      0.000      0.000
REMARK  5 active torsions:
REMARK  status: ('A' for Active; 'I' for Inactive)
REMARK    1  A    between atoms: C2_2  and  C3_3 
REMARK    2  A    between atoms: C3_3  and  N1_4 
REMARK    3  A    between atoms: N1_4  and  C4_7 
REMARK    4  A    between atoms: C6_9  and  C8_11 
REMARK    5  A    between atoms: C9_12  and  C10_13 
ROOT
HETATM    1  C8  UNL     1     -14.407  17.128 -18.272  1.00  0.00    -0.090 C 
HETATM    2  C9  UNL     1     -15.466  17.328 -18.834  1.00  0.00    -0.074 C 
ENDROOT
BRANCH   2   3
HETATM    3  C10 UNL     1     -16.718  17.555 -19.524  1.00  0.00     0.109 C 
HETATM    4  C11 UNL     1     -16.811  17.591 -20.816  1.00  0.00     0.131 C 
HETATM    5  O1  UNL     1     -15.710  17.415 -21.609  1.00  0.00    -0.276 OA
HETATM    6  S2  UNL     1     -18.382  17.874 -21.599  1.00  0.00    -0.028 SA
HETATM    7  C12 UNL     1     -15.597  17.573 -22.956  1.00  0.00     0.222 C 
HETATM    8  S1  UNL     1     -14.098  17.272 -23.611  1.00  0.00    -0.032 SA
HETATM    9  N2  UNL     1     -16.648  17.962 -23.786  1.00  0.00    -0.308 N 
HETATM   10  C13 UNL     1     -17.977  18.243 -23.317  1.00  0.00     0.147 C 
ATOM     11  H2  UNL     1     -16.462  18.052 -24.784  1.00  0.00     0.171 HD
HETATM   12  N3  UNL     1     -18.821  18.724 -24.062  1.00  0.00    -0.379 N 
ATOM     13  H32 UNL     1     -18.592  18.933 -25.034  1.00  0.00     0.158 HD
ATOM     14  H31 UNL     1     -19.764  18.924 -23.730  1.00  0.00     0.158 HD
ENDBRANCH   2   3
BRANCH   1  15
HETATM   15  C6  UNL     1     -13.114  16.877 -17.616  1.00  0.00     0.050 A 
HETATM   16  C4  UNL     1     -12.666  17.977 -16.696  1.00  0.00     0.207 A 
HETATM   17  C5  UNL     1     -12.010  17.789 -18.009  1.00  0.00     0.059 A 
HETATM   18  C7  UNL     1     -12.739  15.454 -17.350  1.00  0.00     0.031 C 
BRANCH  16  19
HETATM   19  N1  UNL     1     -12.049  17.517 -15.474  1.00  0.00    -0.069 N 
ATOM     20  H12 UNL     1     -11.034  17.604 -15.522  1.00  0.00     0.277 HD
ATOM     21  H11 UNL     1     -12.125  16.504 -15.386  1.00  0.00     0.277 HD
BRANCH  19  22
HETATM   22  C3  UNL     1     -12.573  18.181 -14.301  1.00  0.00     0.232 C 
BRANCH  22  23
HETATM   23  C2  UNL     1     -14.098  18.013 -14.331  1.00  0.00     0.023 C 
HETATM   24  C1  UNL     1     -14.378  16.562 -13.918  1.00  0.00     0.007 C 
ENDBRANCH  22  23
ENDBRANCH  19  22
ENDBRANCH  16  19
ENDBRANCH   1  15
TORSDOF 5
ENDMDL
MODEL 2
REMARK VINA RESULT: -6.785919657      0.769      1.194
REMARK  5 active torsions:
REMARK  status: ('A' for Active; 'I' for Inactive)
REMARK    1  A    between atoms: C2_2  and  C3_3 
REMARK    2  A    between atoms: C3_3  and  N1_4 
REMARK    3  A    between atoms: N1_4  and  C4_7 
REMARK    4  A    between atoms: C6_9  and  C8_11 
REMARK    5  A    between atoms: C9_12  and  C10_13 
ROOT
HETATM    1  C8  UNL     1     -14.357  17.148 -18.270  1.00  0.00    -0.090 C 
HETATM    2  C9  UNL     1     -15.413  17.347 -18.838  1.00  0.00    -0.074 C 
ENDROOT
BRANCH   2   3
HETATM    3  C10 UNL     1     -16.678  17.561 -19.508  1.00  0.00     0.109 C 
HETATM    4  C11 UNL     1     -16.793  17.592 -20.799  1.00  0.00     0.131 C 
HETATM    5  O1  UNL     1     -15.704  17.420 -21.609  1.00  0.00    -0.276 OA
HETATM    6  S2  UNL     1     -18.378  17.860 -21.558  1.00  0.00    -0.028 SA
HETATM    7  C12 UNL     1     -15.613  17.574 -22.958  1.00  0.00     0.222 C 
HETATM    8  S1  UNL     1     -14.123  17.281 -23.636  1.00  0.00    -0.032 SA
HETATM    9  N2  UNL     1     -16.680  17.952 -23.772  1.00  0.00    -0.308 N 
HETATM   10  C13 UNL     1     -18.004  18.225 -23.283  1.00  0.00     0.147 C 
ATOM     11  H2  UNL     1     -16.511  18.039 -24.774  1.00  0.00     0.171 HD
HETATM   12  N3  UNL     1     -18.863  18.697 -24.016  1.00  0.00    -0.379 N 
ATOM     13  H32 UNL     1     -18.652  18.903 -24.993  1.00  0.00     0.158 HD
ATOM     14  H31 UNL     1     -19.803  18.891 -23.669  1.00  0.00     0.158 HD
ENDBRANCH   2   3
BRANCH   1  15
HETATM   15  C6  UNL     1     -13.085  16.879 -17.582  1.00  0.00     0.050 A 
HETATM   16  C4  UNL     1     -12.605  18.005 -16.711  1.00  0.00     0.207 A 
HETATM   17  C5  UNL     1     -11.939  17.723 -18.002  1.00  0.00     0.059 A 
HETATM   18  C7  UNL     1     -12.774  15.457 -17.238  1.00  0.00     0.031 C 
BRANCH  16  19
HETATM   19  N1  UNL     1     -12.025  17.583 -15.458  1.00  0.00    -0.069 N 
ATOM     20  H12 UNL     1     -11.014  17.477 -15.540  1.00  0.00     0.277 HD
ATOM     21  H11 UNL     1     -12.276  16.617 -15.246  1.00  0.00     0.277 HD
BRANCH  19  22
HETATM   22  C3  UNL     1     -12.367  18.461 -14.362  1.00  0.00     0.232 C 
BRANCH  22  23
HETATM   23  C2  UNL     1     -13.119  19.658 -14.960  1.00  0.00     0.023 C 
HETATM   24  C1  UNL     1     -12.463  20.915 -14.371  1.00  0.00     0.007 C 
ENDBRANCH  22  23
ENDBRANCH  19  22
ENDBRANCH  16  19
ENDBRANCH   1  15
TORSDOF 5
ENDMDL
MODEL 3
REMARK VINA RESULT: -6.348830806      1.814      2.631
REMARK  5 active torsions:
REMARK  status: ('A' for Active; 'I' for Inactive)
REMARK    1  A    between atoms: C2_2  and  C3_3 
REMARK    2  A    between atoms: C3_3  and  N1_4 
REMARK    3  A    between atoms: N1_4  and  C4_7 
REMARK    4  A    between atoms: C6_9  and  C8_11 
REMARK    5  A    between atoms: C9_12  and  C10_13 
ROOT
HETATM    1  C8  UNL     1     -13.647  16.551 -18.360  1.00  0.00    -0.090 C 
HETATM    2  C9  UNL     1     -14.032  16.769 -19.492  1.00  0.00    -0.074 C 
ENDROOT
BRANCH   2   3
HETATM    3  C10 UNL     1     -14.508  17.045 -20.831  1.00  0.00     0.109 C 
HETATM    4  C11 UNL     1     -15.691  17.515 -21.072  1.00  0.00     0.131 C 
HETATM    5  O1  UNL     1     -16.568  17.780 -20.055  1.00  0.00    -0.276 OA
HETATM    6  S2  UNL     1     -16.213  17.831 -22.742  1.00  0.00    -0.028 SA
HETATM    7  C12 UNL     1     -17.882  18.123 -20.131  1.00  0.00     0.222 C 
HETATM    8  S1  UNL     1     -18.664  18.378 -18.685  1.00  0.00    -0.032 SA
HETATM    9  N2  UNL     1     -18.581  18.268 -21.329  1.00  0.00    -0.308 N 
HETATM   10  C13 UNL     1     -17.996  18.072 -22.628  1.00  0.00     0.147 C 
ATOM     11  H2  UNL     1     -19.566  18.529 -21.281  1.00  0.00     0.171 HD
HETATM   12  N3  UNL     1     -18.688  18.064 -23.637  1.00  0.00    -0.379 N 
ATOM     13  H32 UNL     1     -19.697  18.200 -23.572  1.00  0.00     0.158 HD
ATOM     14  H31 UNL     1     -18.273  17.924 -24.558  1.00  0.00     0.158 HD
ENDBRANCH   2   3
BRANCH   1  15
HETATM   15  C6  UNL     1     -13.205  16.297 -16.980  1.00  0.00     0.050 A 
HETATM   16  C4  UNL     1     -14.130  16.838 -15.927  1.00  0.00     0.207 A 
HETATM   17  C5  UNL     1     -12.836  17.502 -16.195  1.00  0.00     0.059 A 
HETATM   18  C7  UNL     1     -12.395  15.065 -16.730  1.00  0.00     0.031 C 
BRANCH  16  19
HETATM   19  N1  UNL     1     -14.309  15.969 -14.788  1.00  0.00    -0.069 N 
ATOM     20  H12 UNL     1     -13.454  15.911 -14.235  1.00  0.00     0.277 HD
ATOM     21  H11 UNL     1     -14.383  14.994 -15.080  1.00  0.00     0.277 HD
BRANCH  19  22
HETATM   22  C3  UNL     1     -15.435  16.351 -13.966  1.00  0.00     0.232 C 
BRANCH  22  23
HETATM   23  C2  UNL     1     -15.025  17.616 -13.199  1.00  0.00     0.023 C 
HETATM   24  C1  UNL     1     -16.280  18.094 -12.456  1.00  0.00     0.007 C 
ENDBRANCH  22  23
ENDBRANCH  19  22
ENDBRANCH  16  19
ENDBRANCH   1  15
TORSDOF 5
ENDMDL
MODEL 4
REMARK VINA RESULT: -6.340182387      2.127      3.472
REMARK  5 active torsions:
REMARK  status: ('A' for Active; 'I' for Inactive)
REMARK    1  A    between atoms: C2_2  and  C3_3 
REMARK    2  A    between atoms: C3_3  and  N1_4 
REMARK    3  A    between atoms: N1_4  and  C4_7 
REMARK    4  A    between atoms: C6_9  and  C8_11 
REMARK    5  A    between atoms: C9_12  and  C10_13 
ROOT
HETATM    1  C8  UNL     1     -14.739  17.327 -18.163  1.00  0.00    -0.090 C 
HETATM    2  C9  UNL     1     -14.134  17.092 -19.191  1.00  0.00    -0.074 C 
ENDROOT
BRANCH   2   3
HETATM    3  C10 UNL     1     -13.408  16.837 -20.417  1.00  0.00     0.109 C 
HETATM    4  C11 UNL     1     -13.915  17.050 -21.590  1.00  0.00     0.131 C 
HETATM    5  O1  UNL     1     -15.186  17.535 -21.734  1.00  0.00    -0.276 OA
HETATM    6  S2  UNL     1     -12.967  16.714 -23.057  1.00  0.00    -0.028 SA
HETATM    7  C12 UNL     1     -15.923  17.670 -22.869  1.00  0.00     0.222 C 
HETATM    8  S1  UNL     1     -17.450  18.303 -22.688  1.00  0.00    -0.032 SA
HETATM    9  N2  UNL     1     -15.470  17.314 -24.139  1.00  0.00    -0.308 N 
HETATM   10  C13 UNL     1     -14.169  16.761 -24.400  1.00  0.00     0.147 C 
ATOM     11  H2  UNL     1     -16.099  17.453 -24.930  1.00  0.00     0.171 HD
HETATM   12  N3  UNL     1     -13.877  16.326 -25.506  1.00  0.00    -0.379 N 
ATOM     13  H32 UNL     1     -14.557  16.352 -26.267  1.00  0.00     0.158 HD
ATOM     14  H31 UNL     1     -12.954  15.934 -25.692  1.00  0.00     0.158 HD
ENDBRANCH   2   3
BRANCH   1  15
HETATM   15  C6  UNL     1     -15.470  17.639 -16.925  1.00  0.00     0.050 A 
HETATM   16  C4  UNL     1     -14.610  18.185 -15.822  1.00  0.00     0.207 A 
HETATM   17  C5  UNL     1     -15.125  16.800 -15.750  1.00  0.00     0.059 A 
HETATM   18  C7  UNL     1     -16.903  18.047 -17.054  1.00  0.00     0.031 C 
BRANCH  16  19
HETATM   19  N1  UNL     1     -15.218  19.254 -15.066  1.00  0.00    -0.069 N 
ATOM     20  H12 UNL     1     -15.875  18.888 -14.377  1.00  0.00     0.277 HD
ATOM     21  H11 UNL     1     -15.867  19.788 -15.645  1.00  0.00     0.277 HD
BRANCH  19  22
HETATM   22  C3  UNL     1     -14.243  20.122 -14.443  1.00  0.00     0.232 C 
BRANCH  22  23
HETATM   23  C2  UNL     1     -12.942  19.989 -15.247  1.00  0.00     0.023 C 
HETATM   24  C1  UNL     1     -12.503  21.418 -15.593  1.00  0.00     0.007 C 
ENDBRANCH  22  23
ENDBRANCH  19  22
ENDBRANCH  16  19
ENDBRANCH   1  15
TORSDOF 5
ENDMDL
MODEL 5
REMARK VINA RESULT: -6.307301434      1.692      2.896
REMARK  5 active torsions:
REMARK  status: ('A' for Active; 'I' for Inactive)
REMARK    1  A    between atoms: C2_2  and  C3_3 
REMARK    2  A    between atoms: C3_3  and  N1_4 
REMARK    3  A    between atoms: N1_4  and  C4_7 
REMARK    4  A    between atoms: C6_9  and  C8_11 
REMARK    5  A    between atoms: C9_12  and  C10_13 
ROOT
HETATM    1  C8  UNL     1     -16.391  18.224 -16.229  1.00  0.00    -0.090 C 
HETATM    2  C9  UNL     1     -17.140  18.263 -17.185  1.00  0.00    -0.074 C 
ENDROOT
BRANCH   2   3
HETATM    3  C10 UNL     1     -18.011  18.308 -18.341  1.00  0.00     0.109 C 
HETATM    4  C11 UNL     1     -17.608  18.007 -19.535  1.00  0.00     0.131 C 
HETATM    5  O1  UNL     1     -16.315  17.626 -19.771  1.00  0.00    -0.276 OA
HETATM    6  S2  UNL     1     -18.731  18.083 -20.912  1.00  0.00    -0.028 SA
HETATM    7  C12 UNL     1     -15.689  17.428 -20.962  1.00  0.00     0.222 C 
HETATM    8  S1  UNL     1     -14.094  16.961 -20.890  1.00  0.00    -0.032 SA
HETATM    9  N2  UNL     1     -16.305  17.592 -22.202  1.00  0.00    -0.308 N 
HETATM   10  C13 UNL     1     -17.676  17.991 -22.370  1.00  0.00     0.147 C 
ATOM     11  H2  UNL     1     -15.750  17.419 -23.040  1.00  0.00     0.171 HD
HETATM   12  N3  UNL     1     -18.123  18.265 -23.476  1.00  0.00    -0.379 N 
ATOM     13  H32 UNL     1     -17.526  18.213 -24.302  1.00  0.00     0.158 HD
ATOM     14  H31 UNL     1     -19.096  18.548 -23.595  1.00  0.00     0.158 HD
ENDBRANCH   2   3
BRANCH   1  15
HETATM   15  C6  UNL     1     -15.464  18.181 -15.088  1.00  0.00     0.050 A 
HETATM   16  C4  UNL     1     -14.689  16.899 -14.970  1.00  0.00     0.207 A 
HETATM   17  C5  UNL     1     -15.794  17.192 -14.031  1.00  0.00     0.059 A 
HETATM   18  C7  UNL     1     -14.876  19.477 -14.626  1.00  0.00     0.031 C 
BRANCH  16  19
HETATM   19  N1  UNL     1     -13.309  17.071 -14.585  1.00  0.00    -0.069 N 
ATOM     20  H12 UNL     1     -13.170  16.829 -13.604  1.00  0.00     0.277 HD
ATOM     21  H11 UNL     1     -13.059  18.059 -14.548  1.00  0.00     0.277 HD
BRANCH  19  22
HETATM   22  C3  UNL     1     -12.397  16.337 -15.434  1.00  0.00     0.232 C 
BRANCH  22  23
HETATM   23  C2  UNL     1     -12.917  16.465 -16.872  1.00  0.00     0.023 C 
HETATM   24  C1  UNL     1     -12.200  17.677 -17.482  1.00  0.00     0.007 C 
ENDBRANCH  22  23
ENDBRANCH  19  22
ENDBRANCH  16  19
ENDBRANCH   1  15
TORSDOF 5
ENDMDL
