MODEL 1
REMARK VINA RESULT: -7.333034378      0.000      0.000
REMARK  5 active torsions:
REMARK  status: ('A' for Active; 'I' for Inactive)
REMARK    1  A    between atoms: C2_2  and  N1_3 
REMARK    2  A    between atoms: C3_4  and  O1_5 
REMARK    3  A    between atoms: C6_9  and  O2_10 
REMARK    4  A    between atoms: O2_10  and  O3_11 
REMARK    5  A    between atoms: C8_15  and  C10_17 
ROOT
HETATM    1  N1  UNL     1     -16.818  17.957 -21.544  1.00  0.00    -0.304 N 
HETATM    2  C3  UNL     1     -16.773  17.533 -20.288  1.00  0.00     0.154 A 
HETATM    3  C4  UNL     1     -15.533  17.000 -20.058  1.00  0.00     0.042 A 
HETATM    4  C5  UNL     1     -14.836  17.123 -21.234  1.00  0.00     0.134 A 
HETATM    5  C6  UNL     1     -15.659  17.725 -22.155  1.00  0.00     0.216 A 
HETATM    6  O4  UNL     1     -13.558  16.606 -21.103  1.00  0.00    -0.345 OA
HETATM    7  C7  UNL     1     -13.485  15.844 -19.927  1.00  0.00     0.190 C 
HETATM    8  C8  UNL     1     -14.651  16.359 -19.092  1.00  0.00     0.016 C 
HETATM    9  C9  UNL     1     -15.298  15.115 -18.482  1.00  0.00     0.023 C 
ENDROOT
BRANCH   8  10
HETATM   10  C10 UNL     1     -14.096  17.247 -18.044  1.00  0.00     0.001 C 
HETATM   11  C11 UNL     1     -15.033  17.621 -16.944  1.00  0.00     0.006 C 
HETATM   12  C12 UNL     1     -14.326  17.737 -15.605  1.00  0.00     0.005 C 
HETATM   13  C13 UNL     1     -12.949  18.281 -15.711  1.00  0.00    -0.019 C 
HETATM   14  C14 UNL     1     -12.903  19.781 -15.886  1.00  0.00     0.010 C 
HETATM   15  C15 UNL     1     -12.075  17.618 -16.747  1.00  0.00     0.005 C 
HETATM   16  C16 UNL     1     -12.900  16.534 -17.403  1.00  0.00     0.006 C 
ENDBRANCH   8  10
BRANCH   2  17
HETATM   17  O1  UNL     1     -17.806  17.602 -19.318  1.00  0.00    -0.345 OA
ATOM     18  H1  UNL     1     -18.554  17.023 -19.230  1.00  0.00     0.219 HD
ENDBRANCH   2  17
BRANCH   1  19
HETATM   19  C2  UNL     1     -17.949  18.591 -22.209  1.00  0.00     0.129 C 
HETATM   20  C1  UNL     1     -18.641  17.672 -23.165  1.00  0.00     0.027 C 
ENDBRANCH   1  19
BRANCH   5  21
HETATM   21  O2  UNL     1     -15.315  18.032 -23.497  1.00  0.00    -0.178 OA
BRANCH  21  22
HETATM   22  O3  UNL     1     -14.484  17.189 -24.157  1.00  0.00    -0.243 OA
ATOM     23  H3  UNL     1     -14.859  16.595 -24.797  1.00  0.00     0.254 HD
ENDBRANCH  21  22
ENDBRANCH   5  21
TORSDOF 5
ENDMDL
MODEL 2
REMARK VINA RESULT: -6.933792307      1.191      1.297
REMARK  5 active torsions:
REMARK  status: ('A' for Active; 'I' for Inactive)
REMARK    1  A    between atoms: C2_2  and  N1_3 
REMARK    2  A    between atoms: C3_4  and  O1_5 
REMARK    3  A    between atoms: C6_9  and  O2_10 
REMARK    4  A    between atoms: O2_10  and  O3_11 
REMARK    5  A    between atoms: C8_15  and  C10_17 
ROOT
HETATM    1  N1  UNL     1     -17.926  17.980 -20.365  1.00  0.00    -0.304 N 
HETATM    2  C3  UNL     1     -17.474  17.470 -19.226  1.00  0.00     0.154 A 
HETATM    3  C4  UNL     1     -16.163  17.117 -19.403  1.00  0.00     0.042 A 
HETATM    4  C5  UNL     1     -15.849  17.437 -20.700  1.00  0.00     0.134 A 
HETATM    5  C6  UNL     1     -16.967  17.976 -21.288  1.00  0.00     0.216 A 
HETATM    6  O4  UNL     1     -14.532  17.114 -20.980  1.00  0.00    -0.345 OA
HETATM    7  C7  UNL     1     -14.034  16.282 -19.966  1.00  0.00     0.190 C 
HETATM    8  C8  UNL     1     -14.970  16.545 -18.793  1.00  0.00     0.016 C 
HETATM    9  C9  UNL     1     -15.256  15.173 -18.182  1.00  0.00     0.023 C 
ENDROOT
BRANCH   8  10
HETATM   10  C10 UNL     1     -14.257  17.423 -17.836  1.00  0.00     0.001 C 
HETATM   11  C11 UNL     1     -14.990  17.746 -16.577  1.00  0.00     0.006 C 
HETATM   12  C12 UNL     1     -14.058  17.849 -15.382  1.00  0.00     0.005 C 
HETATM   13  C13 UNL     1     -12.735  18.432 -15.716  1.00  0.00    -0.019 C 
HETATM   14  C14 UNL     1     -12.753  19.936 -15.855  1.00  0.00     0.010 C 
HETATM   15  C15 UNL     1     -12.046  17.817 -16.909  1.00  0.00     0.005 C 
HETATM   16  C16 UNL     1     -12.950  16.727 -17.438  1.00  0.00     0.006 C 
ENDBRANCH   8  10
BRANCH   2  17
HETATM   17  O1  UNL     1     -18.190  17.304 -18.012  1.00  0.00    -0.345 OA
ATOM     18  H1  UNL     1     -19.096  17.038 -17.910  1.00  0.00     0.219 HD
ENDBRANCH   2  17
BRANCH   1  19
HETATM   19  C2  UNL     1     -19.269  18.483 -20.620  1.00  0.00     0.129 C 
HETATM   20  C1  UNL     1     -20.301  17.401 -20.595  1.00  0.00     0.027 C 
ENDBRANCH   1  19
BRANCH   5  21
HETATM   21  O2  UNL     1     -17.060  18.437 -22.627  1.00  0.00    -0.178 OA
BRANCH  21  22
HETATM   22  O3  UNL     1     -15.965  18.332 -23.420  1.00  0.00    -0.243 OA
ATOM     23  H3  UNL     1     -16.073  18.453 -24.356  1.00  0.00     0.254 HD
ENDBRANCH  21  22
ENDBRANCH   5  21
TORSDOF 5
ENDMDL
MODEL 3
REMARK VINA RESULT: -6.534148759      4.261      6.993
REMARK  5 active torsions:
REMARK  status: ('A' for Active; 'I' for Inactive)
REMARK    1  A    between atoms: C2_2  and  N1_3 
REMARK    2  A    between atoms: C3_4  and  O1_5 
REMARK    3  A    between atoms: C6_9  and  O2_10 
REMARK    4  A    between atoms: O2_10  and  O3_11 
REMARK    5  A    between atoms: C8_15  and  C10_17 
ROOT
HETATM    1  N1  UNL     1     -13.028  20.713 -14.190  1.00  0.00    -0.304 N 
HETATM    2  C3  UNL     1     -12.743  19.454 -14.498  1.00  0.00     0.154 A 
HETATM    3  C4  UNL     1     -13.880  18.860 -14.977  1.00  0.00     0.042 A 
HETATM    4  C5  UNL     1     -14.860  19.820 -14.942  1.00  0.00     0.134 A 
HETATM    5  C6  UNL     1     -14.307  20.975 -14.445  1.00  0.00     0.216 A 
HETATM    6  O4  UNL     1     -16.060  19.312 -15.412  1.00  0.00    -0.345 OA
HETATM    7  C7  UNL     1     -15.978  17.913 -15.473  1.00  0.00     0.190 C 
HETATM    8  C8  UNL     1     -14.479  17.642 -15.504  1.00  0.00     0.016 C 
HETATM    9  C9  UNL     1     -14.258  16.457 -14.564  1.00  0.00     0.023 C 
ENDROOT
BRANCH   8  10
HETATM   10  C10 UNL     1     -14.112  17.299 -16.898  1.00  0.00     0.001 C 
HETATM   11  C11 UNL     1     -12.876  16.480 -17.064  1.00  0.00     0.006 C 
HETATM   12  C12 UNL     1     -12.992  15.495 -18.214  1.00  0.00     0.005 C 
HETATM   13  C13 UNL     1     -13.771  16.021 -19.363  1.00  0.00    -0.019 C 
HETATM   14  C14 UNL     1     -12.992  16.977 -20.236  1.00  0.00     0.010 C 
HETATM   15  C15 UNL     1     -15.107  16.625 -19.010  1.00  0.00     0.005 C 
HETATM   16  C16 UNL     1     -15.272  16.506 -17.512  1.00  0.00     0.006 C 
ENDBRANCH   8  10
BRANCH   2  17
HETATM   17  O1  UNL     1     -11.492  18.799 -14.369  1.00  0.00    -0.345 OA
ATOM     18  H1  UNL     1     -10.949  18.450 -15.067  1.00  0.00     0.219 HD
ENDBRANCH   2  17
BRANCH   1  19
HETATM   19  C2  UNL     1     -12.111  21.706 -13.646  1.00  0.00     0.129 C 
HETATM   20  C1  UNL     1     -11.328  22.407 -14.711  1.00  0.00     0.027 C 
ENDBRANCH   1  19
BRANCH   5  21
HETATM   21  O2  UNL     1     -14.991  22.204 -14.250  1.00  0.00    -0.178 OA
BRANCH  21  22
HETATM   22  O3  UNL     1     -16.201  22.367 -14.839  1.00  0.00    -0.243 OA
ATOM     23  H3  UNL     1     -16.903  21.773 -14.599  1.00  0.00     0.254 HD
ENDBRANCH  21  22
ENDBRANCH   5  21
TORSDOF 5
ENDMDL
MODEL 4
REMARK VINA RESULT: -6.530086509      4.641      7.110
REMARK  5 active torsions:
REMARK  status: ('A' for Active; 'I' for Inactive)
REMARK    1  A    between atoms: C2_2  and  N1_3 
REMARK    2  A    between atoms: C3_4  and  O1_5 
REMARK    3  A    between atoms: C6_9  and  O2_10 
REMARK    4  A    between atoms: O2_10  and  O3_11 
REMARK    5  A    between atoms: C8_15  and  C10_17 
ROOT
HETATM    1  N1  UNL     1     -14.893  19.589 -13.257  1.00  0.00    -0.304 N 
HETATM    2  C3  UNL     1     -13.889  19.413 -14.106  1.00  0.00     0.154 A 
HETATM    3  C4  UNL     1     -13.756  18.071 -14.343  1.00  0.00     0.042 A 
HETATM    4  C5  UNL     1     -14.725  17.450 -13.597  1.00  0.00     0.134 A 
HETATM    5  C6  UNL     1     -15.428  18.418 -12.922  1.00  0.00     0.216 A 
HETATM    6  O4  UNL     1     -14.672  16.076 -13.769  1.00  0.00    -0.345 OA
HETATM    7  C7  UNL     1     -13.462  15.735 -14.391  1.00  0.00     0.190 C 
HETATM    8  C8  UNL     1     -13.017  17.035 -15.051  1.00  0.00     0.016 C 
HETATM    9  C9  UNL     1     -11.515  17.136 -14.786  1.00  0.00     0.023 C 
ENDROOT
BRANCH   8  10
HETATM   10  C10 UNL     1     -13.302  16.923 -16.501  1.00  0.00     0.001 C 
HETATM   11  C11 UNL     1     -12.773  18.027 -17.355  1.00  0.00     0.006 C 
HETATM   12  C12 UNL     1     -12.317  17.529 -18.716  1.00  0.00     0.005 C 
HETATM   13  C13 UNL     1     -13.155  16.426 -19.250  1.00  0.00    -0.019 C 
HETATM   14  C14 UNL     1     -14.466  16.892 -19.839  1.00  0.00     0.010 C 
HETATM   15  C15 UNL     1     -13.401  15.286 -18.294  1.00  0.00     0.005 C 
HETATM   16  C16 UNL     1     -12.680  15.616 -17.007  1.00  0.00     0.006 C 
ENDBRANCH   8  10
BRANCH   2  17
HETATM   17  O1  UNL     1     -13.071  20.414 -14.691  1.00  0.00    -0.345 OA
ATOM     18  H1  UNL     1     -13.355  21.173 -15.186  1.00  0.00     0.219 HD
ENDBRANCH   2  17
BRANCH   1  19
HETATM   19  C2  UNL     1     -15.379  20.859 -12.734  1.00  0.00     0.129 C 
HETATM   20  C1  UNL     1     -16.461  21.451 -13.580  1.00  0.00     0.027 C 
ENDBRANCH   1  19
BRANCH   5  21
HETATM   21  O2  UNL     1     -16.517  18.189 -12.040  1.00  0.00    -0.178 OA
BRANCH  21  22
HETATM   22  O3  UNL     1     -17.750  18.011 -12.573  1.00  0.00    -0.243 OA
ATOM     23  H3  UNL     1     -18.484  17.891 -11.982  1.00  0.00     0.254 HD
ENDBRANCH  21  22
ENDBRANCH   5  21
TORSDOF 5
ENDMDL
MODEL 5
REMARK VINA RESULT: -6.527967128      2.786      4.468
REMARK  5 active torsions:
REMARK  status: ('A' for Active; 'I' for Inactive)
REMARK    1  A    between atoms: C2_2  and  N1_3 
REMARK    2  A    between atoms: C3_4  and  O1_5 
REMARK    3  A    between atoms: C6_9  and  O2_10 
REMARK    4  A    between atoms: O2_10  and  O3_11 
REMARK    5  A    between atoms: C8_15  and  C10_17 
ROOT
HETATM    1  N1  UNL     1     -16.470  17.439 -17.755  1.00  0.00    -0.304 N 
HETATM    2  C3  UNL     1     -16.463  18.202 -16.669  1.00  0.00     0.154 A 
HETATM    3  C4  UNL     1     -15.367  17.872 -15.917  1.00  0.00     0.042 A 
HETATM    4  C5  UNL     1     -14.717  16.875 -16.600  1.00  0.00     0.134 A 
HETATM    5  C6  UNL     1     -15.424  16.616 -17.750  1.00  0.00     0.216 A 
HETATM    6  O4  UNL     1     -13.586  16.468 -15.914  1.00  0.00    -0.345 OA
HETATM    7  C7  UNL     1     -13.633  16.969 -14.605  1.00  0.00     0.190 C 
HETATM    8  C8  UNL     1     -14.610  18.135 -14.701  1.00  0.00     0.016 C 
HETATM    9  C9  UNL     1     -15.494  18.032 -13.457  1.00  0.00     0.023 C 
ENDROOT
BRANCH   8  10
HETATM   10  C10 UNL     1     -13.819  19.387 -14.698  1.00  0.00     0.001 C 
HETATM   11  C11 UNL     1     -14.604  20.653 -14.608  1.00  0.00     0.006 C 
HETATM   12  C12 UNL     1     -13.888  21.714 -13.791  1.00  0.00     0.005 C 
HETATM   13  C13 UNL     1     -12.413  21.690 -13.958  1.00  0.00    -0.019 C 
HETATM   14  C14 UNL     1     -11.938  22.331 -15.241  1.00  0.00     0.010 C 
HETATM   15  C15 UNL     1     -11.771  20.334 -13.796  1.00  0.00     0.005 C 
HETATM   16  C16 UNL     1     -12.875  19.348 -13.490  1.00  0.00     0.006 C 
ENDBRANCH   8  10
BRANCH   2  17
HETATM   17  O1  UNL     1     -17.406  19.200 -16.313  1.00  0.00    -0.345 OA
ATOM     18  H1  UNL     1     -17.370  19.787 -15.567  1.00  0.00     0.219 HD
ENDBRANCH   2  17
BRANCH   1  19
HETATM   19  C2  UNL     1     -17.456  17.457 -18.826  1.00  0.00     0.129 C 
HETATM   20  C1  UNL     1     -16.854  17.788 -20.155  1.00  0.00     0.027 C 
ENDBRANCH   1  19
BRANCH   5  21
HETATM   21  O2  UNL     1     -15.083  15.650 -18.732  1.00  0.00    -0.178 OA
BRANCH  21  22
HETATM   22  O3  UNL     1     -15.531  14.381 -18.569  1.00  0.00    -0.243 OA
ATOM     23  H3  UNL     1     -14.958  13.665 -18.818  1.00  0.00     0.254 HD
ENDBRANCH  21  22
ENDBRANCH   5  21
TORSDOF 5
ENDMDL
