MODEL 1
REMARK VINA RESULT: -6.180404857      0.000      0.000
REMARK  7 active torsions:
REMARK  status: ('A' for Active; 'I' for Inactive)
REMARK    1  A    between atoms: C2_2  and  N1_3 
REMARK    2  A    between atoms: N1_3  and  C3_4 
REMARK    3  A    between atoms: N1_3  and  C11_17 
REMARK    4  A    between atoms: C5_6  and  O1_7 
REMARK    5  A    between atoms: N2_9  and  C6_10 
REMARK    6  A    between atoms: C10_14  and  O2_15 
REMARK    7  A    between atoms: C14_20  and  O3_21 
ROOT
HETATM    1  C3  UNL     1     -14.139  18.229 -15.910  1.00  0.00     0.086 A 
HETATM    2  C4  UNL     1     -12.796  18.150 -16.218  1.00  0.00     0.089 A 
HETATM    3  C5  UNL     1     -12.628  17.547 -17.447  1.00  0.00     0.147 A 
HETATM    4  N2  UNL     1     -13.862  17.254 -17.897  1.00  0.00    -0.298 N 
HETATM    5  C10 UNL     1     -14.792  17.661 -16.980  1.00  0.00     0.172 A 
ENDROOT
BRANCH   1   6
HETATM    6  N1  UNL     1     -14.676  18.803 -14.700  1.00  0.00    -0.373 N 
BRANCH   6   7
HETATM    7  C2  UNL     1     -14.602  18.052 -13.477  1.00  0.00     0.119 C 
HETATM    8  C1  UNL     1     -15.379  16.784 -13.427  1.00  0.00     0.026 C 
ENDBRANCH   6   7
BRANCH   6   9
HETATM    9  C11 UNL     1     -15.262  20.124 -14.828  1.00  0.00     0.085 C 
HETATM   10  C12 UNL     1     -16.717  20.116 -14.434  1.00  0.00     0.028 C 
HETATM   11  C13 UNL     1     -17.321  21.430 -14.137  1.00  0.00     0.034 C 
HETATM   12  C14 UNL     1     -16.409  22.602 -14.085  1.00  0.00     0.118 C 
HETATM   13  C15 UNL     1     -15.136  22.178 -13.396  1.00  0.00     0.034 C 
HETATM   14  C16 UNL     1     -14.399  21.118 -14.181  1.00  0.00     0.028 C 
BRANCH  12  15
HETATM   15  O3  UNL     1     -16.167  23.172 -15.329  1.00  0.00    -0.396 OA
ATOM     16  H3  UNL     1     -15.250  23.167 -15.577  1.00  0.00     0.210 HD
ENDBRANCH  12  15
ENDBRANCH   6   9
ENDBRANCH   1   6
BRANCH   5  17
HETATM   17  O2  UNL     1     -16.156  17.527 -17.095  1.00  0.00    -0.344 OA
ATOM     18  H2  UNL     1     -16.637  17.516 -17.915  1.00  0.00     0.219 HD
ENDBRANCH   5  17
BRANCH   3  19
HETATM   19  O1  UNL     1     -11.406  17.290 -18.101  1.00  0.00    -0.346 OA
ATOM     20  H1  UNL     1     -10.757  17.931 -18.366  1.00  0.00     0.219 HD
ENDBRANCH   3  19
BRANCH   4  21
HETATM   21  C6  UNL     1     -14.142  16.606 -19.171  1.00  0.00     0.030 C 
HETATM   22  C7  UNL     1     -15.490  17.018 -19.728  1.00  0.00     0.038 C 
HETATM   23  C8  UNL     1     -13.104  16.969 -20.214  1.00  0.00     0.038 C 
HETATM   24  C9  UNL     1     -14.094  15.093 -19.035  1.00  0.00     0.038 C 
ENDBRANCH   4  21
TORSDOF 7
ENDMDL
MODEL 2
REMARK VINA RESULT: -6.150239692      1.999      2.566
REMARK  7 active torsions:
REMARK  status: ('A' for Active; 'I' for Inactive)
REMARK    1  A    between atoms: C2_2  and  N1_3 
REMARK    2  A    between atoms: N1_3  and  C3_4 
REMARK    3  A    between atoms: N1_3  and  C11_17 
REMARK    4  A    between atoms: C5_6  and  O1_7 
REMARK    5  A    between atoms: N2_9  and  C6_10 
REMARK    6  A    between atoms: C10_14  and  O2_15 
REMARK    7  A    between atoms: C14_20  and  O3_21 
ROOT
HETATM    1  C3  UNL     1     -13.858  17.779 -15.672  1.00  0.00     0.086 A 
HETATM    2  C4  UNL     1     -12.735  17.035 -15.974  1.00  0.00     0.089 A 
HETATM    3  C5  UNL     1     -12.888  16.431 -17.205  1.00  0.00     0.147 A 
HETATM    4  N2  UNL     1     -14.099  16.799 -17.661  1.00  0.00    -0.298 N 
HETATM    5  C10 UNL     1     -14.702  17.618 -16.746  1.00  0.00     0.172 A 
ENDROOT
BRANCH   1   6
HETATM    6  N1  UNL     1     -14.039  18.543 -14.461  1.00  0.00    -0.373 N 
BRANCH   6   7
HETATM    7  C2  UNL     1     -15.151  18.242 -13.603  1.00  0.00     0.119 C 
HETATM    8  C1  UNL     1     -15.392  16.805 -13.304  1.00  0.00     0.026 C 
ENDBRANCH   6   7
BRANCH   6   9
HETATM    9  C11 UNL     1     -13.056  19.580 -14.212  1.00  0.00     0.085 C 
HETATM   10  C12 UNL     1     -12.827  20.423 -15.440  1.00  0.00     0.028 C 
HETATM   11  C13 UNL     1     -12.173  21.729 -15.227  1.00  0.00     0.034 C 
HETATM   12  C14 UNL     1     -11.962  22.161 -13.820  1.00  0.00     0.118 C 
HETATM   13  C15 UNL     1     -13.185  21.784 -13.023  1.00  0.00     0.034 C 
HETATM   14  C16 UNL     1     -13.380  20.288 -12.968  1.00  0.00     0.028 C 
BRANCH  12  15
HETATM   15  O3  UNL     1     -10.793  21.662 -13.256  1.00  0.00    -0.396 OA
ATOM     16  H3  UNL     1     -10.161  22.335 -13.035  1.00  0.00     0.210 HD
ENDBRANCH  12  15
ENDBRANCH   6   9
ENDBRANCH   1   6
BRANCH   5  17
HETATM   17  O2  UNL     1     -15.947  18.189 -16.867  1.00  0.00    -0.344 OA
ATOM     18  H2  UNL     1     -16.478  18.183 -17.655  1.00  0.00     0.219 HD
ENDBRANCH   5  17
BRANCH   3  19
HETATM   19  O1  UNL     1     -11.958  15.594 -17.855  1.00  0.00    -0.346 OA
ATOM     20  H1  UNL     1     -11.606  15.707 -18.730  1.00  0.00     0.219 HD
ENDBRANCH   3  19
BRANCH   4  21
HETATM   21  C6  UNL     1     -14.660  16.382 -18.938  1.00  0.00     0.030 C 
HETATM   22  C7  UNL     1     -15.076  14.924 -18.921  1.00  0.00     0.038 C 
HETATM   23  C8  UNL     1     -15.894  17.188 -19.288  1.00  0.00     0.038 C 
HETATM   24  C9  UNL     1     -13.670  16.609 -20.070  1.00  0.00     0.038 C 
ENDBRANCH   4  21
TORSDOF 7
ENDMDL
MODEL 3
REMARK VINA RESULT: -6.037268007      2.967      5.220
REMARK  7 active torsions:
REMARK  status: ('A' for Active; 'I' for Inactive)
REMARK    1  A    between atoms: C2_2  and  N1_3 
REMARK    2  A    between atoms: N1_3  and  C3_4 
REMARK    3  A    between atoms: N1_3  and  C11_17 
REMARK    4  A    between atoms: C5_6  and  O1_7 
REMARK    5  A    between atoms: N2_9  and  C6_10 
REMARK    6  A    between atoms: C10_14  and  O2_15 
REMARK    7  A    between atoms: C14_20  and  O3_21 
ROOT
HETATM    1  C3  UNL     1     -15.523  17.043 -19.694  1.00  0.00     0.086 A 
HETATM    2  C4  UNL     1     -16.814  17.517 -19.579  1.00  0.00     0.089 A 
HETATM    3  C5  UNL     1     -17.283  17.915 -20.814  1.00  0.00     0.147 A 
HETATM    4  N2  UNL     1     -16.286  17.688 -21.688  1.00  0.00    -0.298 N 
HETATM    5  C10 UNL     1     -15.210  17.159 -21.029  1.00  0.00     0.172 A 
ENDROOT
BRANCH   1   6
HETATM    6  N1  UNL     1     -14.726  16.544 -18.599  1.00  0.00    -0.373 N 
BRANCH   6   7
HETATM    7  C2  UNL     1     -14.571  15.126 -18.436  1.00  0.00     0.119 C 
HETATM    8  C1  UNL     1     -13.526  14.470 -19.268  1.00  0.00     0.026 C 
ENDBRANCH   6   7
BRANCH   6   9
HETATM    9  C11 UNL     1     -14.139  17.548 -17.732  1.00  0.00     0.085 C 
HETATM   10  C12 UNL     1     -14.933  17.703 -16.460  1.00  0.00     0.028 C 
HETATM   11  C13 UNL     1     -14.249  18.379 -15.340  1.00  0.00     0.034 C 
HETATM   12  C14 UNL     1     -12.804  18.682 -15.509  1.00  0.00     0.118 C 
HETATM   13  C15 UNL     1     -12.154  17.510 -16.200  1.00  0.00     0.034 C 
HETATM   14  C16 UNL     1     -12.698  17.309 -17.595  1.00  0.00     0.028 C 
BRANCH  12  15
HETATM   15  O3  UNL     1     -12.562  19.881 -16.171  1.00  0.00    -0.396 OA
ATOM     16  H3  UNL     1     -11.988  19.790 -16.923  1.00  0.00     0.210 HD
ENDBRANCH  12  15
ENDBRANCH   6   9
ENDBRANCH   1   6
BRANCH   5  17
HETATM   17  O2  UNL     1     -14.010  16.800 -21.596  1.00  0.00    -0.344 OA
ATOM     18  H2  UNL     1     -13.911  16.313 -22.405  1.00  0.00     0.219 HD
ENDBRANCH   5  17
BRANCH   3  19
HETATM   19  O1  UNL     1     -18.554  18.451 -21.100  1.00  0.00    -0.346 OA
ATOM     20  H1  UNL     1     -19.037  18.366 -21.914  1.00  0.00     0.219 HD
ENDBRANCH   3  19
BRANCH   4  21
HETATM   21  C6  UNL     1     -16.363  17.968 -23.115  1.00  0.00     0.030 C 
HETATM   22  C7  UNL     1     -16.176  19.443 -23.411  1.00  0.00     0.038 C 
HETATM   23  C8  UNL     1     -15.288  17.225 -23.882  1.00  0.00     0.038 C 
HETATM   24  C9  UNL     1     -17.692  17.505 -23.692  1.00  0.00     0.038 C 
ENDBRANCH   4  21
TORSDOF 7
ENDMDL
MODEL 4
REMARK VINA RESULT: -6.028254286      2.801      5.115
REMARK  7 active torsions:
REMARK  status: ('A' for Active; 'I' for Inactive)
REMARK    1  A    between atoms: C2_2  and  N1_3 
REMARK    2  A    between atoms: N1_3  and  C3_4 
REMARK    3  A    between atoms: N1_3  and  C11_17 
REMARK    4  A    between atoms: C5_6  and  O1_7 
REMARK    5  A    between atoms: N2_9  and  C6_10 
REMARK    6  A    between atoms: C10_14  and  O2_15 
REMARK    7  A    between atoms: C14_20  and  O3_21 
ROOT
HETATM    1  C3  UNL     1     -15.544  16.989 -19.468  1.00  0.00     0.086 A 
HETATM    2  C4  UNL     1     -15.168  17.221 -20.776  1.00  0.00     0.089 A 
HETATM    3  C5  UNL     1     -16.251  17.664 -21.506  1.00  0.00     0.147 A 
HETATM    4  N2  UNL     1     -17.292  17.705 -20.655  1.00  0.00    -0.298 N 
HETATM    5  C10 UNL     1     -16.883  17.299 -19.413  1.00  0.00     0.172 A 
ENDROOT
BRANCH   1   6
HETATM    6  N1  UNL     1     -14.662  16.518 -18.427  1.00  0.00    -0.373 N 
BRANCH   6   7
HETATM    7  C2  UNL     1     -14.414  15.109 -18.304  1.00  0.00     0.119 C 
HETATM    8  C1  UNL     1     -13.555  14.490 -19.349  1.00  0.00     0.026 C 
ENDBRANCH   6   7
BRANCH   6   9
HETATM    9  C11 UNL     1     -14.089  17.539 -17.570  1.00  0.00     0.085 C 
HETATM   10  C12 UNL     1     -14.899  17.712 -16.311  1.00  0.00     0.028 C 
HETATM   11  C13 UNL     1     -14.232  18.409 -15.194  1.00  0.00     0.034 C 
HETATM   12  C14 UNL     1     -12.786  18.716 -15.351  1.00  0.00     0.118 C 
HETATM   13  C15 UNL     1     -12.123  17.535 -16.015  1.00  0.00     0.034 C 
HETATM   14  C16 UNL     1     -12.649  17.308 -17.412  1.00  0.00     0.028 C 
BRANCH  12  15
HETATM   15  O3  UNL     1     -12.541  19.904 -16.030  1.00  0.00    -0.396 OA
ATOM     16  H3  UNL     1     -12.506  19.802 -16.974  1.00  0.00     0.210 HD
ENDBRANCH  12  15
ENDBRANCH   6   9
ENDBRANCH   1   6
BRANCH   5  17
HETATM   17  O2  UNL     1     -17.671  17.212 -18.290  1.00  0.00    -0.344 OA
ATOM     18  H2  UNL     1     -18.545  17.576 -18.204  1.00  0.00     0.219 HD
ENDBRANCH   5  17
BRANCH   3  19
HETATM   19  O1  UNL     1     -16.264  18.006 -22.873  1.00  0.00    -0.346 OA
ATOM     20  H1  UNL     1     -16.673  17.518 -23.578  1.00  0.00     0.219 HD
ENDBRANCH   3  19
BRANCH   4  21
HETATM   21  C6  UNL     1     -18.639  18.123 -21.019  1.00  0.00     0.030 C 
HETATM   22  C7  UNL     1     -18.730  18.519 -22.479  1.00  0.00     0.038 C 
HETATM   23  C8  UNL     1     -19.640  17.006 -20.802  1.00  0.00     0.038 C 
HETATM   24  C9  UNL     1     -19.104  19.283 -20.153  1.00  0.00     0.038 C 
ENDBRANCH   4  21
TORSDOF 7
ENDMDL
MODEL 5
REMARK VINA RESULT: -5.996363757      1.566      2.168
REMARK  7 active torsions:
REMARK  status: ('A' for Active; 'I' for Inactive)
REMARK    1  A    between atoms: C2_2  and  N1_3 
REMARK    2  A    between atoms: N1_3  and  C3_4 
REMARK    3  A    between atoms: N1_3  and  C11_17 
REMARK    4  A    between atoms: C5_6  and  O1_7 
REMARK    5  A    between atoms: N2_9  and  C6_10 
REMARK    6  A    between atoms: C10_14  and  O2_15 
REMARK    7  A    between atoms: C14_20  and  O3_21 
ROOT
HETATM    1  C3  UNL     1     -13.938  18.070 -15.775  1.00  0.00     0.086 A 
HETATM    2  C4  UNL     1     -12.620  18.097 -16.187  1.00  0.00     0.089 A 
HETATM    3  C5  UNL     1     -12.510  17.565 -17.455  1.00  0.00     0.147 A 
HETATM    4  N2  UNL     1     -13.754  17.210 -17.825  1.00  0.00    -0.298 N 
HETATM    5  C10 UNL     1     -14.634  17.509 -16.821  1.00  0.00     0.172 A 
ENDROOT
BRANCH   1   6
HETATM    6  N1  UNL     1     -14.414  18.549 -14.500  1.00  0.00    -0.373 N 
BRANCH   6   7
HETATM    7  C2  UNL     1     -13.460  18.940 -13.500  1.00  0.00     0.119 C 
HETATM    8  C1  UNL     1     -13.262  20.401 -13.304  1.00  0.00     0.026 C 
ENDBRANCH   6   7
BRANCH   6   9
HETATM    9  C11 UNL     1     -15.854  18.590 -14.334  1.00  0.00     0.085 C 
HETATM   10  C12 UNL     1     -16.261  18.100 -12.968  1.00  0.00     0.028 C 
HETATM   11  C13 UNL     1     -17.624  18.455 -12.525  1.00  0.00     0.034 C 
HETATM   12  C14 UNL     1     -18.394  19.396 -13.379  1.00  0.00     0.118 C 
HETATM   13  C15 UNL     1     -17.451  20.467 -13.869  1.00  0.00     0.034 C 
HETATM   14  C16 UNL     1     -16.368  19.899 -14.755  1.00  0.00     0.028 C 
BRANCH  12  15
HETATM   15  O3  UNL     1     -19.067  18.773 -14.424  1.00  0.00    -0.396 OA
ATOM     16  H3  UNL     1     -18.687  18.946 -15.277  1.00  0.00     0.210 HD
ENDBRANCH  12  15
ENDBRANCH   6   9
ENDBRANCH   1   6
BRANCH   5  17
HETATM   17  O2  UNL     1     -15.991  17.288 -16.841  1.00  0.00    -0.344 OA
ATOM     18  H2  UNL     1     -16.644  17.919 -17.122  1.00  0.00     0.219 HD
ENDBRANCH   5  17
BRANCH   3  19
HETATM   19  O1  UNL     1     -11.330  17.423 -18.210  1.00  0.00    -0.346 OA
ATOM     20  H1  UNL     1     -11.267  17.310 -19.152  1.00  0.00     0.219 HD
ENDBRANCH   3  19
BRANCH   4  21
HETATM   21  C6  UNL     1     -14.090  16.604 -19.106  1.00  0.00     0.030 C 
HETATM   22  C7  UNL     1     -15.445  17.063 -19.608  1.00  0.00     0.038 C 
HETATM   23  C8  UNL     1     -13.078  16.971 -20.172  1.00  0.00     0.038 C 
HETATM   24  C9  UNL     1     -14.076  15.087 -19.013  1.00  0.00     0.038 C 
ENDBRANCH   4  21
TORSDOF 7
ENDMDL
