MODEL 1
REMARK VINA RESULT: -7.209262681      0.000      0.000
REMARK  6 active torsions:
REMARK  status: ('A' for Active; 'I' for Inactive)
REMARK    1  A    between atoms: C3_3  and  C5_5 
REMARK    2  A    between atoms: C5_5  and  O2_7 
REMARK    3  A    between atoms: O2_7  and  C6_8 
REMARK    4  A    between atoms: C9_11  and  C10_12 
REMARK    5  A    between atoms: C11_13  and  O3_14 
REMARK    6  A    between atoms: C13_19  and  O4_20 
ROOT
HETATM    1  C6  UNL     1     -14.966  17.341 -19.512  1.00  0.00     0.161 C 
HETATM    2  C7  UNL     1     -13.656  16.710 -19.885  1.00  0.00     0.038 C 
HETATM    3  C8  UNL     1     -13.184  15.651 -18.935  1.00  0.00     0.040 C 
HETATM    4  C9  UNL     1     -13.833  15.608 -17.623  1.00  0.00     0.162 C 
HETATM    5  O5  UNL     1     -15.209  15.934 -17.671  1.00  0.00    -0.373 OA
HETATM    6  C14 UNL     1     -15.284  17.253 -18.050  1.00  0.00     0.147 C 
HETATM    7  C15 UNL     1     -16.649  17.860 -17.826  1.00  0.00     0.042 C 
ENDROOT
BRANCH   4   8
HETATM    8  C10 UNL     1     -13.244  16.404 -16.548  1.00  0.00     0.056 A 
HETATM    9  C11 UNL     1     -13.830  16.455 -15.277  1.00  0.00     0.094 A 
HETATM   10  C12 UNL     1     -13.064  17.276 -14.477  1.00  0.00     0.127 A 
HETATM   11  N1  UNL     1     -12.039  17.724 -15.215  1.00  0.00    -0.344 N 
HETATM   12  C13 UNL     1     -12.138  17.202 -16.471  1.00  0.00     0.151 A 
ATOM     13  H1  UNL     1     -11.304  18.352 -14.889  1.00  0.00     0.167 HD
BRANCH   9  14
HETATM   14  O3  UNL     1     -14.980  15.801 -14.867  1.00  0.00    -0.359 OA
ATOM     15  H3  UNL     1     -15.195  15.530 -13.983  1.00  0.00     0.217 HD
ENDBRANCH   9  14
BRANCH  12  16
HETATM   16  O4  UNL     1     -11.271  17.436 -17.496  1.00  0.00    -0.346 OA
ATOM     17  H4  UNL     1     -10.329  17.320 -17.450  1.00  0.00     0.219 HD
ENDBRANCH  12  16
ENDBRANCH   4   8
BRANCH   1  18
HETATM   18  O2  UNL     1     -16.021  16.807 -20.293  1.00  0.00    -0.310 OA
BRANCH  18  19
HETATM   19  C5  UNL     1     -16.520  17.495 -21.389  1.00  0.00     0.289 C 
HETATM   20  O1  UNL     1     -15.674  17.727 -22.319  1.00  0.00    -0.260 OA
BRANCH  19  21
HETATM   21  C3  UNL     1     -17.891  17.934 -21.510  1.00  0.00     0.009 C 
HETATM   22  C2  UNL     1     -18.618  18.097 -20.436  1.00  0.00    -0.018 C 
HETATM   23  C1  UNL     1     -20.027  18.548 -20.562  1.00  0.00     0.036 C 
HETATM   24  C4  UNL     1     -18.461  18.198 -22.838  1.00  0.00     0.054 C 
ENDBRANCH  19  21
ENDBRANCH  18  19
ENDBRANCH   1  18
TORSDOF 6
ENDMDL
MODEL 2
REMARK VINA RESULT: -6.997988058      1.210      2.006
REMARK  6 active torsions:
REMARK  status: ('A' for Active; 'I' for Inactive)
REMARK    1  A    between atoms: C3_3  and  C5_5 
REMARK    2  A    between atoms: C5_5  and  O2_7 
REMARK    3  A    between atoms: O2_7  and  C6_8 
REMARK    4  A    between atoms: C9_11  and  C10_12 
REMARK    5  A    between atoms: C11_13  and  O3_14 
REMARK    6  A    between atoms: C13_19  and  O4_20 
ROOT
HETATM    1  C6  UNL     1     -15.129  17.415 -19.332  1.00  0.00     0.161 C 
HETATM    2  C7  UNL     1     -13.783  16.828 -19.648  1.00  0.00     0.038 C 
HETATM    3  C8  UNL     1     -13.319  15.783 -18.680  1.00  0.00     0.040 C 
HETATM    4  C9  UNL     1     -14.023  15.716 -17.397  1.00  0.00     0.162 C 
HETATM    5  O5  UNL     1     -15.406  15.997 -17.505  1.00  0.00    -0.373 OA
HETATM    6  C14 UNL     1     -15.506  17.314 -17.885  1.00  0.00     0.147 C 
HETATM    7  C15 UNL     1     -16.899  17.876 -17.721  1.00  0.00     0.042 C 
ENDROOT
BRANCH   4   8
HETATM    8  C10 UNL     1     -13.507  16.528 -16.297  1.00  0.00     0.056 A 
HETATM    9  C11 UNL     1     -14.148  16.556 -15.052  1.00  0.00     0.094 A 
HETATM   10  C12 UNL     1     -13.445  17.400 -14.219  1.00  0.00     0.127 A 
HETATM   11  N1  UNL     1     -12.404  17.883 -14.911  1.00  0.00    -0.344 N 
HETATM   12  C13 UNL     1     -12.432  17.362 -16.171  1.00  0.00     0.151 A 
ATOM     13  H1  UNL     1     -11.705  18.535 -14.554  1.00  0.00     0.167 HD
BRANCH   9  14
HETATM   14  O3  UNL     1     -15.293  15.864 -14.693  1.00  0.00    -0.359 OA
ATOM     15  H3  UNL     1     -15.859  15.364 -15.269  1.00  0.00     0.217 HD
ENDBRANCH   9  14
BRANCH  12  16
HETATM   16  O4  UNL     1     -11.531  17.628 -17.158  1.00  0.00    -0.346 OA
ATOM     17  H4  UNL     1     -11.324  18.495 -17.488  1.00  0.00     0.219 HD
ENDBRANCH  12  16
ENDBRANCH   4   8
BRANCH   1  18
HETATM   18  O2  UNL     1     -16.131  16.850 -20.158  1.00  0.00    -0.310 OA
BRANCH  18  19
HETATM   19  C5  UNL     1     -16.681  17.567 -21.210  1.00  0.00     0.289 C 
HETATM   20  O1  UNL     1     -17.857  18.024 -21.004  1.00  0.00    -0.260 OA
BRANCH  19  21
HETATM   21  C3  UNL     1     -16.005  17.804 -22.465  1.00  0.00     0.009 C 
HETATM   22  C2  UNL     1     -14.878  17.194 -22.721  1.00  0.00    -0.018 C 
HETATM   23  C1  UNL     1     -14.185  17.439 -24.012  1.00  0.00     0.036 C 
HETATM   24  C4  UNL     1     -16.587  18.729 -23.447  1.00  0.00     0.054 C 
ENDBRANCH  19  21
ENDBRANCH  18  19
ENDBRANCH   1  18
TORSDOF 6
ENDMDL
MODEL 3
REMARK VINA RESULT: -6.974703765      1.530      2.057
REMARK  6 active torsions:
REMARK  status: ('A' for Active; 'I' for Inactive)
REMARK    1  A    between atoms: C3_3  and  C5_5 
REMARK    2  A    between atoms: C5_5  and  O2_7 
REMARK    3  A    between atoms: O2_7  and  C6_8 
REMARK    4  A    between atoms: C9_11  and  C10_12 
REMARK    5  A    between atoms: C11_13  and  O3_14 
REMARK    6  A    between atoms: C13_19  and  O4_20 
ROOT
HETATM    1  C6  UNL     1     -16.267  17.842 -18.309  1.00  0.00     0.161 C 
HETATM    2  C7  UNL     1     -15.482  17.093 -19.348  1.00  0.00     0.038 C 
HETATM    3  C8  UNL     1     -14.748  15.895 -18.827  1.00  0.00     0.040 C 
HETATM    4  C9  UNL     1     -14.586  15.803 -17.374  1.00  0.00     0.162 C 
HETATM    5  O5  UNL     1     -15.701  16.300 -16.657  1.00  0.00    -0.373 OA
HETATM    6  C14 UNL     1     -15.758  17.650 -16.913  1.00  0.00     0.147 C 
HETATM    7  C15 UNL     1     -16.672  18.396 -15.970  1.00  0.00     0.042 C 
ENDROOT
BRANCH   4   8
HETATM    8  C10 UNL     1     -13.395  16.409 -16.783  1.00  0.00     0.056 A 
HETATM    9  C11 UNL     1     -13.150  16.336 -15.407  1.00  0.00     0.094 A 
HETATM   10  C12 UNL     1     -11.965  16.990 -15.140  1.00  0.00     0.127 A 
HETATM   11  N1  UNL     1     -11.486  17.456 -16.302  1.00  0.00    -0.344 N 
HETATM   12  C13 UNL     1     -12.344  17.110 -17.304  1.00  0.00     0.151 A 
ATOM     13  H1  UNL     1     -10.620  17.983 -16.418  1.00  0.00     0.167 HD
BRANCH   9  14
HETATM   14  O3  UNL     1     -13.943  15.719 -14.454  1.00  0.00    -0.359 OA
ATOM     15  H3  UNL     1     -13.890  15.829 -13.512  1.00  0.00     0.217 HD
ENDBRANCH   9  14
BRANCH  12  16
HETATM   16  O4  UNL     1     -12.184  17.413 -18.623  1.00  0.00    -0.346 OA
ATOM     17  H4  UNL     1     -11.347  17.519 -19.060  1.00  0.00     0.219 HD
ENDBRANCH  12  16
ENDBRANCH   4   8
BRANCH   1  18
HETATM   18  O2  UNL     1     -17.645  17.523 -18.395  1.00  0.00    -0.310 OA
BRANCH  18  19
HETATM   19  C5  UNL     1     -18.518  18.313 -19.128  1.00  0.00     0.289 C 
HETATM   20  O1  UNL     1     -18.953  19.352 -18.523  1.00  0.00    -0.260 OA
BRANCH  19  21
HETATM   21  C3  UNL     1     -18.931  18.018 -20.481  1.00  0.00     0.009 C 
HETATM   22  C2  UNL     1     -18.175  18.380 -21.483  1.00  0.00    -0.018 C 
HETATM   23  C1  UNL     1     -18.600  18.076 -22.873  1.00  0.00     0.036 C 
HETATM   24  C4  UNL     1     -20.196  17.313 -20.724  1.00  0.00     0.054 C 
ENDBRANCH  19  21
ENDBRANCH  18  19
ENDBRANCH   1  18
TORSDOF 6
ENDMDL
MODEL 4
REMARK VINA RESULT: -6.958934960      1.257      1.480
REMARK  6 active torsions:
REMARK  status: ('A' for Active; 'I' for Inactive)
REMARK    1  A    between atoms: C3_3  and  C5_5 
REMARK    2  A    between atoms: C5_5  and  O2_7 
REMARK    3  A    between atoms: O2_7  and  C6_8 
REMARK    4  A    between atoms: C9_11  and  C10_12 
REMARK    5  A    between atoms: C11_13  and  O3_14 
REMARK    6  A    between atoms: C13_19  and  O4_20 
ROOT
HETATM    1  C6  UNL     1     -14.456  17.458 -19.049  1.00  0.00     0.161 C 
HETATM    2  C7  UNL     1     -12.991  17.165 -18.893  1.00  0.00     0.038 C 
HETATM    3  C8  UNL     1     -12.656  16.275 -17.735  1.00  0.00     0.040 C 
HETATM    4  C9  UNL     1     -13.696  16.098 -16.719  1.00  0.00     0.162 C 
HETATM    5  O5  UNL     1     -15.005  16.071 -17.259  1.00  0.00    -0.373 OA
HETATM    6  C14 UNL     1     -15.237  17.323 -17.777  1.00  0.00     0.147 C 
HETATM    7  C15 UNL     1     -16.694  17.577 -18.089  1.00  0.00     0.042 C 
ENDROOT
BRANCH   4   8
HETATM    8  C10 UNL     1     -13.718  17.036 -15.599  1.00  0.00     0.056 A 
HETATM    9  C11 UNL     1     -14.469  16.774 -14.446  1.00  0.00     0.094 A 
HETATM   10  C12 UNL     1     -14.300  17.823 -13.568  1.00  0.00     0.127 A 
HETATM   11  N1  UNL     1     -13.476  18.709 -14.145  1.00  0.00    -0.344 N 
HETATM   12  C13 UNL     1     -13.117  18.242 -15.375  1.00  0.00     0.151 A 
ATOM     13  H1  UNL     1     -13.168  19.589 -13.731  1.00  0.00     0.167 HD
BRANCH   9  14
HETATM   14  O3  UNL     1     -15.255  15.659 -14.204  1.00  0.00    -0.359 OA
ATOM     15  H3  UNL     1     -15.973  15.593 -13.585  1.00  0.00     0.217 HD
ENDBRANCH   9  14
BRANCH  12  16
HETATM   16  O4  UNL     1     -12.289  18.877 -16.252  1.00  0.00    -0.346 OA
ATOM     17  H4  UNL     1     -12.293  18.751 -17.194  1.00  0.00     0.219 HD
ENDBRANCH  12  16
ENDBRANCH   4   8
BRANCH   1  18
HETATM   18  O2  UNL     1     -15.021  16.665 -20.077  1.00  0.00    -0.310 OA
BRANCH  18  19
HETATM   19  C5  UNL     1     -15.066  17.117 -21.388  1.00  0.00     0.289 C 
HETATM   20  O1  UNL     1     -13.979  16.986 -22.049  1.00  0.00    -0.260 OA
BRANCH  19  21
HETATM   21  C3  UNL     1     -16.238  17.700 -22.000  1.00  0.00     0.009 C 
HETATM   22  C2  UNL     1     -17.375  17.699 -21.356  1.00  0.00    -0.018 C 
HETATM   23  C1  UNL     1     -18.579  18.298 -21.987  1.00  0.00     0.036 C 
HETATM   24  C4  UNL     1     -16.146  18.291 -23.342  1.00  0.00     0.054 C 
ENDBRANCH  19  21
ENDBRANCH  18  19
ENDBRANCH   1  18
TORSDOF 6
ENDMDL
MODEL 5
REMARK VINA RESULT: -6.954874568      1.618      3.123
REMARK  6 active torsions:
REMARK  status: ('A' for Active; 'I' for Inactive)
REMARK    1  A    between atoms: C3_3  and  C5_5 
REMARK    2  A    between atoms: C5_5  and  O2_7 
REMARK    3  A    between atoms: O2_7  and  C6_8 
REMARK    4  A    between atoms: C9_11  and  C10_12 
REMARK    5  A    between atoms: C11_13  and  O3_14 
REMARK    6  A    between atoms: C13_19  and  O4_20 
ROOT
HETATM    1  C6  UNL     1     -16.257  17.307 -17.971  1.00  0.00     0.161 C 
HETATM    2  C7  UNL     1     -16.746  18.023 -16.745  1.00  0.00     0.038 C 
HETATM    3  C8  UNL     1     -15.664  18.651 -15.920  1.00  0.00     0.040 C 
HETATM    4  C9  UNL     1     -14.293  18.209 -16.186  1.00  0.00     0.162 C 
HETATM    5  O5  UNL     1     -14.052  17.933 -17.554  1.00  0.00    -0.373 OA
HETATM    6  C14 UNL     1     -14.833  16.848 -17.875  1.00  0.00     0.147 C 
HETATM    7  C15 UNL     1     -14.453  16.211 -19.191  1.00  0.00     0.042 C 
ENDROOT
BRANCH   4   8
HETATM    8  C10 UNL     1     -13.788  17.067 -15.427  1.00  0.00     0.056 A 
HETATM    9  C11 UNL     1     -12.475  16.608 -15.591  1.00  0.00     0.094 A 
HETATM   10  C12 UNL     1     -12.283  15.530 -14.753  1.00  0.00     0.127 A 
HETATM   11  N1  UNL     1     -13.428  15.319 -14.090  1.00  0.00    -0.344 N 
HETATM   12  C13 UNL     1     -14.347  16.244 -14.490  1.00  0.00     0.151 A 
ATOM     13  H1  UNL     1     -13.587  14.585 -13.398  1.00  0.00     0.167 HD
BRANCH   9  14
HETATM   14  O3  UNL     1     -11.514  17.130 -16.440  1.00  0.00    -0.359 OA
ATOM     15  H3  UNL     1     -11.295  16.818 -17.310  1.00  0.00     0.217 HD
ENDBRANCH   9  14
BRANCH  12  16
HETATM   16  O4  UNL     1     -15.626  16.338 -14.030  1.00  0.00    -0.346 OA
ATOM     17  H4  UNL     1     -15.879  16.714 -13.195  1.00  0.00     0.219 HD
ENDBRANCH  12  16
ENDBRANCH   4   8
BRANCH   1  18
HETATM   18  O2  UNL     1     -16.457  18.099 -19.129  1.00  0.00    -0.310 OA
BRANCH  18  19
HETATM   19  C5  UNL     1     -17.549  17.891 -19.959  1.00  0.00     0.289 C 
HETATM   20  O1  UNL     1     -18.668  17.737 -19.361  1.00  0.00    -0.260 OA
BRANCH  19  21
HETATM   21  C3  UNL     1     -17.468  17.845 -21.401  1.00  0.00     0.009 C 
HETATM   22  C2  UNL     1     -16.300  17.792 -21.984  1.00  0.00    -0.018 C 
HETATM   23  C1  UNL     1     -16.220  17.745 -23.467  1.00  0.00     0.036 C 
HETATM   24  C4  UNL     1     -18.698  17.857 -22.204  1.00  0.00     0.054 C 
ENDBRANCH  19  21
ENDBRANCH  18  19
ENDBRANCH   1  18
TORSDOF 6
ENDMDL
