MODEL 1
REMARK VINA RESULT: -7.851489312      0.000      0.000
REMARK  5 active torsions:
REMARK  status: ('A' for Active; 'I' for Inactive)
REMARK    1  A    between atoms: C7_7  and  O1_9 
REMARK    2  A    between atoms: C9_11  and  N1_12 
REMARK       I    between atoms: N1_12  and  C10_14 
REMARK    3  A    between atoms: C10_14  and  C11_16 
REMARK    4  A    between atoms: C13_19  and  N3_20 
REMARK    5  A    between atoms: C14_22  and  C15_24 
ROOT
HETATM    1  C11 UNL     1     105.079  17.140  20.001  1.00  0.00     0.127 C 
HETATM    2  C12 UNL     1     106.018  17.410  21.050  1.00  0.00     0.106 C 
HETATM    3  N2  UNL     1     106.798  17.621  21.900  1.00  0.00    -0.191 NA
HETATM    4  C13 UNL     1     103.834  16.816  20.306  1.00  0.00     0.118 C 
ENDROOT
BRANCH   1   5
HETATM    5  C10 UNL     1     105.513  17.227  18.607  1.00  0.00     0.264 C 
HETATM    6  N1  UNL     1     104.570  17.323  17.557  1.00  0.00    -0.348 N 
ATOM      7  H1  UNL     1     103.572  17.330  17.772  1.00  0.00     0.163 HD
HETATM    8  O2  UNL     1     106.769  17.216  18.369  1.00  0.00    -0.267 OA
BRANCH   6   9
HETATM    9  C9  UNL     1     104.999  17.408  16.206  1.00  0.00     0.127 C 
HETATM   10  C4  UNL     1     105.080  18.785  15.654  1.00  0.00     0.035 C 
HETATM   11  C3  UNL     1     103.727  19.435  15.630  1.00  0.00    -0.017 C 
HETATM   12  C5  UNL     1     105.161  18.450  14.149  1.00  0.00     0.022 C 
HETATM   13  C2  UNL     1     102.962  18.825  14.730  1.00  0.00    -0.080 C 
HETATM   14  C1  UNL     1     101.554  19.094  14.334  1.00  0.00     0.043 C 
HETATM   15  C6  UNL     1     103.793  17.746  14.147  1.00  0.00     0.051 C 
HETATM   16  C7  UNL     1     104.033  16.733  15.239  1.00  0.00     0.082 C 
HETATM   17  C8  UNL     1     102.726  16.453  15.933  1.00  0.00     0.049 C 
BRANCH  16  18
HETATM   18  O1  UNL     1     104.554  15.549  14.742  1.00  0.00    -0.387 OA
ATOM     19  H1  UNL     1     104.105  15.267  13.954  1.00  0.00     0.210 HD
ENDBRANCH  16  18
ENDBRANCH   6   9
ENDBRANCH   1   5
BRANCH   4  20
HETATM   20  N3  UNL     1     103.365  16.719  21.622  1.00  0.00    -0.349 N 
HETATM   21  C14 UNL     1     102.286  17.215  22.071  1.00  0.00     0.181 C 
HETATM   22  N4  UNL     1     101.454  17.941  21.185  1.00  0.00    -0.077 NA
ATOM     23  H3  UNL     1     103.945  16.201  22.282  1.00  0.00     0.166 HD
BRANCH  21  24
HETATM   24  C15 UNL     1     101.912  17.046  23.457  1.00  0.00     0.295 C 
HETATM   25  N5  UNL     1     102.600  16.092  24.273  1.00  0.00    -0.055 NA
HETATM   26  O3  UNL     1     100.996  17.697  24.010  1.00  0.00    -0.268 OA
ENDBRANCH  21  24
ENDBRANCH   4  20
TORSDOF 5
ENDMDL
MODEL 2
REMARK VINA RESULT: -7.811211040      2.786      3.969
REMARK  5 active torsions:
REMARK  status: ('A' for Active; 'I' for Inactive)
REMARK    1  A    between atoms: C7_7  and  O1_9 
REMARK    2  A    between atoms: C9_11  and  N1_12 
REMARK       I    between atoms: N1_12  and  C10_14 
REMARK    3  A    between atoms: C10_14  and  C11_16 
REMARK    4  A    between atoms: C13_19  and  N3_20 
REMARK    5  A    between atoms: C14_22  and  C15_24 
ROOT
HETATM    1  C11 UNL     1     105.360  17.236  19.346  1.00  0.00     0.127 C 
HETATM    2  C12 UNL     1     106.380  17.800  18.511  1.00  0.00     0.106 C 
HETATM    3  N2  UNL     1     107.212  18.249  17.817  1.00  0.00    -0.191 NA
HETATM    4  C13 UNL     1     105.582  17.090  20.641  1.00  0.00     0.118 C 
ENDROOT
BRANCH   1   5
HETATM    5  C10 UNL     1     104.087  16.832  18.752  1.00  0.00     0.264 C 
HETATM    6  N1  UNL     1     103.770  17.164  17.414  1.00  0.00    -0.348 N 
ATOM      7  H1  UNL     1     104.437  17.693  16.853  1.00  0.00     0.163 HD
HETATM    8  O2  UNL     1     103.270  16.170  19.479  1.00  0.00    -0.267 OA
BRANCH   6   9
HETATM    9  C9  UNL     1     102.531  16.766  16.845  1.00  0.00     0.127 C 
HETATM   10  C4  UNL     1     102.605  16.286  15.441  1.00  0.00     0.035 C 
HETATM   11  C3  UNL     1     103.074  17.377  14.523  1.00  0.00    -0.017 C 
HETATM   12  C5  UNL     1     101.107  16.352  15.071  1.00  0.00     0.022 C 
HETATM   13  C2  UNL     1     102.137  18.316  14.441  1.00  0.00    -0.080 C 
HETATM   14  C1  UNL     1     102.122  19.587  13.667  1.00  0.00     0.043 C 
HETATM   15  C6  UNL     1     101.028  17.869  15.316  1.00  0.00     0.051 C 
HETATM   16  C7  UNL     1     101.538  17.918  16.736  1.00  0.00     0.082 C 
HETATM   17  C8  UNL     1     102.250  19.229  16.948  1.00  0.00     0.049 C 
BRANCH  16  18
HETATM   18  O1  UNL     1     100.513  17.796  17.659  1.00  0.00    -0.387 OA
ATOM     19  H1  UNL     1     100.189  18.642  17.944  1.00  0.00     0.210 HD
ENDBRANCH  16  18
ENDBRANCH   6   9
ENDBRANCH   1   5
BRANCH   4  20
HETATM   20  N3  UNL     1     106.782  17.461  21.261  1.00  0.00    -0.349 N 
HETATM   21  C14 UNL     1     106.936  17.727  22.494  1.00  0.00     0.181 C 
HETATM   22  N4  UNL     1     105.811  17.652  23.350  1.00  0.00    -0.077 NA
ATOM     23  H3  UNL     1     107.609  17.523  20.668  1.00  0.00     0.166 HD
BRANCH  21  24
HETATM   24  C15 UNL     1     108.232  18.101  23.015  1.00  0.00     0.295 C 
HETATM   25  N5  UNL     1     109.328  18.317  22.122  1.00  0.00    -0.055 NA
HETATM   26  O3  UNL     1     108.467  18.252  24.236  1.00  0.00    -0.268 OA
ENDBRANCH  21  24
ENDBRANCH   4  20
TORSDOF 5
ENDMDL
MODEL 3
REMARK VINA RESULT: -7.760869527      1.474      2.237
REMARK  5 active torsions:
REMARK  status: ('A' for Active; 'I' for Inactive)
REMARK    1  A    between atoms: C7_7  and  O1_9 
REMARK    2  A    between atoms: C9_11  and  N1_12 
REMARK       I    between atoms: N1_12  and  C10_14 
REMARK    3  A    between atoms: C10_14  and  C11_16 
REMARK    4  A    between atoms: C13_19  and  N3_20 
REMARK    5  A    between atoms: C14_22  and  C15_24 
ROOT
HETATM    1  C11 UNL     1     103.535  16.915  19.237  1.00  0.00     0.127 C 
HETATM    2  C12 UNL     1     102.177  17.328  19.029  1.00  0.00     0.106 C 
HETATM    3  N2  UNL     1     101.073  17.679  18.850  1.00  0.00    -0.191 NA
HETATM    4  C13 UNL     1     103.931  16.556  20.447  1.00  0.00     0.118 C 
ENDROOT
BRANCH   1   5
HETATM    5  C10 UNL     1     104.462  16.896  18.107  1.00  0.00     0.264 C 
HETATM    6  N1  UNL     1     104.261  17.737  16.987  1.00  0.00    -0.348 N 
ATOM      7  H1  UNL     1     103.459  18.367  16.965  1.00  0.00     0.163 HD
HETATM    8  O2  UNL     1     105.459  16.097  18.163  1.00  0.00    -0.267 OA
BRANCH   6   9
HETATM    9  C9  UNL     1     105.167  17.713  15.894  1.00  0.00     0.127 C 
HETATM   10  C4  UNL     1     105.803  19.016  15.570  1.00  0.00     0.035 C 
HETATM   11  C3  UNL     1     104.775  20.026  15.147  1.00  0.00    -0.017 C 
HETATM   12  C5  UNL     1     106.346  18.690  14.162  1.00  0.00     0.022 C 
HETATM   13  C2  UNL     1     104.268  19.670  13.970  1.00  0.00    -0.080 C 
HETATM   14  C1  UNL     1     103.229  20.334  13.138  1.00  0.00     0.043 C 
HETATM   15  C6  UNL     1     104.944  18.406  13.596  1.00  0.00     0.051 C 
HETATM   16  C7  UNL     1     104.489  17.353  14.576  1.00  0.00     0.082 C 
HETATM   17  C8  UNL     1     102.993  17.449  14.728  1.00  0.00     0.049 C 
BRANCH  16  18
HETATM   18  O1  UNL     1     104.829  16.076  14.160  1.00  0.00    -0.387 OA
ATOM     19  H1  UNL     1     104.971  15.490  14.894  1.00  0.00     0.210 HD
ENDBRANCH  16  18
ENDBRANCH   6   9
ENDBRANCH   1   5
BRANCH   4  20
HETATM   20  N3  UNL     1     103.085  16.555  21.563  1.00  0.00    -0.349 N 
HETATM   21  C14 UNL     1     103.408  16.883  22.747  1.00  0.00     0.181 C 
HETATM   22  N4  UNL     1     104.740  17.294  22.997  1.00  0.00    -0.077 NA
ATOM     23  H3  UNL     1     102.120  16.263  21.412  1.00  0.00     0.166 HD
BRANCH  21  24
HETATM   24  C15 UNL     1     102.440  16.838  23.819  1.00  0.00     0.295 C 
HETATM   25  N5  UNL     1     101.248  17.626  23.741  1.00  0.00    -0.055 NA
HETATM   26  O3  UNL     1     102.579  16.135  24.846  1.00  0.00    -0.268 OA
ENDBRANCH  21  24
ENDBRANCH   4  20
TORSDOF 5
ENDMDL
MODEL 4
REMARK VINA RESULT: -7.717060225      1.386      1.976
REMARK  5 active torsions:
REMARK  status: ('A' for Active; 'I' for Inactive)
REMARK    1  A    between atoms: C7_7  and  O1_9 
REMARK    2  A    between atoms: C9_11  and  N1_12 
REMARK       I    between atoms: N1_12  and  C10_14 
REMARK    3  A    between atoms: C10_14  and  C11_16 
REMARK    4  A    between atoms: C13_19  and  N3_20 
REMARK    5  A    between atoms: C14_22  and  C15_24 
ROOT
HETATM    1  C11 UNL     1     103.735  15.988  19.507  1.00  0.00     0.127 C 
HETATM    2  C12 UNL     1     103.277  14.674  19.851  1.00  0.00     0.106 C 
HETATM    3  N2  UNL     1     102.897  13.597  20.115  1.00  0.00    -0.191 NA
HETATM    4  C13 UNL     1     103.469  17.004  20.311  1.00  0.00     0.118 C 
ENDROOT
BRANCH   1   5
HETATM    5  C10 UNL     1     104.492  16.186  18.272  1.00  0.00     0.264 C 
HETATM    6  N1  UNL     1     103.997  17.018  17.240  1.00  0.00    -0.348 N 
ATOM      7  H1  UNL     1     103.098  17.486  17.357  1.00  0.00     0.163 HD
HETATM    8  O2  UNL     1     105.615  15.586  18.155  1.00  0.00    -0.267 OA
BRANCH   6   9
HETATM    9  C9  UNL     1     104.739  17.205  16.045  1.00  0.00     0.127 C 
HETATM   10  C4  UNL     1     105.084  18.615  15.729  1.00  0.00     0.035 C 
HETATM   11  C3  UNL     1     103.846  19.434  15.501  1.00  0.00    -0.017 C 
HETATM   12  C5  UNL     1     105.484  18.453  14.247  1.00  0.00     0.022 C 
HETATM   13  C2  UNL     1     103.259  19.039  14.376  1.00  0.00    -0.080 C 
HETATM   14  C1  UNL     1     102.017  19.533  13.722  1.00  0.00     0.043 C 
HETATM   15  C6  UNL     1     104.093  17.937  13.841  1.00  0.00     0.051 C 
HETATM   16  C7  UNL     1     103.966  16.780  14.800  1.00  0.00     0.082 C 
HETATM   17  C8  UNL     1     102.512  16.592  15.142  1.00  0.00     0.049 C 
BRANCH  16  18
HETATM   18  O1  UNL     1     104.470  15.606  14.265  1.00  0.00    -0.387 OA
ATOM     19  H1  UNL     1     103.924  15.272  13.563  1.00  0.00     0.210 HD
ENDBRANCH  16  18
ENDBRANCH   6   9
ENDBRANCH   1   5
BRANCH   4  20
HETATM   20  N3  UNL     1     102.749  16.870  21.505  1.00  0.00    -0.349 N 
HETATM   21  C14 UNL     1     103.223  16.966  22.679  1.00  0.00     0.181 C 
HETATM   22  N4  UNL     1     104.605  17.233  22.833  1.00  0.00    -0.077 NA
ATOM     23  H3  UNL     1     101.751  16.678  21.424  1.00  0.00     0.166 HD
BRANCH  21  24
HETATM   24  C15 UNL     1     102.373  16.806  23.838  1.00  0.00     0.295 C 
HETATM   25  N5  UNL     1     101.200  17.613  23.982  1.00  0.00    -0.055 NA
HETATM   26  O3  UNL     1     102.603  15.984  24.754  1.00  0.00    -0.268 OA
ENDBRANCH  21  24
ENDBRANCH   4  20
TORSDOF 5
ENDMDL
MODEL 5
REMARK VINA RESULT: -7.417059259      2.316      3.063
REMARK  5 active torsions:
REMARK  status: ('A' for Active; 'I' for Inactive)
REMARK    1  A    between atoms: C7_7  and  O1_9 
REMARK    2  A    between atoms: C9_11  and  N1_12 
REMARK       I    between atoms: N1_12  and  C10_14 
REMARK    3  A    between atoms: C10_14  and  C11_16 
REMARK    4  A    between atoms: C13_19  and  N3_20 
REMARK    5  A    between atoms: C14_22  and  C15_24 
ROOT
HETATM    1  C11 UNL     1     102.708  16.665  19.848  1.00  0.00     0.127 C 
HETATM    2  C12 UNL     1     103.346  15.384  19.762  1.00  0.00     0.106 C 
HETATM    3  N2  UNL     1     103.855  14.331  19.681  1.00  0.00    -0.191 NA
HETATM    4  C13 UNL     1     102.522  17.225  21.032  1.00  0.00     0.118 C 
ENDROOT
BRANCH   1   5
HETATM    5  C10 UNL     1     102.273  17.336  18.624  1.00  0.00     0.264 C 
HETATM    6  N1  UNL     1     103.196  17.642  17.595  1.00  0.00    -0.348 N 
ATOM      7  H1  UNL     1     104.178  17.392  17.707  1.00  0.00     0.163 HD
HETATM    8  O2  UNL     1     101.036  17.636  18.512  1.00  0.00    -0.267 OA
BRANCH   6   9
HETATM    9  C9  UNL     1     102.765  18.293  16.409  1.00  0.00     0.127 C 
HETATM   10  C4  UNL     1     102.289  17.390  15.329  1.00  0.00     0.035 C 
HETATM   11  C3  UNL     1     103.395  16.493  14.851  1.00  0.00    -0.017 C 
HETATM   12  C5  UNL     1     102.315  18.378  14.143  1.00  0.00     0.022 C 
HETATM   13  C2  UNL     1     104.308  17.222  14.215  1.00  0.00    -0.080 C 
HETATM   14  C1  UNL     1     105.579  16.804  13.565  1.00  0.00     0.043 C 
HETATM   15  C6  UNL     1     103.828  18.623  14.271  1.00  0.00     0.051 C 
HETATM   16  C7  UNL     1     103.890  19.055  15.716  1.00  0.00     0.082 C 
HETATM   17  C8  UNL     1     105.219  18.638  16.288  1.00  0.00     0.049 C 
BRANCH  16  18
HETATM   18  O1  UNL     1     103.737  20.424  15.853  1.00  0.00    -0.387 OA
ATOM     19  H1  UNL     1     104.525  20.896  15.610  1.00  0.00     0.210 HD
ENDBRANCH  16  18
ENDBRANCH   6   9
ENDBRANCH   1   5
BRANCH   4  20
HETATM   20  N3  UNL     1     102.918  16.627  22.235  1.00  0.00    -0.349 N 
HETATM   21  C14 UNL     1     102.361  16.780  23.366  1.00  0.00     0.181 C 
HETATM   22  N4  UNL     1     101.229  17.627  23.454  1.00  0.00    -0.077 NA
ATOM     23  H3  UNL     1     103.731  16.012  22.200  1.00  0.00     0.166 HD
BRANCH  21  24
HETATM   24  C15 UNL     1     102.868  16.107  24.540  1.00  0.00     0.295 C 
HETATM   25  N5  UNL     1     102.846  14.677  24.611  1.00  0.00    -0.055 NA
HETATM   26  O3  UNL     1     103.339  16.709  25.532  1.00  0.00    -0.268 OA
ENDBRANCH  21  24
ENDBRANCH   4  20
TORSDOF 5
ENDMDL
