MODEL 1
REMARK VINA RESULT: -6.613949643      0.000      0.000
REMARK  4 active torsions:
REMARK  status: ('A' for Active; 'I' for Inactive)
REMARK    1  A    between atoms: C1_2  and  C2_4 
REMARK    2  A    between atoms: C4_6  and  O3_7 
REMARK    3  A    between atoms: C5_9  and  O4_10 
REMARK    4  A    between atoms: C11_17  and  O5_18 
ROOT
HETATM    1  C2  UNL     1     -11.663  16.884 -15.759  1.00  0.00     0.124 C 
HETATM    2  C3  UNL     1     -11.768  15.837 -16.835  1.00  0.00     0.052 C 
HETATM    3  C4  UNL     1     -13.069  15.870 -17.574  1.00  0.00     0.148 C 
HETATM    4  C5  UNL     1     -13.364  17.237 -18.079  1.00  0.00     0.153 C 
HETATM    5  C6  UNL     1     -13.269  18.320 -17.058  1.00  0.00     0.052 C 
HETATM    6  C7  UNL     1     -14.566  18.388 -16.304  1.00  0.00     0.010 C 
HETATM    7  C8  UNL     1     -14.640  19.530 -15.334  1.00  0.00     0.001 C 
HETATM    8  C9  UNL     1     -13.296  20.191 -15.182  1.00  0.00     0.003 C 
HETATM    9  C10 UNL     1     -12.284  19.086 -14.928  1.00  0.00     0.039 C 
HETATM   10  C11 UNL     1     -12.063  18.242 -16.180  1.00  0.00     0.077 C 
ENDROOT
BRANCH   1  11
HETATM   11  C1  UNL     1     -10.249  16.875 -15.296  1.00  0.00     0.180 C 
HETATM   12  O1  UNL     1      -9.862  17.257 -14.187  1.00  0.00    -0.648 OA
HETATM   13  O2  UNL     1      -9.288  16.395 -16.187  1.00  0.00    -0.648 OA
ENDBRANCH   1  11
BRANCH  10  14
HETATM   14  O5  UNL     1     -10.995  18.824 -16.893  1.00  0.00    -0.388 OA
ATOM     15  H5  UNL     1     -10.188  18.654 -16.423  1.00  0.00     0.210 HD
ENDBRANCH  10  14
BRANCH   3  16
HETATM   16  O3  UNL     1     -12.976  14.994 -18.650  1.00  0.00    -0.393 OA
ATOM     17  H3  UNL     1     -13.638  15.239 -19.287  1.00  0.00     0.210 HD
ENDBRANCH   3  16
BRANCH   4  18
HETATM   18  O4  UNL     1     -14.658  17.232 -18.612  1.00  0.00    -0.393 OA
ATOM     19  H4  UNL     1     -14.674  17.826 -19.353  1.00  0.00     0.210 HD
ENDBRANCH   4  18
TORSDOF 4
ENDMDL
MODEL 2
REMARK VINA RESULT: -6.338057221      2.589      3.623
REMARK  4 active torsions:
REMARK  status: ('A' for Active; 'I' for Inactive)
REMARK    1  A    between atoms: C1_2  and  C2_4 
REMARK    2  A    between atoms: C4_6  and  O3_7 
REMARK    3  A    between atoms: C5_9  and  O4_10 
REMARK    4  A    between atoms: C11_17  and  O5_18 
ROOT
HETATM    1  C2  UNL     1     -14.105  17.275 -15.155  1.00  0.00     0.124 C 
HETATM    2  C3  UNL     1     -12.605  17.238 -15.273  1.00  0.00     0.052 C 
HETATM    3  C4  UNL     1     -12.121  17.127 -16.684  1.00  0.00     0.148 C 
HETATM    4  C5  UNL     1     -12.735  18.173 -17.546  1.00  0.00     0.153 C 
HETATM    5  C6  UNL     1     -14.221  18.263 -17.466  1.00  0.00     0.052 C 
HETATM    6  C7  UNL     1     -14.817  17.241 -18.392  1.00  0.00     0.010 C 
HETATM    7  C8  UNL     1     -16.311  17.322 -18.497  1.00  0.00     0.001 C 
HETATM    8  C9  UNL     1     -16.871  18.259 -17.460  1.00  0.00     0.003 C 
HETATM    9  C10 UNL     1     -16.257  17.864 -16.127  1.00  0.00     0.039 C 
HETATM   10  C11 UNL     1     -14.773  18.214 -16.078  1.00  0.00     0.077 C 
ENDROOT
BRANCH   1  11
HETATM   11  C1  UNL     1     -14.410  17.626 -13.741  1.00  0.00     0.180 C 
HETATM   12  O1  UNL     1     -14.025  18.647 -13.164  1.00  0.00    -0.648 OA
HETATM   13  O2  UNL     1     -15.195  16.728 -13.015  1.00  0.00    -0.648 OA
ENDBRANCH   1  11
BRANCH  10  14
HETATM   14  O5  UNL     1     -14.668  19.517 -15.548  1.00  0.00    -0.388 OA
ATOM     15  H5  UNL     1     -15.537  19.816 -15.304  1.00  0.00     0.210 HD
ENDBRANCH  10  14
BRANCH   3  16
HETATM   16  O3  UNL     1     -10.740  17.289 -16.682  1.00  0.00    -0.393 OA
ATOM     17  H3  UNL     1     -10.393  16.881 -17.467  1.00  0.00     0.210 HD
ENDBRANCH   3  16
BRANCH   4  18
HETATM   18  O4  UNL     1     -12.369  17.912 -18.872  1.00  0.00    -0.393 OA
ATOM     19  H4  UNL     1     -11.480  18.222 -18.998  1.00  0.00     0.210 HD
ENDBRANCH   4  18
TORSDOF 4
ENDMDL
MODEL 3
REMARK VINA RESULT: -6.314932295      1.576      1.881
REMARK  4 active torsions:
REMARK  status: ('A' for Active; 'I' for Inactive)
REMARK    1  A    between atoms: C1_2  and  C2_4 
REMARK    2  A    between atoms: C4_6  and  O3_7 
REMARK    3  A    between atoms: C5_9  and  O4_10 
REMARK    4  A    between atoms: C11_17  and  O5_18 
ROOT
HETATM    1  C2  UNL     1     -11.787  16.911 -15.879  1.00  0.00     0.124 C 
HETATM    2  C3  UNL     1     -11.814  16.092 -17.142  1.00  0.00     0.052 C 
HETATM    3  C4  UNL     1     -13.090  15.335 -17.333  1.00  0.00     0.148 C 
HETATM    4  C5  UNL     1     -14.270  16.232 -17.212  1.00  0.00     0.153 C 
HETATM    5  C6  UNL     1     -14.296  17.076 -15.983  1.00  0.00     0.052 C 
HETATM    6  C7  UNL     1     -14.873  16.269 -14.855  1.00  0.00     0.010 C 
HETATM    7  C8  UNL     1     -15.072  17.054 -13.593  1.00  0.00     0.001 C 
HETATM    8  C9  UNL     1     -14.419  18.407 -13.695  1.00  0.00     0.003 C 
HETATM    9  C10 UNL     1     -13.001  18.179 -14.192  1.00  0.00     0.039 C 
HETATM   10  C11 UNL     1     -12.995  17.731 -15.652  1.00  0.00     0.077 C 
ENDROOT
BRANCH   1  11
HETATM   11  C1  UNL     1     -10.577  17.774 -15.960  1.00  0.00     0.180 C 
HETATM   12  O1  UNL     1     -10.303  18.527 -16.899  1.00  0.00    -0.648 OA
HETATM   13  O2  UNL     1      -9.686  17.727 -14.886  1.00  0.00    -0.648 OA
ENDBRANCH   1  11
BRANCH  10  14
HETATM   14  O5  UNL     1     -12.905  18.894 -16.445  1.00  0.00    -0.388 OA
ATOM     15  H5  UNL     1     -12.073  19.317 -16.270  1.00  0.00     0.210 HD
ENDBRANCH  10  14
BRANCH   3  16
HETATM   16  O3  UNL     1     -13.071  14.773 -18.605  1.00  0.00    -0.393 OA
ATOM     17  H3  UNL     1     -13.646  14.016 -18.602  1.00  0.00     0.210 HD
ENDBRANCH   3  16
BRANCH   4  18
HETATM   18  O4  UNL     1     -15.422  15.438 -17.238  1.00  0.00    -0.393 OA
ATOM     19  H4  UNL     1     -15.159  14.545 -17.425  1.00  0.00     0.210 HD
ENDBRANCH   4  18
TORSDOF 4
ENDMDL
MODEL 4
REMARK VINA RESULT: -6.305095557      2.540      4.205
REMARK  4 active torsions:
REMARK  status: ('A' for Active; 'I' for Inactive)
REMARK    1  A    between atoms: C1_2  and  C2_4 
REMARK    2  A    between atoms: C4_6  and  O3_7 
REMARK    3  A    between atoms: C5_9  and  O4_10 
REMARK    4  A    between atoms: C11_17  and  O5_18 
ROOT
HETATM    1  C2  UNL     1     -13.614  18.371 -16.954  1.00  0.00     0.124 C 
HETATM    2  C3  UNL     1     -13.232  18.689 -15.533  1.00  0.00     0.052 C 
HETATM    3  C4  UNL     1     -14.405  19.001 -14.657  1.00  0.00     0.148 C 
HETATM    4  C5  UNL     1     -15.437  17.934 -14.744  1.00  0.00     0.153 C 
HETATM    5  C6  UNL     1     -15.852  17.569 -16.129  1.00  0.00     0.052 C 
HETATM    6  C7  UNL     1     -16.905  18.538 -16.589  1.00  0.00     0.010 C 
HETATM    7  C8  UNL     1     -17.496  18.195 -17.924  1.00  0.00     0.001 C 
HETATM    8  C9  UNL     1     -16.717  17.090 -18.588  1.00  0.00     0.003 C 
HETATM    9  C10 UNL     1     -15.250  17.481 -18.522  1.00  0.00     0.039 C 
HETATM   10  C11 UNL     1     -14.722  17.404 -17.092  1.00  0.00     0.077 C 
ENDROOT
BRANCH   1  11
HETATM   11  C1  UNL     1     -12.385  17.857 -17.618  1.00  0.00     0.180 C 
HETATM   12  O1  UNL     1     -11.657  16.966 -17.171  1.00  0.00    -0.648 OA
HETATM   13  O2  UNL     1     -12.034  18.429 -18.841  1.00  0.00    -0.648 OA
ENDBRANCH   1  11
BRANCH  10  14
HETATM   14  O5  UNL     1     -14.210  16.103 -16.906  1.00  0.00    -0.388 OA
ATOM     15  H5  UNL     1     -14.830  15.604 -16.388  1.00  0.00     0.210 HD
ENDBRANCH  10  14
BRANCH   3  16
HETATM   16  O3  UNL     1     -13.951  19.093 -13.346  1.00  0.00    -0.393 OA
ATOM     17  H3  UNL     1     -13.952  18.219 -12.971  1.00  0.00     0.210 HD
ENDBRANCH   3  16
BRANCH   4  18
HETATM   18  O4  UNL     1     -16.565  18.364 -14.034  1.00  0.00    -0.393 OA
ATOM     19  H4  UNL     1     -17.333  17.984 -14.444  1.00  0.00     0.210 HD
ENDBRANCH   4  18
TORSDOF 4
ENDMDL
MODEL 5
REMARK VINA RESULT: -6.266712587      1.893      4.339
REMARK  4 active torsions:
REMARK  status: ('A' for Active; 'I' for Inactive)
REMARK    1  A    between atoms: C1_2  and  C2_4 
REMARK    2  A    between atoms: C4_6  and  O3_7 
REMARK    3  A    between atoms: C5_9  and  O4_10 
REMARK    4  A    between atoms: C11_17  and  O5_18 
ROOT
HETATM    1  C2  UNL     1     -15.136  18.110 -17.238  1.00  0.00     0.124 C 
HETATM    2  C3  UNL     1     -14.212  18.001 -18.421  1.00  0.00     0.052 C 
HETATM    3  C4  UNL     1     -12.782  18.294 -18.088  1.00  0.00     0.148 C 
HETATM    4  C5  UNL     1     -12.324  17.481 -16.930  1.00  0.00     0.153 C 
HETATM    5  C6  UNL     1     -13.205  17.543 -15.729  1.00  0.00     0.052 C 
HETATM    6  C7  UNL     1     -12.848  18.765 -14.930  1.00  0.00     0.010 C 
HETATM    7  C8  UNL     1     -13.580  18.867 -13.626  1.00  0.00     0.001 C 
HETATM    8  C9  UNL     1     -14.675  17.836 -13.543  1.00  0.00     0.003 C 
HETATM    9  C10 UNL     1     -15.473  17.932 -14.833  1.00  0.00     0.039 C 
HETATM   10  C11 UNL     1     -14.664  17.418 -16.021  1.00  0.00     0.077 C 
ENDROOT
BRANCH   1  11
HETATM   11  C1  UNL     1     -16.449  17.562 -17.675  1.00  0.00     0.180 C 
HETATM   12  O1  UNL     1     -17.545  18.088 -17.459  1.00  0.00    -0.648 OA
HETATM   13  O2  UNL     1     -16.435  16.361 -18.386  1.00  0.00    -0.648 OA
ENDBRANCH   1  11
BRANCH  10  14
HETATM   14  O5  UNL     1     -14.942  16.041 -16.151  1.00  0.00    -0.388 OA
ATOM     15  H5  UNL     1     -15.114  15.684 -15.287  1.00  0.00     0.210 HD
ENDBRANCH  10  14
BRANCH   3  16
HETATM   16  O3  UNL     1     -12.008  17.983 -19.201  1.00  0.00    -0.393 OA
ATOM     17  H3  UNL     1     -11.101  18.179 -18.993  1.00  0.00     0.210 HD
ENDBRANCH   3  16
BRANCH   4  18
HETATM   18  O4  UNL     1     -11.043  17.920 -16.573  1.00  0.00    -0.393 OA
ATOM     19  H4  UNL     1     -11.010  17.993 -15.627  1.00  0.00     0.210 HD
ENDBRANCH   4  18
TORSDOF 4
ENDMDL
