MODEL 1
REMARK VINA RESULT: -6.425799572      0.000      0.000
REMARK  4 active torsions:
REMARK  status: ('A' for Active; 'I' for Inactive)
REMARK    1  A    between atoms: C2_2  and  C3_3 
REMARK    2  A    between atoms: C3_3  and  N1_4 
REMARK    3  A    between atoms: C5_7  and  C6_8 
REMARK    4  A    between atoms: C6_8  and  O2_10 
ROOT
HETATM    1  N1  UNL     1      -5.099   4.684  13.272  1.00  0.00    -0.364 N 
ATOM      2  H1  UNL     1      -5.514   5.226  14.030  1.00  0.00     0.165 HD
HETATM    3  C4  UNL     1      -4.965   3.473  13.530  1.00  0.00     0.065 A 
HETATM    4  C5  UNL     1      -4.446   2.542  12.698  1.00  0.00     0.089 A 
HETATM    5  C8  UNL     1      -4.322   1.215  13.174  1.00  0.00     0.025 A 
HETATM    6  C9  UNL     1      -3.756   0.185  12.282  1.00  0.00     0.069 C 
HETATM    7  N2  UNL     1      -4.697   0.865  14.396  1.00  0.00    -0.344 N 
ATOM      8  H2  UNL     1      -4.593  -0.101  14.704  1.00  0.00     0.167 HD
HETATM    9  C10 UNL     1      -5.224   1.801  15.242  1.00  0.00     0.118 A 
HETATM   10  N3  UNL     1      -5.602   1.436  16.477  1.00  0.00    -0.346 N 
ATOM     11  H3  UNL     1      -5.481   0.461  16.749  1.00  0.00     0.167 HD
HETATM   12  C11 UNL     1      -6.128   2.282  17.371  1.00  0.00     0.007 A 
HETATM   13  C12 UNL     1      -6.534   1.815  18.742  1.00  0.00     0.068 C 
HETATM   14  C13 UNL     1      -6.277   3.578  16.980  1.00  0.00     0.032 A 
HETATM   15  C14 UNL     1      -5.906   4.057  15.695  1.00  0.00    -0.044 A 
HETATM   16  C15 UNL     1      -6.108   5.465  15.373  1.00  0.00     0.049 C 
HETATM   17  C16 UNL     1      -5.375   3.111  14.852  1.00  0.00     0.042 A 
ENDROOT
BRANCH   1  18
HETATM   18  C3  UNL     1      -4.786   5.439  12.136  1.00  0.00     0.087 C 
BRANCH  18  19
HETATM   19  C2  UNL     1      -3.947   6.669  12.377  1.00  0.00     0.007 C 
HETATM   20  C1  UNL     1      -3.205   6.726  13.463  1.00  0.00     0.012 C 
ENDBRANCH  18  19
ENDBRANCH   1  18
BRANCH   4  21
HETATM   21  C6  UNL     1      -4.035   2.777  11.331  1.00  0.00     0.297 C 
HETATM   22  O1  UNL     1      -4.674   2.497  10.297  1.00  0.00    -0.259 OA
BRANCH  21  23
HETATM   23  O2  UNL     1      -2.783   3.398  11.071  1.00  0.00    -0.322 OA
HETATM   24  C7  UNL     1      -1.824   3.522  12.068  1.00  0.00     0.213 C 
ENDBRANCH  21  23
ENDBRANCH   4  21
TORSDOF 4
ENDMDL
MODEL 2
REMARK VINA RESULT: -6.075302589      2.440      5.196
REMARK  4 active torsions:
REMARK  status: ('A' for Active; 'I' for Inactive)
REMARK    1  A    between atoms: C2_2  and  C3_3 
REMARK    2  A    between atoms: C3_3  and  N1_4 
REMARK    3  A    between atoms: C5_7  and  C6_8 
REMARK    4  A    between atoms: C6_8  and  O2_10 
ROOT
HETATM    1  N1  UNL     1      -4.969   3.695  14.947  1.00  0.00    -0.364 N 
ATOM      2  H1  UNL     1      -5.001   4.682  14.689  1.00  0.00     0.165 HD
HETATM    3  C4  UNL     1      -4.682   2.934  14.006  1.00  0.00     0.065 A 
HETATM    4  C5  UNL     1      -4.572   1.589  14.084  1.00  0.00     0.089 A 
HETATM    5  C8  UNL     1      -4.285   0.871  12.898  1.00  0.00     0.025 A 
HETATM    6  C9  UNL     1      -4.163  -0.598  12.963  1.00  0.00     0.069 C 
HETATM    7  N2  UNL     1      -4.121   1.474  11.730  1.00  0.00    -0.344 N 
ATOM      8  H2  UNL     1      -3.914   0.924  10.897  1.00  0.00     0.167 HD
HETATM    9  C10 UNL     1      -4.228   2.834  11.643  1.00  0.00     0.118 A 
HETATM   10  N3  UNL     1      -4.060   3.435  10.456  1.00  0.00    -0.346 N 
ATOM     11  H3  UNL     1      -3.855   2.852   9.645  1.00  0.00     0.167 HD
HETATM   12  C11 UNL     1      -4.145   4.759  10.277  1.00  0.00     0.007 A 
HETATM   13  C12 UNL     1      -3.946   5.378   8.920  1.00  0.00     0.068 C 
HETATM   14  C13 UNL     1      -4.420   5.514  11.377  1.00  0.00     0.032 A 
HETATM   15  C14 UNL     1      -4.614   4.968  12.674  1.00  0.00    -0.044 A 
HETATM   16  C15 UNL     1      -4.902   5.863  13.789  1.00  0.00     0.049 C 
HETATM   17  C16 UNL     1      -4.506   3.600  12.751  1.00  0.00     0.042 A 
ENDROOT
BRANCH   1  18
HETATM   18  C3  UNL     1      -5.257   3.450  16.295  1.00  0.00     0.087 C 
BRANCH  18  19
HETATM   19  C2  UNL     1      -6.671   3.747  16.728  1.00  0.00     0.007 C 
HETATM   20  C1  UNL     1      -7.033   3.445  17.957  1.00  0.00     0.012 C 
ENDBRANCH  18  19
ENDBRANCH   1  18
BRANCH   4  21
HETATM   21  C6  UNL     1      -4.687   0.809  15.298  1.00  0.00     0.297 C 
HETATM   22  O1  UNL     1      -3.753   0.359  15.990  1.00  0.00    -0.259 OA
BRANCH  21  23
HETATM   23  O2  UNL     1      -5.974   0.495  15.811  1.00  0.00    -0.322 OA
HETATM   24  C7  UNL     1      -6.149   0.148  17.145  1.00  0.00     0.213 C 
ENDBRANCH  21  23
ENDBRANCH   4  21
TORSDOF 4
ENDMDL
MODEL 3
REMARK VINA RESULT: -5.858508617      2.832      5.776
REMARK  4 active torsions:
REMARK  status: ('A' for Active; 'I' for Inactive)
REMARK    1  A    between atoms: C2_2  and  C3_3 
REMARK    2  A    between atoms: C3_3  and  N1_4 
REMARK    3  A    between atoms: C5_7  and  C6_8 
REMARK    4  A    between atoms: C6_8  and  O2_10 
ROOT
HETATM    1  N1  UNL     1      -3.443   5.359  13.861  1.00  0.00    -0.364 N 
ATOM      2  H1  UNL     1      -3.707   6.004  14.607  1.00  0.00     0.165 HD
HETATM    3  C4  UNL     1      -2.389   5.667  13.276  1.00  0.00     0.065 A 
HETATM    4  C5  UNL     1      -1.822   4.981  12.258  1.00  0.00     0.089 A 
HETATM    5  C8  UNL     1      -0.643   5.502  11.675  1.00  0.00     0.025 A 
HETATM    6  C9  UNL     1      -0.010   4.769  10.561  1.00  0.00     0.069 C 
HETATM    7  N2  UNL     1      -0.086   6.628  12.095  1.00  0.00    -0.344 N 
ATOM      8  H2  UNL     1       0.765   6.974  11.650  1.00  0.00     0.167 HD
HETATM    9  C10 UNL     1      -0.652   7.327  13.124  1.00  0.00     0.118 A 
HETATM   10  N3  UNL     1      -0.080   8.466  13.543  1.00  0.00    -0.346 N 
ATOM     11  H3  UNL     1       0.769   8.780  13.074  1.00  0.00     0.167 HD
HETATM   12  C11 UNL     1      -0.562   9.214  14.544  1.00  0.00     0.007 A 
HETATM   13  C12 UNL     1       0.124  10.483  14.970  1.00  0.00     0.068 C 
HETATM   14  C13 UNL     1      -1.697   8.771  15.152  1.00  0.00     0.032 A 
HETATM   15  C14 UNL     1      -2.373   7.579  14.779  1.00  0.00    -0.044 A 
HETATM   16  C15 UNL     1      -3.582   7.190  15.496  1.00  0.00     0.049 C 
HETATM   17  C16 UNL     1      -1.798   6.885  13.742  1.00  0.00     0.042 A 
ENDROOT
BRANCH   1  18
HETATM   18  C3  UNL     1      -4.335   4.295  13.686  1.00  0.00     0.087 C 
BRANCH  18  19
HETATM   19  C2  UNL     1      -5.053   3.830  14.927  1.00  0.00     0.007 C 
HETATM   20  C1  UNL     1      -6.148   4.460  15.299  1.00  0.00     0.012 C 
ENDBRANCH  18  19
ENDBRANCH   1  18
BRANCH   4  21
HETATM   21  C6  UNL     1      -2.300   3.721  11.729  1.00  0.00     0.297 C 
HETATM   22  O1  UNL     1      -2.192   2.597  12.257  1.00  0.00    -0.259 OA
BRANCH  21  23
HETATM   23  O2  UNL     1      -2.982   3.698  10.482  1.00  0.00    -0.322 OA
HETATM   24  C7  UNL     1      -3.863   4.711  10.127  1.00  0.00     0.213 C 
ENDBRANCH  21  23
ENDBRANCH   4  21
TORSDOF 4
ENDMDL
MODEL 4
REMARK VINA RESULT: -5.849252705      2.521      5.810
REMARK  4 active torsions:
REMARK  status: ('A' for Active; 'I' for Inactive)
REMARK    1  A    between atoms: C2_2  and  C3_3 
REMARK    2  A    between atoms: C3_3  and  N1_4 
REMARK    3  A    between atoms: C5_7  and  C6_8 
REMARK    4  A    between atoms: C6_8  and  O2_10 
ROOT
HETATM    1  N1  UNL     1      -3.340   5.252  14.191  1.00  0.00    -0.364 N 
ATOM      2  H1  UNL     1      -3.227   6.005  14.870  1.00  0.00     0.165 HD
HETATM    3  C4  UNL     1      -3.011   5.563  13.031  1.00  0.00     0.065 A 
HETATM    4  C5  UNL     1      -3.062   4.750  11.952  1.00  0.00     0.089 A 
HETATM    5  C8  UNL     1      -2.695   5.285  10.694  1.00  0.00     0.025 A 
HETATM    6  C9  UNL     1      -2.747   4.414   9.504  1.00  0.00     0.069 C 
HETATM    7  N2  UNL     1      -2.306   6.543  10.548  1.00  0.00    -0.344 N 
ATOM      8  H2  UNL     1      -2.049   6.893   9.626  1.00  0.00     0.167 HD
HETATM    9  C10 UNL     1      -2.250   7.370  11.634  1.00  0.00     0.118 A 
HETATM   10  N3  UNL     1      -1.854   8.643  11.477  1.00  0.00    -0.346 N 
ATOM     11  H3  UNL     1      -1.606   8.957  10.539  1.00  0.00     0.167 HD
HETATM   12  C11 UNL     1      -1.767   9.522  12.482  1.00  0.00     0.007 A 
HETATM   13  C12 UNL     1      -1.316  10.938  12.244  1.00  0.00     0.068 C 
HETATM   14  C13 UNL     1      -2.106   9.075  13.723  1.00  0.00     0.032 A 
HETATM   15  C14 UNL     1      -2.536   7.748  13.988  1.00  0.00    -0.044 A 
HETATM   16  C15 UNL     1      -2.875   7.368  15.355  1.00  0.00     0.049 C 
HETATM   17  C16 UNL     1      -2.592   6.924  12.890  1.00  0.00     0.042 A 
ENDROOT
BRANCH   1  18
HETATM   18  C3  UNL     1      -3.836   4.063  14.736  1.00  0.00     0.087 C 
BRANCH  18  19
HETATM   19  C2  UNL     1      -5.308   4.054  15.060  1.00  0.00     0.007 C 
HETATM   20  C1  UNL     1      -5.969   5.192  15.033  1.00  0.00     0.012 C 
ENDBRANCH  18  19
ENDBRANCH   1  18
BRANCH   4  21
HETATM   21  C6  UNL     1      -3.428   3.350  11.975  1.00  0.00     0.297 C 
HETATM   22  O1  UNL     1      -2.679   2.384  12.219  1.00  0.00    -0.259 OA
BRANCH  21  23
HETATM   23  O2  UNL     1      -4.772   2.972  11.708  1.00  0.00    -0.322 OA
HETATM   24  C7  UNL     1      -5.090   1.672  11.337  1.00  0.00     0.213 C 
ENDBRANCH  21  23
ENDBRANCH   4  21
TORSDOF 4
ENDMDL
MODEL 5
REMARK VINA RESULT: -5.823741170      4.423      7.172
REMARK  4 active torsions:
REMARK  status: ('A' for Active; 'I' for Inactive)
REMARK    1  A    between atoms: C2_2  and  C3_3 
REMARK    2  A    between atoms: C3_3  and  N1_4 
REMARK    3  A    between atoms: C5_7  and  C6_8 
REMARK    4  A    between atoms: C6_8  and  O2_10 
ROOT
HETATM    1  N1  UNL     1      -5.260   6.237  10.771  1.00  0.00    -0.364 N 
ATOM      2  H1  UNL     1      -6.041   6.779  11.140  1.00  0.00     0.165 HD
HETATM    3  C4  UNL     1      -5.141   6.299   9.533  1.00  0.00     0.065 A 
HETATM    4  C5  UNL     1      -4.191   5.677   8.800  1.00  0.00     0.089 A 
HETATM    5  C8  UNL     1      -4.233   5.818   7.392  1.00  0.00     0.025 A 
HETATM    6  C9  UNL     1      -3.206   5.145   6.574  1.00  0.00     0.069 C 
HETATM    7  N2  UNL     1      -5.165   6.536   6.783  1.00  0.00    -0.344 N 
ATOM      8  H2  UNL     1      -5.164   6.615   5.766  1.00  0.00     0.167 HD
HETATM    9  C10 UNL     1      -6.128   7.169   7.517  1.00  0.00     0.118 A 
HETATM   10  N3  UNL     1      -7.067   7.894   6.891  1.00  0.00    -0.346 N 
ATOM     11  H3  UNL     1      -7.034   7.949   5.873  1.00  0.00     0.167 HD
HETATM   12  C11 UNL     1      -8.046   8.549   7.528  1.00  0.00     0.007 A 
HETATM   13  C12 UNL     1      -9.072   9.347   6.770  1.00  0.00     0.068 C 
HETATM   14  C13 UNL     1      -8.067   8.457   8.886  1.00  0.00     0.032 A 
HETATM   15  C14 UNL     1      -7.117   7.714   9.636  1.00  0.00    -0.044 A 
HETATM   16  C15 UNL     1      -7.225   7.679  11.090  1.00  0.00     0.049 C 
HETATM   17  C16 UNL     1      -6.154   7.078   8.889  1.00  0.00     0.042 A 
ENDROOT
BRANCH   1  18
HETATM   18  C3  UNL     1      -4.523   5.560  11.749  1.00  0.00     0.087 C 
BRANCH  18  19
HETATM   19  C2  UNL     1      -3.882   6.428  12.804  1.00  0.00     0.007 C 
HETATM   20  C1  UNL     1      -3.147   7.450  12.421  1.00  0.00     0.012 C 
ENDBRANCH  18  19
ENDBRANCH   1  18
BRANCH   4  21
HETATM   21  C6  UNL     1      -3.095   4.898   9.337  1.00  0.00     0.297 C 
HETATM   22  O1  UNL     1      -3.075   3.667   9.531  1.00  0.00    -0.259 OA
BRANCH  21  23
HETATM   23  O2  UNL     1      -1.882   5.547   9.693  1.00  0.00    -0.322 OA
HETATM   24  C7  UNL     1      -0.975   4.947  10.558  1.00  0.00     0.213 C 
ENDBRANCH  21  23
ENDBRANCH   4  21
TORSDOF 4
ENDMDL
