MODEL 1
REMARK VINA RESULT: -6.501094194      0.000      0.000
REMARK  4 active torsions:
REMARK  status: ('A' for Active; 'I' for Inactive)
REMARK    1  A    between atoms: C2_2  and  C3_3 
REMARK    2  A    between atoms: C4_5  and  N1_6 
REMARK       I    between atoms: N1_6  and  C5_8 
REMARK    3  A    between atoms: C5_8  and  C6_10 
REMARK    4  A    between atoms: C6_10  and  C7_11 
ROOT
HETATM    1  N1  UNL     1      -4.003   4.545  13.052  1.00  0.00    -0.307 N 
ATOM      2  H1  UNL     1      -3.067   4.899  13.249  1.00  0.00     0.171 HD
HETATM    3  C5  UNL     1      -4.658   4.971  11.892  1.00  0.00     0.229 C 
HETATM    4  O1  UNL     1      -4.991   4.159  10.997  1.00  0.00    -0.273 OA
ENDROOT
BRANCH   1   5
HETATM    5  C4  UNL     1      -4.554   3.701  13.899  1.00  0.00     0.151 A 
HETATM    6  S1  UNL     1      -5.871   3.945  14.951  1.00  0.00    -0.057 SA
HETATM    7  C3  UNL     1      -5.923   2.402  15.659  1.00  0.00     0.008 A 
HETATM    8  C11 UNL     1      -4.894   1.756  15.032  1.00  0.00     0.020 A 
HETATM    9  N3  UNL     1      -4.207   2.436  14.136  1.00  0.00    -0.339 N 
HETATM   10  C12 UNL     1      -4.550   0.304  15.353  1.00  0.00     0.069 C 
ATOM     11  H3  UNL     1      -3.430   2.005  13.637  1.00  0.00     0.168 HD
BRANCH   7  12
HETATM   12  C2  UNL     1      -6.873   1.912  16.704  1.00  0.00     0.043 C 
HETATM   13  C1  UNL     1      -6.308   2.086  18.099  1.00  0.00     0.010 C 
ENDBRANCH   7  12
ENDBRANCH   1   5
BRANCH   3  14
HETATM   14  C6  UNL     1      -4.965   6.405  11.714  1.00  0.00     0.162 C 
BRANCH  14  15
HETATM   15  C7  UNL     1      -5.775   6.631  10.489  1.00  0.00     0.043 A 
HETATM   16  C8  UNL     1      -7.017   7.222  10.379  1.00  0.00     0.061 A 
HETATM   17  C9  UNL     1      -7.386   7.216   9.039  1.00  0.00     0.074 A 
HETATM   18  C10 UNL     1      -8.666   7.760   8.466  1.00  0.00     0.079 C 
HETATM   19  O2  UNL     1      -6.390   6.643   8.410  1.00  0.00    -0.243 OA
HETATM   20  N2  UNL     1      -5.444   6.296   9.232  1.00  0.00    -0.265 N 
ATOM     21  H2  UNL     1      -4.576   5.835   8.960  1.00  0.00     0.194 HD
ENDBRANCH  14  15
ENDBRANCH   3  14
TORSDOF 4
ENDMDL
MODEL 2
REMARK VINA RESULT: -6.414757058      3.459      7.567
REMARK  4 active torsions:
REMARK  status: ('A' for Active; 'I' for Inactive)
REMARK    1  A    between atoms: C2_2  and  C3_3 
REMARK    2  A    between atoms: C4_5  and  N1_6 
REMARK       I    between atoms: N1_6  and  C5_8 
REMARK    3  A    between atoms: C5_8  and  C6_10 
REMARK    4  A    between atoms: C6_10  and  C7_11 
ROOT
HETATM    1  N1  UNL     1      -3.886   2.988  12.806  1.00  0.00    -0.307 N 
ATOM      2  H1  UNL     1      -3.903   3.355  13.758  1.00  0.00     0.171 HD
HETATM    3  C5  UNL     1      -4.657   1.861  12.502  1.00  0.00     0.229 C 
HETATM    4  O1  UNL     1      -5.577   1.913  11.650  1.00  0.00    -0.273 OA
ENDROOT
BRANCH   1   5
HETATM    5  C4  UNL     1      -3.138   3.590  11.906  1.00  0.00     0.151 A 
HETATM    6  S1  UNL     1      -1.523   4.113  12.030  1.00  0.00    -0.057 SA
HETATM    7  C3  UNL     1      -1.343   4.762  10.471  1.00  0.00     0.008 A 
HETATM    8  C11 UNL     1      -2.571   4.538   9.916  1.00  0.00     0.020 A 
HETATM    9  N3  UNL     1      -3.475   3.938  10.664  1.00  0.00    -0.339 N 
HETATM   10  C12 UNL     1      -2.890   4.964   8.485  1.00  0.00     0.069 C 
ATOM     11  H3  UNL     1      -4.408   3.745  10.302  1.00  0.00     0.168 HD
BRANCH   7  12
HETATM   12  C2  UNL     1      -0.127   5.409   9.890  1.00  0.00     0.043 C 
HETATM   13  C1  UNL     1       1.069   4.479   9.918  1.00  0.00     0.010 C 
ENDBRANCH   7  12
ENDBRANCH   1   5
BRANCH   3  14
HETATM   14  C6  UNL     1      -4.389   0.585  13.193  1.00  0.00     0.162 C 
BRANCH  14  15
HETATM   15  C7  UNL     1      -4.619   0.708  14.656  1.00  0.00     0.043 A 
HETATM   16  C8  UNL     1      -5.488   1.549  15.320  1.00  0.00     0.061 A 
HETATM   17  C9  UNL     1      -5.361   1.317  16.685  1.00  0.00     0.074 A 
HETATM   18  C10 UNL     1      -6.121   2.014  17.780  1.00  0.00     0.079 C 
HETATM   19  O2  UNL     1      -4.453   0.379  16.793  1.00  0.00    -0.243 OA
HETATM   20  N2  UNL     1      -4.009   0.011  15.628  1.00  0.00    -0.265 N 
ATOM     21  H2  UNL     1      -3.299  -0.705  15.475  1.00  0.00     0.194 HD
ENDBRANCH  14  15
ENDBRANCH   3  14
TORSDOF 4
ENDMDL
MODEL 3
REMARK VINA RESULT: -6.403794691      2.032      2.591
REMARK  4 active torsions:
REMARK  status: ('A' for Active; 'I' for Inactive)
REMARK    1  A    between atoms: C2_2  and  C3_3 
REMARK    2  A    between atoms: C4_5  and  N1_6 
REMARK       I    between atoms: N1_6  and  C5_8 
REMARK    3  A    between atoms: C5_8  and  C6_10 
REMARK    4  A    between atoms: C6_10  and  C7_11 
ROOT
HETATM    1  N1  UNL     1      -3.780   2.505  12.526  1.00  0.00    -0.307 N 
ATOM      2  H1  UNL     1      -2.822   2.157  12.564  1.00  0.00     0.171 HD
HETATM    3  C5  UNL     1      -4.334   2.828  11.283  1.00  0.00     0.229 C 
HETATM    4  O1  UNL     1      -5.344   2.227  10.845  1.00  0.00    -0.273 OA
ENDROOT
BRANCH   1   5
HETATM    5  C4  UNL     1      -4.454   2.637  13.650  1.00  0.00     0.151 A 
HETATM    6  S1  UNL     1      -4.719   1.491  14.881  1.00  0.00    -0.057 SA
HETATM    7  C3  UNL     1      -5.653   2.449  15.926  1.00  0.00     0.008 A 
HETATM    8  C11 UNL     1      -5.716   3.639  15.256  1.00  0.00     0.020 A 
HETATM    9  N3  UNL     1      -5.098   3.715  14.096  1.00  0.00    -0.339 N 
HETATM   10  C12 UNL     1      -6.473   4.837  15.826  1.00  0.00     0.069 C 
ATOM     11  H3  UNL     1      -5.111   4.578  13.552  1.00  0.00     0.168 HD
BRANCH   7  12
HETATM   12  C2  UNL     1      -6.241   2.053  17.242  1.00  0.00     0.043 C 
HETATM   13  C1  UNL     1      -7.346   1.031  17.076  1.00  0.00     0.010 C 
ENDBRANCH   7  12
ENDBRANCH   1   5
BRANCH   3  14
HETATM   14  C6  UNL     1      -3.721   3.894  10.466  1.00  0.00     0.162 C 
BRANCH  14  15
HETATM   15  C7  UNL     1      -4.220   5.233  10.869  1.00  0.00     0.043 A 
HETATM   16  C8  UNL     1      -5.305   5.929  10.377  1.00  0.00     0.061 A 
HETATM   17  C9  UNL     1      -5.389   7.142  11.052  1.00  0.00     0.074 A 
HETATM   18  C10 UNL     1      -6.423   8.212  10.833  1.00  0.00     0.079 C 
HETATM   19  O2  UNL     1      -4.389   7.136  11.898  1.00  0.00    -0.243 OA
HETATM   20  N2  UNL     1      -3.697   6.038  11.809  1.00  0.00    -0.265 N 
ATOM     21  H2  UNL     1      -2.876   5.819  12.372  1.00  0.00     0.194 HD
ENDBRANCH  14  15
ENDBRANCH   3  14
TORSDOF 4
ENDMDL
MODEL 4
REMARK VINA RESULT: -6.345252953      3.684      6.914
REMARK  4 active torsions:
REMARK  status: ('A' for Active; 'I' for Inactive)
REMARK    1  A    between atoms: C2_2  and  C3_3 
REMARK    2  A    between atoms: C4_5  and  N1_6 
REMARK       I    between atoms: N1_6  and  C5_8 
REMARK    3  A    between atoms: C5_8  and  C6_10 
REMARK    4  A    between atoms: C6_10  and  C7_11 
ROOT
HETATM    1  N1  UNL     1      -4.517   3.705  13.834  1.00  0.00    -0.307 N 
ATOM      2  H1  UNL     1      -5.176   3.766  14.610  1.00  0.00     0.171 HD
HETATM    3  C5  UNL     1      -4.655   2.662  12.911  1.00  0.00     0.229 C 
HETATM    4  O1  UNL     1      -4.884   2.892  11.700  1.00  0.00    -0.273 OA
ENDROOT
BRANCH   1   5
HETATM    5  C4  UNL     1      -3.565   4.608  13.734  1.00  0.00     0.151 A 
HETATM    6  S1  UNL     1      -3.449   6.131  14.488  1.00  0.00    -0.057 SA
HETATM    7  C3  UNL     1      -1.962   6.627  13.836  1.00  0.00     0.008 A 
HETATM    8  C11 UNL     1      -1.618   5.565  13.048  1.00  0.00     0.020 A 
HETATM    9  N3  UNL     1      -2.449   4.543  13.009  1.00  0.00    -0.339 N 
HETATM   10  C12 UNL     1      -0.321   5.557  12.240  1.00  0.00     0.069 C 
ATOM     11  H3  UNL     1      -2.244   3.724  12.438  1.00  0.00     0.168 HD
BRANCH   7  12
HETATM   12  C2  UNL     1      -1.241   7.912  14.088  1.00  0.00     0.043 C 
HETATM   13  C1  UNL     1      -1.714   8.577  15.364  1.00  0.00     0.010 C 
ENDBRANCH   7  12
ENDBRANCH   1   5
BRANCH   3  14
HETATM   14  C6  UNL     1      -4.531   1.263  13.367  1.00  0.00     0.162 C 
BRANCH  14  15
HETATM   15  C7  UNL     1      -4.745   1.155  14.833  1.00  0.00     0.043 A 
HETATM   16  C8  UNL     1      -5.650   1.837  15.621  1.00  0.00     0.061 A 
HETATM   17  C9  UNL     1      -5.490   1.413  16.935  1.00  0.00     0.074 A 
HETATM   18  C10 UNL     1      -6.272   1.896  18.126  1.00  0.00     0.079 C 
HETATM   19  O2  UNL     1      -4.530   0.523  16.897  1.00  0.00    -0.243 OA
HETATM   20  N2  UNL     1      -4.083   0.358  15.686  1.00  0.00    -0.265 N 
ATOM     21  H2  UNL     1      -3.337  -0.286  15.424  1.00  0.00     0.194 HD
ENDBRANCH  14  15
ENDBRANCH   3  14
TORSDOF 4
ENDMDL
MODEL 5
REMARK VINA RESULT: -6.303526439      3.327      4.133
REMARK  4 active torsions:
REMARK  status: ('A' for Active; 'I' for Inactive)
REMARK    1  A    between atoms: C2_2  and  C3_3 
REMARK    2  A    between atoms: C4_5  and  N1_6 
REMARK       I    between atoms: N1_6  and  C5_8 
REMARK    3  A    between atoms: C5_8  and  C6_10 
REMARK    4  A    between atoms: C6_10  and  C7_11 
ROOT
HETATM    1  N1  UNL     1      -3.767   2.415  12.526  1.00  0.00    -0.307 N 
ATOM      2  H1  UNL     1      -3.029   1.712  12.506  1.00  0.00     0.171 HD
HETATM    3  C5  UNL     1      -4.016   3.167  11.373  1.00  0.00     0.229 C 
HETATM    4  O1  UNL     1      -5.127   3.120  10.794  1.00  0.00    -0.273 OA
ENDROOT
BRANCH   1   5
HETATM    5  C4  UNL     1      -4.453   2.585  13.637  1.00  0.00     0.151 A 
HETATM    6  S1  UNL     1      -4.744   1.478  14.897  1.00  0.00    -0.057 SA
HETATM    7  C3  UNL     1      -5.682   2.474  15.902  1.00  0.00     0.008 A 
HETATM    8  C11 UNL     1      -5.726   3.645  15.198  1.00  0.00     0.020 A 
HETATM    9  N3  UNL     1      -5.092   3.682  14.043  1.00  0.00    -0.339 N 
HETATM   10  C12 UNL     1      -6.479   4.865  15.723  1.00  0.00     0.069 C 
ATOM     11  H3  UNL     1      -5.091   4.528  13.475  1.00  0.00     0.168 HD
BRANCH   7  12
HETATM   12  C2  UNL     1      -6.289   2.122  17.222  1.00  0.00     0.043 C 
HETATM   13  C1  UNL     1      -7.369   1.070  17.077  1.00  0.00     0.010 C 
ENDBRANCH   7  12
ENDBRANCH   1   5
BRANCH   3  14
HETATM   14  C6  UNL     1      -2.955   4.034  10.824  1.00  0.00     0.162 C 
BRANCH  14  15
HETATM   15  C7  UNL     1      -2.400   4.931  11.870  1.00  0.00     0.043 A 
HETATM   16  C8  UNL     1      -2.985   6.038  12.450  1.00  0.00     0.061 A 
HETATM   17  C9  UNL     1      -2.095   6.566  13.379  1.00  0.00     0.074 A 
HETATM   18  C10 UNL     1      -2.323   7.776  14.242  1.00  0.00     0.079 C 
HETATM   19  O2  UNL     1      -1.042   5.788  13.329  1.00  0.00    -0.243 OA
HETATM   20  N2  UNL     1      -1.198   4.832  12.460  1.00  0.00    -0.265 N 
ATOM     21  H2  UNL     1      -0.506   4.111  12.257  1.00  0.00     0.194 HD
ENDBRANCH  14  15
ENDBRANCH   3  14
TORSDOF 4
ENDMDL
