MODEL 1
REMARK VINA RESULT: -7.399367081      0.000      0.000
REMARK  3 active torsions:
REMARK  status: ('A' for Active; 'I' for Inactive)
REMARK       I    between atoms: N3_9  and  C5_11 
REMARK    1  A    between atoms: C5_11  and  C6_13 
REMARK    2  A    between atoms: C6_13  and  C7_14 
REMARK    3  A    between atoms: N4_17  and  C10_18 
ROOT
HETATM    1  C1  UNL     1      -3.281   4.496   9.234  1.00  0.00     0.089 C 
HETATM    2  C2  UNL     1      -3.629   4.121  10.628  1.00  0.00     0.082 A 
HETATM    3  N1  UNL     1      -3.376   2.914  11.180  1.00  0.00    -0.329 N 
ATOM      4  H1  UNL     1      -2.923   2.127  10.715  1.00  0.00     0.168 HD
HETATM    5  C3  UNL     1      -3.826   2.929  12.458  1.00  0.00     0.168 A 
HETATM    6  N2  UNL     1      -3.950   2.200  13.586  1.00  0.00    -0.172 N 
ATOM      7  H2  UNL     1      -3.644   1.237  13.728  1.00  0.00     0.186 HD
HETATM    8  C4  UNL     1      -4.557   2.995  14.485  1.00  0.00     0.691 A 
HETATM    9  N3  UNL     1      -4.861   2.682  15.692  1.00  0.00    -0.159 N 
ATOM     10  H3  UNL     1      -5.322   3.363  16.295  1.00  0.00     0.187 HD
HETATM   11  C5  UNL     1      -4.557   1.386  16.190  1.00  0.00     0.236 C 
HETATM   12  O1  UNL     1      -3.335   1.103  16.330  1.00  0.00    -0.273 OA
HETATM   13  N4  UNL     1      -4.813   4.215  13.929  1.00  0.00    -0.160 N 
HETATM   14  C13 UNL     1      -4.358   4.191  12.650  1.00  0.00     0.172 A 
HETATM   15  N5  UNL     1      -4.236   4.918  11.526  1.00  0.00    -0.324 N 
HETATM   16  C14 UNL     1      -4.685   6.303  11.349  1.00  0.00     0.159 C 
ENDROOT
BRANCH  13  17
HETATM   17  C10 UNL     1      -5.439   5.360  14.514  1.00  0.00     0.101 C 
HETATM   18  C11 UNL     1      -6.432   5.001  15.595  1.00  0.00     0.033 C 
HETATM   19  C12 UNL     1      -4.364   6.215  15.194  1.00  0.00     0.033 C 
ENDBRANCH  13  17
BRANCH  11  20
HETATM   20  C6  UNL     1      -5.571   0.392  16.539  1.00  0.00     0.107 C 
BRANCH  20  21
HETATM   21  C7  UNL     1      -6.586   0.968  17.484  1.00  0.00    -0.014 C 
HETATM   22  C8  UNL     1      -7.734   1.541  16.680  1.00  0.00     0.010 C 
HETATM   23  C9  UNL     1      -6.019   1.991  18.413  1.00  0.00     0.010 C 
ENDBRANCH  20  21
ENDBRANCH  11  20
TORSDOF 3
ENDMDL
MODEL 2
REMARK VINA RESULT: -7.215897773      1.104      1.649
REMARK  3 active torsions:
REMARK  status: ('A' for Active; 'I' for Inactive)
REMARK       I    between atoms: N3_9  and  C5_11 
REMARK    1  A    between atoms: C5_11  and  C6_13 
REMARK    2  A    between atoms: C6_13  and  C7_14 
REMARK    3  A    between atoms: N4_17  and  C10_18 
ROOT
HETATM    1  C1  UNL     1      -3.999   4.334   9.224  1.00  0.00     0.089 C 
HETATM    2  C2  UNL     1      -3.985   3.895  10.643  1.00  0.00     0.082 A 
HETATM    3  N1  UNL     1      -4.376   2.674  11.069  1.00  0.00    -0.329 N 
ATOM      4  H1  UNL     1      -4.723   1.918  10.478  1.00  0.00     0.168 HD
HETATM    5  C3  UNL     1      -4.229   2.626  12.415  1.00  0.00     0.168 A 
HETATM    6  N2  UNL     1      -4.376   1.849  13.507  1.00  0.00    -0.172 N 
ATOM      7  H2  UNL     1      -4.721   0.890  13.533  1.00  0.00     0.186 HD
HETATM    8  C4  UNL     1      -3.979   2.593  14.555  1.00  0.00     0.691 A 
HETATM    9  N3  UNL     1      -3.962   2.223  15.785  1.00  0.00    -0.159 N 
ATOM     10  H3  UNL     1      -3.639   2.868  16.506  1.00  0.00     0.187 HD
HETATM   11  C5  UNL     1      -4.392   0.917  16.142  1.00  0.00     0.236 C 
HETATM   12  O1  UNL     1      -3.676  -0.046  15.750  1.00  0.00    -0.273 OA
HETATM   13  N4  UNL     1      -3.583   3.826  14.127  1.00  0.00    -0.160 N 
HETATM   14  C13 UNL     1      -3.734   3.865  12.778  1.00  0.00     0.172 A 
HETATM   15  N5  UNL     1      -3.587   4.640  11.689  1.00  0.00    -0.324 N 
HETATM   16  C14 UNL     1      -3.087   6.019  11.681  1.00  0.00     0.159 C 
ENDROOT
BRANCH  13  17
HETATM   17  C10 UNL     1      -3.089   4.930  14.890  1.00  0.00     0.101 C 
HETATM   18  C11 UNL     1      -1.804   5.500  14.336  1.00  0.00     0.033 C 
HETATM   19  C12 UNL     1      -4.116   6.067  14.833  1.00  0.00     0.033 C 
ENDBRANCH  13  17
BRANCH  11  20
HETATM   20  C6  UNL     1      -5.597   0.645  16.924  1.00  0.00     0.107 C 
BRANCH  20  21
HETATM   21  C7  UNL     1      -6.338   1.915  17.229  1.00  0.00    -0.014 C 
HETATM   22  C8  UNL     1      -6.299   2.158  18.723  1.00  0.00     0.010 C 
HETATM   23  C9  UNL     1      -7.743   1.918  16.723  1.00  0.00     0.010 C 
ENDBRANCH  20  21
ENDBRANCH  11  20
TORSDOF 3
ENDMDL
MODEL 3
REMARK VINA RESULT: -6.785878835      1.518      1.830
REMARK  3 active torsions:
REMARK  status: ('A' for Active; 'I' for Inactive)
REMARK       I    between atoms: N3_9  and  C5_11 
REMARK    1  A    between atoms: C5_11  and  C6_13 
REMARK    2  A    between atoms: C6_13  and  C7_14 
REMARK    3  A    between atoms: N4_17  and  C10_18 
ROOT
HETATM    1  C1  UNL     1      -3.280   4.858   8.228  1.00  0.00     0.089 C 
HETATM    2  C2  UNL     1      -3.473   4.698   9.693  1.00  0.00     0.082 A 
HETATM    3  N1  UNL     1      -4.003   3.602  10.278  1.00  0.00    -0.329 N 
ATOM      4  H1  UNL     1      -4.330   2.766   9.795  1.00  0.00     0.168 HD
HETATM    5  C3  UNL     1      -4.025   3.805  11.618  1.00  0.00     0.168 A 
HETATM    6  N2  UNL     1      -4.362   3.260  12.804  1.00  0.00    -0.172 N 
ATOM      7  H2  UNL     1      -4.779   2.342  12.959  1.00  0.00     0.186 HD
HETATM    8  C4  UNL     1      -4.041   4.169  13.742  1.00  0.00     0.691 A 
HETATM    9  N3  UNL     1      -4.202   4.041  15.010  1.00  0.00    -0.159 N 
ATOM     10  H3  UNL     1      -3.922   4.794  15.637  1.00  0.00     0.187 HD
HETATM   11  C5  UNL     1      -4.769   2.851  15.539  1.00  0.00     0.236 C 
HETATM   12  O1  UNL     1      -4.084   1.796  15.429  1.00  0.00    -0.273 OA
HETATM   13  N4  UNL     1      -3.505   5.277  13.153  1.00  0.00    -0.160 N 
HETATM   14  C13 UNL     1      -3.487   5.064  11.811  1.00  0.00     0.172 A 
HETATM   15  N5  UNL     1      -3.150   5.609  10.629  1.00  0.00    -0.324 N 
HETATM   16  C14 UNL     1      -2.552   6.933  10.435  1.00  0.00     0.159 C 
ENDROOT
BRANCH  13  17
HETATM   17  C10 UNL     1      -3.026   6.480  13.759  1.00  0.00     0.101 C 
HETATM   18  C11 UNL     1      -3.681   6.769  15.089  1.00  0.00     0.033 C 
HETATM   19  C12 UNL     1      -1.529   6.323  14.049  1.00  0.00     0.033 C 
ENDBRANCH  13  17
BRANCH  11  20
HETATM   20  C6  UNL     1      -6.078   2.794  16.189  1.00  0.00     0.107 C 
BRANCH  20  21
HETATM   21  C7  UNL     1      -6.097   1.750  17.268  1.00  0.00    -0.014 C 
HETATM   22  C8  UNL     1      -7.217   0.772  16.983  1.00  0.00     0.010 C 
HETATM   23  C9  UNL     1      -6.221   2.320  18.643  1.00  0.00     0.010 C 
ENDBRANCH  20  21
ENDBRANCH  11  20
TORSDOF 3
ENDMDL
MODEL 4
REMARK VINA RESULT: -6.726213982      1.581      1.884
REMARK  3 active torsions:
REMARK  status: ('A' for Active; 'I' for Inactive)
REMARK       I    between atoms: N3_9  and  C5_11 
REMARK    1  A    between atoms: C5_11  and  C6_13 
REMARK    2  A    between atoms: C6_13  and  C7_14 
REMARK    3  A    between atoms: N4_17  and  C10_18 
ROOT
HETATM    1  C1  UNL     1      -3.537   4.925   8.289  1.00  0.00     0.089 C 
HETATM    2  C2  UNL     1      -3.638   4.471   9.700  1.00  0.00     0.082 A 
HETATM    3  N1  UNL     1      -4.271   3.345  10.097  1.00  0.00    -0.329 N 
ATOM      4  H1  UNL     1      -4.748   2.682   9.487  1.00  0.00     0.168 HD
HETATM    5  C3  UNL     1      -4.162   3.249  11.445  1.00  0.00     0.168 A 
HETATM    6  N2  UNL     1      -4.481   2.501  12.520  1.00  0.00    -0.172 N 
ATOM      7  H2  UNL     1      -5.009   1.629  12.523  1.00  0.00     0.186 HD
HETATM    8  C4  UNL     1      -3.965   3.136  13.588  1.00  0.00     0.691 A 
HETATM    9  N3  UNL     1      -4.045   2.752  14.811  1.00  0.00    -0.159 N 
ATOM     10  H3  UNL     1      -3.616   3.309  15.549  1.00  0.00     0.187 HD
HETATM   11  C5  UNL     1      -4.732   1.552  15.137  1.00  0.00     0.236 C 
HETATM   12  O1  UNL     1      -4.213   0.472  14.739  1.00  0.00    -0.273 OA
HETATM   13  N4  UNL     1      -3.325   4.273  13.189  1.00  0.00    -0.160 N 
HETATM   14  C13 UNL     1      -3.439   4.360  11.839  1.00  0.00     0.172 A 
HETATM   15  N5  UNL     1      -3.120   5.107  10.767  1.00  0.00    -0.324 N 
HETATM   16  C14 UNL     1      -2.358   6.360  10.792  1.00  0.00     0.159 C 
ENDROOT
BRANCH  13  17
HETATM   17  C10 UNL     1      -2.637   5.246  13.979  1.00  0.00     0.101 C 
HETATM   18  C11 UNL     1      -3.555   6.005  14.909  1.00  0.00     0.033 C 
HETATM   19  C12 UNL     1      -1.626   4.526  14.877  1.00  0.00     0.033 C 
ENDBRANCH  13  17
BRANCH  11  20
HETATM   20  C6  UNL     1      -5.982   1.512  15.894  1.00  0.00     0.107 C 
BRANCH  20  21
HETATM   21  C7  UNL     1      -5.983   2.545  16.984  1.00  0.00    -0.014 C 
HETATM   22  C8  UNL     1      -6.279   1.864  18.304  1.00  0.00     0.010 C 
HETATM   23  C9  UNL     1      -6.935   3.669  16.737  1.00  0.00     0.010 C 
ENDBRANCH  20  21
ENDBRANCH  11  20
TORSDOF 3
ENDMDL
MODEL 5
REMARK VINA RESULT: -6.681239963      2.554      3.576
REMARK  3 active torsions:
REMARK  status: ('A' for Active; 'I' for Inactive)
REMARK       I    between atoms: N3_9  and  C5_11 
REMARK    1  A    between atoms: C5_11  and  C6_13 
REMARK    2  A    between atoms: C6_13  and  C7_14 
REMARK    3  A    between atoms: N4_17  and  C10_18 
ROOT
HETATM    1  C1  UNL     1       0.245   7.041  12.502  1.00  0.00     0.089 C 
HETATM    2  C2  UNL     1      -0.982   6.286  12.866  1.00  0.00     0.082 A 
HETATM    3  N1  UNL     1      -1.819   6.626  13.870  1.00  0.00    -0.329 N 
ATOM      4  H1  UNL     1      -1.712   7.429  14.491  1.00  0.00     0.168 HD
HETATM    5  C3  UNL     1      -2.824   5.718  13.912  1.00  0.00     0.168 A 
HETATM    6  N2  UNL     1      -3.957   5.366  14.551  1.00  0.00    -0.172 N 
ATOM      7  H2  UNL     1      -4.389   5.847  15.340  1.00  0.00     0.186 HD
HETATM    8  C4  UNL     1      -4.404   4.252  13.942  1.00  0.00     0.691 A 
HETATM    9  N3  UNL     1      -5.463   3.593  14.248  1.00  0.00    -0.159 N 
ATOM     10  H3  UNL     1      -5.713   2.758  13.718  1.00  0.00     0.187 HD
HETATM   11  C5  UNL     1      -6.286   4.025  15.322  1.00  0.00     0.236 C 
HETATM   12  O1  UNL     1      -6.903   5.115  15.164  1.00  0.00    -0.273 OA
HETATM   13  N4  UNL     1      -3.561   3.907  12.927  1.00  0.00    -0.160 N 
HETATM   14  C13 UNL     1      -2.557   4.822  12.893  1.00  0.00     0.172 A 
HETATM   15  N5  UNL     1      -1.427   5.173  12.254  1.00  0.00    -0.324 N 
HETATM   16  C14 UNL     1      -0.828   4.461  11.121  1.00  0.00     0.159 C 
ENDROOT
BRANCH  13  17
HETATM   17  C10 UNL     1      -3.643   2.805  12.020  1.00  0.00     0.101 C 
HETATM   18  C11 UNL     1      -4.410   1.633  12.586  1.00  0.00     0.033 C 
HETATM   19  C12 UNL     1      -4.411   3.251  10.771  1.00  0.00     0.033 C 
ENDBRANCH  13  17
BRANCH  11  20
HETATM   20  C6  UNL     1      -6.447   3.282  16.571  1.00  0.00     0.107 C 
BRANCH  20  21
HETATM   21  C7  UNL     1      -6.310   1.805  16.339  1.00  0.00    -0.014 C 
HETATM   22  C8  UNL     1      -7.411   1.086  17.089  1.00  0.00     0.010 C 
HETATM   23  C9  UNL     1      -4.968   1.267  16.714  1.00  0.00     0.010 C 
ENDBRANCH  20  21
ENDBRANCH  11  20
TORSDOF 3
ENDMDL
