MODEL 1
REMARK VINA RESULT: -6.820238731      0.000      0.000
REMARK  3 active torsions:
REMARK  status: ('A' for Active; 'I' for Inactive)
REMARK    1  A    between atoms: C5_7  and  C6_8 
REMARK    2  A    between atoms: C6_8  and  C7_9 
REMARK    3  A    between atoms: C7_9  and  C8_10 
REMARK       I    between atoms: C8_10  and  N2_12 
ROOT
HETATM    1  C6  UNL     1      -5.449   3.932  14.907  1.00  0.00     0.068 C 
ENDROOT
BRANCH   1   2
HETATM    2  C5  UNL     1      -5.073   2.687  14.219  1.00  0.00     0.032 A 
HETATM    3  C3  UNL     1      -4.640   1.606  14.986  1.00  0.00     0.028 A 
HETATM    4  N1  UNL     1      -4.315   0.461  14.357  1.00  0.00    -0.360 N 
HETATM    5  C4  UNL     1      -4.546   1.729  16.470  1.00  0.00     0.070 C 
HETATM    6  C2  UNL     1      -4.409   0.362  13.010  1.00  0.00     0.028 A 
ATOM      7  H1  UNL     1      -3.995  -0.340  14.900  1.00  0.00     0.165 HD
HETATM    8  C1  UNL     1      -4.051  -0.890  12.355  1.00  0.00     0.070 C 
HETATM    9  C13 UNL     1      -4.833   1.413  12.236  1.00  0.00     0.028 A 
HETATM   10  N4  UNL     1      -5.154   2.549  12.861  1.00  0.00    -0.360 N 
HETATM   11  C14 UNL     1      -4.920   1.270  10.794  1.00  0.00     0.070 C 
ATOM     12  H4  UNL     1      -5.472   3.342  12.305  1.00  0.00     0.165 HD
ENDBRANCH   1   2
BRANCH   1  13
HETATM   13  C7  UNL     1      -4.487   5.062  14.808  1.00  0.00     0.109 C 
BRANCH  13  14
HETATM   14  C8  UNL     1      -4.610   5.799  13.541  1.00  0.00     0.226 C 
HETATM   15  O1  UNL     1      -5.678   5.716  12.843  1.00  0.00    -0.273 OA
HETATM   16  N2  UNL     1      -3.527   6.631  13.060  1.00  0.00    -0.293 N 
HETATM   17  C9  UNL     1      -3.629   7.339  11.864  1.00  0.00     0.143 C 
HETATM   18  C11 UNL     1      -2.332   6.766  13.779  1.00  0.00     0.100 C 
HETATM   19  N3  UNL     1      -4.680   7.553  11.131  1.00  0.00    -0.380 N 
HETATM   20  S1  UNL     1      -1.990   7.936  11.481  1.00  0.00    -0.092 SA
ATOM     21  H32 UNL     1      -5.617   7.212  11.350  1.00  0.00     0.158 HD
ATOM     22  H31 UNL     1      -4.755   8.072  10.256  1.00  0.00     0.158 HD
HETATM   23  C10 UNL     1      -1.186   7.161  12.922  1.00  0.00     0.107 C 
HETATM   24  C12 UNL     1      -2.487   7.762  14.912  1.00  0.00     0.034 C 
ENDBRANCH  13  14
ENDBRANCH   1  13
TORSDOF 3
ENDMDL
MODEL 2
REMARK VINA RESULT: -6.741640234      2.204      3.732
REMARK  3 active torsions:
REMARK  status: ('A' for Active; 'I' for Inactive)
REMARK    1  A    between atoms: C5_7  and  C6_8 
REMARK    2  A    between atoms: C6_8  and  C7_9 
REMARK    3  A    between atoms: C7_9  and  C8_10 
REMARK       I    between atoms: C8_10  and  N2_12 
ROOT
HETATM    1  C6  UNL     1      -4.579   1.773  12.941  1.00  0.00     0.068 C 
ENDROOT
BRANCH   1   2
HETATM    2  C5  UNL     1      -5.053   1.859  14.330  1.00  0.00     0.032 A 
HETATM    3  C3  UNL     1      -4.803   0.787  15.187  1.00  0.00     0.028 A 
HETATM    4  N1  UNL     1      -5.220   0.875  16.465  1.00  0.00    -0.360 N 
HETATM    5  C4  UNL     1      -4.084  -0.421  14.688  1.00  0.00     0.070 C 
HETATM    6  C2  UNL     1      -5.868   1.979  16.905  1.00  0.00     0.028 A 
ATOM      7  H1  UNL     1      -5.047   0.102  17.106  1.00  0.00     0.165 HD
HETATM    8  C1  UNL     1      -6.309   2.047  18.293  1.00  0.00     0.070 C 
HETATM    9  C13 UNL     1      -6.126   3.044  16.079  1.00  0.00     0.028 A 
HETATM   10  N4  UNL     1      -5.711   2.956  14.812  1.00  0.00    -0.360 N 
HETATM   11  C14 UNL     1      -6.824   4.211  16.587  1.00  0.00     0.070 C 
ATOM     12  H4  UNL     1      -5.892   3.737  14.182  1.00  0.00     0.165 HD
ENDBRANCH   1   2
BRANCH   1  13
HETATM   13  C7  UNL     1      -4.351   3.062  12.235  1.00  0.00     0.109 C 
BRANCH  13  14
HETATM   14  C8  UNL     1      -2.976   3.559  12.399  1.00  0.00     0.226 C 
HETATM   15  O1  UNL     1      -1.978   2.832  12.068  1.00  0.00    -0.273 OA
HETATM   16  N2  UNL     1      -2.726   4.882  12.935  1.00  0.00    -0.293 N 
HETATM   17  C9  UNL     1      -1.430   5.370  13.093  1.00  0.00     0.143 C 
HETATM   18  C11 UNL     1      -3.776   5.729  13.314  1.00  0.00     0.100 C 
HETATM   19  N3  UNL     1      -0.316   4.885  12.633  1.00  0.00    -0.380 N 
HETATM   20  S1  UNL     1      -1.558   6.851  14.084  1.00  0.00    -0.092 SA
ATOM     21  H32 UNL     1      -0.243   4.039  12.067  1.00  0.00     0.158 HD
ATOM     22  H31 UNL     1       0.633   5.243  12.748  1.00  0.00     0.158 HD
HETATM   23  C10 UNL     1      -3.363   6.744  14.316  1.00  0.00     0.107 C 
HETATM   24  C12 UNL     1      -4.379   6.422  12.108  1.00  0.00     0.034 C 
ENDBRANCH  13  14
ENDBRANCH   1  13
TORSDOF 3
ENDMDL
MODEL 3
REMARK VINA RESULT: -6.708089037      1.655      2.175
REMARK  3 active torsions:
REMARK  status: ('A' for Active; 'I' for Inactive)
REMARK    1  A    between atoms: C5_7  and  C6_8 
REMARK    2  A    between atoms: C6_8  and  C7_9 
REMARK    3  A    between atoms: C7_9  and  C8_10 
REMARK       I    between atoms: C8_10  and  N2_12 
ROOT
HETATM    1  C6  UNL     1      -5.553   3.484  15.317  1.00  0.00     0.068 C 
ENDROOT
BRANCH   1   2
HETATM    2  C5  UNL     1      -5.146   2.342  14.485  1.00  0.00     0.032 A 
HETATM    3  C3  UNL     1      -4.743   1.166  15.118  1.00  0.00     0.028 A 
HETATM    4  N1  UNL     1      -4.389   0.115  14.354  1.00  0.00    -0.360 N 
HETATM    5  C4  UNL     1      -4.715   1.088  16.607  1.00  0.00     0.070 C 
HETATM    6  C2  UNL     1      -4.424   0.199  13.003  1.00  0.00     0.028 A 
ATOM      7  H1  UNL     1      -4.092  -0.753  14.798  1.00  0.00     0.165 HD
HETATM    8  C1  UNL     1      -4.035  -0.955  12.202  1.00  0.00     0.070 C 
HETATM    9  C13 UNL     1      -4.816   1.346  12.361  1.00  0.00     0.028 A 
HETATM   10  N4  UNL     1      -5.167   2.389  13.118  1.00  0.00    -0.360 N 
HETATM   11  C14 UNL     1      -4.840   1.399  10.910  1.00  0.00     0.070 C 
ATOM     12  H4  UNL     1      -5.462   3.251  12.661  1.00  0.00     0.165 HD
ENDBRANCH   1   2
BRANCH   1  13
HETATM   13  C7  UNL     1      -4.810   4.756  15.111  1.00  0.00     0.109 C 
BRANCH  13  14
HETATM   14  C8  UNL     1      -3.444   4.536  14.611  1.00  0.00     0.226 C 
HETATM   15  O1  UNL     1      -2.699   3.636  15.129  1.00  0.00    -0.273 OA
HETATM   16  N2  UNL     1      -2.917   5.334  13.522  1.00  0.00    -0.293 N 
HETATM   17  C9  UNL     1      -1.627   5.137  13.033  1.00  0.00     0.143 C 
HETATM   18  C11 UNL     1      -3.684   6.335  12.910  1.00  0.00     0.100 C 
HETATM   19  N3  UNL     1      -0.807   4.159  13.273  1.00  0.00    -0.380 N 
HETATM   20  S1  UNL     1      -1.266   6.523  11.965  1.00  0.00    -0.092 SA
ATOM     21  H32 UNL     1      -1.012   3.367  13.882  1.00  0.00     0.158 HD
ATOM     22  H31 UNL     1       0.137   4.014  12.914  1.00  0.00     0.158 HD
HETATM   23  C10 UNL     1      -2.853   7.375  12.253  1.00  0.00     0.107 C 
HETATM   24  C12 UNL     1      -4.648   5.742  11.901  1.00  0.00     0.034 C 
ENDBRANCH  13  14
ENDBRANCH   1  13
TORSDOF 3
ENDMDL
MODEL 4
REMARK VINA RESULT: -6.639630034      2.952      6.194
REMARK  3 active torsions:
REMARK  status: ('A' for Active; 'I' for Inactive)
REMARK    1  A    between atoms: C5_7  and  C6_8 
REMARK    2  A    between atoms: C6_8  and  C7_9 
REMARK    3  A    between atoms: C7_9  and  C8_10 
REMARK       I    between atoms: C8_10  and  N2_12 
ROOT
HETATM    1  C6  UNL     1      -3.652   2.953  11.465  1.00  0.00     0.068 C 
ENDROOT
BRANCH   1   2
HETATM    2  C5  UNL     1      -3.495   4.414  11.536  1.00  0.00     0.032 A 
HETATM    3  C3  UNL     1      -2.237   4.935  11.837  1.00  0.00     0.028 A 
HETATM    4  N1  UNL     1      -2.091   6.273  11.883  1.00  0.00    -0.360 N 
HETATM    5  C4  UNL     1      -1.088   4.020  12.096  1.00  0.00     0.070 C 
HETATM    6  C2  UNL     1      -3.142   7.092  11.641  1.00  0.00     0.028 A 
ATOM      7  H1  UNL     1      -1.180   6.674  12.102  1.00  0.00     0.165 HD
HETATM    8  C1  UNL     1      -2.955   8.536  11.698  1.00  0.00     0.070 C 
HETATM    9  C13 UNL     1      -4.388   6.600  11.344  1.00  0.00     0.028 A 
HETATM   10  N4  UNL     1      -4.532   5.273  11.299  1.00  0.00    -0.360 N 
HETATM   11  C14 UNL     1      -5.491   7.509  11.092  1.00  0.00     0.070 C 
ATOM     12  H4  UNL     1      -5.450   4.886  11.079  1.00  0.00     0.165 HD
ENDBRANCH   1   2
BRANCH   1  13
HETATM   13  C7  UNL     1      -4.888   2.386  12.066  1.00  0.00     0.109 C 
BRANCH  13  14
HETATM   14  C8  UNL     1      -4.605   1.471  13.183  1.00  0.00     0.226 C 
HETATM   15  O1  UNL     1      -3.989   0.369  12.979  1.00  0.00    -0.273 OA
HETATM   16  N2  UNL     1      -5.015   1.801  14.532  1.00  0.00    -0.293 N 
HETATM   17  C9  UNL     1      -4.751   0.947  15.602  1.00  0.00     0.143 C 
HETATM   18  C11 UNL     1      -5.691   2.994  14.822  1.00  0.00     0.100 C 
HETATM   19  N3  UNL     1      -3.973  -0.092  15.641  1.00  0.00    -0.380 N 
HETATM   20  S1  UNL     1      -5.709   1.548  16.985  1.00  0.00    -0.092 SA
ATOM     21  H32 UNL     1      -3.426  -0.436  14.851  1.00  0.00     0.158 HD
ATOM     22  H31 UNL     1      -3.779  -0.717  16.424  1.00  0.00     0.158 HD
HETATM   23  C10 UNL     1      -6.497   2.912  16.065  1.00  0.00     0.107 C 
HETATM   24  C12 UNL     1      -4.724   4.158  14.918  1.00  0.00     0.034 C 
ENDBRANCH  13  14
ENDBRANCH   1  13
TORSDOF 3
ENDMDL
MODEL 5
REMARK VINA RESULT: -6.601389427      2.632      3.727
REMARK  3 active torsions:
REMARK  status: ('A' for Active; 'I' for Inactive)
REMARK    1  A    between atoms: C5_7  and  C6_8 
REMARK    2  A    between atoms: C6_8  and  C7_9 
REMARK    3  A    between atoms: C7_9  and  C8_10 
REMARK       I    between atoms: C8_10  and  N2_12 
ROOT
HETATM    1  C6  UNL     1      -4.324   4.477  13.421  1.00  0.00     0.068 C 
ENDROOT
BRANCH   1   2
HETATM    2  C5  UNL     1      -4.805   3.468  14.376  1.00  0.00     0.032 A 
HETATM    3  C3  UNL     1      -5.759   3.846  15.321  1.00  0.00     0.028 A 
HETATM    4  N1  UNL     1      -6.213   2.916  16.182  1.00  0.00    -0.360 N 
HETATM    5  C4  UNL     1      -6.258   5.251  15.362  1.00  0.00     0.070 C 
HETATM    6  C2  UNL     1      -5.754   1.643  16.131  1.00  0.00     0.028 A 
ATOM      7  H1  UNL     1      -6.910   3.172  16.881  1.00  0.00     0.165 HD
HETATM    8  C1  UNL     1      -6.263   0.657  17.076  1.00  0.00     0.070 C 
HETATM    9  C13 UNL     1      -4.815   1.250  15.210  1.00  0.00     0.028 A 
HETATM   10  N4  UNL     1      -4.365   2.173  14.356  1.00  0.00    -0.360 N 
HETATM   11  C14 UNL     1      -4.346  -0.123  15.185  1.00  0.00     0.070 C 
ATOM     12  H4  UNL     1      -3.668   1.902  13.663  1.00  0.00     0.165 HD
ENDBRANCH   1   2
BRANCH   1  13
HETATM   13  C7  UNL     1      -3.883   3.978  12.091  1.00  0.00     0.109 C 
BRANCH  13  14
HETATM   14  C8  UNL     1      -2.424   3.802  12.010  1.00  0.00     0.226 C 
HETATM   15  O1  UNL     1      -1.886   2.686  12.324  1.00  0.00    -0.273 OA
HETATM   16  N2  UNL     1      -1.571   4.888  11.573  1.00  0.00    -0.293 N 
HETATM   17  C9  UNL     1      -0.188   4.737  11.486  1.00  0.00     0.143 C 
HETATM   18  C11 UNL     1      -2.099   6.135  11.212  1.00  0.00     0.100 C 
HETATM   19  N3  UNL     1       0.518   3.649  11.554  1.00  0.00    -0.380 N 
HETATM   20  S1  UNL     1       0.492   6.373  11.254  1.00  0.00    -0.092 SA
ATOM     21  H32 UNL     1       0.130   2.715  11.687  1.00  0.00     0.158 HD
ATOM     22  H31 UNL     1       1.530   3.539  11.490  1.00  0.00     0.158 HD
HETATM   23  C10 UNL     1      -1.112   7.237  11.340  1.00  0.00     0.107 C 
HETATM   24  C12 UNL     1      -2.649   6.106   9.800  1.00  0.00     0.034 C 
ENDBRANCH  13  14
ENDBRANCH   1  13
TORSDOF 3
ENDMDL
