MODEL 1
REMARK VINA RESULT: -6.782570288      0.000      0.000
REMARK  7 active torsions:
REMARK  status: ('A' for Active; 'I' for Inactive)
REMARK    1  A    between atoms: C2_2  and  C3_3 
REMARK    2  A    between atoms: C4_4  and  C5_5 
REMARK    3  A    between atoms: C5_5  and  O1_6 
REMARK    4  A    between atoms: C7_9  and  O2_10 
REMARK    5  A    between atoms: O2_10  and  C8_11 
REMARK    6  A    between atoms: C8_11  and  C11_14 
REMARK    7  A    between atoms: C11_14  and  O4_16 
ROOT
HETATM    1  C5  UNL     1      -3.084   6.512  13.262  1.00  0.00     0.146 C 
HETATM    2  C6  UNL     1      -3.519   5.884  14.558  1.00  0.00     0.088 C 
HETATM    3  C7  UNL     1      -3.224   4.398  14.478  1.00  0.00     0.130 C 
HETATM    4  C13 UNL     1      -1.707   4.296  14.450  1.00  0.00     0.059 C 
HETATM    5  C14 UNL     1      -1.284   4.801  13.107  1.00  0.00    -0.018 C 
HETATM    6  C15 UNL     1      -1.962   5.829  12.613  1.00  0.00    -0.041 C 
HETATM    7  C16 UNL     1      -1.533   6.326  11.272  1.00  0.00     0.047 C 
ENDROOT
BRANCH   3   8
HETATM    8  O2  UNL     1      -3.844   3.629  15.372  1.00  0.00    -0.365 OA
BRANCH   8   9
HETATM    9  C8  UNL     1      -4.753   2.709  15.019  1.00  0.00     0.141 C 
HETATM   10  C9  UNL     1      -6.199   3.209  15.085  1.00  0.00     0.057 C 
HETATM   11  C10 UNL     1      -4.528   2.375  13.555  1.00  0.00     0.057 C 
BRANCH   9  12
HETATM   12  C11 UNL     1      -4.654   1.418  15.744  1.00  0.00     0.292 C 
HETATM   13  O3  UNL     1      -3.522   1.034  16.136  1.00  0.00    -0.262 OA
BRANCH  12  14
HETATM   14  O4  UNL     1      -5.733   0.593  16.022  1.00  0.00    -0.324 OA
HETATM   15  C12 UNL     1      -6.160   0.336  17.359  1.00  0.00     0.213 C 
ENDBRANCH  12  14
ENDBRANCH   9  12
ENDBRANCH   8   9
ENDBRANCH   3   8
BRANCH   1  16
HETATM   16  C4  UNL     1      -4.259   6.611  12.362  1.00  0.00    -0.063 C 
HETATM   17  C3  UNL     1      -5.200   6.710  11.633  1.00  0.00    -0.103 C 
BRANCH  17  18
HETATM   18  C2  UNL     1      -6.344   6.853  10.728  1.00  0.00     0.089 C 
HETATM   19  C1  UNL     1      -7.317   7.855  11.313  1.00  0.00     0.018 C 
ENDBRANCH  17  18
ENDBRANCH   1  16
BRANCH   1  20
HETATM   20  O1  UNL     1      -2.713   7.851  13.524  1.00  0.00    -0.373 OA
ATOM     21  H1  UNL     1      -2.380   7.842  14.414  1.00  0.00     0.212 HD
ENDBRANCH   1  20
TORSDOF 7
ENDMDL
MODEL 2
REMARK VINA RESULT: -6.224962397      1.067      2.021
REMARK  7 active torsions:
REMARK  status: ('A' for Active; 'I' for Inactive)
REMARK    1  A    between atoms: C2_2  and  C3_3 
REMARK    2  A    between atoms: C4_4  and  C5_5 
REMARK    3  A    between atoms: C5_5  and  O1_6 
REMARK    4  A    between atoms: C7_9  and  O2_10 
REMARK    5  A    between atoms: O2_10  and  C8_11 
REMARK    6  A    between atoms: C8_11  and  C11_14 
REMARK    7  A    between atoms: C11_14  and  O4_16 
ROOT
HETATM    1  C5  UNL     1      -3.092   6.509  13.140  1.00  0.00     0.146 C 
HETATM    2  C6  UNL     1      -3.526   5.954  14.469  1.00  0.00     0.088 C 
HETATM    3  C7  UNL     1      -3.306   4.453  14.442  1.00  0.00     0.130 C 
HETATM    4  C13 UNL     1      -1.797   4.275  14.386  1.00  0.00     0.059 C 
HETATM    5  C14 UNL     1      -1.381   4.707  13.015  1.00  0.00    -0.018 C 
HETATM    6  C15 UNL     1      -2.020   5.747  12.495  1.00  0.00    -0.041 C 
HETATM    7  C16 UNL     1      -1.598   6.170  11.127  1.00  0.00     0.047 C 
ENDROOT
BRANCH   3   8
HETATM    8  O2  UNL     1      -3.941   3.751  15.378  1.00  0.00    -0.365 OA
BRANCH   8   9
HETATM    9  C8  UNL     1      -4.912   2.875  15.083  1.00  0.00     0.141 C 
HETATM   10  C9  UNL     1      -5.172   1.844  16.186  1.00  0.00     0.057 C 
HETATM   11  C10 UNL     1      -6.213   3.649  14.966  1.00  0.00     0.057 C 
BRANCH   9  12
HETATM   12  C11 UNL     1      -4.749   2.168  13.789  1.00  0.00     0.292 C 
HETATM   13  O3  UNL     1      -4.108   1.085  13.773  1.00  0.00    -0.262 OA
BRANCH  12  14
HETATM   14  O4  UNL     1      -5.258   2.619  12.581  1.00  0.00    -0.324 OA
HETATM   15  C12 UNL     1      -4.424   2.833  11.444  1.00  0.00     0.213 C 
ENDBRANCH  12  14
ENDBRANCH   9  12
ENDBRANCH   8   9
ENDBRANCH   3   8
BRANCH   1  16
HETATM   16  C4  UNL     1      -4.281   6.631  12.262  1.00  0.00    -0.063 C 
HETATM   17  C3  UNL     1      -5.241   6.749  11.561  1.00  0.00    -0.103 C 
BRANCH  17  18
HETATM   18  C2  UNL     1      -6.417   6.920  10.704  1.00  0.00     0.089 C 
HETATM   19  C1  UNL     1      -7.432   7.786  11.420  1.00  0.00     0.018 C 
ENDBRANCH  17  18
ENDBRANCH   1  16
BRANCH   1  20
HETATM   20  O1  UNL     1      -2.649   7.837  13.340  1.00  0.00    -0.373 OA
ATOM     21  H1  UNL     1      -3.322   8.381  12.946  1.00  0.00     0.212 HD
ENDBRANCH   1  20
TORSDOF 7
ENDMDL
MODEL 3
REMARK VINA RESULT: -6.210587988      1.854      3.128
REMARK  7 active torsions:
REMARK  status: ('A' for Active; 'I' for Inactive)
REMARK    1  A    between atoms: C2_2  and  C3_3 
REMARK    2  A    between atoms: C4_4  and  C5_5 
REMARK    3  A    between atoms: C5_5  and  O1_6 
REMARK    4  A    between atoms: C7_9  and  O2_10 
REMARK    5  A    between atoms: O2_10  and  C8_11 
REMARK    6  A    between atoms: C8_11  and  C11_14 
REMARK    7  A    between atoms: C11_14  and  O4_16 
ROOT
HETATM    1  C5  UNL     1      -2.446   5.028  12.038  1.00  0.00     0.146 C 
HETATM    2  C6  UNL     1      -2.459   3.661  12.666  1.00  0.00     0.088 C 
HETATM    3  C7  UNL     1      -3.897   3.179  12.703  1.00  0.00     0.130 C 
HETATM    4  C13 UNL     1      -4.284   2.975  11.247  1.00  0.00     0.059 C 
HETATM    5  C14 UNL     1      -4.398   4.345  10.656  1.00  0.00    -0.018 C 
HETATM    6  C15 UNL     1      -3.517   5.249  11.064  1.00  0.00    -0.041 C 
HETATM    7  C16 UNL     1      -3.638   6.612  10.468  1.00  0.00     0.047 C 
ENDROOT
BRANCH   3   8
HETATM    8  O2  UNL     1      -4.152   2.160  13.522  1.00  0.00    -0.365 OA
BRANCH   8   9
HETATM    9  C8  UNL     1      -4.582   2.339  14.779  1.00  0.00     0.141 C 
HETATM   10  C9  UNL     1      -3.799   3.402  15.556  1.00  0.00     0.057 C 
HETATM   11  C10 UNL     1      -5.999   2.880  14.709  1.00  0.00     0.057 C 
BRANCH   9  12
HETATM   12  C11 UNL     1      -4.665   1.105  15.598  1.00  0.00     0.292 C 
HETATM   13  O3  UNL     1      -3.595   0.547  15.955  1.00  0.00    -0.262 OA
BRANCH  12  14
HETATM   14  O4  UNL     1      -5.852   0.513  16.003  1.00  0.00    -0.324 OA
HETATM   15  C12 UNL     1      -6.203   0.395  17.381  1.00  0.00     0.213 C 
ENDBRANCH  12  14
ENDBRANCH   9  12
ENDBRANCH   8   9
ENDBRANCH   3   8
BRANCH   1  16
HETATM   16  C4  UNL     1      -2.466   6.047  13.115  1.00  0.00    -0.063 C 
HETATM   17  C3  UNL     1      -2.503   6.865  13.985  1.00  0.00    -0.103 C 
BRANCH  17  18
HETATM   18  C2  UNL     1      -2.572   7.859  15.060  1.00  0.00     0.089 C 
HETATM   19  C1  UNL     1      -1.287   8.660  15.078  1.00  0.00     0.018 C 
ENDBRANCH  17  18
ENDBRANCH   1  16
BRANCH   1  20
HETATM   20  O1  UNL     1      -1.200   5.205  11.394  1.00  0.00    -0.373 OA
ATOM     21  H1  UNL     1      -1.401   5.191  10.465  1.00  0.00     0.212 HD
ENDBRANCH   1  20
TORSDOF 7
ENDMDL
MODEL 4
REMARK VINA RESULT: -6.147480099      2.186      5.835
REMARK  7 active torsions:
REMARK  status: ('A' for Active; 'I' for Inactive)
REMARK    1  A    between atoms: C2_2  and  C3_3 
REMARK    2  A    between atoms: C4_4  and  C5_5 
REMARK    3  A    between atoms: C5_5  and  O1_6 
REMARK    4  A    between atoms: C7_9  and  O2_10 
REMARK    5  A    between atoms: O2_10  and  C8_11 
REMARK    6  A    between atoms: C8_11  and  C11_14 
REMARK    7  A    between atoms: C11_14  and  O4_16 
ROOT
HETATM    1  C5  UNL     1      -4.430   2.943  15.057  1.00  0.00     0.146 C 
HETATM    2  C6  UNL     1      -3.672   4.147  14.569  1.00  0.00     0.088 C 
HETATM    3  C7  UNL     1      -4.680   5.155  14.051  1.00  0.00     0.130 C 
HETATM    4  C13 UNL     1      -5.450   5.613  15.280  1.00  0.00     0.059 C 
HETATM    5  C14 UNL     1      -6.303   4.454  15.689  1.00  0.00    -0.018 C 
HETATM    6  C15 UNL     1      -5.772   3.244  15.560  1.00  0.00    -0.041 C 
HETATM    7  C16 UNL     1      -6.631   2.094  15.970  1.00  0.00     0.047 C 
ENDROOT
BRANCH   3   8
HETATM    8  O2  UNL     1      -4.196   6.121  13.273  1.00  0.00    -0.365 OA
BRANCH   8   9
HETATM    9  C8  UNL     1      -4.561   6.261  11.991  1.00  0.00     0.141 C 
HETATM   10  C9  UNL     1      -6.027   6.665  11.804  1.00  0.00     0.057 C 
HETATM   11  C10 UNL     1      -3.767   7.416  11.408  1.00  0.00     0.057 C 
BRANCH   9  12
HETATM   12  C11 UNL     1      -4.268   5.094  11.122  1.00  0.00     0.292 C 
HETATM   13  O3  UNL     1      -5.230   4.409  10.691  1.00  0.00    -0.262 OA
BRANCH  12  14
HETATM   14  O4  UNL     1      -2.992   4.699  10.748  1.00  0.00    -0.324 OA
HETATM   15  C12 UNL     1      -2.632   4.512   9.380  1.00  0.00     0.213 C 
ENDBRANCH  12  14
ENDBRANCH   9  12
ENDBRANCH   8   9
ENDBRANCH   3   8
BRANCH   1  16
HETATM   16  C4  UNL     1      -4.466   1.931  13.973  1.00  0.00    -0.063 C 
HETATM   17  C3  UNL     1      -4.478   1.123  13.094  1.00  0.00    -0.103 C 
BRANCH  17  18
HETATM   18  C2  UNL     1      -4.467   0.137  12.010  1.00  0.00     0.089 C 
HETATM   19  C1  UNL     1      -5.100   0.747  10.777  1.00  0.00     0.018 C 
ENDBRANCH  17  18
ENDBRANCH   1  16
BRANCH   1  20
HETATM   20  O1  UNL     1      -3.680   2.340  16.093  1.00  0.00    -0.373 OA
ATOM     21  H1  UNL     1      -4.097   2.628  16.896  1.00  0.00     0.212 HD
ENDBRANCH   1  20
TORSDOF 7
ENDMDL
MODEL 5
REMARK VINA RESULT: -6.017319790      2.113      3.797
REMARK  7 active torsions:
REMARK  status: ('A' for Active; 'I' for Inactive)
REMARK    1  A    between atoms: C2_2  and  C3_3 
REMARK    2  A    between atoms: C4_4  and  C5_5 
REMARK    3  A    between atoms: C5_5  and  O1_6 
REMARK    4  A    between atoms: C7_9  and  O2_10 
REMARK    5  A    between atoms: O2_10  and  C8_11 
REMARK    6  A    between atoms: C8_11  and  C11_14 
REMARK    7  A    between atoms: C11_14  and  O4_16 
ROOT
HETATM    1  C5  UNL     1      -3.802   5.318  12.905  1.00  0.00     0.146 C 
HETATM    2  C6  UNL     1      -4.874   4.269  13.022  1.00  0.00     0.088 C 
HETATM    3  C7  UNL     1      -4.985   3.876  14.483  1.00  0.00     0.130 C 
HETATM    4  C13 UNL     1      -5.528   5.110  15.185  1.00  0.00     0.059 C 
HETATM    5  C14 UNL     1      -4.414   6.109  15.183  1.00  0.00    -0.018 C 
HETATM    6  C15 UNL     1      -3.652   6.155  14.098  1.00  0.00    -0.041 C 
HETATM    7  C16 UNL     1      -2.543   7.155  14.106  1.00  0.00     0.047 C 
ENDROOT
BRANCH   3   8
HETATM    8  O2  UNL     1      -5.622   2.734  14.735  1.00  0.00    -0.365 OA
BRANCH   8   9
HETATM    9  C8  UNL     1      -5.053   1.730  15.418  1.00  0.00     0.141 C 
HETATM   10  C9  UNL     1      -3.825   2.152  16.231  1.00  0.00     0.057 C 
HETATM   11  C10 UNL     1      -6.055   1.252  16.454  1.00  0.00     0.057 C 
BRANCH   9  12
HETATM   12  C11 UNL     1      -4.711   0.534  14.610  1.00  0.00     0.292 C 
HETATM   13  O3  UNL     1      -4.679  -0.587  15.181  1.00  0.00    -0.262 OA
BRANCH  12  14
HETATM   14  O4  UNL     1      -4.419   0.562  13.255  1.00  0.00    -0.324 OA
HETATM   15  C12 UNL     1      -4.106  -0.624  12.527  1.00  0.00     0.213 C 
ENDBRANCH  12  14
ENDBRANCH   9  12
ENDBRANCH   8   9
ENDBRANCH   3   8
BRANCH   1  16
HETATM   16  C4  UNL     1      -2.527   4.658  12.535  1.00  0.00    -0.063 C 
HETATM   17  C3  UNL     1      -1.491   4.145  12.236  1.00  0.00    -0.103 C 
BRANCH  17  18
HETATM   18  C2  UNL     1      -0.207   3.538  11.874  1.00  0.00     0.089 C 
HETATM   19  C1  UNL     1       0.601   4.530  11.065  1.00  0.00     0.018 C 
ENDBRANCH  17  18
ENDBRANCH   1  16
BRANCH   1  20
HETATM   20  O1  UNL     1      -4.115   6.148  11.804  1.00  0.00    -0.373 OA
ATOM     21  H1  UNL     1      -5.064   6.142  11.756  1.00  0.00     0.212 HD
ENDBRANCH   1  20
TORSDOF 7
ENDMDL
