MODEL 1
REMARK VINA RESULT: -6.867762000      0.000      0.000
REMARK  4 active torsions:
REMARK  status: ('A' for Active; 'I' for Inactive)
REMARK    1  A    between atoms: C2_2  and  N1_3 
REMARK    2  A    between atoms: N1_3  and  C3_4 
REMARK    3  A    between atoms: N1_3  and  C12_20 
REMARK    4  A    between atoms: C5_6  and  N2_7 
REMARK       I    between atoms: N2_7  and  C6_8 
ROOT
HETATM    1  C3  UNL     1      -4.136   3.898  13.616  1.00  0.00     0.108 A 
HETATM    2  C4  UNL     1      -4.594   3.396  14.817  1.00  0.00     0.095 A 
HETATM    3  C5  UNL     1      -4.790   2.022  15.018  1.00  0.00     0.145 A 
HETATM    4  C8  UNL     1      -4.482   1.217  13.913  1.00  0.00     0.127 A 
HETATM    5  N3  UNL     1      -4.529  -0.105  13.710  1.00  0.00    -0.334 N 
ATOM      6  H3  UNL     1      -4.828  -0.795  14.398  1.00  0.00     0.168 HD
HETATM    7  C9  UNL     1      -4.119  -0.385  12.452  1.00  0.00     0.122 A 
HETATM    8  C10 UNL     1      -4.024  -1.743  11.833  1.00  0.00     0.098 C 
HETATM    9  O2  UNL     1      -3.832   0.769  11.914  1.00  0.00    -0.279 OA
HETATM   10  C11 UNL     1      -4.028   1.771  12.739  1.00  0.00     0.181 A 
HETATM   11  N4  UNL     1      -3.861   3.107  12.606  1.00  0.00    -0.321 N 
ATOM     12  H4  UNL     1      -3.525   3.497  11.726  1.00  0.00     0.169 HD
ENDROOT
BRANCH   1  13
HETATM   13  N1  UNL     1      -3.953   5.308  13.535  1.00  0.00    -0.363 N 
BRANCH  13  14
HETATM   14  C2  UNL     1      -4.882   6.092  12.805  1.00  0.00     0.120 C 
HETATM   15  C1  UNL     1      -4.591   6.366  11.378  1.00  0.00     0.026 C 
ENDBRANCH  13  14
BRANCH  13  16
HETATM   16  C12 UNL     1      -2.815   5.841  14.230  1.00  0.00     0.077 C 
HETATM   17  C13 UNL     1      -2.914   7.283  14.604  1.00  0.00     0.032 C 
HETATM   18  C14 UNL     1      -1.527   5.697  13.413  1.00  0.00     0.032 C 
ENDBRANCH  13  16
ENDBRANCH   1  13
BRANCH   3  19
HETATM   19  N2  UNL     1      -5.203   1.583  16.044  1.00  0.00    -0.368 NA
HETATM   20  C6  UNL     1      -5.714   1.061  17.125  1.00  0.00     0.288 C 
HETATM   21  C7  UNL     1      -6.187   1.813  18.360  1.00  0.00     0.135 C 
HETATM   22  O1  UNL     1      -5.874  -0.210  17.247  1.00  0.00    -0.258 OA
ENDBRANCH   3  19
TORSDOF 4
ENDMDL
MODEL 2
REMARK VINA RESULT: -6.802769623      1.555      1.719
REMARK  4 active torsions:
REMARK  status: ('A' for Active; 'I' for Inactive)
REMARK    1  A    between atoms: C2_2  and  N1_3 
REMARK    2  A    between atoms: N1_3  and  C3_4 
REMARK    3  A    between atoms: N1_3  and  C12_20 
REMARK    4  A    between atoms: C5_6  and  N2_7 
REMARK       I    between atoms: N2_7  and  C6_8 
ROOT
HETATM    1  C3  UNL     1      -3.675   4.934  12.635  1.00  0.00     0.108 A 
HETATM    2  C4  UNL     1      -3.810   4.275  13.839  1.00  0.00     0.095 A 
HETATM    3  C5  UNL     1      -4.183   2.925  13.906  1.00  0.00     0.145 A 
HETATM    4  C8  UNL     1      -4.401   2.313  12.664  1.00  0.00     0.127 A 
HETATM    5  N3  UNL     1      -4.755   1.072  12.311  1.00  0.00    -0.334 N 
ATOM      6  H3  UNL     1      -4.942   0.307  12.959  1.00  0.00     0.168 HD
HETATM    7  C9  UNL     1      -4.829   0.987  10.963  1.00  0.00     0.122 A 
HETATM    8  C10 UNL     1      -5.192  -0.227  10.170  1.00  0.00     0.098 C 
HETATM    9  O2  UNL     1      -4.520   2.177  10.522  1.00  0.00    -0.279 OA
HETATM   10  C11 UNL     1      -4.252   3.019  11.493  1.00  0.00     0.181 A 
HETATM   11  N4  UNL     1      -3.891   4.323  11.494  1.00  0.00    -0.321 N 
ATOM     12  H4  UNL     1      -3.788   4.828  10.614  1.00  0.00     0.169 HD
ENDROOT
BRANCH   1  13
HETATM   13  N1  UNL     1      -3.269   6.298  12.689  1.00  0.00    -0.363 N 
BRANCH  13  14
HETATM   14  C2  UNL     1      -3.883   7.244  11.829  1.00  0.00     0.120 C 
HETATM   15  C1  UNL     1      -5.338   7.117  11.581  1.00  0.00     0.026 C 
ENDBRANCH  13  14
BRANCH  13  16
HETATM   16  C12 UNL     1      -2.249   6.619  13.647  1.00  0.00     0.077 C 
HETATM   17  C13 UNL     1      -2.582   7.733  14.584  1.00  0.00     0.032 C 
HETATM   18  C14 UNL     1      -0.930   7.005  12.971  1.00  0.00     0.032 C 
ENDBRANCH  13  16
ENDBRANCH   1  13
BRANCH   3  19
HETATM   19  N2  UNL     1      -4.320   2.354  14.941  1.00  0.00    -0.368 NA
HETATM   20  C6  UNL     1      -4.472   1.656  16.033  1.00  0.00     0.288 C 
HETATM   21  C7  UNL     1      -5.547   1.851  17.093  1.00  0.00     0.135 C 
HETATM   22  O1  UNL     1      -3.680   0.685  16.327  1.00  0.00    -0.258 OA
ENDBRANCH   3  19
TORSDOF 4
ENDMDL
MODEL 3
REMARK VINA RESULT: -6.769020642      0.753      1.823
REMARK  4 active torsions:
REMARK  status: ('A' for Active; 'I' for Inactive)
REMARK    1  A    between atoms: C2_2  and  N1_3 
REMARK    2  A    between atoms: N1_3  and  C3_4 
REMARK    3  A    between atoms: N1_3  and  C12_20 
REMARK    4  A    between atoms: C5_6  and  N2_7 
REMARK       I    between atoms: N2_7  and  C6_8 
ROOT
HETATM    1  C3  UNL     1      -4.264   4.342  13.374  1.00  0.00     0.108 A 
HETATM    2  C4  UNL     1      -4.605   3.884  14.630  1.00  0.00     0.095 A 
HETATM    3  C5  UNL     1      -4.746   2.516  14.905  1.00  0.00     0.145 A 
HETATM    4  C8  UNL     1      -4.512   1.670  13.813  1.00  0.00     0.127 A 
HETATM    5  N3  UNL     1      -4.541   0.339  13.670  1.00  0.00    -0.334 N 
ATOM      6  H3  UNL     1      -4.763  -0.327  14.411  1.00  0.00     0.168 HD
HETATM    7  C9  UNL     1      -4.232   0.013  12.395  1.00  0.00     0.122 A 
HETATM    8  C10 UNL     1      -4.155  -1.368  11.828  1.00  0.00     0.098 C 
HETATM    9  O2  UNL     1      -4.023   1.148  11.786  1.00  0.00    -0.279 OA
HETATM   10  C11 UNL     1      -4.175   2.181  12.582  1.00  0.00     0.181 A 
HETATM   11  N4  UNL     1      -4.056   3.513  12.378  1.00  0.00    -0.321 N 
ATOM     12  H4  UNL     1      -3.806   3.872  11.457  1.00  0.00     0.169 HD
ENDROOT
BRANCH   1  13
HETATM   13  N1  UNL     1      -4.126   5.750  13.218  1.00  0.00    -0.363 N 
BRANCH  13  14
HETATM   14  C2  UNL     1      -3.520   6.513  14.249  1.00  0.00     0.120 C 
HETATM   15  C1  UNL     1      -2.041   6.603  14.268  1.00  0.00     0.026 C 
ENDBRANCH  13  14
BRANCH  13  16
HETATM   16  C12 UNL     1      -4.616   6.303  11.985  1.00  0.00     0.077 C 
HETATM   17  C13 UNL     1      -3.919   7.538  11.519  1.00  0.00     0.032 C 
HETATM   18  C14 UNL     1      -6.105   6.654  12.068  1.00  0.00     0.032 C 
ENDBRANCH  13  16
ENDBRANCH   1  13
BRANCH   3  19
HETATM   19  N2  UNL     1      -5.059   2.114  15.980  1.00  0.00    -0.368 NA
HETATM   20  C6  UNL     1      -5.430   1.603  17.122  1.00  0.00     0.288 C 
HETATM   21  C7  UNL     1      -6.331   2.258  18.159  1.00  0.00     0.135 C 
HETATM   22  O1  UNL     1      -5.047   0.432  17.493  1.00  0.00    -0.258 OA
ENDBRANCH   3  19
TORSDOF 4
ENDMDL
MODEL 4
REMARK VINA RESULT: -6.694685861      1.616      2.436
REMARK  4 active torsions:
REMARK  status: ('A' for Active; 'I' for Inactive)
REMARK    1  A    between atoms: C2_2  and  N1_3 
REMARK    2  A    between atoms: N1_3  and  C3_4 
REMARK    3  A    between atoms: N1_3  and  C12_20 
REMARK    4  A    between atoms: C5_6  and  N2_7 
REMARK       I    between atoms: N2_7  and  C6_8 
ROOT
HETATM    1  C3  UNL     1      -4.004   4.938  12.510  1.00  0.00     0.108 A 
HETATM    2  C4  UNL     1      -4.062   4.293  13.728  1.00  0.00     0.095 A 
HETATM    3  C5  UNL     1      -4.315   2.917  13.826  1.00  0.00     0.145 A 
HETATM    4  C8  UNL     1      -4.497   2.264  12.599  1.00  0.00     0.127 A 
HETATM    5  N3  UNL     1      -4.747   0.990  12.274  1.00  0.00    -0.334 N 
ATOM      6  H3  UNL     1      -4.855   0.225  12.939  1.00  0.00     0.168 HD
HETATM    7  C9  UNL     1      -4.833   0.873  10.930  1.00  0.00     0.122 A 
HETATM    8  C10 UNL     1      -5.100  -0.383  10.165  1.00  0.00     0.098 C 
HETATM    9  O2  UNL     1      -4.637   2.076  10.462  1.00  0.00    -0.279 OA
HETATM   10  C11 UNL     1      -4.428   2.957  11.412  1.00  0.00     0.181 A 
HETATM   11  N4  UNL     1      -4.183   4.288  11.384  1.00  0.00    -0.321 N 
ATOM     12  H4  UNL     1      -4.138   4.783  10.494  1.00  0.00     0.169 HD
ENDROOT
BRANCH   1  13
HETATM   13  N1  UNL     1      -3.719   6.332  12.532  1.00  0.00    -0.363 N 
BRANCH  13  14
HETATM   14  C2  UNL     1      -3.040   6.889  13.646  1.00  0.00     0.120 C 
HETATM   15  C1  UNL     1      -1.559   6.828  13.659  1.00  0.00     0.026 C 
ENDBRANCH  13  14
BRANCH  13  16
HETATM   16  C12 UNL     1      -4.143   7.085  11.385  1.00  0.00     0.077 C 
HETATM   17  C13 UNL     1      -3.560   8.455  11.270  1.00  0.00     0.032 C 
HETATM   18  C14 UNL     1      -5.664   7.261  11.346  1.00  0.00     0.032 C 
ENDBRANCH  13  16
ENDBRANCH   1  13
BRANCH   3  19
HETATM   19  N2  UNL     1      -4.385   2.357  14.873  1.00  0.00    -0.368 NA
HETATM   20  C6  UNL     1      -4.463   1.670  15.980  1.00  0.00     0.288 C 
HETATM   21  C7  UNL     1      -5.503   1.833  17.079  1.00  0.00     0.135 C 
HETATM   22  O1  UNL     1      -3.618   0.739  16.255  1.00  0.00    -0.258 OA
ENDBRANCH   3  19
TORSDOF 4
ENDMDL
MODEL 5
REMARK VINA RESULT: -6.278240654      2.843      6.029
REMARK  4 active torsions:
REMARK  status: ('A' for Active; 'I' for Inactive)
REMARK    1  A    between atoms: C2_2  and  N1_3 
REMARK    2  A    between atoms: N1_3  and  C3_4 
REMARK    3  A    between atoms: N1_3  and  C12_20 
REMARK    4  A    between atoms: C5_6  and  N2_7 
REMARK       I    between atoms: N2_7  and  C6_8 
ROOT
HETATM    1  C3  UNL     1      -4.504   3.374  14.855  1.00  0.00     0.108 A 
HETATM    2  C4  UNL     1      -5.271   4.027  13.912  1.00  0.00     0.095 A 
HETATM    3  C5  UNL     1      -4.711   4.941  13.008  1.00  0.00     0.145 A 
HETATM    4  C8  UNL     1      -3.328   5.128  13.141  1.00  0.00     0.127 A 
HETATM    5  N3  UNL     1      -2.446   5.890  12.485  1.00  0.00    -0.334 N 
ATOM      6  H3  UNL     1      -2.670   6.515  11.711  1.00  0.00     0.168 HD
HETATM    7  C9  UNL     1      -1.211   5.705  13.005  1.00  0.00     0.122 A 
HETATM    8  C10 UNL     1       0.050   6.370  12.553  1.00  0.00     0.098 C 
HETATM    9  O2  UNL     1      -1.365   4.836  13.967  1.00  0.00    -0.279 OA
HETATM   10  C11 UNL     1      -2.612   4.449  14.100  1.00  0.00     0.181 A 
HETATM   11  N4  UNL     1      -3.212   3.580  14.947  1.00  0.00    -0.321 N 
ATOM     12  H4  UNL     1      -2.662   3.088  15.651  1.00  0.00     0.169 HD
ENDROOT
BRANCH   1  13
HETATM   13  N1  UNL     1      -5.177   2.451  15.705  1.00  0.00    -0.363 N 
BRANCH  13  14
HETATM   14  C2  UNL     1      -4.483   1.311  16.188  1.00  0.00     0.120 C 
HETATM   15  C1  UNL     1      -4.357   0.141  15.288  1.00  0.00     0.026 C 
ENDBRANCH  13  14
BRANCH  13  16
HETATM   16  C12 UNL     1      -6.542   2.762  16.026  1.00  0.00     0.077 C 
HETATM   17  C13 UNL     1      -6.734   3.945  16.917  1.00  0.00     0.032 C 
HETATM   18  C14 UNL     1      -7.251   1.589  16.711  1.00  0.00     0.032 C 
ENDBRANCH  13  16
ENDBRANCH   1  13
BRANCH   3  19
HETATM   19  N2  UNL     1      -5.368   5.523  12.204  1.00  0.00    -0.368 NA
HETATM   20  C6  UNL     1      -6.020   6.167  11.276  1.00  0.00     0.288 C 
HETATM   21  C7  UNL     1      -6.848   7.430  11.458  1.00  0.00     0.135 C 
HETATM   22  O1  UNL     1      -6.018   5.768  10.052  1.00  0.00    -0.258 OA
ENDBRANCH   3  19
TORSDOF 4
ENDMDL
