MODEL 1
REMARK VINA RESULT: -6.919157354      0.000      0.000
REMARK  8 active torsions:
REMARK  status: ('A' for Active; 'I' for Inactive)
REMARK    1  A    between atoms: C1_2  and  O2_3 
REMARK    2  A    between atoms: C1_2  and  O4_16 
REMARK    3  A    between atoms: O2_3  and  C2_4 
REMARK    4  A    between atoms: C2_4  and  C3_5 
REMARK    5  A    between atoms: C3_5  and  O3_6 
REMARK    6  A    between atoms: C3_5  and  C4_8 
REMARK    7  A    between atoms: O4_16  and  C9_17 
REMARK    8  A    between atoms: C9_17  and  C10_18 
ROOT
HETATM    1  O1  UNL     1      -5.639   1.681  11.354  1.00  0.00    -0.230 OA
HETATM    2  C1  UNL     1      -4.767   2.127  12.119  1.00  0.00     0.406 C 
ENDROOT
BRANCH   2   3
HETATM    3  O2  UNL     1      -3.948   1.156  12.714  1.00  0.00    -0.296 OA
BRANCH   3   4
HETATM    4  C2  UNL     1      -4.480   0.314  13.747  1.00  0.00     0.213 C 
BRANCH   4   5
HETATM    5  C3  UNL     1      -4.231   0.893  15.103  1.00  0.00     0.148 C 
BRANCH   5   6
HETATM    6  O3  UNL     1      -3.628  -0.034  15.956  1.00  0.00    -0.393 OA
ATOM      7  H3  UNL     1      -4.071  -0.874  15.931  1.00  0.00     0.210 HD
ENDBRANCH   5   6
BRANCH   5   8
HETATM    8  C4  UNL     1      -5.519   1.359  15.696  1.00  0.00     0.042 C 
HETATM    9  C5  UNL     1      -5.507   2.806  16.071  1.00  0.00     0.010 C 
HETATM   10  C6  UNL     1      -6.910   3.165  16.573  1.00  0.00     0.028 C 
HETATM   11  C7  UNL     1      -7.170   2.335  17.803  1.00  0.00     0.232 C 
HETATM   12  N1  UNL     1      -7.220   0.939  17.341  1.00  0.00    -0.075 N 
HETATM   13  C8  UNL     1      -5.893   0.561  16.942  1.00  0.00     0.239 C 
ATOM     14  H12 UNL     1      -7.619   0.307  18.035  1.00  0.00     0.277 HD
ATOM     15  H11 UNL     1      -7.912   0.789  16.607  1.00  0.00     0.277 HD
ENDBRANCH   5   8
ENDBRANCH   4   5
ENDBRANCH   3   4
ENDBRANCH   2   3
BRANCH   2  16
HETATM   16  O4  UNL     1      -4.661   3.439  12.325  1.00  0.00    -0.295 OA
BRANCH  16  17
HETATM   17  C9  UNL     1      -3.814   4.458  12.024  1.00  0.00     0.223 C 
BRANCH  17  18
HETATM   18  C10 UNL     1      -2.621   4.638  12.856  1.00  0.00     0.181 C 
HETATM   19  C11 UNL     1      -1.428   3.847  12.352  1.00  0.00     0.044 C 
HETATM   20  C12 UNL     1      -0.805   4.381  11.119  1.00  0.00     0.004 C 
HETATM   21  C13 UNL     1      -0.590   5.872  11.136  1.00  0.00     0.030 C 
HETATM   22  C14 UNL     1      -1.840   6.599  11.642  1.00  0.00     0.273 C 
HETATM   23  N2  UNL     1      -2.183   6.047  12.883  1.00  0.00     0.100 N 
HETATM   24  C15 UNL     1      -3.212   6.746  13.615  1.00  0.00     0.273 C 
HETATM   25  C16 UNL     1      -3.672   5.703  14.627  1.00  0.00     0.033 C 
HETATM   26  C17 UNL     1      -2.815   4.476  14.323  1.00  0.00     0.045 C 
ENDBRANCH  17  18
ENDBRANCH  16  17
ENDBRANCH   2  16
TORSDOF 8
ENDMDL
MODEL 2
REMARK VINA RESULT: -6.888772937      1.143      1.461
REMARK  8 active torsions:
REMARK  status: ('A' for Active; 'I' for Inactive)
REMARK    1  A    between atoms: C1_2  and  O2_3 
REMARK    2  A    between atoms: C1_2  and  O4_16 
REMARK    3  A    between atoms: O2_3  and  C2_4 
REMARK    4  A    between atoms: C2_4  and  C3_5 
REMARK    5  A    between atoms: C3_5  and  O3_6 
REMARK    6  A    between atoms: C3_5  and  C4_8 
REMARK    7  A    between atoms: O4_16  and  C9_17 
REMARK    8  A    between atoms: C9_17  and  C10_18 
ROOT
HETATM    1  O1  UNL     1      -5.433   0.675  10.972  1.00  0.00    -0.230 OA
HETATM    2  C1  UNL     1      -4.772   1.342  11.787  1.00  0.00     0.406 C 
ENDROOT
BRANCH   2   3
HETATM    3  O2  UNL     1      -3.902   0.595  12.595  1.00  0.00    -0.296 OA
BRANCH   3   4
HETATM    4  C2  UNL     1      -4.395  -0.007  13.801  1.00  0.00     0.213 C 
BRANCH   4   5
HETATM    5  C3  UNL     1      -4.137   0.864  14.989  1.00  0.00     0.148 C 
BRANCH   5   6
HETATM    6  O3  UNL     1      -3.719   0.120  16.094  1.00  0.00    -0.393 OA
ATOM      7  H3  UNL     1      -3.035  -0.497  15.863  1.00  0.00     0.210 HD
ENDBRANCH   5   6
BRANCH   5   8
HETATM    8  C4  UNL     1      -5.374   1.625  15.333  1.00  0.00     0.042 C 
HETATM    9  C5  UNL     1      -5.138   3.091  15.507  1.00  0.00     0.010 C 
HETATM   10  C6  UNL     1      -6.497   3.751  15.762  1.00  0.00     0.028 C 
HETATM   11  C7  UNL     1      -7.039   3.179  17.046  1.00  0.00     0.232 C 
HETATM   12  N1  UNL     1      -7.293   1.755  16.775  1.00  0.00    -0.075 N 
HETATM   13  C8  UNL     1      -6.023   1.105  16.614  1.00  0.00     0.239 C 
ATOM     14  H12 UNL     1      -7.875   1.315  17.488  1.00  0.00     0.277 HD
ATOM     15  H11 UNL     1      -7.917   1.609  15.981  1.00  0.00     0.277 HD
ENDBRANCH   5   8
ENDBRANCH   4   5
ENDBRANCH   3   4
ENDBRANCH   2   3
BRANCH   2  16
HETATM   16  O4  UNL     1      -4.916   2.665  11.847  1.00  0.00    -0.295 OA
BRANCH  16  17
HETATM   17  C9  UNL     1      -4.388   3.779  11.278  1.00  0.00     0.223 C 
BRANCH  17  18
HETATM   18  C10 UNL     1      -3.734   4.761  12.147  1.00  0.00     0.181 C 
HETATM   19  C11 UNL     1      -2.649   4.148  13.013  1.00  0.00     0.044 C 
HETATM   20  C12 UNL     1      -1.412   3.774  12.289  1.00  0.00     0.004 C 
HETATM   21  C13 UNL     1      -0.914   4.833  11.339  1.00  0.00     0.030 C 
HETATM   22  C14 UNL     1      -2.061   5.392  10.493  1.00  0.00     0.273 C 
HETATM   23  N2  UNL     1      -3.069   5.822  11.367  1.00  0.00     0.100 N 
HETATM   24  C15 UNL     1      -4.143   6.572  10.762  1.00  0.00     0.273 C 
HETATM   25  C16 UNL     1      -5.245   6.486  11.811  1.00  0.00     0.033 C 
HETATM   26  C17 UNL     1      -4.637   5.646  12.932  1.00  0.00     0.045 C 
ENDBRANCH  17  18
ENDBRANCH  16  17
ENDBRANCH   2  16
TORSDOF 8
ENDMDL
MODEL 3
REMARK VINA RESULT: -6.867926781      1.053      2.193
REMARK  8 active torsions:
REMARK  status: ('A' for Active; 'I' for Inactive)
REMARK    1  A    between atoms: C1_2  and  O2_3 
REMARK    2  A    between atoms: C1_2  and  O4_16 
REMARK    3  A    between atoms: O2_3  and  C2_4 
REMARK    4  A    between atoms: C2_4  and  C3_5 
REMARK    5  A    between atoms: C3_5  and  O3_6 
REMARK    6  A    between atoms: C3_5  and  C4_8 
REMARK    7  A    between atoms: O4_16  and  C9_17 
REMARK    8  A    between atoms: C9_17  and  C10_18 
ROOT
HETATM    1  O1  UNL     1      -5.553   1.033  11.189  1.00  0.00    -0.230 OA
HETATM    2  C1  UNL     1      -4.655   1.473  11.928  1.00  0.00     0.406 C 
ENDROOT
BRANCH   2   3
HETATM    3  O2  UNL     1      -3.922   0.493  12.615  1.00  0.00    -0.296 OA
BRANCH   3   4
HETATM    4  C2  UNL     1      -4.451  -0.071  13.824  1.00  0.00     0.213 C 
BRANCH   4   5
HETATM    5  C3  UNL     1      -4.167   0.804  15.003  1.00  0.00     0.148 C 
BRANCH   5   6
HETATM    6  O3  UNL     1      -3.711   0.065  16.097  1.00  0.00    -0.393 OA
ATOM      7  H3  UNL     1      -2.779   0.185  16.237  1.00  0.00     0.210 HD
ENDBRANCH   5   6
BRANCH   5   8
HETATM    8  C4  UNL     1      -5.400   1.554  15.382  1.00  0.00     0.042 C 
HETATM    9  C5  UNL     1      -5.179   3.027  15.512  1.00  0.00     0.010 C 
HETATM   10  C6  UNL     1      -6.537   3.674  15.809  1.00  0.00     0.028 C 
HETATM   11  C7  UNL     1      -7.016   3.123  17.127  1.00  0.00     0.232 C 
HETATM   12  N1  UNL     1      -7.259   1.690  16.900  1.00  0.00    -0.075 N 
HETATM   13  C8  UNL     1      -5.987   1.055  16.700  1.00  0.00     0.239 C 
ATOM     14  H12 UNL     1      -7.804   1.259  17.646  1.00  0.00     0.277 HD
ATOM     15  H11 UNL     1      -7.913   1.516  16.136  1.00  0.00     0.277 HD
ENDBRANCH   5   8
ENDBRANCH   4   5
ENDBRANCH   3   4
ENDBRANCH   2   3
BRANCH   2  16
HETATM   16  O4  UNL     1      -4.446   2.785  12.025  1.00  0.00    -0.295 OA
BRANCH  16  17
HETATM   17  C9  UNL     1      -3.417   3.644  12.243  1.00  0.00     0.223 C 
BRANCH  17  18
HETATM   18  C10 UNL     1      -3.630   5.068  11.970  1.00  0.00     0.181 C 
HETATM   19  C11 UNL     1      -4.304   5.793  13.119  1.00  0.00     0.044 C 
HETATM   20  C12 UNL     1      -3.443   6.018  14.303  1.00  0.00     0.004 C 
HETATM   21  C13 UNL     1      -2.068   6.539  13.970  1.00  0.00     0.030 C 
HETATM   22  C14 UNL     1      -1.449   5.751  12.813  1.00  0.00     0.273 C 
HETATM   23  N2  UNL     1      -2.356   5.777  11.744  1.00  0.00     0.100 N 
HETATM   24  C15 UNL     1      -1.858   5.264  10.490  1.00  0.00     0.273 C 
HETATM   25  C16 UNL     1      -3.137   4.995   9.706  1.00  0.00     0.033 C 
HETATM   26  C17 UNL     1      -4.259   5.396  10.661  1.00  0.00     0.045 C 
ENDBRANCH  17  18
ENDBRANCH  16  17
ENDBRANCH   2  16
TORSDOF 8
ENDMDL
MODEL 4
REMARK VINA RESULT: -6.572404035      2.193      3.516
REMARK  8 active torsions:
REMARK  status: ('A' for Active; 'I' for Inactive)
REMARK    1  A    between atoms: C1_2  and  O2_3 
REMARK    2  A    between atoms: C1_2  and  O4_16 
REMARK    3  A    between atoms: O2_3  and  C2_4 
REMARK    4  A    between atoms: C2_4  and  C3_5 
REMARK    5  A    between atoms: C3_5  and  O3_6 
REMARK    6  A    between atoms: C3_5  and  C4_8 
REMARK    7  A    between atoms: O4_16  and  C9_17 
REMARK    8  A    between atoms: C9_17  and  C10_18 
ROOT
HETATM    1  O1  UNL     1      -1.136   3.255  12.361  1.00  0.00    -0.230 OA
HETATM    2  C1  UNL     1      -1.811   3.966  13.125  1.00  0.00     0.406 C 
ENDROOT
BRANCH   2   3
HETATM    3  O2  UNL     1      -3.051   3.426  13.496  1.00  0.00    -0.296 OA
BRANCH   3   4
HETATM    4  C2  UNL     1      -3.617   3.756  14.773  1.00  0.00     0.213 C 
BRANCH   4   5
HETATM    5  C3  UNL     1      -5.112   3.753  14.724  1.00  0.00     0.148 C 
BRANCH   5   6
HETATM    6  O3  UNL     1      -5.650   4.884  15.341  1.00  0.00    -0.393 OA
ATOM      7  H3  UNL     1      -6.598   4.842  15.384  1.00  0.00     0.210 HD
ENDBRANCH   5   6
BRANCH   5   8
HETATM    8  C4  UNL     1      -5.634   2.521  15.385  1.00  0.00     0.042 C 
HETATM    9  C5  UNL     1      -6.669   2.803  16.426  1.00  0.00     0.010 C 
HETATM   10  C6  UNL     1      -7.178   1.455  16.949  1.00  0.00     0.028 C 
HETATM   11  C7  UNL     1      -6.009   0.753  17.587  1.00  0.00     0.232 C 
HETATM   12  N1  UNL     1      -5.067   0.465  16.493  1.00  0.00    -0.075 N 
HETATM   13  C8  UNL     1      -4.519   1.714  16.046  1.00  0.00     0.239 C 
ATOM     14  H12 UNL     1      -4.350  -0.210  16.757  1.00  0.00     0.277 HD
ATOM     15  H11 UNL     1      -5.491  -0.075  15.739  1.00  0.00     0.277 HD
ENDBRANCH   5   8
ENDBRANCH   4   5
ENDBRANCH   3   4
ENDBRANCH   2   3
BRANCH   2  16
HETATM   16  O4  UNL     1      -1.345   5.146  13.532  1.00  0.00    -0.295 OA
BRANCH  16  17
HETATM   17  C9  UNL     1      -1.294   6.432  13.098  1.00  0.00     0.223 C 
BRANCH  17  18
HETATM   18  C10 UNL     1      -2.453   7.294  13.340  1.00  0.00     0.181 C 
HETATM   19  C11 UNL     1      -2.705   7.540  14.816  1.00  0.00     0.044 C 
HETATM   20  C12 UNL     1      -1.733   8.447  15.469  1.00  0.00     0.004 C 
HETATM   21  C13 UNL     1      -1.434   9.696  14.680  1.00  0.00     0.030 C 
HETATM   22  C14 UNL     1      -1.179   9.366  13.207  1.00  0.00     0.273 C 
HETATM   23  N2  UNL     1      -2.276   8.629  12.738  1.00  0.00     0.100 N 
HETATM   24  C15 UNL     1      -2.314   8.406  11.313  1.00  0.00     0.273 C 
HETATM   25  C16 UNL     1      -3.294   7.247  11.180  1.00  0.00     0.033 C 
HETATM   26  C17 UNL     1      -3.703   6.930  12.617  1.00  0.00     0.045 C 
ENDBRANCH  17  18
ENDBRANCH  16  17
ENDBRANCH   2  16
TORSDOF 8
ENDMDL
MODEL 5
REMARK VINA RESULT: -6.571975765      2.322      2.977
REMARK  8 active torsions:
REMARK  status: ('A' for Active; 'I' for Inactive)
REMARK    1  A    between atoms: C1_2  and  O2_3 
REMARK    2  A    between atoms: C1_2  and  O4_16 
REMARK    3  A    between atoms: O2_3  and  C2_4 
REMARK    4  A    between atoms: C2_4  and  C3_5 
REMARK    5  A    between atoms: C3_5  and  O3_6 
REMARK    6  A    between atoms: C3_5  and  C4_8 
REMARK    7  A    between atoms: O4_16  and  C9_17 
REMARK    8  A    between atoms: C9_17  and  C10_18 
ROOT
HETATM    1  O1  UNL     1      -4.769   2.304  10.179  1.00  0.00    -0.230 OA
HETATM    2  C1  UNL     1      -4.583   3.297  10.905  1.00  0.00     0.406 C 
ENDROOT
BRANCH   2   3
HETATM    3  O2  UNL     1      -3.771   3.066  12.026  1.00  0.00    -0.296 OA
BRANCH   3   4
HETATM    4  C2  UNL     1      -4.222   2.178  13.058  1.00  0.00     0.213 C 
BRANCH   4   5
HETATM    5  C3  UNL     1      -4.519   2.918  14.323  1.00  0.00     0.148 C 
BRANCH   5   6
HETATM    6  O3  UNL     1      -3.350   3.306  14.981  1.00  0.00    -0.393 OA
ATOM      7  H3  UNL     1      -2.960   4.073  14.579  1.00  0.00     0.210 HD
ENDBRANCH   5   6
BRANCH   5   8
HETATM    8  C4  UNL     1      -5.344   2.062  15.225  1.00  0.00     0.042 C 
HETATM    9  C5  UNL     1      -6.260   2.846  16.108  1.00  0.00     0.010 C 
HETATM   10  C6  UNL     1      -7.105   1.844  16.904  1.00  0.00     0.028 C 
HETATM   11  C7  UNL     1      -6.158   1.041  17.757  1.00  0.00     0.232 C 
HETATM   12  N1  UNL     1      -5.333   0.263  16.820  1.00  0.00    -0.075 N 
HETATM   13  C8  UNL     1      -4.477   1.181  16.122  1.00  0.00     0.239 C 
ATOM     14  H12 UNL     1      -4.817  -0.489  17.276  1.00  0.00     0.277 HD
ATOM     15  H11 UNL     1      -5.888  -0.316  16.191  1.00  0.00     0.277 HD
ENDBRANCH   5   8
ENDBRANCH   4   5
ENDBRANCH   3   4
ENDBRANCH   2   3
BRANCH   2  16
HETATM   16  O4  UNL     1      -5.136   4.469  10.596  1.00  0.00    -0.295 OA
BRANCH  16  17
HETATM   17  C9  UNL     1      -4.761   5.761  10.413  1.00  0.00     0.223 C 
BRANCH  17  18
HETATM   18  C10 UNL     1      -5.102   6.738  11.450  1.00  0.00     0.181 C 
HETATM   19  C11 UNL     1      -4.616   6.326  12.828  1.00  0.00     0.044 C 
HETATM   20  C12 UNL     1      -3.153   6.432  13.028  1.00  0.00     0.004 C 
HETATM   21  C13 UNL     1      -2.558   7.724  12.528  1.00  0.00     0.030 C 
HETATM   22  C14 UNL     1      -3.084   8.064  11.131  1.00  0.00     0.273 C 
HETATM   23  N2  UNL     1      -4.485   8.052  11.187  1.00  0.00     0.100 N 
HETATM   24  C15 UNL     1      -5.161   8.556  10.016  1.00  0.00     0.273 C 
HETATM   25  C16 UNL     1      -6.571   8.000  10.177  1.00  0.00     0.033 C 
HETATM   26  C17 UNL     1      -6.517   7.200  11.476  1.00  0.00     0.045 C 
ENDBRANCH  17  18
ENDBRANCH  16  17
ENDBRANCH   2  16
TORSDOF 8
ENDMDL
