MODEL 1
REMARK VINA RESULT: -9.194505003      0.000      0.000
REMARK  5 active torsions:
REMARK  status: ('A' for Active; 'I' for Inactive)
REMARK    1  A    between atoms: O1_2  and  C2_3 
REMARK    2  A    between atoms: C7_8  and  O2_9 
REMARK    3  A    between atoms: C10_13  and  C11_14 
REMARK    4  A    between atoms: C11_14  and  C12_15 
REMARK    5  A    between atoms: C15_21  and  C16_22 
ROOT
HETATM    1  C12 UNL     1      39.873  14.783  19.237  1.00  0.00    -0.024 A 
HETATM    2  C13 UNL     1      38.702  15.461  19.009  1.00  0.00     0.031 A 
HETATM    3  C14 UNL     1      37.741  15.561  19.976  1.00  0.00     0.117 A 
HETATM    4  N1  UNL     1      37.907  14.994  21.196  1.00  0.00    -0.266 N 
HETATM    5  N2  UNL     1      37.170  14.939  22.271  1.00  0.00    -0.296 N 
ATOM      6  H2  UNL     1      36.250  15.370  22.352  1.00  0.00     0.187 HD
HETATM    7  C15 UNL     1      37.761  14.254  23.250  1.00  0.00     0.049 A 
HETATM    8  C19 UNL     1      38.972  13.842  22.749  1.00  0.00     0.064 A 
HETATM    9 BR1  UNL     1      40.253  12.820  23.708  1.00  0.00    -0.046 Br
HETATM   10  C20 UNL     1      39.047  14.317  21.459  1.00  0.00     0.082 A 
HETATM   11  C21 UNL     1      40.033  14.200  20.503  1.00  0.00    -0.021 A 
HETATM   12  C22 UNL     1      41.260  13.443  20.881  1.00  0.00     0.051 C 
ENDROOT
BRANCH   1  13
HETATM   13  C11 UNL     1      40.962  14.630  18.322  1.00  0.00     0.053 C 
BRANCH  13  14
HETATM   14  C10 UNL     1      41.811  15.547  17.956  1.00  0.00     0.127 A 
HETATM   15  C9  UNL     1      42.882  15.482  16.986  1.00  0.00     0.218 A 
HETATM   16  C5  UNL     1      43.516  16.815  16.986  1.00  0.00     0.054 A 
HETATM   17  O3  UNL     1      43.261  14.536  16.256  1.00  0.00    -0.284 OA
HETATM   18  C4  UNL     1      42.847  17.598  17.900  1.00  0.00     0.093 A 
HETATM   19  C6  UNL     1      44.580  17.278  16.246  1.00  0.00     0.058 A 
HETATM   20  C3  UNL     1      43.291  18.912  18.056  1.00  0.00     0.077 A 
HETATM   21  O4  UNL     1      41.832  16.866  18.486  1.00  0.00    -0.306 OA
HETATM   22  C2  UNL     1      44.352  19.389  17.324  1.00  0.00     0.104 A 
HETATM   23  C7  UNL     1      45.004  18.580  16.415  1.00  0.00     0.102 A 
BRANCH  22  24
HETATM   24  O1  UNL     1      44.820  20.694  17.457  1.00  0.00    -0.353 OA
HETATM   25  C1  UNL     1      43.946  21.644  18.038  1.00  0.00     0.210 C 
ENDBRANCH  22  24
BRANCH  23  26
HETATM   26  O2  UNL     1      46.066  19.083  15.691  1.00  0.00    -0.353 OA
HETATM   27  C8  UNL     1      46.470  18.565  14.442  1.00  0.00     0.210 C 
ENDBRANCH  23  26
ENDBRANCH  13  14
ENDBRANCH   1  13
BRANCH   7  28
HETATM   28  C16 UNL     1      37.167  14.020  24.587  1.00  0.00     0.030 C 
HETATM   29  C17 UNL     1      37.660  15.071  25.555  1.00  0.00     0.016 C 
HETATM   30  C18 UNL     1      35.660  14.198  24.499  1.00  0.00     0.016 C 
ENDBRANCH   7  28
TORSDOF 5
ENDMDL
MODEL 2
REMARK VINA RESULT: -9.107576780      1.483      1.671
REMARK  5 active torsions:
REMARK  status: ('A' for Active; 'I' for Inactive)
REMARK    1  A    between atoms: O1_2  and  C2_3 
REMARK    2  A    between atoms: C7_8  and  O2_9 
REMARK    3  A    between atoms: C10_13  and  C11_14 
REMARK    4  A    between atoms: C11_14  and  C12_15 
REMARK    5  A    between atoms: C15_21  and  C16_22 
ROOT
HETATM    1  C12 UNL     1      39.745  14.241  19.933  1.00  0.00    -0.024 A 
HETATM    2  C13 UNL     1      38.666  14.853  19.344  1.00  0.00     0.031 A 
HETATM    3  C14 UNL     1      37.420  14.780  19.901  1.00  0.00     0.117 A 
HETATM    4  N1  UNL     1      37.201  14.100  21.053  1.00  0.00    -0.266 N 
HETATM    5  N2  UNL     1      36.141  13.878  21.779  1.00  0.00    -0.296 N 
ATOM      6  H2  UNL     1      35.211  14.230  21.552  1.00  0.00     0.187 HD
HETATM    7  C15 UNL     1      36.414  13.138  22.853  1.00  0.00     0.049 A 
HETATM    8  C19 UNL     1      37.761  12.870  22.798  1.00  0.00     0.064 A 
HETATM    9 BR1  UNL     1      38.718  11.847  24.080  1.00  0.00    -0.046 Br
HETATM   10  C20 UNL     1      38.238  13.483  21.661  1.00  0.00     0.082 A 
HETATM   11  C21 UNL     1      39.506  13.540  21.123  1.00  0.00    -0.021 A 
HETATM   12  C22 UNL     1      40.591  12.838  21.865  1.00  0.00     0.051 C 
ENDROOT
BRANCH   1  13
HETATM   13  C11 UNL     1      41.098  14.266  19.467  1.00  0.00     0.053 C 
BRANCH  13  14
HETATM   14  C10 UNL     1      41.692  15.240  18.839  1.00  0.00     0.127 A 
HETATM   15  C9  UNL     1      41.852  15.464  17.419  1.00  0.00     0.218 A 
HETATM   16  C5  UNL     1      42.611  16.722  17.286  1.00  0.00     0.054 A 
HETATM   17  O3  UNL     1      41.459  14.786  16.440  1.00  0.00    -0.284 OA
HETATM   18  C4  UNL     1      42.870  17.192  18.554  1.00  0.00     0.093 A 
HETATM   19  C6  UNL     1      43.027  17.378  16.150  1.00  0.00     0.058 A 
HETATM   20  C3  UNL     1      43.586  18.386  18.655  1.00  0.00     0.077 A 
HETATM   21  O4  UNL     1      42.334  16.329  19.490  1.00  0.00    -0.306 OA
HETATM   22  C2  UNL     1      44.007  19.053  17.529  1.00  0.00     0.104 A 
HETATM   23  C7  UNL     1      43.733  18.557  16.270  1.00  0.00     0.102 A 
BRANCH  22  24
HETATM   24  O1  UNL     1      44.723  20.245  17.595  1.00  0.00    -0.353 OA
HETATM   25  C1  UNL     1      44.025  21.401  18.020  1.00  0.00     0.210 C 
ENDBRANCH  22  24
BRANCH  23  26
HETATM   26  O2  UNL     1      44.166  19.244  15.155  1.00  0.00    -0.353 OA
HETATM   27  C8  UNL     1      43.445  19.294  13.943  1.00  0.00     0.210 C 
ENDBRANCH  23  26
ENDBRANCH  13  14
ENDBRANCH   1  13
BRANCH   7  28
HETATM   28  C16 UNL     1      35.413  12.721  23.863  1.00  0.00     0.030 C 
HETATM   29  C17 UNL     1      34.179  13.585  23.745  1.00  0.00     0.016 C 
HETATM   30  C18 UNL     1      34.966  11.299  23.560  1.00  0.00     0.016 C 
ENDBRANCH   7  28
TORSDOF 5
ENDMDL
MODEL 3
REMARK VINA RESULT: -8.875684519      0.873      2.222
REMARK  5 active torsions:
REMARK  status: ('A' for Active; 'I' for Inactive)
REMARK    1  A    between atoms: O1_2  and  C2_3 
REMARK    2  A    between atoms: C7_8  and  O2_9 
REMARK    3  A    between atoms: C10_13  and  C11_14 
REMARK    4  A    between atoms: C11_14  and  C12_15 
REMARK    5  A    between atoms: C15_21  and  C16_22 
ROOT
HETATM    1  C12 UNL     1      40.021  14.615  19.202  1.00  0.00    -0.024 A 
HETATM    2  C13 UNL     1      38.898  15.364  18.950  1.00  0.00     0.031 A 
HETATM    3  C14 UNL     1      37.964  15.588  19.922  1.00  0.00     0.117 A 
HETATM    4  N1  UNL     1      38.108  15.079  21.170  1.00  0.00    -0.266 N 
HETATM    5  N2  UNL     1      37.386  15.139  22.255  1.00  0.00    -0.296 N 
ATOM      6  H2  UNL     1      36.502  15.640  22.324  1.00  0.00     0.187 HD
HETATM    7  C15 UNL     1      37.942  14.467  23.264  1.00  0.00     0.049 A 
HETATM    8  C19 UNL     1      39.111  13.940  22.773  1.00  0.00     0.064 A 
HETATM    9 BR1  UNL     1      40.330  12.881  23.772  1.00  0.00    -0.046 Br
HETATM   10  C20 UNL     1      39.199  14.335  21.456  1.00  0.00     0.082 A 
HETATM   11  C21 UNL     1      40.159  14.093  20.496  1.00  0.00    -0.021 A 
HETATM   12  C22 UNL     1      41.333  13.269  20.901  1.00  0.00     0.051 C 
ENDROOT
BRANCH   1  13
HETATM   13  C11 UNL     1      41.080  14.332  18.284  1.00  0.00     0.053 C 
BRANCH  13  14
HETATM   14  C10 UNL     1      41.929  15.182  17.782  1.00  0.00     0.127 A 
HETATM   15  C9  UNL     1      42.250  16.528  18.203  1.00  0.00     0.218 A 
HETATM   16  C5  UNL     1      43.279  17.016  17.265  1.00  0.00     0.054 A 
HETATM   17  O3  UNL     1      41.800  17.211  19.153  1.00  0.00    -0.284 OA
HETATM   18  C4  UNL     1      43.534  16.011  16.361  1.00  0.00     0.093 A 
HETATM   19  C6  UNL     1      43.920  18.234  17.225  1.00  0.00     0.058 A 
HETATM   20  C3  UNL     1      44.489  16.269  15.376  1.00  0.00     0.077 A 
HETATM   21  O4  UNL     1      42.745  14.914  16.648  1.00  0.00    -0.306 OA
HETATM   22  C2  UNL     1      45.137  17.480  15.323  1.00  0.00     0.104 A 
HETATM   23  C7  UNL     1      44.860  18.470  16.244  1.00  0.00     0.102 A 
BRANCH  22  24
HETATM   24  O1  UNL     1      46.094  17.769  14.354  1.00  0.00    -0.353 OA
HETATM   25  C1  UNL     1      46.068  17.003  13.163  1.00  0.00     0.210 C 
ENDBRANCH  22  24
BRANCH  23  26
HETATM   26  O2  UNL     1      45.525  19.677  16.171  1.00  0.00    -0.353 OA
HETATM   27  C8  UNL     1      44.868  20.926  16.126  1.00  0.00     0.210 C 
ENDBRANCH  23  26
ENDBRANCH  13  14
ENDBRANCH   1  13
BRANCH   7  28
HETATM   28  C16 UNL     1      37.355  14.352  24.619  1.00  0.00     0.030 C 
HETATM   29  C17 UNL     1      37.611  15.624  25.396  1.00  0.00     0.016 C 
HETATM   30  C18 UNL     1      35.844  14.226  24.497  1.00  0.00     0.016 C 
ENDBRANCH   7  28
TORSDOF 5
ENDMDL
MODEL 4
REMARK VINA RESULT: -8.874292701      1.567      2.152
REMARK  5 active torsions:
REMARK  status: ('A' for Active; 'I' for Inactive)
REMARK    1  A    between atoms: O1_2  and  C2_3 
REMARK    2  A    between atoms: C7_8  and  O2_9 
REMARK    3  A    between atoms: C10_13  and  C11_14 
REMARK    4  A    between atoms: C11_14  and  C12_15 
REMARK    5  A    between atoms: C15_21  and  C16_22 
ROOT
HETATM    1  C12 UNL     1      40.195  14.046  19.945  1.00  0.00    -0.024 A 
HETATM    2  C13 UNL     1      40.692  13.405  21.053  1.00  0.00     0.031 A 
HETATM    3  C14 UNL     1      39.939  13.257  22.184  1.00  0.00     0.117 A 
HETATM    4  N1  UNL     1      38.673  13.738  22.255  1.00  0.00    -0.266 N 
HETATM    5  N2  UNL     1      37.760  13.734  23.187  1.00  0.00    -0.296 N 
ATOM      6  H2  UNL     1      37.888  13.315  24.108  1.00  0.00     0.187 HD
HETATM    7  C15 UNL     1      36.640  14.341  22.794  1.00  0.00     0.049 A 
HETATM    8  C19 UNL     1      36.867  14.764  21.507  1.00  0.00     0.064 A 
HETATM    9 BR1  UNL     1      35.610  15.697  20.433  1.00  0.00    -0.046 Br
HETATM   10  C20 UNL     1      38.149  14.376  21.186  1.00  0.00     0.082 A 
HETATM   11  C21 UNL     1      38.885  14.539  20.031  1.00  0.00    -0.021 A 
HETATM   12  C22 UNL     1      38.226  15.248  18.898  1.00  0.00     0.051 C 
ENDROOT
BRANCH   1  13
HETATM   13  C11 UNL     1      40.869  14.240  18.699  1.00  0.00     0.053 C 
BRANCH  13  14
HETATM   14  C10 UNL     1      41.695  15.200  18.396  1.00  0.00     0.127 A 
HETATM   15  C9  UNL     1      42.597  15.327  17.273  1.00  0.00     0.218 A 
HETATM   16  C5  UNL     1      43.289  16.618  17.446  1.00  0.00     0.054 A 
HETATM   17  O3  UNL     1      42.809  14.552  16.310  1.00  0.00    -0.284 OA
HETATM   18  C4  UNL     1      42.811  17.199  18.599  1.00  0.00     0.093 A 
HETATM   19  C6  UNL     1      44.245  17.212  16.654  1.00  0.00     0.058 A 
HETATM   20  C3  UNL     1      43.340  18.442  18.950  1.00  0.00     0.077 A 
HETATM   21  O4  UNL     1      41.866  16.376  19.178  1.00  0.00    -0.306 OA
HETATM   22  C2  UNL     1      44.296  19.048  18.169  1.00  0.00     0.104 A 
HETATM   23  C7  UNL     1      44.756  18.440  17.017  1.00  0.00     0.102 A 
BRANCH  22  24
HETATM   24  O1  UNL     1      44.844  20.286  18.491  1.00  0.00    -0.353 OA
HETATM   25  C1  UNL     1      44.045  21.433  18.259  1.00  0.00     0.210 C 
ENDBRANCH  22  24
BRANCH  23  26
HETATM   26  O2  UNL     1      45.715  19.069  16.250  1.00  0.00    -0.353 OA
HETATM   27  C8  UNL     1      45.440  19.679  15.007  1.00  0.00     0.210 C 
ENDBRANCH  23  26
ENDBRANCH  13  14
ENDBRANCH   1  13
BRANCH   7  28
HETATM   28  C16 UNL     1      35.430  14.496  23.635  1.00  0.00     0.030 C 
HETATM   29  C17 UNL     1      34.482  13.347  23.381  1.00  0.00     0.016 C 
HETATM   30  C18 UNL     1      35.828  14.401  25.100  1.00  0.00     0.016 C 
ENDBRANCH   7  28
TORSDOF 5
ENDMDL
MODEL 5
REMARK VINA RESULT: -8.809358936      5.809     11.569
REMARK  5 active torsions:
REMARK  status: ('A' for Active; 'I' for Inactive)
REMARK    1  A    between atoms: O1_2  and  C2_3 
REMARK    2  A    between atoms: C7_8  and  O2_9 
REMARK    3  A    between atoms: C10_13  and  C11_14 
REMARK    4  A    between atoms: C11_14  and  C12_15 
REMARK    5  A    between atoms: C15_21  and  C16_22 
ROOT
HETATM    1  C12 UNL     1      35.664  14.964  21.735  1.00  0.00    -0.024 A 
HETATM    2  C13 UNL     1      35.382  15.430  20.475  1.00  0.00     0.031 A 
HETATM    3  C14 UNL     1      36.354  15.513  19.517  1.00  0.00     0.117 A 
HETATM    4  N1  UNL     1      37.631  15.142  19.775  1.00  0.00    -0.266 N 
HETATM    5  N2  UNL     1      38.724  15.121  19.063  1.00  0.00    -0.296 N 
ATOM      6  H2  UNL     1      38.774  15.419  18.089  1.00  0.00     0.187 HD
HETATM    7  C15 UNL     1      39.767  14.664  19.756  1.00  0.00     0.049 A 
HETATM    8  C19 UNL     1      39.291  14.373  21.012  1.00  0.00     0.064 A 
HETATM    9 BR1  UNL     1      40.338  13.681  22.437  1.00  0.00    -0.046 Br
HETATM   10  C20 UNL     1      37.948  14.679  21.005  1.00  0.00     0.082 A 
HETATM   11  C21 UNL     1      36.989  14.583  21.990  1.00  0.00    -0.021 A 
HETATM   12  C22 UNL     1      37.424  14.055  23.314  1.00  0.00     0.051 C 
ENDROOT
BRANCH   1  13
HETATM   13  C11 UNL     1      34.735  14.802  22.811  1.00  0.00     0.053 C 
BRANCH  13  14
HETATM   14  C10 UNL     1      33.961  13.778  23.031  1.00  0.00     0.127 A 
HETATM   15  C9  UNL     1      33.443  12.795  22.106  1.00  0.00     0.218 A 
HETATM   16  C5  UNL     1      32.620  11.871  22.909  1.00  0.00     0.054 A 
HETATM   17  O3  UNL     1      33.608  12.676  20.869  1.00  0.00    -0.284 OA
HETATM   18  C4  UNL     1      32.664  12.297  24.217  1.00  0.00     0.093 A 
HETATM   19  C6  UNL     1      31.906  10.763  22.512  1.00  0.00     0.058 A 
HETATM   20  C3  UNL     1      31.945  11.553  25.154  1.00  0.00     0.077 A 
HETATM   21  O4  UNL     1      33.454  13.427  24.312  1.00  0.00    -0.306 OA
HETATM   22  C2  UNL     1      31.227  10.444  24.772  1.00  0.00     0.104 A 
HETATM   23  C7  UNL     1      31.201  10.040  23.452  1.00  0.00     0.102 A 
BRANCH  22  24
HETATM   24  O1  UNL     1      30.499   9.681  25.680  1.00  0.00    -0.353 OA
HETATM   25  C1  UNL     1      31.181   9.209  26.828  1.00  0.00     0.210 C 
ENDBRANCH  22  24
BRANCH  23  26
HETATM   26  O2  UNL     1      30.474   8.924  23.093  1.00  0.00    -0.353 OA
HETATM   27  C8  UNL     1      30.854   7.607  23.429  1.00  0.00     0.210 C 
ENDBRANCH  23  26
ENDBRANCH  13  14
ENDBRANCH   1  13
BRANCH   7  28
HETATM   28  C16 UNL     1      41.139  14.527  19.216  1.00  0.00     0.030 C 
HETATM   29  C17 UNL     1      41.103  14.599  17.707  1.00  0.00     0.016 C 
HETATM   30  C18 UNL     1      41.975  15.711  19.677  1.00  0.00     0.016 C 
ENDBRANCH   7  28
TORSDOF 5
ENDMDL
