MODEL 1
REMARK VINA RESULT: -9.708894530      0.000      0.000
REMARK  5 active torsions:
REMARK  status: ('A' for Active; 'I' for Inactive)
REMARK    1  A    between atoms: O1_2  and  C2_3 
REMARK    2  A    between atoms: C2_3  and  C3_5 
REMARK    3  A    between atoms: C4_6  and  C5_7 
REMARK    4  A    between atoms: C11_13  and  C13_15 
REMARK    5  A    between atoms: C21_24  and  N1_25 
ROOT
HETATM    1  C5  UNL     1      38.824  14.716  22.257  1.00  0.00     0.025 C 
HETATM    2  C6  UNL     1      37.582  14.802  23.124  1.00  0.00     0.026 C 
HETATM    3  C7  UNL     1      36.301  14.543  22.419  1.00  0.00     0.007 C 
HETATM    4  C8  UNL     1      35.445  15.809  22.573  1.00  0.00     0.023 C 
HETATM    5  C9  UNL     1      36.439  14.157  21.007  1.00  0.00    -0.072 C 
HETATM    6  C10 UNL     1      37.504  14.441  20.263  1.00  0.00    -0.009 C 
HETATM    7  C11 UNL     1      38.642  15.196  20.872  1.00  0.00    -0.001 C 
HETATM    8  C12 UNL     1      38.386  16.643  20.684  1.00  0.00     0.025 C 
HETATM    9  C15 UNL     1      35.349  13.396  20.317  1.00  0.00     0.035 C 
HETATM   10  C16 UNL     1      34.044  13.482  21.028  1.00  0.00     0.016 C 
HETATM   11  C17 UNL     1      34.112  13.392  22.517  1.00  0.00     0.049 C 
HETATM   12  C18 UNL     1      33.425  12.133  22.929  1.00  0.00    -0.043 A 
HETATM   13  C19 UNL     1      32.062  12.074  22.676  1.00  0.00     0.011 A 
HETATM   14  C20 UNL     1      31.371  10.939  23.034  1.00  0.00     0.037 A 
HETATM   15  C21 UNL     1      32.034   9.889  23.630  1.00  0.00     0.103 A 
HETATM   16  C22 UNL     1      33.409   9.988  23.868  1.00  0.00     0.046 A 
HETATM   17  C23 UNL     1      34.102  11.102  23.521  1.00  0.00    -0.025 A 
HETATM   18  C24 UNL     1      35.563  11.277  23.742  1.00  0.00     0.207 C 
HETATM   19  O5  UNL     1      36.086  12.184  22.833  1.00  0.00    -0.380 OA
HETATM   20  C25 UNL     1      35.487  13.428  23.091  1.00  0.00     0.142 C 
ENDROOT
BRANCH   1  21
HETATM   21  C4  UNL     1      39.944  15.263  23.021  1.00  0.00    -0.015 C 
HETATM   22  C3  UNL     1      39.913  15.852  24.195  1.00  0.00     0.078 C 
BRANCH  22  23
HETATM   23  C2  UNL     1      41.147  16.349  24.830  1.00  0.00     0.282 C 
HETATM   24  O2  UNL     1      41.747  15.585  25.613  1.00  0.00    -0.260 OA
BRANCH  23  25
HETATM   25  O1  UNL     1      41.665  17.608  24.601  1.00  0.00    -0.323 OA
HETATM   26  C1  UNL     1      42.973  17.831  24.119  1.00  0.00     0.213 C 
ENDBRANCH  23  25
ENDBRANCH  22  23
ENDBRANCH   1  21
BRANCH   7  27
HETATM   27  C13 UNL     1      39.856  14.802  20.077  1.00  0.00    -0.001 C 
HETATM   28  C14 UNL     1      39.962  15.080  18.787  1.00  0.00     0.081 C 
HETATM   29 CL1  UNL     1      41.390  14.606  17.896  1.00  0.00    -0.097 Cl
ENDBRANCH   7  27
BRANCH  15  30
HETATM   30  N1  UNL     1      31.324   8.715  24.000  1.00  0.00    -0.116 N 
HETATM   31  O3  UNL     1      31.695   7.977  24.931  1.00  0.00    -0.532 OA
HETATM   32  O4  UNL     1      30.191   8.385  23.306  1.00  0.00    -0.532 OA
ENDBRANCH  15  30
TORSDOF 5
ENDMDL
MODEL 2
REMARK VINA RESULT: -9.700209298      5.688     10.355
REMARK  5 active torsions:
REMARK  status: ('A' for Active; 'I' for Inactive)
REMARK    1  A    between atoms: O1_2  and  C2_3 
REMARK    2  A    between atoms: C2_3  and  C3_5 
REMARK    3  A    between atoms: C4_6  and  C5_7 
REMARK    4  A    between atoms: C11_13  and  C13_15 
REMARK    5  A    between atoms: C21_24  and  N1_25 
ROOT
HETATM    1  C5  UNL     1      39.405  15.598  21.329  1.00  0.00     0.025 C 
HETATM    2  C6  UNL     1      40.801  15.151  20.939  1.00  0.00     0.026 C 
HETATM    3  C7  UNL     1      41.015  14.951  19.483  1.00  0.00     0.007 C 
HETATM    4  C8  UNL     1      41.425  13.483  19.290  1.00  0.00     0.023 C 
HETATM    5  C9  UNL     1      39.867  15.304  18.634  1.00  0.00    -0.072 C 
HETATM    6  C10 UNL     1      38.612  15.349  19.070  1.00  0.00    -0.009 C 
HETATM    7  C11 UNL     1      38.322  15.029  20.502  1.00  0.00    -0.001 C 
HETATM    8  C12 UNL     1      38.083  13.571  20.607  1.00  0.00     0.025 C 
HETATM    9  C15 UNL     1      40.065  15.642  17.189  1.00  0.00     0.035 C 
HETATM   10  C16 UNL     1      41.372  15.167  16.658  1.00  0.00     0.016 C 
HETATM   11  C17 UNL     1      42.541  15.334  17.572  1.00  0.00     0.049 C 
HETATM   12  C18 UNL     1      43.471  16.319  16.946  1.00  0.00    -0.043 A 
HETATM   13  C19 UNL     1      44.063  15.923  15.755  1.00  0.00     0.011 A 
HETATM   14  C20 UNL     1      44.932  16.786  15.128  1.00  0.00     0.037 A 
HETATM   15  C21 UNL     1      45.199  18.018  15.685  1.00  0.00     0.103 A 
HETATM   16  C22 UNL     1      44.582  18.379  16.887  1.00  0.00     0.046 A 
HETATM   17  C23 UNL     1      43.724  17.537  17.515  1.00  0.00    -0.025 A 
HETATM   18  C24 UNL     1      43.032  17.853  18.794  1.00  0.00     0.207 C 
HETATM   19  O5  UNL     1      41.854  17.129  18.900  1.00  0.00    -0.380 OA
HETATM   20  C25 UNL     1      42.204  15.769  18.957  1.00  0.00     0.142 C 
ENDROOT
BRANCH   1  21
HETATM   21  C4  UNL     1      39.284  15.475  22.781  1.00  0.00    -0.015 C 
HETATM   22  C3  UNL     1      40.081  15.962  23.705  1.00  0.00     0.078 C 
BRANCH  22  23
HETATM   23  C2  UNL     1      39.810  15.743  25.137  1.00  0.00     0.282 C 
HETATM   24  O2  UNL     1      40.789  15.650  25.906  1.00  0.00    -0.260 OA
BRANCH  23  25
HETATM   25  O1  UNL     1      38.539  15.636  25.663  1.00  0.00    -0.323 OA
HETATM   26  C1  UNL     1      38.121  14.553  26.465  1.00  0.00     0.213 C 
ENDBRANCH  23  25
ENDBRANCH  22  23
ENDBRANCH   1  21
BRANCH   7  27
HETATM   27  C13 UNL     1      37.050  15.763  20.828  1.00  0.00    -0.001 C 
HETATM   28  C14 UNL     1      35.862  15.221  20.612  1.00  0.00     0.081 C 
HETATM   29 CL1  UNL     1      34.404  16.105  21.004  1.00  0.00    -0.097 Cl
ENDBRANCH   7  27
BRANCH  15  30
HETATM   30  N1  UNL     1      46.096  18.912  15.040  1.00  0.00    -0.116 N 
HETATM   31  O3  UNL     1      46.383  20.025  15.516  1.00  0.00    -0.532 OA
HETATM   32  O4  UNL     1      46.662  18.535  13.852  1.00  0.00    -0.532 OA
ENDBRANCH  15  30
TORSDOF 5
ENDMDL
MODEL 3
REMARK VINA RESULT: -9.540559808      5.689     10.065
REMARK  5 active torsions:
REMARK  status: ('A' for Active; 'I' for Inactive)
REMARK    1  A    between atoms: O1_2  and  C2_3 
REMARK    2  A    between atoms: C2_3  and  C3_5 
REMARK    3  A    between atoms: C4_6  and  C5_7 
REMARK    4  A    between atoms: C11_13  and  C13_15 
REMARK    5  A    between atoms: C21_24  and  N1_25 
ROOT
HETATM    1  C5  UNL     1      39.624  15.243  22.048  1.00  0.00     0.025 C 
HETATM    2  C6  UNL     1      40.902  14.709  21.428  1.00  0.00     0.026 C 
HETATM    3  C7  UNL     1      40.912  14.663  19.944  1.00  0.00     0.007 C 
HETATM    4  C8  UNL     1      41.126  13.195  19.545  1.00  0.00     0.023 C 
HETATM    5  C9  UNL     1      39.714  15.224  19.299  1.00  0.00    -0.072 C 
HETATM    6  C10 UNL     1      38.536  15.341  19.903  1.00  0.00    -0.009 C 
HETATM    7  C11 UNL     1      38.391  14.885  21.320  1.00  0.00    -0.001 C 
HETATM    8  C12 UNL     1      38.003  13.454  21.303  1.00  0.00     0.025 C 
HETATM    9  C15 UNL     1      39.770  15.710  17.884  1.00  0.00     0.035 C 
HETATM   10  C16 UNL     1      40.939  15.174  17.134  1.00  0.00     0.016 C 
HETATM   11  C17 UNL     1      42.223  15.116  17.895  1.00  0.00     0.049 C 
HETATM   12  C18 UNL     1      43.174  16.072  17.254  1.00  0.00    -0.043 A 
HETATM   13  C19 UNL     1      43.566  15.763  15.959  1.00  0.00     0.011 A 
HETATM   14  C20 UNL     1      44.443  16.605  15.314  1.00  0.00     0.037 A 
HETATM   15  C21 UNL     1      44.914  17.730  15.955  1.00  0.00     0.103 A 
HETATM   16  C22 UNL     1      44.495  18.005  17.261  1.00  0.00     0.046 A 
HETATM   17  C23 UNL     1      43.631  17.183  17.908  1.00  0.00    -0.025 A 
HETATM   18  C24 UNL     1      43.143  17.413  19.294  1.00  0.00     0.207 C 
HETATM   19  O5  UNL     1      41.913  16.800  19.483  1.00  0.00    -0.380 OA
HETATM   20  C25 UNL     1      42.110  15.416  19.350  1.00  0.00     0.142 C 
ENDROOT
BRANCH   1  21
HETATM   21  C4  UNL     1      39.670  14.962  23.482  1.00  0.00    -0.015 C 
HETATM   22  C3  UNL     1      40.558  14.252  24.141  1.00  0.00     0.078 C 
BRANCH  22  23
HETATM   23  C2  UNL     1      40.454  14.067  25.600  1.00  0.00     0.282 C 
HETATM   24  O2  UNL     1      40.593  12.911  26.050  1.00  0.00    -0.260 OA
BRANCH  23  25
HETATM   25  O1  UNL     1      40.214  15.101  26.482  1.00  0.00    -0.323 OA
HETATM   26  C1  UNL     1      39.788  14.900  27.812  1.00  0.00     0.213 C 
ENDBRANCH  23  25
ENDBRANCH  22  23
ENDBRANCH   1  21
BRANCH   7  27
HETATM   27  C13 UNL     1      37.260  15.696  21.889  1.00  0.00    -0.001 C 
HETATM   28  C14 UNL     1      36.006  15.501  21.511  1.00  0.00     0.081 C 
HETATM   29 CL1  UNL     1      34.717  16.465  22.196  1.00  0.00    -0.097 Cl
ENDBRANCH   7  27
BRANCH  15  30
HETATM   30  N1  UNL     1      45.819  18.601  15.292  1.00  0.00    -0.116 N 
HETATM   31  O3  UNL     1      46.010  19.773  15.665  1.00  0.00    -0.532 OA
HETATM   32  O4  UNL     1      46.504  18.134  14.202  1.00  0.00    -0.532 OA
ENDBRANCH  15  30
TORSDOF 5
ENDMDL
MODEL 4
REMARK VINA RESULT: -9.460048323      0.504      1.136
REMARK  5 active torsions:
REMARK  status: ('A' for Active; 'I' for Inactive)
REMARK    1  A    between atoms: O1_2  and  C2_3 
REMARK    2  A    between atoms: C2_3  and  C3_5 
REMARK    3  A    between atoms: C4_6  and  C5_7 
REMARK    4  A    between atoms: C11_13  and  C13_15 
REMARK    5  A    between atoms: C21_24  and  N1_25 
ROOT
HETATM    1  C5  UNL     1      38.641  14.547  22.273  1.00  0.00     0.025 C 
HETATM    2  C6  UNL     1      37.402  14.626  23.146  1.00  0.00     0.026 C 
HETATM    3  C7  UNL     1      36.117  14.389  22.439  1.00  0.00     0.007 C 
HETATM    4  C8  UNL     1      35.270  15.659  22.617  1.00  0.00     0.023 C 
HETATM    5  C9  UNL     1      36.249  14.026  21.020  1.00  0.00    -0.072 C 
HETATM    6  C10 UNL     1      37.314  14.316  20.278  1.00  0.00    -0.009 C 
HETATM    7  C11 UNL     1      38.459  15.052  20.898  1.00  0.00    -0.001 C 
HETATM    8  C12 UNL     1      38.212  16.504  20.735  1.00  0.00     0.025 C 
HETATM    9  C15 UNL     1      35.152  13.285  20.320  1.00  0.00     0.035 C 
HETATM   10  C16 UNL     1      33.849  13.369  21.036  1.00  0.00     0.016 C 
HETATM   11  C17 UNL     1      33.921  13.253  22.523  1.00  0.00     0.049 C 
HETATM   12  C18 UNL     1      33.225  11.991  22.915  1.00  0.00    -0.043 A 
HETATM   13  C19 UNL     1      31.861  11.947  22.665  1.00  0.00     0.011 A 
HETATM   14  C20 UNL     1      31.162  10.810  23.005  1.00  0.00     0.037 A 
HETATM   15  C21 UNL     1      31.820   9.745  23.581  1.00  0.00     0.103 A 
HETATM   16  C22 UNL     1      33.196   9.831  23.817  1.00  0.00     0.046 A 
HETATM   17  C23 UNL     1      33.896  10.945  23.488  1.00  0.00    -0.025 A 
HETATM   18  C24 UNL     1      35.358  11.106  23.708  1.00  0.00     0.207 C 
HETATM   19  O5  UNL     1      35.886  12.025  22.813  1.00  0.00    -0.380 OA
HETATM   20  C25 UNL     1      35.297  13.269  23.094  1.00  0.00     0.142 C 
ENDROOT
BRANCH   1  21
HETATM   21  C4  UNL     1      39.767  15.072  23.044  1.00  0.00    -0.015 C 
HETATM   22  C3  UNL     1      39.744  15.971  24.002  1.00  0.00     0.078 C 
BRANCH  22  23
HETATM   23  C2  UNL     1      40.983  16.392  24.681  1.00  0.00     0.282 C 
HETATM   24  O2  UNL     1      41.429  17.529  24.424  1.00  0.00    -0.260 OA
BRANCH  23  25
HETATM   25  O1  UNL     1      41.665  15.596  25.579  1.00  0.00    -0.323 OA
HETATM   26  C1  UNL     1      41.087  14.479  26.218  1.00  0.00     0.213 C 
ENDBRANCH  23  25
ENDBRANCH  22  23
ENDBRANCH   1  21
BRANCH   7  27
HETATM   27  C13 UNL     1      39.668  14.663  20.093  1.00  0.00    -0.001 C 
HETATM   28  C14 UNL     1      39.838  15.082  18.849  1.00  0.00     0.081 C 
HETATM   29 CL1  UNL     1      41.258  14.609  17.944  1.00  0.00    -0.097 Cl
ENDBRANCH   7  27
BRANCH  15  30
HETATM   30  N1  UNL     1      31.102   8.571  23.933  1.00  0.00    -0.116 N 
HETATM   31  O3  UNL     1      30.128   8.163  23.274  1.00  0.00    -0.532 OA
HETATM   32  O4  UNL     1      31.497   7.864  25.037  1.00  0.00    -0.532 OA
ENDBRANCH  15  30
TORSDOF 5
ENDMDL
MODEL 5
REMARK VINA RESULT: -9.026008718      5.292      8.558
REMARK  5 active torsions:
REMARK  status: ('A' for Active; 'I' for Inactive)
REMARK    1  A    between atoms: O1_2  and  C2_3 
REMARK    2  A    between atoms: C2_3  and  C3_5 
REMARK    3  A    between atoms: C4_6  and  C5_7 
REMARK    4  A    between atoms: C11_13  and  C13_15 
REMARK    5  A    between atoms: C21_24  and  N1_25 
ROOT
HETATM    1  C5  UNL     1      38.147  15.150  24.384  1.00  0.00     0.025 C 
HETATM    2  C6  UNL     1      39.103  14.280  23.589  1.00  0.00     0.026 C 
HETATM    3  C7  UNL     1      38.834  14.217  22.130  1.00  0.00     0.007 C 
HETATM    4  C8  UNL     1      38.573  12.742  21.788  1.00  0.00     0.023 C 
HETATM    5  C9  UNL     1      37.736  15.078  21.665  1.00  0.00    -0.072 C 
HETATM    6  C10 UNL     1      36.759  15.520  22.452  1.00  0.00    -0.009 C 
HETATM    7  C11 UNL     1      36.753  15.137  23.898  1.00  0.00    -0.001 C 
HETATM    8  C12 UNL     1      36.000  13.867  24.031  1.00  0.00     0.025 C 
HETATM    9  C15 UNL     1      37.665  15.515  20.234  1.00  0.00     0.035 C 
HETATM   10  C16 UNL     1      38.494  14.671  19.331  1.00  0.00     0.016 C 
HETATM   11  C17 UNL     1      39.830  14.272  19.865  1.00  0.00     0.049 C 
HETATM   12  C18 UNL     1      40.872  14.923  19.018  1.00  0.00    -0.043 A 
HETATM   13  C19 UNL     1      40.929  14.505  17.696  1.00  0.00     0.011 A 
HETATM   14  C20 UNL     1      41.869  15.067  16.863  1.00  0.00     0.037 A 
HETATM   15  C21 UNL     1      42.731  16.026  17.347  1.00  0.00     0.103 A 
HETATM   16  C22 UNL     1      42.642  16.420  18.686  1.00  0.00     0.046 A 
HETATM   17  C23 UNL     1      41.720  15.874  19.518  1.00  0.00    -0.025 A 
HETATM   18  C24 UNL     1      41.567  16.244  20.951  1.00  0.00     0.207 C 
HETATM   19  O5  UNL     1      40.272  15.994  21.381  1.00  0.00    -0.380 OA
HETATM   20  C25 UNL     1      40.064  14.606  21.299  1.00  0.00     0.142 C 
ENDROOT
BRANCH   1  21
HETATM   21  C4  UNL     1      38.372  14.883  25.803  1.00  0.00    -0.015 C 
HETATM   22  C3  UNL     1      39.461  15.099  26.506  1.00  0.00     0.078 C 
BRANCH  22  23
HETATM   23  C2  UNL     1      39.519  14.768  27.942  1.00  0.00     0.282 C 
HETATM   24  O2  UNL     1      38.478  14.340  28.482  1.00  0.00    -0.260 OA
BRANCH  23  25
HETATM   25  O1  UNL     1      40.658  14.908  28.708  1.00  0.00    -0.323 OA
HETATM   26  C1  UNL     1      40.716  14.566  30.076  1.00  0.00     0.213 C 
ENDBRANCH  23  25
ENDBRANCH  22  23
ENDBRANCH   1  21
BRANCH   7  27
HETATM   27  C13 UNL     1      36.002  16.233  24.601  1.00  0.00    -0.001 C 
HETATM   28  C14 UNL     1      34.934  15.979  25.340  1.00  0.00     0.081 C 
HETATM   29 CL1  UNL     1      34.086  17.281  26.143  1.00  0.00    -0.097 Cl
ENDBRANCH   7  27
BRANCH  15  30
HETATM   30  N1  UNL     1      43.703  16.609  16.490  1.00  0.00    -0.116 N 
HETATM   31  O3  UNL     1      44.607  17.351  16.915  1.00  0.00    -0.532 OA
HETATM   32  O4  UNL     1      43.641  16.344  15.148  1.00  0.00    -0.532 OA
ENDBRANCH  15  30
TORSDOF 5
ENDMDL
