MODEL 1
REMARK VINA RESULT: -5.725440471      0.000      0.000
REMARK  1 active torsions:
REMARK  status: ('A' for Active; 'I' for Inactive)
REMARK    1  A    between atoms: O1_1  and  C1_3 
ROOT
HETATM    1  C1  UNL     1      15.350   0.878  16.819  1.00  0.00     0.269 C 
HETATM    2  C2  UNL     1      14.820   1.723  17.922  1.00  0.00     0.062 C 
HETATM    3  C3  UNL     1      14.373   3.075  17.560  1.00  0.00     0.015 C 
HETATM    4  C4  UNL     1      14.687   3.568  16.201  1.00  0.00     0.081 C 
HETATM    5  S1  UNL     1      16.231   2.801  15.342  1.00  0.00    -0.141 SA
HETATM    6  C5  UNL     1      17.270   3.392  13.919  1.00  0.00     0.091 A 
HETATM    7  C6  UNL     1      16.277   2.362  13.403  1.00  0.00     0.091 A 
HETATM    8  O2  UNL     1      16.641   1.359  16.494  1.00  0.00    -0.310 OA
ENDROOT
BRANCH   1   9
HETATM    9  O1  UNL     1      15.433  -0.451  17.212  1.00  0.00    -0.370 OA
ATOM     10  H1  UNL     1      15.370  -1.030  16.461  1.00  0.00     0.212 HD
ENDBRANCH   1   9
TORSDOF 1
ENDMDL
MODEL 2
REMARK VINA RESULT: -5.544017232      1.374      1.587
REMARK  1 active torsions:
REMARK  status: ('A' for Active; 'I' for Inactive)
REMARK    1  A    between atoms: O1_1  and  C1_3 
ROOT
HETATM    1  C1  UNL     1      15.846   0.824  15.956  1.00  0.00     0.269 C 
HETATM    2  C2  UNL     1      15.345   0.613  17.341  1.00  0.00     0.062 C 
HETATM    3  C3  UNL     1      14.392   1.607  17.855  1.00  0.00     0.015 C 
HETATM    4  C4  UNL     1      14.180   2.838  17.064  1.00  0.00     0.081 C 
HETATM    5  S1  UNL     1      15.635   3.395  15.931  1.00  0.00    -0.141 SA
HETATM    6  C5  UNL     1      16.033   5.036  15.154  1.00  0.00     0.091 A 
HETATM    7  C6  UNL     1      15.355   4.156  14.115  1.00  0.00     0.091 A 
HETATM    8  O2  UNL     1      16.777   1.889  15.996  1.00  0.00    -0.310 OA
ENDROOT
BRANCH   1   9
HETATM    9  O1  UNL     1      16.468  -0.322  15.477  1.00  0.00    -0.370 OA
ATOM     10  H1  UNL     1      16.754  -0.199  14.579  1.00  0.00     0.212 HD
ENDBRANCH   1   9
TORSDOF 1
ENDMDL
MODEL 3
REMARK VINA RESULT: -4.770614841      1.903      3.725
REMARK  1 active torsions:
REMARK  status: ('A' for Active; 'I' for Inactive)
REMARK    1  A    between atoms: O1_1  and  C1_3 
ROOT
HETATM    1  C1  UNL     1      16.647   3.300  15.229  1.00  0.00     0.269 C 
HETATM    2  C2  UNL     1      16.076   4.619  14.844  1.00  0.00     0.062 C 
HETATM    3  C3  UNL     1      15.018   5.156  15.711  1.00  0.00     0.015 C 
HETATM    4  C4  UNL     1      14.451   4.265  16.747  1.00  0.00     0.081 C 
HETATM    5  S1  UNL     1      14.544   2.373  16.400  1.00  0.00    -0.141 SA
HETATM    6  C5  UNL     1      13.598   0.941  17.114  1.00  0.00     0.091 A 
HETATM    7  C6  UNL     1      14.944   1.037  17.818  1.00  0.00     0.091 A 
HETATM    8  O2  UNL     1      15.693   2.309  14.899  1.00  0.00    -0.310 OA
ENDROOT
BRANCH   1   9
HETATM    9  O1  UNL     1      17.830   3.056  14.542  1.00  0.00    -0.370 OA
ATOM     10  H1  UNL     1      17.891   3.607  13.770  1.00  0.00     0.212 HD
ENDBRANCH   1   9
TORSDOF 1
ENDMDL
MODEL 4
REMARK VINA RESULT: -4.539954995      5.468      6.294
REMARK  1 active torsions:
REMARK  status: ('A' for Active; 'I' for Inactive)
REMARK    1  A    between atoms: O1_1  and  C1_3 
ROOT
HETATM    1  C1  UNL     1      16.576   1.482  11.209  1.00  0.00     0.269 C 
HETATM    2  C2  UNL     1      16.849   0.197  10.513  1.00  0.00     0.062 C 
HETATM    3  C3  UNL     1      18.217  -0.330  10.616  1.00  0.00     0.015 C 
HETATM    4  C4  UNL     1      19.256   0.548  11.197  1.00  0.00     0.081 C 
HETATM    5  S1  UNL     1      18.963   2.445  11.045  1.00  0.00    -0.141 SA
HETATM    6  C5  UNL     1      20.131   3.887  11.172  1.00  0.00     0.091 A 
HETATM    7  C6  UNL     1      19.411   3.724  12.502  1.00  0.00     0.091 A 
HETATM    8  O2  UNL     1      17.171   2.516  10.447  1.00  0.00    -0.310 OA
ENDROOT
BRANCH   1   9
HETATM    9  O1  UNL     1      15.209   1.707  11.312  1.00  0.00    -0.370 OA
ATOM     10  H1  UNL     1      14.741   1.258  10.617  1.00  0.00     0.212 HD
ENDBRANCH   1   9
TORSDOF 1
ENDMDL
MODEL 5
REMARK VINA RESULT: -4.508278302      2.068      2.712
REMARK  1 active torsions:
REMARK  status: ('A' for Active; 'I' for Inactive)
REMARK    1  A    between atoms: O1_1  and  C1_3 
ROOT
HETATM    1  C1  UNL     1      14.926   2.259  17.813  1.00  0.00     0.269 C 
HETATM    2  C2  UNL     1      15.171   0.861  17.368  1.00  0.00     0.062 C 
HETATM    3  C3  UNL     1      15.962   0.689  16.141  1.00  0.00     0.015 C 
HETATM    4  C4  UNL     1      16.256   1.892  15.332  1.00  0.00     0.081 C 
HETATM    5  S1  UNL     1      15.011   3.354  15.479  1.00  0.00    -0.141 SA
HETATM    6  C5  UNL     1      14.684   4.810  14.370  1.00  0.00     0.091 A 
HETATM    7  C6  UNL     1      15.586   5.258  15.510  1.00  0.00     0.091 A 
HETATM    8  O2  UNL     1      13.953   2.818  16.951  1.00  0.00    -0.310 OA
ENDROOT
BRANCH   1   9
HETATM    9  O1  UNL     1      14.461   2.286  19.122  1.00  0.00    -0.370 OA
ATOM     10  H1  UNL     1      15.057   2.772  19.681  1.00  0.00     0.212 HD
ENDBRANCH   1   9
TORSDOF 1
ENDMDL
