MODEL 1
REMARK VINA RESULT: -3.707784451      0.000      0.000
REMARK  0 active torsions:
REMARK  status: ('A' for Active; 'I' for Inactive)
ROOT
HETATM    1  C1  UNL     1      14.644   2.425  18.070  1.00  0.00     0.038 C 
HETATM    2  C2  UNL     1      14.391   1.081  17.461  1.00  0.00     0.234 C 
HETATM    3  N1  UNL     1      15.646   0.482  17.062  1.00  0.00    -0.066 N 
ATOM      4  H11 UNL     1      15.618  -0.532  17.166  1.00  0.00     0.278 HD
ATOM      5  H12 UNL     1      16.384   0.695  17.732  1.00  0.00     0.278 HD
HETATM    6  C3  UNL     1      16.036   0.860  15.716  1.00  0.00     0.317 C 
HETATM    7  S1  UNL     1      16.614   2.596  15.700  1.00  0.00    -0.070 SA
HETATM    8  S2  UNL     1      14.853   3.805  15.685  1.00  0.00    -0.096 SA
HETATM    9  C4  UNL     1      14.021   3.555  17.285  1.00  0.00     0.088 C 
ENDROOT
TORSDOF 0
ENDMDL
MODEL 2
REMARK VINA RESULT: -3.585597739      2.003      2.727
REMARK  0 active torsions:
REMARK  status: ('A' for Active; 'I' for Inactive)
ROOT
HETATM    1  C1  UNL     1      13.817   1.918  16.949  1.00  0.00     0.038 C 
HETATM    2  C2  UNL     1      14.362   3.246  17.375  1.00  0.00     0.234 C 
HETATM    3  N1  UNL     1      14.561   4.087  16.216  1.00  0.00    -0.066 N 
ATOM      4  H11 UNL     1      14.394   5.068  16.441  1.00  0.00     0.278 HD
ATOM      5  H12 UNL     1      13.820   3.948  15.529  1.00  0.00     0.278 HD
HETATM    6  C3  UNL     1      15.871   3.903  15.618  1.00  0.00     0.317 C 
HETATM    7  S1  UNL     1      15.931   2.302  14.732  1.00  0.00    -0.070 SA
HETATM    8  S2  UNL     1      16.244   0.811  16.229  1.00  0.00    -0.096 SA
HETATM    9  C4  UNL     1      14.746   0.771  17.263  1.00  0.00     0.088 C 
ENDROOT
TORSDOF 0
ENDMDL
MODEL 3
REMARK VINA RESULT: -3.584604986      2.123      2.490
REMARK  0 active torsions:
REMARK  status: ('A' for Active; 'I' for Inactive)
ROOT
HETATM    1  C1  UNL     1      14.982   3.480  15.186  1.00  0.00     0.038 C 
HETATM    2  C2  UNL     1      16.364   2.905  15.185  1.00  0.00     0.234 C 
HETATM    3  N1  UNL     1      16.295   1.467  15.051  1.00  0.00    -0.066 N 
ATOM      4  H11 UNL     1      17.091   1.109  14.524  1.00  0.00     0.278 HD
ATOM      5  H12 UNL     1      15.543   1.192  14.420  1.00  0.00     0.278 HD
HETATM    6  C3  UNL     1      16.172   0.798  16.334  1.00  0.00     0.317 C 
HETATM    7  S1  UNL     1      14.483   1.032  16.999  1.00  0.00    -0.070 SA
HETATM    8  S2  UNL     1      14.451   2.990  17.853  1.00  0.00    -0.096 SA
HETATM    9  C4  UNL     1      14.632   4.173  16.481  1.00  0.00     0.088 C 
ENDROOT
TORSDOF 0
ENDMDL
MODEL 4
REMARK VINA RESULT: -3.414770328      5.938      6.444
REMARK  0 active torsions:
REMARK  status: ('A' for Active; 'I' for Inactive)
ROOT
HETATM    1  C1  UNL     1      17.092   0.188  11.787  1.00  0.00     0.038 C 
HETATM    2  C2  UNL     1      18.068  -0.176  10.711  1.00  0.00     0.234 C 
HETATM    3  N1  UNL     1      19.402   0.213  11.110  1.00  0.00    -0.066 N 
ATOM      4  H11 UNL     1      20.098  -0.437  10.747  1.00  0.00     0.278 HD
ATOM      5  H12 UNL     1      19.545   0.064  12.109  1.00  0.00     0.278 HD
HETATM    6  C3  UNL     1      19.716   1.580  10.734  1.00  0.00     0.317 C 
HETATM    7  S1  UNL     1      18.819   2.746  11.824  1.00  0.00    -0.070 SA
HETATM    8  S2  UNL     1      16.823   2.842  11.069  1.00  0.00    -0.096 SA
HETATM    9  C4  UNL     1      16.072   1.206  11.339  1.00  0.00     0.088 C 
ENDROOT
TORSDOF 0
ENDMDL
MODEL 5
REMARK VINA RESULT: -3.374150228      5.285      6.519
REMARK  0 active torsions:
REMARK  status: ('A' for Active; 'I' for Inactive)
ROOT
HETATM    1  C1  UNL     1      18.322   0.122  10.658  1.00  0.00     0.038 C 
HETATM    2  C2  UNL     1      17.419  -0.130  11.825  1.00  0.00     0.234 C 
HETATM    3  N1  UNL     1      16.187   0.609  11.658  1.00  0.00    -0.066 N 
ATOM      4  H11 UNL     1      15.398   0.102  12.058  1.00  0.00     0.278 HD
ATOM      5  H12 UNL     1      15.896   0.621  10.681  1.00  0.00     0.278 HD
HETATM    6  C3  UNL     1      16.272   1.955  12.197  1.00  0.00     0.317 C 
HETATM    7  S1  UNL     1      17.298   3.000  11.099  1.00  0.00    -0.070 SA
HETATM    8  S2  UNL     1      19.329   2.529  11.565  1.00  0.00    -0.096 SA
HETATM    9  C4  UNL     1      19.610   0.807  11.045  1.00  0.00     0.088 C 
ENDROOT
TORSDOF 0
ENDMDL
