MODEL 1
REMARK VINA RESULT: -4.172830591      0.000      0.000
REMARK  0 active torsions:
REMARK  status: ('A' for Active; 'I' for Inactive)
ROOT
HETATM    1  C1  UNL     1      13.369   1.235  16.975  1.00  0.00     0.051 C 
HETATM    2  C2  UNL     1      14.638   2.008  17.350  1.00  0.00     0.077 C 
HETATM    3  C3  UNL     1      14.789   2.007  18.846  1.00  0.00     0.051 C 
HETATM    4  N1  UNL     1      15.757   1.383  16.720  1.00  0.00    -0.404 N 
ATOM      5  H1  UNL     1      15.919   0.377  16.766  1.00  0.00     0.154 HD
HETATM    6  C4  UNL     1      16.632   2.268  16.022  1.00  0.00     0.126 C 
HETATM    7  C5  UNL     1      16.215   2.445  14.555  1.00  0.00     0.105 C 
HETATM    8  S1  UNL     1      14.813   3.632  14.632  1.00  0.00    -0.093 SA
HETATM    9  S2  UNL     1      14.369   3.713  16.741  1.00  0.00    -0.067 SA
ENDROOT
TORSDOF 0
ENDMDL
MODEL 2
REMARK VINA RESULT: -3.786918233      2.340      3.253
REMARK  0 active torsions:
REMARK  status: ('A' for Active; 'I' for Inactive)
ROOT
HETATM    1  C1  UNL     1      14.441   3.614  14.313  1.00  0.00     0.051 C 
HETATM    2  C2  UNL     1      15.077   3.859  15.685  1.00  0.00     0.077 C 
HETATM    3  C3  UNL     1      15.409   5.320  15.817  1.00  0.00     0.051 C 
HETATM    4  N1  UNL     1      14.158   3.447  16.697  1.00  0.00    -0.404 N 
ATOM      5  H1  UNL     1      13.178   3.733  16.695  1.00  0.00     0.154 HD
HETATM    6  C4  UNL     1      14.708   2.605  17.709  1.00  0.00     0.126 C 
HETATM    7  C5  UNL     1      14.593   1.119  17.341  1.00  0.00     0.105 C 
HETATM    8  S1  UNL     1      15.964   0.850  16.145  1.00  0.00    -0.093 SA
HETATM    9  S2  UNL     1      16.610   2.859  15.698  1.00  0.00    -0.067 SA
ENDROOT
TORSDOF 0
ENDMDL
MODEL 3
REMARK VINA RESULT: -3.661115423      4.077      5.534
REMARK  0 active torsions:
REMARK  status: ('A' for Active; 'I' for Inactive)
ROOT
HETATM    1  C1  UNL     1      18.678   0.935  11.384  1.00  0.00     0.051 C 
HETATM    2  C2  UNL     1      17.203   1.256  11.646  1.00  0.00     0.077 C 
HETATM    3  C3  UNL     1      16.347   0.253  10.924  1.00  0.00     0.051 C 
HETATM    4  N1  UNL     1      16.968   1.215  13.054  1.00  0.00    -0.404 N 
ATOM      5  H1  UNL     1      17.279   0.437  13.637  1.00  0.00     0.154 HD
HETATM    6  C4  UNL     1      16.269   2.339  13.585  1.00  0.00     0.126 C 
HETATM    7  C5  UNL     1      17.228   3.454  14.024  1.00  0.00     0.105 C 
HETATM    8  S1  UNL     1      17.695   4.283  12.450  1.00  0.00    -0.093 SA
HETATM    9  S2  UNL     1      16.938   2.929  10.952  1.00  0.00    -0.067 SA
ENDROOT
TORSDOF 0
ENDMDL
MODEL 4
REMARK VINA RESULT: -3.497871749      1.213      3.522
REMARK  0 active torsions:
REMARK  status: ('A' for Active; 'I' for Inactive)
ROOT
HETATM    1  C1  UNL     1      17.379   3.718  14.593  1.00  0.00     0.051 C 
HETATM    2  C2  UNL     1      16.301   2.640  14.442  1.00  0.00     0.077 C 
HETATM    3  C3  UNL     1      16.389   2.048  13.063  1.00  0.00     0.051 C 
HETATM    4  N1  UNL     1      16.504   1.644  15.445  1.00  0.00    -0.404 N 
ATOM      5  H1  UNL     1      17.417   1.221  15.617  1.00  0.00     0.154 HD
HETATM    6  C4  UNL     1      15.341   1.283  16.187  1.00  0.00     0.126 C 
HETATM    7  C5  UNL     1      15.165   2.157  17.437  1.00  0.00     0.105 C 
HETATM    8  S1  UNL     1      14.463   3.727  16.786  1.00  0.00    -0.093 SA
HETATM    9  S2  UNL     1      14.706   3.514  14.654  1.00  0.00    -0.067 SA
ENDROOT
TORSDOF 0
ENDMDL
MODEL 5
REMARK VINA RESULT: -3.404003324      1.976      2.357
REMARK  0 active torsions:
REMARK  status: ('A' for Active; 'I' for Inactive)
ROOT
HETATM    1  C1  UNL     1      15.037   2.248  18.373  1.00  0.00     0.051 C 
HETATM    2  C2  UNL     1      14.460   2.023  16.971  1.00  0.00     0.077 C 
HETATM    3  C3  UNL     1      13.301   1.071  17.064  1.00  0.00     0.051 C 
HETATM    4  N1  UNL     1      14.051   3.283  16.438  1.00  0.00    -0.404 N 
ATOM      5  H1  UNL     1      13.474   3.939  16.966  1.00  0.00     0.154 HD
HETATM    6  C4  UNL     1      14.505   3.558  15.114  1.00  0.00     0.126 C 
HETATM    7  C5  UNL     1      15.863   4.274  15.113  1.00  0.00     0.105 C 
HETATM    8  S1  UNL     1      17.076   2.928  15.424  1.00  0.00    -0.093 SA
HETATM    9  S2  UNL     1      15.818   1.274  16.000  1.00  0.00    -0.067 SA
ENDROOT
TORSDOF 0
ENDMDL
