MODEL 1
REMARK VINA RESULT: -3.247782869      0.000      0.000
REMARK  0 active torsions:
REMARK  status: ('A' for Active; 'I' for Inactive)
ROOT
HETATM    1  S1  UNL     1      13.969   1.115  17.337  1.00  0.00    -0.080 SA
HETATM    2  C1  UNL     1      15.153   2.471  16.969  1.00  0.00     0.132 C 
HETATM    3  C2  UNL     1      14.372   3.670  16.667  1.00  0.00     0.038 C 
HETATM    4  C3  UNL     1      15.081   4.689  15.863  1.00  0.00     0.088 C 
HETATM    5  S2  UNL     1      15.989   3.866  14.529  1.00  0.00    -0.096 SA
HETATM    6  S3  UNL     1      16.038   1.930  15.482  1.00  0.00    -0.081 SA
ENDROOT
TORSDOF 0
ENDMDL
MODEL 2
REMARK VINA RESULT: -3.180608747      1.613      3.393
REMARK  0 active torsions:
REMARK  status: ('A' for Active; 'I' for Inactive)
ROOT
HETATM    1  S1  UNL     1      14.989   4.446  14.647  1.00  0.00    -0.080 SA
HETATM    2  C1  UNL     1      15.676   3.335  15.938  1.00  0.00     0.132 C 
HETATM    3  C2  UNL     1      16.015   2.066  15.294  1.00  0.00     0.038 C 
HETATM    4  C3  UNL     1      16.083   0.903  16.206  1.00  0.00     0.088 C 
HETATM    5  S2  UNL     1      14.683   0.966  17.354  1.00  0.00    -0.096 SA
HETATM    6  S3  UNL     1      14.315   3.079  17.108  1.00  0.00    -0.081 SA
ENDROOT
TORSDOF 0
ENDMDL
MODEL 3
REMARK VINA RESULT: -3.130150456      1.309      2.877
REMARK  0 active torsions:
REMARK  status: ('A' for Active; 'I' for Inactive)
ROOT
HETATM    1  S1  UNL     1      15.267   5.169  15.514  1.00  0.00    -0.080 SA
HETATM    2  C1  UNL     1      14.678   3.432  15.616  1.00  0.00     0.132 C 
HETATM    3  C2  UNL     1      14.450   3.125  17.028  1.00  0.00     0.038 C 
HETATM    4  C3  UNL     1      14.483   1.685  17.366  1.00  0.00     0.088 C 
HETATM    5  S2  UNL     1      15.872   0.905  16.504  1.00  0.00    -0.096 SA
HETATM    6  S3  UNL     1      16.056   2.433  14.991  1.00  0.00    -0.081 SA
ENDROOT
TORSDOF 0
ENDMDL
MODEL 4
REMARK VINA RESULT: -3.102135753      1.600      3.512
REMARK  0 active torsions:
REMARK  status: ('A' for Active; 'I' for Inactive)
ROOT
HETATM    1  S1  UNL     1      16.628   3.361  14.557  1.00  0.00    -0.080 SA
HETATM    2  C1  UNL     1      16.149   2.672  16.191  1.00  0.00     0.132 C 
HETATM    3  C2  UNL     1      16.166   1.214  16.079  1.00  0.00     0.038 C 
HETATM    4  C3  UNL     1      15.336   0.503  17.076  1.00  0.00     0.088 C 
HETATM    5  S2  UNL     1      13.749   1.358  17.246  1.00  0.00    -0.096 SA
HETATM    6  S3  UNL     1      14.449   3.242  16.459  1.00  0.00    -0.081 SA
ENDROOT
TORSDOF 0
ENDMDL
MODEL 5
REMARK VINA RESULT: -3.072502360      1.066      2.865
REMARK  0 active torsions:
REMARK  status: ('A' for Active; 'I' for Inactive)
ROOT
HETATM    1  S1  UNL     1      16.861   3.751  14.354  1.00  0.00    -0.080 SA
HETATM    2  C1  UNL     1      15.350   3.069  15.146  1.00  0.00     0.132 C 
HETATM    3  C2  UNL     1      14.896   4.039  16.142  1.00  0.00     0.038 C 
HETATM    4  C3  UNL     1      14.046   3.479  17.215  1.00  0.00     0.088 C 
HETATM    5  S2  UNL     1      14.750   1.906  17.770  1.00  0.00    -0.096 SA
HETATM    6  S3  UNL     1      15.900   1.555  15.978  1.00  0.00    -0.081 SA
ENDROOT
TORSDOF 0
ENDMDL
