MODEL 1
REMARK VINA RESULT: -3.267634545      0.000      0.000
REMARK  0 active torsions:
REMARK  status: ('A' for Active; 'I' for Inactive)
ROOT
HETATM    1  C1  UNL     1      16.055   1.269  11.532  1.00  0.00     0.134 C 
HETATM    2  C2  UNL     1      16.683  -0.059  11.711  1.00  0.00     0.104 C 
HETATM    3  S1  UNL     1      18.239  -0.298  10.859  1.00  0.00    -0.084 SA
HETATM    4  S2  UNL     1      19.494   1.398  11.304  1.00  0.00    -0.007 SA
HETATM    5  S3  UNL     1      18.054   3.002  11.158  1.00  0.00     0.020 SA
HETATM    6  N1  UNL     1      16.624   2.118  10.549  1.00  0.00    -0.167 NA
ENDROOT
TORSDOF 0
ENDMDL
MODEL 2
REMARK VINA RESULT: -3.200389097      1.644      2.638
REMARK  0 active torsions:
REMARK  status: ('A' for Active; 'I' for Inactive)
ROOT
HETATM    1  C1  UNL     1      16.165   1.626  12.312  1.00  0.00     0.134 C 
HETATM    2  C2  UNL     1      17.130   2.497  11.605  1.00  0.00     0.104 C 
HETATM    3  S1  UNL     1      18.812   1.886  11.533  1.00  0.00    -0.084 SA
HETATM    4  S2  UNL     1      18.733  -0.163  10.865  1.00  0.00    -0.007 SA
HETATM    5  S3  UNL     1      17.034  -0.879  11.989  1.00  0.00     0.020 SA
HETATM    6  N1  UNL     1      16.702   0.532  13.036  1.00  0.00    -0.167 NA
ENDROOT
TORSDOF 0
ENDMDL
MODEL 3
REMARK VINA RESULT: -3.187909051      2.229      2.548
REMARK  0 active torsions:
REMARK  status: ('A' for Active; 'I' for Inactive)
ROOT
HETATM    1  C1  UNL     1      19.345   0.436  10.890  1.00  0.00     0.134 C 
HETATM    2  C2  UNL     1      18.379  -0.682  10.960  1.00  0.00     0.104 C 
HETATM    3  S1  UNL     1      16.986  -0.431  12.058  1.00  0.00    -0.084 SA
HETATM    4  S2  UNL     1      16.148   1.506  11.616  1.00  0.00    -0.007 SA
HETATM    5  S3  UNL     1      17.952   2.667  11.360  1.00  0.00     0.020 SA
HETATM    6  N1  UNL     1      19.193   1.474  11.844  1.00  0.00    -0.167 NA
ENDROOT
TORSDOF 0
ENDMDL
MODEL 4
REMARK VINA RESULT: -3.146525342      2.382      3.222
REMARK  0 active torsions:
REMARK  status: ('A' for Active; 'I' for Inactive)
ROOT
HETATM    1  C1  UNL     1      19.328   0.369  10.923  1.00  0.00     0.134 C 
HETATM    2  C2  UNL     1      19.535   1.741  11.437  1.00  0.00     0.104 C 
HETATM    3  S1  UNL     1      18.074   2.775  11.491  1.00  0.00    -0.084 SA
HETATM    4  S2  UNL     1      16.508   1.642  12.447  1.00  0.00    -0.007 SA
HETATM    5  S3  UNL     1      16.816  -0.296  11.545  1.00  0.00     0.020 SA
HETATM    6  N1  UNL     1      18.070   0.092  10.330  1.00  0.00    -0.167 NA
ENDROOT
TORSDOF 0
ENDMDL
MODEL 5
REMARK VINA RESULT: -3.085889776      2.465      3.326
REMARK  0 active torsions:
REMARK  status: ('A' for Active; 'I' for Inactive)
ROOT
HETATM    1  C1  UNL     1      19.672   1.554  11.438  1.00  0.00     0.134 C 
HETATM    2  C2  UNL     1      18.787   2.640  11.916  1.00  0.00     0.104 C 
HETATM    3  S1  UNL     1      17.141   2.660  11.210  1.00  0.00    -0.084 SA
HETATM    4  S2  UNL     1      16.342   0.663  11.362  1.00  0.00    -0.007 SA
HETATM    5  S3  UNL     1      18.080  -0.500  10.820  1.00  0.00     0.020 SA
HETATM    6  N1  UNL     1      19.214   0.794  10.333  1.00  0.00    -0.167 NA
ENDROOT
TORSDOF 0
ENDMDL
