MODEL 1
REMARK VINA RESULT: -5.387773551      0.000      0.000
REMARK  0 active torsions:
REMARK  status: ('A' for Active; 'I' for Inactive)
ROOT
HETATM    1  C1  UNL     1      15.906   5.276  13.828  1.00  0.00     0.000 C 
HETATM    2  C2  UNL     1      17.284   4.695  14.030  1.00  0.00     0.002 C 
HETATM    3  C3  UNL     1      17.320   3.715  15.177  1.00  0.00     0.034 C 
HETATM    4  C4  UNL     1      16.332   2.602  14.923  1.00  0.00     0.061 C 
HETATM    5  C5  UNL     1      14.935   3.130  14.709  1.00  0.00     0.034 C 
HETATM    6  C6  UNL     1      14.853   4.615  14.646  1.00  0.00     0.002 C 
HETATM    7  C7  UNL     1      16.419   1.609  16.045  1.00  0.00     0.169 C 
HETATM    8  N1  UNL     1      16.138   0.383  15.358  1.00  0.00    -0.123 NA
HETATM    9  N2  UNL     1      16.553   0.590  14.056  1.00  0.00    -0.250 N 
ATOM     10  H2  UNL     1      16.740  -0.163  13.394  1.00  0.00     0.203 HD
HETATM   11  N3  UNL     1      16.672   1.806  13.781  1.00  0.00    -0.314 N 
ATOM     12  H3  UNL     1      16.968   2.175  12.877  1.00  0.00     0.182 HD
ENDROOT
TORSDOF 0
ENDMDL
MODEL 2
REMARK VINA RESULT: -5.165512722      1.938      3.002
REMARK  0 active torsions:
REMARK  status: ('A' for Active; 'I' for Inactive)
ROOT
HETATM    1  C1  UNL     1      14.831   4.053  15.794  1.00  0.00     0.000 C 
HETATM    2  C2  UNL     1      15.399   2.659  15.695  1.00  0.00     0.002 C 
HETATM    3  C3  UNL     1      16.078   2.418  14.369  1.00  0.00     0.034 C 
HETATM    4  C4  UNL     1      17.181   3.430  14.176  1.00  0.00     0.061 C 
HETATM    5  C5  UNL     1      16.668   4.846  14.270  1.00  0.00     0.034 C 
HETATM    6  C6  UNL     1      15.238   4.944  14.674  1.00  0.00     0.002 C 
HETATM    7  C7  UNL     1      17.882   3.145  12.879  1.00  0.00     0.169 C 
HETATM    8  N1  UNL     1      19.224   3.536  13.192  1.00  0.00    -0.123 NA
HETATM    9  N2  UNL     1      19.349   3.354  14.556  1.00  0.00    -0.250 N 
ATOM     10  H2  UNL     1      20.244   3.281  15.039  1.00  0.00     0.203 HD
HETATM   11  N3  UNL     1      18.239   3.290  15.132  1.00  0.00    -0.314 N 
ATOM     12  H3  UNL     1      18.106   3.158  16.135  1.00  0.00     0.182 HD
ENDROOT
TORSDOF 0
ENDMDL
MODEL 3
REMARK VINA RESULT: -5.078261462      1.937      3.136
REMARK  0 active torsions:
REMARK  status: ('A' for Active; 'I' for Inactive)
ROOT
HETATM    1  C1  UNL     1      14.625   2.424  17.532  1.00  0.00     0.000 C 
HETATM    2  C2  UNL     1      15.567   1.305  17.163  1.00  0.00     0.002 C 
HETATM    3  C3  UNL     1      15.740   1.182  15.669  1.00  0.00     0.034 C 
HETATM    4  C4  UNL     1      16.260   2.486  15.113  1.00  0.00     0.061 C 
HETATM    5  C5  UNL     1      15.355   3.644  15.457  1.00  0.00     0.034 C 
HETATM    6  C6  UNL     1      14.244   3.287  16.382  1.00  0.00     0.002 C 
HETATM    7  C7  UNL     1      16.478   2.332  13.636  1.00  0.00     0.169 C 
HETATM    8  N1  UNL     1      17.610   3.186  13.428  1.00  0.00    -0.123 NA
HETATM    9  N2  UNL     1      18.289   3.192  14.631  1.00  0.00    -0.250 N 
ATOM     10  H2  UNL     1      19.263   3.476  14.731  1.00  0.00     0.203 HD
HETATM   11  N3  UNL     1      17.573   2.810  15.585  1.00  0.00    -0.314 N 
ATOM     12  H3  UNL     1      17.880   2.739  16.555  1.00  0.00     0.182 HD
ENDROOT
TORSDOF 0
ENDMDL
MODEL 4
REMARK VINA RESULT: -4.973675310      1.101      2.119
REMARK  0 active torsions:
REMARK  status: ('A' for Active; 'I' for Inactive)
ROOT
HETATM    1  C1  UNL     1      16.409   5.667  15.170  1.00  0.00     0.000 C 
HETATM    2  C2  UNL     1      15.062   4.990  15.241  1.00  0.00     0.002 C 
HETATM    3  C3  UNL     1      15.030   3.711  14.440  1.00  0.00     0.034 C 
HETATM    4  C4  UNL     1      16.098   2.771  14.946  1.00  0.00     0.061 C 
HETATM    5  C5  UNL     1      17.468   3.402  14.900  1.00  0.00     0.034 C 
HETATM    6  C6  UNL     1      17.459   4.840  14.516  1.00  0.00     0.002 C 
HETATM    7  C7  UNL     1      16.018   1.485  14.176  1.00  0.00     0.169 C 
HETATM    8  N1  UNL     1      16.410   0.535  15.174  1.00  0.00    -0.123 NA
HETATM    9  N2  UNL     1      16.049   1.102  16.381  1.00  0.00    -0.250 N 
ATOM     10  H2  UNL     1      15.943   0.574  17.247  1.00  0.00     0.203 HD
HETATM   11  N3  UNL     1      15.867   2.338  16.292  1.00  0.00    -0.314 N 
ATOM     12  H3  UNL     1      15.594   2.947  17.063  1.00  0.00     0.182 HD
ENDROOT
TORSDOF 0
ENDMDL
MODEL 5
REMARK VINA RESULT: -4.819692913      1.763      3.347
REMARK  0 active torsions:
REMARK  status: ('A' for Active; 'I' for Inactive)
ROOT
HETATM    1  C1  UNL     1      13.954   1.228  17.156  1.00  0.00     0.000 C 
HETATM    2  C2  UNL     1      13.765   2.621  16.610  1.00  0.00     0.002 C 
HETATM    3  C3  UNL     1      15.081   3.334  16.415  1.00  0.00     0.034 C 
HETATM    4  C4  UNL     1      15.955   2.535  15.477  1.00  0.00     0.061 C 
HETATM    5  C5  UNL     1      16.173   1.128  15.976  1.00  0.00     0.034 C 
HETATM    6  C6  UNL     1      15.374   0.785  17.185  1.00  0.00     0.002 C 
HETATM    7  C7  UNL     1      17.236   3.283  15.251  1.00  0.00     0.169 C 
HETATM    8  N1  UNL     1      17.535   2.925  13.896  1.00  0.00    -0.123 NA
HETATM    9  N2  UNL     1      16.313   2.665  13.309  1.00  0.00    -0.250 N 
ATOM     10  H2  UNL     1      16.159   2.652  12.301  1.00  0.00     0.203 HD
HETATM   11  N3  UNL     1      15.414   2.446  14.154  1.00  0.00    -0.314 N 
ATOM     12  H3  UNL     1      14.441   2.234  13.932  1.00  0.00     0.182 HD
ENDROOT
TORSDOF 0
ENDMDL
