MODEL 1
REMARK VINA RESULT: -4.506773658      0.000      0.000
REMARK  1 active torsions:
REMARK  status: ('A' for Active; 'I' for Inactive)
REMARK    1  A    between atoms: O1_1  and  C1_3 
ROOT
HETATM    1  C1  UNL     1      14.761   1.360  16.934  1.00  0.00     0.190 C 
HETATM    2  C2  UNL     1      13.902   2.540  16.580  1.00  0.00     0.043 C 
HETATM    3  C3  UNL     1      14.700   3.790  16.299  1.00  0.00     0.004 C 
HETATM    4  C4  UNL     1      14.605   4.221  14.852  1.00  0.00     0.011 C 
HETATM    5  C5  UNL     1      15.855   3.871  14.083  1.00  0.00     0.086 C 
HETATM    6  S1  UNL     1      16.255   2.125  14.137  1.00  0.00    -0.095 SA
HETATM    7  S2  UNL     1      16.314   1.318  16.066  1.00  0.00    -0.066 SA
ENDROOT
BRANCH   1   8
HETATM    8  O1  UNL     1      14.005   0.209  16.800  1.00  0.00    -0.384 OA
ATOM      9  H1  UNL     1      14.486  -0.515  17.184  1.00  0.00     0.211 HD
ENDBRANCH   1   8
TORSDOF 1
ENDMDL
MODEL 2
REMARK VINA RESULT: -4.407361649      2.167      2.790
REMARK  1 active torsions:
REMARK  status: ('A' for Active; 'I' for Inactive)
REMARK    1  A    between atoms: O1_1  and  C1_3 
ROOT
HETATM    1  C1  UNL     1      16.090   0.796  15.823  1.00  0.00     0.190 C 
HETATM    2  C2  UNL     1      16.204   2.165  15.215  1.00  0.00     0.043 C 
HETATM    3  C3  UNL     1      14.871   2.861  15.073  1.00  0.00     0.004 C 
HETATM    4  C4  UNL     1      14.758   4.075  15.970  1.00  0.00     0.011 C 
HETATM    5  C5  UNL     1      13.900   3.795  17.180  1.00  0.00     0.086 C 
HETATM    6  S1  UNL     1      14.483   2.411  18.157  1.00  0.00    -0.095 SA
HETATM    7  S2  UNL     1      14.815   0.664  17.057  1.00  0.00    -0.066 SA
ENDROOT
BRANCH   1   8
HETATM    8  O1  UNL     1      17.344   0.402  16.258  1.00  0.00    -0.384 OA
ATOM      9  H1  UNL     1      17.289   0.189  17.182  1.00  0.00     0.211 HD
ENDBRANCH   1   8
TORSDOF 1
ENDMDL
MODEL 3
REMARK VINA RESULT: -4.386697096      1.932      2.602
REMARK  1 active torsions:
REMARK  status: ('A' for Active; 'I' for Inactive)
REMARK    1  A    between atoms: O1_1  and  C1_3 
ROOT
HETATM    1  C1  UNL     1      16.430   0.637  16.007  1.00  0.00     0.190 C 
HETATM    2  C2  UNL     1      15.224   0.457  16.883  1.00  0.00     0.043 C 
HETATM    3  C3  UNL     1      14.981   1.630  17.803  1.00  0.00     0.004 C 
HETATM    4  C4  UNL     1      13.710   2.376  17.463  1.00  0.00     0.011 C 
HETATM    5  C5  UNL     1      13.997   3.667  16.737  1.00  0.00     0.086 C 
HETATM    6  S1  UNL     1      14.948   3.438  15.235  1.00  0.00    -0.095 SA
HETATM    7  S2  UNL     1      16.696   2.318  15.489  1.00  0.00    -0.066 SA
ENDROOT
BRANCH   1   8
HETATM    8  O1  UNL     1      16.356  -0.273  14.965  1.00  0.00    -0.384 OA
ATOM      9  H1  UNL     1      15.868   0.123  14.253  1.00  0.00     0.211 HD
ENDBRANCH   1   8
TORSDOF 1
ENDMDL
MODEL 4
REMARK VINA RESULT: -4.130099355      5.671      6.678
REMARK  1 active torsions:
REMARK  status: ('A' for Active; 'I' for Inactive)
REMARK    1  A    between atoms: O1_1  and  C1_3 
ROOT
HETATM    1  C1  UNL     1      19.733   1.391  10.766  1.00  0.00     0.190 C 
HETATM    2  C2  UNL     1      18.856   0.199  10.511  1.00  0.00     0.043 C 
HETATM    3  C3  UNL     1      17.809  -0.004  11.580  1.00  0.00     0.004 C 
HETATM    4  C4  UNL     1      16.405   0.215  11.060  1.00  0.00     0.011 C 
HETATM    5  C5  UNL     1      15.851   1.549  11.497  1.00  0.00     0.086 C 
HETATM    6  S1  UNL     1      16.871   2.937  11.000  1.00  0.00    -0.095 SA
HETATM    7  S2  UNL     1      18.885   2.754  11.533  1.00  0.00    -0.066 SA
ENDROOT
BRANCH   1   8
HETATM    8  O1  UNL     1      20.384   1.718   9.589  1.00  0.00    -0.384 OA
ATOM      9  H1  UNL     1      21.308   1.838   9.778  1.00  0.00     0.211 HD
ENDBRANCH   1   8
TORSDOF 1
ENDMDL
MODEL 5
REMARK VINA RESULT: -4.121613067      2.567      3.719
REMARK  1 active torsions:
REMARK  status: ('A' for Active; 'I' for Inactive)
REMARK    1  A    between atoms: O1_1  and  C1_3 
ROOT
HETATM    1  C1  UNL     1      15.063   3.819  15.209  1.00  0.00     0.190 C 
HETATM    2  C2  UNL     1      16.020   2.730  14.817  1.00  0.00     0.043 C 
HETATM    3  C3  UNL     1      16.644   2.035  16.004  1.00  0.00     0.004 C 
HETATM    4  C4  UNL     1      16.203   0.593  16.124  1.00  0.00     0.011 C 
HETATM    5  C5  UNL     1      15.174   0.414  17.214  1.00  0.00     0.086 C 
HETATM    6  S1  UNL     1      13.722   1.441  16.993  1.00  0.00    -0.095 SA
HETATM    7  S2  UNL     1      14.145   3.467  16.691  1.00  0.00    -0.066 SA
ENDROOT
BRANCH   1   8
HETATM    8  O1  UNL     1      14.276   4.128  14.113  1.00  0.00    -0.384 OA
ATOM      9  H1  UNL     1      14.548   3.584  13.383  1.00  0.00     0.211 HD
ENDBRANCH   1   8
TORSDOF 1
ENDMDL
