MODEL 1
REMARK VINA RESULT: -5.770281604      0.000      0.000
REMARK  0 active torsions:
REMARK  status: ('A' for Active; 'I' for Inactive)
ROOT
HETATM    1  O1  UNL     1      16.966  -0.069  16.374  1.00  0.00    -0.260 OA
HETATM    2  C1  UNL     1      16.308   0.975  16.191  1.00  0.00     0.280 C 
HETATM    3  N1  UNL     1      16.401   1.926  15.106  1.00  0.00    -0.346 N 
ATOM      4  H1  UNL     1      16.686   1.713  14.150  1.00  0.00     0.163 HD
HETATM    5  C2  UNL     1      16.033   3.187  15.586  1.00  0.00     0.099 C 
HETATM    6  C3  UNL     1      15.757   4.290  14.653  1.00  0.00     0.026 C 
HETATM    7  C4  UNL     1      15.022   5.242  15.615  1.00  0.00     0.003 C 
HETATM    8  C5  UNL     1      14.333   4.324  16.641  1.00  0.00     0.018 C 
HETATM    9  C6  UNL     1      14.580   2.994  16.092  1.00  0.00     0.080 C 
HETATM   10  S1  UNL     1      14.989   1.668  17.240  1.00  0.00    -0.062 SA
ENDROOT
TORSDOF 0
ENDMDL
MODEL 2
REMARK VINA RESULT: -5.581314778      1.067      1.151
REMARK  0 active torsions:
REMARK  status: ('A' for Active; 'I' for Inactive)
ROOT
HETATM    1  O1  UNL     1      15.452  -0.381  17.513  1.00  0.00    -0.260 OA
HETATM    2  C1  UNL     1      15.343   0.687  16.879  1.00  0.00     0.280 C 
HETATM    3  N1  UNL     1      16.156   1.182  15.791  1.00  0.00    -0.346 N 
ATOM      4  H1  UNL     1      16.653   0.608  15.109  1.00  0.00     0.163 HD
HETATM    5  C2  UNL     1      16.149   2.580  15.829  1.00  0.00     0.099 C 
HETATM    6  C3  UNL     1      16.650   3.361  14.688  1.00  0.00     0.026 C 
HETATM    7  C4  UNL     1      16.044   4.730  15.047  1.00  0.00     0.003 C 
HETATM    8  C5  UNL     1      14.751   4.408  15.818  1.00  0.00     0.018 C 
HETATM    9  C6  UNL     1      14.652   2.957  15.679  1.00  0.00     0.080 C 
HETATM   10  S1  UNL     1      14.107   2.006  17.108  1.00  0.00    -0.062 SA
ENDROOT
TORSDOF 0
ENDMDL
MODEL 3
REMARK VINA RESULT: -5.413679212      1.659      2.142
REMARK  0 active torsions:
REMARK  status: ('A' for Active; 'I' for Inactive)
ROOT
HETATM    1  O1  UNL     1      14.996  -0.638  17.754  1.00  0.00    -0.260 OA
HETATM    2  C1  UNL     1      15.201   0.496  17.278  1.00  0.00     0.280 C 
HETATM    3  N1  UNL     1      14.676   1.771  17.710  1.00  0.00    -0.346 N 
ATOM      4  H1  UNL     1      14.414   2.014  18.666  1.00  0.00     0.163 HD
HETATM    5  C2  UNL     1      14.587   2.617  16.601  1.00  0.00     0.099 C 
HETATM    6  C3  UNL     1      14.357   4.058  16.777  1.00  0.00     0.026 C 
HETATM    7  C4  UNL     1      14.761   4.541  15.371  1.00  0.00     0.003 C 
HETATM    8  C5  UNL     1      15.822   3.535  14.889  1.00  0.00     0.018 C 
HETATM    9  C6  UNL     1      16.043   2.715  16.077  1.00  0.00     0.080 C 
HETATM   10  S1  UNL     1      16.249   0.940  15.853  1.00  0.00    -0.062 SA
ENDROOT
TORSDOF 0
ENDMDL
MODEL 4
REMARK VINA RESULT: -5.031243002      1.787      2.249
REMARK  0 active torsions:
REMARK  status: ('A' for Active; 'I' for Inactive)
ROOT
HETATM    1  O1  UNL     1      13.846   0.228  17.331  1.00  0.00    -0.260 OA
HETATM    2  C1  UNL     1      14.501   1.175  16.853  1.00  0.00     0.280 C 
HETATM    3  N1  UNL     1      14.225   2.592  16.917  1.00  0.00    -0.346 N 
ATOM      4  H1  UNL     1      13.727   3.068  17.670  1.00  0.00     0.163 HD
HETATM    5  C2  UNL     1      14.753   3.202  15.775  1.00  0.00     0.099 C 
HETATM    6  C3  UNL     1      14.876   4.665  15.699  1.00  0.00     0.026 C 
HETATM    7  C4  UNL     1      15.851   4.764  14.510  1.00  0.00     0.003 C 
HETATM    8  C5  UNL     1      16.699   3.480  14.578  1.00  0.00     0.018 C 
HETATM    9  C6  UNL     1      16.269   2.883  15.839  1.00  0.00     0.080 C 
HETATM   10  S1  UNL     1      16.051   1.097  15.898  1.00  0.00    -0.062 SA
ENDROOT
TORSDOF 0
ENDMDL
MODEL 5
REMARK VINA RESULT: -4.954326936      1.544      2.120
REMARK  0 active torsions:
REMARK  status: ('A' for Active; 'I' for Inactive)
ROOT
HETATM    1  O1  UNL     1      16.540  -0.618  15.337  1.00  0.00    -0.260 OA
HETATM    2  C1  UNL     1      16.200   0.528  15.692  1.00  0.00     0.280 C 
HETATM    3  N1  UNL     1      15.737   0.976  16.986  1.00  0.00    -0.346 N 
ATOM      4  H1  UNL     1      15.997   0.570  17.885  1.00  0.00     0.163 HD
HETATM    5  C2  UNL     1      14.873   2.060  16.800  1.00  0.00     0.099 C 
HETATM    6  C3  UNL     1      14.473   2.900  17.938  1.00  0.00     0.026 C 
HETATM    7  C4  UNL     1      13.924   4.113  17.163  1.00  0.00     0.003 C 
HETATM    8  C5  UNL     1      14.734   4.154  15.855  1.00  0.00     0.018 C 
HETATM    9  C6  UNL     1      15.742   3.120  16.073  1.00  0.00     0.080 C 
HETATM   10  S1  UNL     1      16.169   2.050  14.690  1.00  0.00    -0.062 SA
ENDROOT
TORSDOF 0
ENDMDL
