MODEL 1
REMARK VINA RESULT: -4.879666408      0.000      0.000
REMARK  3 active torsions:
REMARK  status: ('A' for Active; 'I' for Inactive)
REMARK    1  A    between atoms: O1_2  and  C2_3 
REMARK    2  A    between atoms: C2_3  and  S1_5 
REMARK    3  A    between atoms: S1_5  and  C3_6 
ROOT
HETATM    1  S1  UNL     1      15.894   2.422  16.130  1.00  0.00    -0.053 SA
ENDROOT
BRANCH   1   2
HETATM    2  C2  UNL     1      16.419   0.813  15.608  1.00  0.00     0.322 C 
HETATM    3  O2  UNL     1      16.921   0.047  16.492  1.00  0.00    -0.252 OA
BRANCH   2   4
HETATM    4  O1  UNL     1      16.309   0.355  14.292  1.00  0.00    -0.318 OA
HETATM    5  C1  UNL     1      16.494   1.328  13.267  1.00  0.00     0.214 C 
ENDBRANCH   2   4
ENDBRANCH   1   2
BRANCH   1   6
HETATM    6  C3  UNL     1      14.491   2.343  17.268  1.00  0.00     0.007 C 
HETATM    7  C4  UNL     1      13.851   3.696  17.383  1.00  0.00     0.026 C 
HETATM    8  C5  UNL     1      14.983   1.976  18.669  1.00  0.00     0.026 C 
HETATM    9  C6  UNL     1      13.575   1.258  16.815  1.00  0.00     0.026 C 
ENDBRANCH   1   6
TORSDOF 3
ENDMDL
MODEL 2
REMARK VINA RESULT: -4.860349875      1.766      3.552
REMARK  3 active torsions:
REMARK  status: ('A' for Active; 'I' for Inactive)
REMARK    1  A    between atoms: O1_2  and  C2_3 
REMARK    2  A    between atoms: C2_3  and  S1_5 
REMARK    3  A    between atoms: S1_5  and  C3_6 
ROOT
HETATM    1  S1  UNL     1      16.226   2.533  16.094  1.00  0.00    -0.053 SA
ENDROOT
BRANCH   1   2
HETATM    2  C2  UNL     1      15.946   0.805  16.366  1.00  0.00     0.322 C 
HETATM    3  O2  UNL     1      16.966   0.043  16.374  1.00  0.00    -0.252 OA
BRANCH   2   4
HETATM    4  O1  UNL     1      14.679   0.251  16.567  1.00  0.00    -0.318 OA
HETATM    5  C1  UNL     1      13.749   1.049  17.295  1.00  0.00     0.214 C 
ENDBRANCH   2   4
ENDBRANCH   1   2
BRANCH   1   6
HETATM    6  C3  UNL     1      16.046   2.985  14.353  1.00  0.00     0.007 C 
HETATM    7  C4  UNL     1      16.214   1.768  13.490  1.00  0.00     0.026 C 
HETATM    8  C5  UNL     1      17.159   3.956  13.954  1.00  0.00     0.026 C 
HETATM    9  C6  UNL     1      14.746   3.696  14.180  1.00  0.00     0.026 C 
ENDBRANCH   1   6
TORSDOF 3
ENDMDL
MODEL 3
REMARK VINA RESULT: -4.775057494      1.750      3.526
REMARK  3 active torsions:
REMARK  status: ('A' for Active; 'I' for Inactive)
REMARK    1  A    between atoms: O1_2  and  C2_3 
REMARK    2  A    between atoms: C2_3  and  S1_5 
REMARK    3  A    between atoms: S1_5  and  C3_6 
ROOT
HETATM    1  S1  UNL     1      16.212   2.565  16.113  1.00  0.00    -0.053 SA
ENDROOT
BRANCH   1   2
HETATM    2  C2  UNL     1      15.952   0.831  16.368  1.00  0.00     0.322 C 
HETATM    3  O2  UNL     1      16.981   0.081  16.378  1.00  0.00    -0.252 OA
BRANCH   2   4
HETATM    4  O1  UNL     1      14.690   0.260  16.556  1.00  0.00    -0.318 OA
HETATM    5  C1  UNL     1      13.741   1.047  17.271  1.00  0.00     0.214 C 
ENDBRANCH   2   4
ENDBRANCH   1   2
BRANCH   1   6
HETATM    6  C3  UNL     1      16.091   3.020  14.367  1.00  0.00     0.007 C 
HETATM    7  C4  UNL     1      14.752   3.641  14.094  1.00  0.00     0.026 C 
HETATM    8  C5  UNL     1      16.170   1.763  13.499  1.00  0.00     0.026 C 
HETATM    9  C6  UNL     1      17.259   3.880  14.020  1.00  0.00     0.026 C 
ENDBRANCH   1   6
TORSDOF 3
ENDMDL
MODEL 4
REMARK VINA RESULT: -4.370109956      1.119      1.437
REMARK  3 active torsions:
REMARK  status: ('A' for Active; 'I' for Inactive)
REMARK    1  A    between atoms: O1_2  and  C2_3 
REMARK    2  A    between atoms: C2_3  and  S1_5 
REMARK    3  A    between atoms: S1_5  and  C3_6 
ROOT
HETATM    1  S1  UNL     1      16.076   1.662  16.553  1.00  0.00    -0.053 SA
ENDROOT
BRANCH   1   2
HETATM    2  C2  UNL     1      16.012   1.774  14.786  1.00  0.00     0.322 C 
HETATM    3  O2  UNL     1      15.544   2.847  14.286  1.00  0.00    -0.252 OA
BRANCH   2   4
HETATM    4  O1  UNL     1      16.445   0.755  13.932  1.00  0.00    -0.318 OA
HETATM    5  C1  UNL     1      16.560   1.094  12.553  1.00  0.00     0.214 C 
ENDBRANCH   2   4
ENDBRANCH   1   2
BRANCH   1   6
HETATM    6  C3  UNL     1      14.512   2.143  17.321  1.00  0.00     0.007 C 
HETATM    7  C4  UNL     1      14.172   3.556  16.944  1.00  0.00     0.026 C 
HETATM    8  C5  UNL     1      14.658   2.126  18.844  1.00  0.00     0.026 C 
HETATM    9  C6  UNL     1      13.476   1.135  16.957  1.00  0.00     0.026 C 
ENDBRANCH   1   6
TORSDOF 3
ENDMDL
MODEL 5
REMARK VINA RESULT: -4.307227727      1.399      1.623
REMARK  3 active torsions:
REMARK  status: ('A' for Active; 'I' for Inactive)
REMARK    1  A    between atoms: O1_2  and  C2_3 
REMARK    2  A    between atoms: C2_3  and  S1_5 
REMARK    3  A    between atoms: S1_5  and  C3_6 
ROOT
HETATM    1  S1  UNL     1      16.094   1.654  16.563  1.00  0.00    -0.053 SA
ENDROOT
BRANCH   1   2
HETATM    2  C2  UNL     1      16.037   1.751  14.795  1.00  0.00     0.322 C 
HETATM    3  O2  UNL     1      16.391   0.717  14.142  1.00  0.00    -0.252 OA
BRANCH   2   4
HETATM    4  O1  UNL     1      15.627   2.891  14.098  1.00  0.00    -0.318 OA
HETATM    5  C1  UNL     1      16.576   3.951  14.006  1.00  0.00     0.214 C 
ENDBRANCH   2   4
ENDBRANCH   1   2
BRANCH   1   6
HETATM    6  C3  UNL     1      14.524   2.133  17.321  1.00  0.00     0.007 C 
HETATM    7  C4  UNL     1      14.180   3.542  16.933  1.00  0.00     0.026 C 
HETATM    8  C5  UNL     1      14.662   2.126  18.844  1.00  0.00     0.026 C 
HETATM    9  C6  UNL     1      13.493   1.118  16.958  1.00  0.00     0.026 C 
ENDBRANCH   1   6
TORSDOF 3
ENDMDL
