MODEL 1
REMARK VINA RESULT: -5.244201162      0.000      0.000
REMARK  3 active torsions:
REMARK  status: ('A' for Active; 'I' for Inactive)
REMARK    1  A    between atoms: C1_4  and  O1_5 
REMARK    2  A    between atoms: C1_4  and  S1_7 
REMARK    3  A    between atoms: S1_7  and  C2_8 
ROOT
HETATM    1  C2  UNL     1      15.661   3.335  15.652  1.00  0.00     0.050 C 
HETATM    2  N2  UNL     1      16.638   3.007  14.901  1.00  0.00    -0.388 N 
ATOM      3  H2  UNL     1      16.994   2.056  14.984  1.00  0.00     0.159 HD
HETATM    4  C3  UNL     1      17.271   3.861  13.960  1.00  0.00     0.120 C 
HETATM    5  C4  UNL     1      16.396   4.934  13.406  1.00  0.00     0.020 C 
HETATM    6  C5  UNL     1      15.039   5.009  14.026  1.00  0.00     0.008 C 
HETATM    7  C6  UNL     1      15.143   4.723  15.528  1.00  0.00     0.065 C 
ENDROOT
BRANCH   1   8
HETATM    8  S1  UNL     1      14.888   2.252  16.819  1.00  0.00    -0.034 SA
BRANCH   8   9
HETATM    9  C1  UNL     1      15.735   0.714  17.013  1.00  0.00     0.179 C 
HETATM   10  N1  UNL     1      15.199  -0.222  17.702  1.00  0.00    -0.374 N 
ATOM     11  H12 UNL     1      15.688  -1.110  17.814  1.00  0.00     0.158 HD
ATOM     12  H11 UNL     1      14.286  -0.046  18.122  1.00  0.00     0.158 HD
BRANCH   9  13
HETATM   13  O1  UNL     1      16.971   0.476  16.444  1.00  0.00    -0.341 OA
ATOM     14  H1  UNL     1      17.225   1.000  15.693  1.00  0.00     0.220 HD
ENDBRANCH   9  13
ENDBRANCH   8   9
ENDBRANCH   1   8
TORSDOF 3
ENDMDL
MODEL 2
REMARK VINA RESULT: -4.985869454      3.001      4.168
REMARK  3 active torsions:
REMARK  status: ('A' for Active; 'I' for Inactive)
REMARK    1  A    between atoms: C1_4  and  O1_5 
REMARK    2  A    between atoms: C1_4  and  S1_7 
REMARK    3  A    between atoms: S1_7  and  C2_8 
ROOT
HETATM    1  C2  UNL     1      15.720   3.027  15.100  1.00  0.00     0.050 C 
HETATM    2  N2  UNL     1      14.712   3.662  15.554  1.00  0.00    -0.388 N 
ATOM      3  H2  UNL     1      14.239   4.304  14.920  1.00  0.00     0.159 HD
HETATM    4  C3  UNL     1      14.195   3.546  16.871  1.00  0.00     0.120 C 
HETATM    5  C4  UNL     1      14.443   2.228  17.524  1.00  0.00     0.020 C 
HETATM    6  C5  UNL     1      15.301   1.296  16.732  1.00  0.00     0.008 C 
HETATM    7  C6  UNL     1      16.408   2.089  16.027  1.00  0.00     0.065 C 
ENDROOT
BRANCH   1   8
HETATM    8  S1  UNL     1      16.347   3.188  13.452  1.00  0.00    -0.034 SA
BRANCH   8   9
HETATM    9  C1  UNL     1      16.167   1.718  12.490  1.00  0.00     0.179 C 
HETATM   10  N1  UNL     1      16.772   0.648  12.849  1.00  0.00    -0.374 N 
ATOM     11  H12 UNL     1      16.669  -0.201  12.293  1.00  0.00     0.158 HD
ATOM     12  H11 UNL     1      17.345   0.681  13.692  1.00  0.00     0.158 HD
BRANCH   9  13
HETATM   13  O1  UNL     1      15.391   1.673  11.349  1.00  0.00    -0.341 OA
ATOM     14  H1  UNL     1      15.152   0.820  11.004  1.00  0.00     0.220 HD
ENDBRANCH   9  13
ENDBRANCH   8   9
ENDBRANCH   1   8
TORSDOF 3
ENDMDL
MODEL 3
REMARK VINA RESULT: -4.979274561      2.868      3.812
REMARK  3 active torsions:
REMARK  status: ('A' for Active; 'I' for Inactive)
REMARK    1  A    between atoms: C1_4  and  O1_5 
REMARK    2  A    between atoms: C1_4  and  S1_7 
REMARK    3  A    between atoms: S1_7  and  C2_8 
ROOT
HETATM    1  C2  UNL     1      15.557   3.162  14.464  1.00  0.00     0.050 C 
HETATM    2  N2  UNL     1      15.490   2.371  15.461  1.00  0.00    -0.388 N 
ATOM      3  H2  UNL     1      16.099   1.553  15.452  1.00  0.00     0.159 HD
HETATM    4  C3  UNL     1      14.637   2.536  16.584  1.00  0.00     0.120 C 
HETATM    5  C4  UNL     1      14.278   3.951  16.889  1.00  0.00     0.020 C 
HETATM    6  C5  UNL     1      14.773   4.946  15.890  1.00  0.00     0.008 C 
HETATM    7  C6  UNL     1      14.668   4.354  14.480  1.00  0.00     0.065 C 
ENDROOT
BRANCH   1   8
HETATM    8  S1  UNL     1      16.629   2.934  13.074  1.00  0.00    -0.034 SA
BRANCH   8   9
HETATM    9  C1  UNL     1      16.303   1.449  12.176  1.00  0.00     0.179 C 
HETATM   10  N1  UNL     1      16.894   0.364  12.510  1.00  0.00    -0.374 N 
ATOM     11  H12 UNL     1      16.705  -0.494  11.991  1.00  0.00     0.158 HD
ATOM     12  H11 UNL     1      17.543   0.394  13.296  1.00  0.00     0.158 HD
BRANCH   9  13
HETATM   13  O1  UNL     1      15.423   1.409  11.112  1.00  0.00    -0.341 OA
ATOM     14  H1  UNL     1      15.127   2.234  10.745  1.00  0.00     0.220 HD
ENDBRANCH   9  13
ENDBRANCH   8   9
ENDBRANCH   1   8
TORSDOF 3
ENDMDL
MODEL 4
REMARK VINA RESULT: -4.884881043      2.839      4.197
REMARK  3 active torsions:
REMARK  status: ('A' for Active; 'I' for Inactive)
REMARK    1  A    between atoms: C1_4  and  O1_5 
REMARK    2  A    between atoms: C1_4  and  S1_7 
REMARK    3  A    between atoms: S1_7  and  C2_8 
ROOT
HETATM    1  C2  UNL     1      15.480   2.217  15.526  1.00  0.00     0.050 C 
HETATM    2  N2  UNL     1      15.810   1.140  16.122  1.00  0.00    -0.388 N 
ATOM      3  H2  UNL     1      16.584   0.606  15.729  1.00  0.00     0.159 HD
HETATM    4  C3  UNL     1      15.188   0.624  17.289  1.00  0.00     0.120 C 
HETATM    5  C4  UNL     1      14.565   1.654  18.169  1.00  0.00     0.020 C 
HETATM    6  C5  UNL     1      14.591   3.041  17.615  1.00  0.00     0.008 C 
HETATM    7  C6  UNL     1      14.351   2.995  16.102  1.00  0.00     0.065 C 
ENDROOT
BRANCH   1   8
HETATM    8  S1  UNL     1      16.272   2.840  14.071  1.00  0.00    -0.034 SA
BRANCH   8   9
HETATM    9  C1  UNL     1      16.244   1.704  12.719  1.00  0.00     0.179 C 
HETATM   10  N1  UNL     1      16.972   0.652  12.761  1.00  0.00    -0.374 N 
ATOM     11  H12 UNL     1      16.957  -0.005  11.981  1.00  0.00     0.158 HD
ATOM     12  H11 UNL     1      17.553   0.503  13.587  1.00  0.00     0.158 HD
BRANCH   9  13
HETATM   13  O1  UNL     1      15.458   1.905  11.601  1.00  0.00    -0.341 OA
ATOM     14  H1  UNL     1      14.559   2.182  11.732  1.00  0.00     0.220 HD
ENDBRANCH   9  13
ENDBRANCH   8   9
ENDBRANCH   1   8
TORSDOF 3
ENDMDL
MODEL 5
REMARK VINA RESULT: -4.850359040      1.526      1.526
REMARK  3 active torsions:
REMARK  status: ('A' for Active; 'I' for Inactive)
REMARK    1  A    between atoms: C1_4  and  O1_5 
REMARK    2  A    between atoms: C1_4  and  S1_7 
REMARK    3  A    between atoms: S1_7  and  C2_8 
ROOT
HETATM    1  C2  UNL     1      16.171   2.949  15.434  1.00  0.00     0.050 C 
HETATM    2  N2  UNL     1      17.045   3.263  14.560  1.00  0.00    -0.388 N 
ATOM      3  H2  UNL     1      17.772   2.578  14.358  1.00  0.00     0.159 HD
HETATM    4  C3  UNL     1      17.087   4.490  13.847  1.00  0.00     0.120 C 
HETATM    5  C4  UNL     1      15.763   5.149  13.664  1.00  0.00     0.020 C 
HETATM    6  C5  UNL     1      14.631   4.474  14.369  1.00  0.00     0.008 C 
HETATM    7  C6  UNL     1      15.111   3.950  15.727  1.00  0.00     0.065 C 
ENDROOT
BRANCH   1   8
HETATM    8  S1  UNL     1      16.140   1.412  16.311  1.00  0.00    -0.034 SA
BRANCH   8   9
HETATM    9  C1  UNL     1      14.700   1.209  17.314  1.00  0.00     0.179 C 
HETATM   10  N1  UNL     1      14.605   1.845  18.421  1.00  0.00    -0.374 N 
ATOM     11  H12 UNL     1      13.774   1.728  19.001  1.00  0.00     0.158 HD
ATOM     12  H11 UNL     1      15.375   2.456  18.691  1.00  0.00     0.158 HD
BRANCH   9  13
HETATM   13  O1  UNL     1      13.657   0.382  16.949  1.00  0.00    -0.341 OA
ATOM     14  H1  UNL     1      12.772   0.723  17.014  1.00  0.00     0.220 HD
ENDBRANCH   9  13
ENDBRANCH   8   9
ENDBRANCH   1   8
TORSDOF 3
ENDMDL
