MODEL 1
REMARK VINA RESULT: -4.343742763      0.000      0.000
REMARK  0 active torsions:
REMARK  status: ('A' for Active; 'I' for Inactive)
ROOT
HETATM    1  C1  UNL     1      13.485   1.111  17.049  1.00  0.00     0.050 C 
HETATM    2  C2  UNL     1      14.619   2.059  17.428  1.00  0.00     0.067 C 
HETATM    3  C3  UNL     1      14.700   2.053  18.934  1.00  0.00     0.050 C 
HETATM    4  N1  UNL     1      15.872   1.656  16.890  1.00  0.00    -0.405 N 
ATOM      5  H1  UNL     1      16.641   1.345  17.483  1.00  0.00     0.154 HD
HETATM    6  C4  UNL     1      15.983   1.716  15.473  1.00  0.00     0.116 C 
HETATM    7  C5  UNL     1      16.068   3.111  14.914  1.00  0.00     0.029 C 
HETATM    8  C6  UNL     1      14.892   3.966  15.231  1.00  0.00     0.078 C 
HETATM    9  S1  UNL     1      14.258   3.749  16.902  1.00  0.00    -0.139 SA
ENDROOT
TORSDOF 0
ENDMDL
MODEL 2
REMARK VINA RESULT: -4.089520662      1.499      2.254
REMARK  0 active torsions:
REMARK  status: ('A' for Active; 'I' for Inactive)
ROOT
HETATM    1  C1  UNL     1      14.859   2.248  18.664  1.00  0.00     0.050 C 
HETATM    2  C2  UNL     1      14.428   1.968  17.227  1.00  0.00     0.067 C 
HETATM    3  C3  UNL     1      13.495   0.784  17.279  1.00  0.00     0.050 C 
HETATM    4  N1  UNL     1      13.754   3.070  16.633  1.00  0.00    -0.405 N 
ATOM      5  H1  UNL     1      12.768   3.029  16.378  1.00  0.00     0.154 HD
HETATM    6  C4  UNL     1      14.544   4.234  16.417  1.00  0.00     0.116 C 
HETATM    7  C5  UNL     1      15.548   4.106  15.303  1.00  0.00     0.029 C 
HETATM    8  C6  UNL     1      16.540   3.014  15.499  1.00  0.00     0.078 C 
HETATM    9  S1  UNL     1      15.844   1.510  16.202  1.00  0.00    -0.139 SA
ENDROOT
TORSDOF 0
ENDMDL
MODEL 3
REMARK VINA RESULT: -3.737203637      1.682      3.272
REMARK  0 active torsions:
REMARK  status: ('A' for Active; 'I' for Inactive)
ROOT
HETATM    1  C1  UNL     1      14.262   3.614  14.280  1.00  0.00     0.050 C 
HETATM    2  C2  UNL     1      15.081   3.814  15.552  1.00  0.00     0.067 C 
HETATM    3  C3  UNL     1      15.568   5.241  15.531  1.00  0.00     0.050 C 
HETATM    4  N1  UNL     1      14.321   3.595  16.733  1.00  0.00    -0.405 N 
ATOM      5  H1  UNL     1      14.104   4.348  17.385  1.00  0.00     0.154 HD
HETATM    6  C4  UNL     1      13.882   2.258  16.946  1.00  0.00     0.116 C 
HETATM    7  C5  UNL     1      14.974   1.301  17.341  1.00  0.00     0.029 C 
HETATM    8  C6  UNL     1      16.068   1.178  16.339  1.00  0.00     0.078 C 
HETATM    9  S1  UNL     1      16.532   2.737  15.567  1.00  0.00    -0.139 SA
ENDROOT
TORSDOF 0
ENDMDL
MODEL 4
REMARK VINA RESULT: -3.707885109      5.490      6.553
REMARK  0 active torsions:
REMARK  status: ('A' for Active; 'I' for Inactive)
ROOT
HETATM    1  C1  UNL     1      17.821   3.403  10.576  1.00  0.00     0.050 C 
HETATM    2  C2  UNL     1      18.389   2.554  11.710  1.00  0.00     0.067 C 
HETATM    3  C3  UNL     1      19.425   3.401  12.405  1.00  0.00     0.050 C 
HETATM    4  N1  UNL     1      17.398   2.161  12.649  1.00  0.00    -0.405 N 
ATOM      5  H1  UNL     1      17.398   2.500  13.611  1.00  0.00     0.154 HD
HETATM    6  C4  UNL     1      16.405   1.265  12.162  1.00  0.00     0.116 C 
HETATM    7  C5  UNL     1      16.895  -0.138  11.928  1.00  0.00     0.029 C 
HETATM    8  C6  UNL     1      18.005  -0.239  10.940  1.00  0.00     0.078 C 
HETATM    9  S1  UNL     1      19.219   1.084  11.067  1.00  0.00    -0.139 SA
ENDROOT
TORSDOF 0
ENDMDL
MODEL 5
REMARK VINA RESULT: -3.638207791      1.774      3.711
REMARK  0 active torsions:
REMARK  status: ('A' for Active; 'I' for Inactive)
ROOT
HETATM    1  C1  UNL     1      17.605   3.711  14.035  1.00  0.00     0.050 C 
HETATM    2  C2  UNL     1      16.312   2.905  13.942  1.00  0.00     0.067 C 
HETATM    3  C3  UNL     1      16.195   2.443  12.510  1.00  0.00     0.050 C 
HETATM    4  N1  UNL     1      16.308   1.773  14.801  1.00  0.00    -0.405 N 
ATOM      5  H1  UNL     1      16.308   0.819  14.441  1.00  0.00     0.154 HD
HETATM    6  C4  UNL     1      16.305   2.056  16.195  1.00  0.00     0.116 C 
HETATM    7  C5  UNL     1      15.000   2.594  16.718  1.00  0.00     0.029 C 
HETATM    8  C6  UNL     1      14.566   3.866  16.079  1.00  0.00     0.078 C 
HETATM    9  S1  UNL     1      14.875   3.938  14.307  1.00  0.00    -0.139 SA
ENDROOT
TORSDOF 0
ENDMDL
