MODEL 1
REMARK VINA RESULT: -4.879260506      0.000      0.000
REMARK  2 active torsions:
REMARK  status: ('A' for Active; 'I' for Inactive)
REMARK    1  A    between atoms: O1_1  and  N1_3 
REMARK    2  A    between atoms: C1_5  and  C2_6 
ROOT
HETATM    1  C2  UNL     1      15.653   2.310  15.646  1.00  0.00     0.027 C 
HETATM    2  C3  UNL     1      14.760   3.111  16.500  1.00  0.00     0.020 C 
HETATM    3  C4  UNL     1      14.517   4.511  16.079  1.00  0.00     0.074 C 
HETATM    4  S1  UNL     1      14.730   4.711  14.272  1.00  0.00    -0.169 SA
HETATM    5  C5  UNL     1      16.374   3.983  13.913  1.00  0.00     0.074 C 
HETATM    6  C6  UNL     1      16.778   3.043  14.995  1.00  0.00     0.020 C 
ENDROOT
BRANCH   1   7
HETATM    7  C1  UNL     1      16.264   1.236  16.479  1.00  0.00     0.091 C 
HETATM    8  N1  UNL     1      16.562   0.079  16.056  1.00  0.00    -0.284 N 
ATOM      9  H1  UNL     1      16.979  -0.608  16.684  1.00  0.00     0.192 HD
BRANCH   8  10
HETATM   10  O1  UNL     1      16.319  -0.240  14.750  1.00  0.00    -0.291 OA
ATOM     11  H1  UNL     1      15.425  -0.243  14.430  1.00  0.00     0.244 HD
ENDBRANCH   8  10
ENDBRANCH   1   7
TORSDOF 2
ENDMDL
MODEL 2
REMARK VINA RESULT: -4.830258118      1.627      1.811
REMARK  2 active torsions:
REMARK  status: ('A' for Active; 'I' for Inactive)
REMARK    1  A    between atoms: O1_1  and  N1_3 
REMARK    2  A    between atoms: C1_5  and  C2_6 
ROOT
HETATM    1  C2  UNL     1      14.863   2.849  16.383  1.00  0.00     0.027 C 
HETATM    2  C3  UNL     1      14.447   4.249  16.570  1.00  0.00     0.020 C 
HETATM    3  C4  UNL     1      14.954   5.231  15.581  1.00  0.00     0.074 C 
HETATM    4  S1  UNL     1      15.327   4.431  13.978  1.00  0.00    -0.169 SA
HETATM    5  C5  UNL     1      16.404   3.010  14.404  1.00  0.00     0.074 C 
HETATM    6  C6  UNL     1      16.234   2.634  15.834  1.00  0.00     0.020 C 
ENDROOT
BRANCH   1   7
HETATM    7  C1  UNL     1      14.815   2.163  17.705  1.00  0.00     0.091 C 
HETATM    8  N1  UNL     1      14.433   0.968  17.883  1.00  0.00    -0.284 N 
ATOM      9  H1  UNL     1      14.428   0.562  18.819  1.00  0.00     0.192 HD
BRANCH   8  10
HETATM   10  O1  UNL     1      14.028   0.227  16.808  1.00  0.00    -0.291 OA
ATOM     11  H1  UNL     1      13.139   0.318  16.490  1.00  0.00     0.244 HD
ENDBRANCH   8  10
ENDBRANCH   1   7
TORSDOF 2
ENDMDL
MODEL 3
REMARK VINA RESULT: -4.665971357      1.191      2.050
REMARK  2 active torsions:
REMARK  status: ('A' for Active; 'I' for Inactive)
REMARK    1  A    between atoms: O1_1  and  N1_3 
REMARK    2  A    between atoms: C1_5  and  C2_6 
ROOT
HETATM    1  C2  UNL     1      15.660   2.648  15.885  1.00  0.00     0.027 C 
HETATM    2  C3  UNL     1      16.001   2.313  14.492  1.00  0.00     0.020 C 
HETATM    3  C4  UNL     1      15.987   3.430  13.518  1.00  0.00     0.074 C 
HETATM    4  S1  UNL     1      16.300   5.035  14.338  1.00  0.00    -0.169 SA
HETATM    5  C5  UNL     1      15.101   5.093  15.724  1.00  0.00     0.074 C 
HETATM    6  C6  UNL     1      14.642   3.721  16.077  1.00  0.00     0.020 C 
ENDROOT
BRANCH   1   7
HETATM    7  C1  UNL     1      15.126   1.424  16.546  1.00  0.00     0.091 C 
HETATM    8  N1  UNL     1      15.813   0.393  16.816  1.00  0.00    -0.284 N 
ATOM      9  H1  UNL     1      15.379  -0.410  17.272  1.00  0.00     0.192 HD
BRANCH   8  10
HETATM   10  O1  UNL     1      17.139   0.368  16.490  1.00  0.00    -0.291 OA
ATOM     11  H1  UNL     1      17.753  -0.065  17.071  1.00  0.00     0.244 HD
ENDBRANCH   8  10
ENDBRANCH   1   7
TORSDOF 2
ENDMDL
MODEL 4
REMARK VINA RESULT: -4.163480421      5.240      5.788
REMARK  2 active torsions:
REMARK  status: ('A' for Active; 'I' for Inactive)
REMARK    1  A    between atoms: O1_1  and  N1_3 
REMARK    2  A    between atoms: C1_5  and  C2_6 
ROOT
HETATM    1  C2  UNL     1      18.833   2.272  11.713  1.00  0.00     0.027 C 
HETATM    2  C3  UNL     1      17.494   2.782  11.374  1.00  0.00     0.020 C 
HETATM    3  C4  UNL     1      16.516   1.792  10.863  1.00  0.00     0.074 C 
HETATM    4  S1  UNL     1      16.898   0.106  11.462  1.00  0.00    -0.169 SA
HETATM    5  C5  UNL     1      18.666  -0.146  11.050  1.00  0.00     0.074 C 
HETATM    6  C6  UNL     1      19.352   1.161  10.863  1.00  0.00     0.020 C 
ENDROOT
BRANCH   1   7
HETATM    7  C1  UNL     1      19.807   3.395  11.597  1.00  0.00     0.091 C 
HETATM    8  N1  UNL     1      20.264   4.055  12.578  1.00  0.00    -0.284 N 
ATOM      9  H1  UNL     1      20.931   4.812  12.424  1.00  0.00     0.192 HD
BRANCH   8  10
HETATM   10  O1  UNL     1      19.856   3.743  13.844  1.00  0.00    -0.291 OA
ATOM     11  H1  UNL     1      20.296   4.140  14.586  1.00  0.00     0.244 HD
ENDBRANCH   8  10
ENDBRANCH   1   7
TORSDOF 2
ENDMDL
MODEL 5
REMARK VINA RESULT: -4.137025187      2.500      3.373
REMARK  2 active torsions:
REMARK  status: ('A' for Active; 'I' for Inactive)
REMARK    1  A    between atoms: O1_1  and  N1_3 
REMARK    2  A    between atoms: C1_5  and  C2_6 
ROOT
HETATM    1  C2  UNL     1      15.550   2.441  15.100  1.00  0.00     0.027 C 
HETATM    2  C3  UNL     1      16.123   1.187  15.617  1.00  0.00     0.020 C 
HETATM    3  C4  UNL     1      15.639   0.733  16.944  1.00  0.00     0.074 C 
HETATM    4  S1  UNL     1      13.958   1.364  17.293  1.00  0.00    -0.169 SA
HETATM    5  C5  UNL     1      14.065   3.170  16.993  1.00  0.00     0.074 C 
HETATM    6  C6  UNL     1      15.224   3.487  16.114  1.00  0.00     0.020 C 
ENDROOT
BRANCH   1   7
HETATM    7  C1  UNL     1      16.526   3.049  14.152  1.00  0.00     0.091 C 
HETATM    8  N1  UNL     1      16.484   2.918  12.892  1.00  0.00    -0.284 N 
ATOM      9  H1  UNL     1      17.187   3.365  12.304  1.00  0.00     0.192 HD
BRANCH   8  10
HETATM   10  O1  UNL     1      15.487   2.172  12.330  1.00  0.00    -0.291 OA
ATOM     11  H1  UNL     1      15.382   2.170  11.386  1.00  0.00     0.244 HD
ENDBRANCH   8  10
ENDBRANCH   1   7
TORSDOF 2
ENDMDL
