MODEL 1
REMARK VINA RESULT: -3.359123604      0.000      0.000
REMARK  0 active torsions:
REMARK  status: ('A' for Active; 'I' for Inactive)
ROOT
HETATM    1  S1  UNL     1      20.172   3.078  11.577  1.00  0.00    -0.081 SA
HETATM    2  C1  UNL     1      18.974   2.035  10.657  1.00  0.00     0.121 C 
HETATM    3  C2  UNL     1      19.324   0.606  10.996  1.00  0.00     0.037 C 
HETATM    4  C3  UNL     1      18.216  -0.333  10.556  1.00  0.00     0.076 C 
HETATM    5  S2  UNL     1      17.030  -0.348  11.956  1.00  0.00    -0.159 SA
HETATM    6  C4  UNL     1      16.404   1.350  12.072  1.00  0.00     0.148 C 
HETATM    7  S3  UNL     1      17.333   2.519  11.115  1.00  0.00    -0.143 SA
ENDROOT
TORSDOF 0
ENDMDL
MODEL 2
REMARK VINA RESULT: -3.193863101      1.282      2.566
REMARK  0 active torsions:
REMARK  status: ('A' for Active; 'I' for Inactive)
ROOT
HETATM    1  S1  UNL     1      17.146   4.121  10.831  1.00  0.00    -0.081 SA
HETATM    2  C1  UNL     1      17.501   2.661  11.885  1.00  0.00     0.121 C 
HETATM    3  C2  UNL     1      16.446   1.637  11.541  1.00  0.00     0.037 C 
HETATM    4  C3  UNL     1      16.818   0.278  12.106  1.00  0.00     0.076 C 
HETATM    5  S2  UNL     1      17.896  -0.482  10.831  1.00  0.00    -0.159 SA
HETATM    6  C4  UNL     1      19.360   0.583  10.744  1.00  0.00     0.148 C 
HETATM    7  S3  UNL     1      19.164   2.134  11.581  1.00  0.00    -0.143 SA
ENDROOT
TORSDOF 0
ENDMDL
MODEL 3
REMARK VINA RESULT: -3.190031453      1.618      3.292
REMARK  0 active torsions:
REMARK  status: ('A' for Active; 'I' for Inactive)
ROOT
HETATM    1  S1  UNL     1      18.204  -1.961  11.275  1.00  0.00    -0.081 SA
HETATM    2  C1  UNL     1      17.814  -0.331  10.528  1.00  0.00     0.121 C 
HETATM    3  C2  UNL     1      16.633   0.206  11.301  1.00  0.00     0.037 C 
HETATM    4  C3  UNL     1      16.418   1.677  10.993  1.00  0.00     0.076 C 
HETATM    5  S2  UNL     1      17.519   2.567  12.160  1.00  0.00    -0.159 SA
HETATM    6  C4  UNL     1      19.202   2.070  11.705  1.00  0.00     0.148 C 
HETATM    7  S3  UNL     1      19.262   0.686  10.598  1.00  0.00    -0.143 SA
ENDROOT
TORSDOF 0
ENDMDL
MODEL 4
REMARK VINA RESULT: -3.090591069      1.306      3.231
REMARK  0 active torsions:
REMARK  status: ('A' for Active; 'I' for Inactive)
ROOT
HETATM    1  S1  UNL     1      16.677  -0.120  10.725  1.00  0.00    -0.081 SA
HETATM    2  C1  UNL     1      17.700   1.134  11.590  1.00  0.00     0.121 C 
HETATM    3  C2  UNL     1      19.120   0.895  11.135  1.00  0.00     0.037 C 
HETATM    4  C3  UNL     1      20.009   2.061  11.527  1.00  0.00     0.076 C 
HETATM    5  S2  UNL     1      19.831   3.269  10.158  1.00  0.00    -0.159 SA
HETATM    6  C4  UNL     1      18.090   3.771  10.186  1.00  0.00     0.148 C 
HETATM    7  S3  UNL     1      17.067   2.743  11.207  1.00  0.00    -0.143 SA
ENDROOT
TORSDOF 0
ENDMDL
MODEL 5
REMARK VINA RESULT: -3.073338528      1.470      2.402
REMARK  0 active torsions:
REMARK  status: ('A' for Active; 'I' for Inactive)
ROOT
HETATM    1  S1  UNL     1      18.814   3.986  10.023  1.00  0.00    -0.081 SA
HETATM    2  C1  UNL     1      18.265   2.785  11.298  1.00  0.00     0.121 C 
HETATM    3  C2  UNL     1      16.793   2.560  11.048  1.00  0.00     0.037 C 
HETATM    4  C3  UNL     1      16.298   1.355  11.826  1.00  0.00     0.076 C 
HETATM    5  S2  UNL     1      16.648  -0.082  10.740  1.00  0.00    -0.159 SA
HETATM    6  C4  UNL     1      18.453  -0.135  10.584  1.00  0.00     0.148 C 
HETATM    7  S3  UNL     1      19.264   1.328  11.172  1.00  0.00    -0.143 SA
ENDROOT
TORSDOF 0
ENDMDL
