MODEL 1
REMARK VINA RESULT: -5.473307743      0.000      0.000
REMARK  0 active torsions:
REMARK  status: ('A' for Active; 'I' for Inactive)
ROOT
HETATM    1  N1  UNL     1      17.389   1.973  13.111  1.00  0.00    -0.384 N 
ATOM      2  H11 UNL     1      17.970   1.137  13.185  1.00  0.00     0.157 HD
ATOM      3  H12 UNL     1      17.622   2.665  12.400  1.00  0.00     0.157 HD
HETATM    4  C1  UNL     1      16.422   2.059  13.933  1.00  0.00     0.111 C 
HETATM    5  C2  UNL     1      15.567   3.288  13.826  1.00  0.00     0.083 C 
HETATM    6  C3  UNL     1      15.752   4.313  14.894  1.00  0.00     0.008 C 
HETATM    7  C4  UNL     1      14.524   4.838  15.557  1.00  0.00     0.000 C 
HETATM    8  C5  UNL     1      14.185   4.241  16.939  1.00  0.00     0.000 C 
HETATM    9  C6  UNL     1      14.605   2.865  16.841  1.00  0.00     0.000 C 
HETATM   10  C7  UNL     1      14.449   1.785  17.814  1.00  0.00     0.002 C 
HETATM   11  C8  UNL     1      15.076   0.592  17.052  1.00  0.00     0.027 C 
HETATM   12  C9  UNL     1      16.267   0.903  16.216  1.00  0.00     0.177 C 
HETATM   13  O1  UNL     1      16.115   1.142  14.876  1.00  0.00    -0.340 OA
ENDROOT
TORSDOF 0
ENDMDL
MODEL 2
REMARK VINA RESULT: -5.258110686      1.209      3.109
REMARK  0 active torsions:
REMARK  status: ('A' for Active; 'I' for Inactive)
ROOT
HETATM    1  N1  UNL     1      16.736  -0.374  15.044  1.00  0.00    -0.384 N 
ATOM      2  H11 UNL     1      17.096  -0.451  14.092  1.00  0.00     0.157 HD
ATOM      3  H12 UNL     1      16.608  -1.228  15.587  1.00  0.00     0.157 HD
HETATM    4  C1  UNL     1      16.481   0.804  15.454  1.00  0.00     0.111 C 
HETATM    5  C2  UNL     1      15.952   0.918  16.854  1.00  0.00     0.083 C 
HETATM    6  C3  UNL     1      14.498   1.227  16.984  1.00  0.00     0.008 C 
HETATM    7  C4  UNL     1      14.114   2.332  17.908  1.00  0.00     0.000 C 
HETATM    8  C5  UNL     1      13.793   3.692  17.251  1.00  0.00     0.000 C 
HETATM    9  C6  UNL     1      14.697   3.764  16.131  1.00  0.00     0.000 C 
HETATM   10  C7  UNL     1      14.914   4.865  15.194  1.00  0.00     0.002 C 
HETATM   11  C8  UNL     1      16.031   4.288  14.293  1.00  0.00     0.027 C 
HETATM   12  C9  UNL     1      15.938   2.834  13.987  1.00  0.00     0.177 C 
HETATM   13  O1  UNL     1      16.650   1.934  14.735  1.00  0.00    -0.340 OA
ENDROOT
TORSDOF 0
ENDMDL
MODEL 3
REMARK VINA RESULT: -5.054241148      3.568      5.642
REMARK  0 active torsions:
REMARK  status: ('A' for Active; 'I' for Inactive)
ROOT
HETATM    1  N1  UNL     1      17.025  -1.751  11.813  1.00  0.00    -0.384 N 
ATOM      2  H11 UNL     1      16.352  -2.014  12.534  1.00  0.00     0.157 HD
ATOM      3  H12 UNL     1      17.548  -2.489  11.344  1.00  0.00     0.157 HD
HETATM    4  C1  UNL     1      17.137  -0.506  11.577  1.00  0.00     0.111 C 
HETATM    5  C2  UNL     1      18.127  -0.118  10.517  1.00  0.00     0.083 C 
HETATM    6  C3  UNL     1      19.401   0.490  10.998  1.00  0.00     0.008 C 
HETATM    7  C4  UNL     1      19.845   1.754  10.343  1.00  0.00     0.000 C 
HETATM    8  C5  UNL     1      19.560   3.060  11.115  1.00  0.00     0.000 C 
HETATM    9  C6  UNL     1      18.302   2.813  11.773  1.00  0.00     0.000 C 
HETATM   10  C7  UNL     1      17.488   3.726  12.574  1.00  0.00     0.002 C 
HETATM   11  C8  UNL     1      16.276   2.830  12.926  1.00  0.00     0.027 C 
HETATM   12  C9  UNL     1      16.578   1.399  13.199  1.00  0.00     0.177 C 
HETATM   13  O1  UNL     1      16.444   0.472  12.200  1.00  0.00    -0.340 OA
ENDROOT
TORSDOF 0
ENDMDL
MODEL 4
REMARK VINA RESULT: -4.968228550      3.820      5.658
REMARK  0 active torsions:
REMARK  status: ('A' for Active; 'I' for Inactive)
ROOT
HETATM    1  N1  UNL     1      17.121   4.635  13.866  1.00  0.00    -0.384 N 
ATOM      2  H11 UNL     1      16.152   4.540  14.171  1.00  0.00     0.157 HD
ATOM      3  H12 UNL     1      17.563   5.552  13.930  1.00  0.00     0.157 HD
HETATM    4  C1  UNL     1      17.680   3.577  13.432  1.00  0.00     0.111 C 
HETATM    5  C2  UNL     1      19.106   3.717  12.985  1.00  0.00     0.083 C 
HETATM    6  C3  UNL     1      19.337   3.699  11.511  1.00  0.00     0.008 C 
HETATM    7  C4  UNL     1      20.403   2.792  10.997  1.00  0.00     0.000 C 
HETATM    8  C5  UNL     1      19.929   1.453  10.395  1.00  0.00     0.000 C 
HETATM    9  C6  UNL     1      18.785   1.092  11.195  1.00  0.00     0.000 C 
HETATM   10  C7  UNL     1      17.979  -0.126  11.149  1.00  0.00     0.002 C 
HETATM   11  C8  UNL     1      16.965   0.132  12.290  1.00  0.00     0.027 C 
HETATM   12  C9  UNL     1      16.492   1.535  12.439  1.00  0.00     0.177 C 
HETATM   13  O1  UNL     1      17.095   2.364  13.348  1.00  0.00    -0.340 OA
ENDROOT
TORSDOF 0
ENDMDL
MODEL 5
REMARK VINA RESULT: -4.917072706      3.160      5.295
REMARK  0 active torsions:
REMARK  status: ('A' for Active; 'I' for Inactive)
ROOT
HETATM    1  N1  UNL     1      15.360   3.228  14.071  1.00  0.00    -0.384 N 
ATOM      2  H11 UNL     1      14.517   2.657  14.002  1.00  0.00     0.157 HD
ATOM      3  H12 UNL     1      15.281   4.167  14.459  1.00  0.00     0.157 HD
HETATM    4  C1  UNL     1      16.436   2.692  13.653  1.00  0.00     0.111 C 
HETATM    5  C2  UNL     1      17.677   3.530  13.753  1.00  0.00     0.083 C 
HETATM    6  C3  UNL     1      18.194   4.096  12.473  1.00  0.00     0.008 C 
HETATM    7  C4  UNL     1      19.645   3.918  12.184  1.00  0.00     0.000 C 
HETATM    8  C5  UNL     1      20.013   2.782  11.205  1.00  0.00     0.000 C 
HETATM    9  C6  UNL     1      19.045   1.751  11.482  1.00  0.00     0.000 C 
HETATM   10  C7  UNL     1      18.954   0.402  10.926  1.00  0.00     0.002 C 
HETATM   11  C8  UNL     1      17.726  -0.161  11.681  1.00  0.00     0.027 C 
HETATM   12  C9  UNL     1      16.618   0.799  11.934  1.00  0.00     0.177 C 
HETATM   13  O1  UNL     1      16.540   1.448  13.138  1.00  0.00    -0.340 OA
ENDROOT
TORSDOF 0
ENDMDL
