MODEL 1
REMARK VINA RESULT: -5.297102236      0.000      0.000
REMARK  0 active torsions:
REMARK  status: ('A' for Active; 'I' for Inactive)
ROOT
HETATM    1  N1  UNL     1      16.791  -0.158  16.064  1.00  0.00    -0.075 NA
HETATM    2  C1  UNL     1      16.092   1.082  15.954  1.00  0.00     0.150 C 
HETATM    3  N2  UNL     1      16.252   2.064  15.207  1.00  0.00    -0.363 N 
ATOM      4  H2  UNL     1      17.008   2.036  14.522  1.00  0.00     0.162 HD
HETATM    5  C2  UNL     1      15.453   3.189  15.260  1.00  0.00     0.040 C 
HETATM    6  C3  UNL     1      16.382   4.411  15.342  1.00  0.00     0.032 C 
HETATM    7  C4  UNL     1      15.415   5.531  15.029  1.00  0.00     0.002 C 
HETATM    8  C5  UNL     1      14.685   4.987  13.829  1.00  0.00     0.002 C 
HETATM    9  C6  UNL     1      14.647   3.496  14.018  1.00  0.00     0.032 C 
HETATM   10  C7  UNL     1      14.586   3.237  16.474  1.00  0.00     0.113 C 
HETATM   11  S1  UNL     1      14.699   1.483  17.005  1.00  0.00    -0.095 SA
ENDROOT
TORSDOF 0
ENDMDL
MODEL 2
REMARK VINA RESULT: -5.069122638      1.397      1.502
REMARK  0 active torsions:
REMARK  status: ('A' for Active; 'I' for Inactive)
ROOT
HETATM    1  N1  UNL     1      15.772  -0.036  17.271  1.00  0.00    -0.075 NA
HETATM    2  C1  UNL     1      15.690   1.135  16.459  1.00  0.00     0.150 C 
HETATM    3  N2  UNL     1      16.431   1.581  15.564  1.00  0.00    -0.363 N 
ATOM      4  H2  UNL     1      17.271   1.055  15.321  1.00  0.00     0.162 HD
HETATM    5  C2  UNL     1      16.169   2.755  14.886  1.00  0.00     0.040 C 
HETATM    6  C3  UNL     1      17.448   3.609  14.931  1.00  0.00     0.032 C 
HETATM    7  C4  UNL     1      17.140   4.647  13.876  1.00  0.00     0.002 C 
HETATM    8  C5  UNL     1      16.619   3.798  12.745  1.00  0.00     0.002 C 
HETATM    9  C6  UNL     1      15.936   2.628  13.397  1.00  0.00     0.032 C 
HETATM   10  C7  UNL     1      15.094   3.573  15.518  1.00  0.00     0.113 C 
HETATM   11  S1  UNL     1      14.342   2.303  16.611  1.00  0.00    -0.095 SA
ENDROOT
TORSDOF 0
ENDMDL
MODEL 3
REMARK VINA RESULT: -4.994386815      1.893      2.441
REMARK  0 active torsions:
REMARK  status: ('A' for Active; 'I' for Inactive)
ROOT
HETATM    1  N1  UNL     1      16.622  -0.486  15.060  1.00  0.00    -0.075 NA
HETATM    2  C1  UNL     1      16.526   0.825  14.505  1.00  0.00     0.150 C 
HETATM    3  N2  UNL     1      16.323   1.937  15.027  1.00  0.00    -0.363 N 
ATOM      4  H2  UNL     1      16.192   1.983  16.037  1.00  0.00     0.162 HD
HETATM    5  C2  UNL     1      16.266   3.110  14.300  1.00  0.00     0.040 C 
HETATM    6  C3  UNL     1      14.975   3.842  14.706  1.00  0.00     0.032 C 
HETATM    7  C4  UNL     1      15.231   5.218  14.133  1.00  0.00     0.002 C 
HETATM    8  C5  UNL     1      16.643   5.486  14.586  1.00  0.00     0.002 C 
HETATM    9  C6  UNL     1      17.321   4.145  14.619  1.00  0.00     0.032 C 
HETATM   10  C7  UNL     1      16.178   2.886  12.828  1.00  0.00     0.113 C 
HETATM   11  S1  UNL     1      16.703   1.128  12.750  1.00  0.00    -0.095 SA
ENDROOT
TORSDOF 0
ENDMDL
MODEL 4
REMARK VINA RESULT: -4.856440691      2.643      3.149
REMARK  0 active torsions:
REMARK  status: ('A' for Active; 'I' for Inactive)
ROOT
HETATM    1  N1  UNL     1      16.865  -0.369  13.031  1.00  0.00    -0.075 NA
HETATM    2  C1  UNL     1      16.749   1.054  12.998  1.00  0.00     0.150 C 
HETATM    3  N2  UNL     1      16.413   1.882  13.863  1.00  0.00    -0.363 N 
ATOM      4  H2  UNL     1      16.161   1.541  14.791  1.00  0.00     0.162 HD
HETATM    5  C2  UNL     1      16.366   3.241  13.626  1.00  0.00     0.040 C 
HETATM    6  C3  UNL     1      14.992   3.745  14.098  1.00  0.00     0.032 C 
HETATM    7  C4  UNL     1      15.222   5.239  14.120  1.00  0.00     0.002 C 
HETATM    8  C5  UNL     1      16.550   5.339  14.825  1.00  0.00     0.002 C 
HETATM    9  C6  UNL     1      17.306   4.096  14.447  1.00  0.00     0.032 C 
HETATM   10  C7  UNL     1      16.468   3.590  12.179  1.00  0.00     0.113 C 
HETATM   11  S1  UNL     1      17.114   2.001  11.523  1.00  0.00    -0.095 SA
ENDROOT
TORSDOF 0
ENDMDL
MODEL 5
REMARK VINA RESULT: -4.749469922      5.040      6.024
REMARK  0 active torsions:
REMARK  status: ('A' for Active; 'I' for Inactive)
ROOT
HETATM    1  N1  UNL     1      19.771   4.297  13.082  1.00  0.00    -0.075 NA
HETATM    2  C1  UNL     1      18.948   3.362  12.383  1.00  0.00     0.150 C 
HETATM    3  N2  UNL     1      18.960   2.120  12.331  1.00  0.00    -0.363 N 
ATOM      4  H2  UNL     1      19.668   1.617  12.867  1.00  0.00     0.162 HD
HETATM    5  C2  UNL     1      18.059   1.389  11.581  1.00  0.00     0.040 C 
HETATM    6  C3  UNL     1      18.867   0.397  10.728  1.00  0.00     0.032 C 
HETATM    7  C4  UNL     1      17.775  -0.542  10.265  1.00  0.00     0.002 C 
HETATM    8  C5  UNL     1      17.024  -0.802  11.545  1.00  0.00     0.002 C 
HETATM    9  C6  UNL     1      17.146   0.461  12.351  1.00  0.00     0.032 C 
HETATM   10  C7  UNL     1      17.275   2.225  10.626  1.00  0.00     0.113 C 
HETATM   11  S1  UNL     1      17.596   3.889  11.335  1.00  0.00    -0.095 SA
ENDROOT
TORSDOF 0
ENDMDL
