MODEL 1
REMARK VINA RESULT: -5.447186439      0.000      0.000
REMARK  0 active torsions:
REMARK  status: ('A' for Active; 'I' for Inactive)
ROOT
HETATM    1  C1  UNL     1      18.640   4.327  13.575  1.00  0.00     0.064 C 
HETATM    2  C2  UNL     1      17.701   3.496  14.010  1.00  0.00     0.107 A 
HETATM    3  N1  UNL     1      17.096   2.398  13.355  1.00  0.00    -0.288 N 
ATOM      4  H1  UNL     1      17.334   2.103  12.408  1.00  0.00     0.188 HD
HETATM    5  N2  UNL     1      16.239   1.830  14.063  1.00  0.00    -0.306 N 
ATOM      6  H2  UNL     1      15.692   1.020  13.774  1.00  0.00     0.183 HD
HETATM    7  C3  UNL     1      16.134   2.467  15.327  1.00  0.00     0.119 A 
HETATM    8  C4  UNL     1      16.446   1.575  16.497  1.00  0.00     0.055 C 
HETATM    9  C5  UNL     1      15.301   0.663  16.856  1.00  0.00     0.004 C 
HETATM   10  C6  UNL     1      14.031   1.417  17.153  1.00  0.00     0.000 C 
HETATM   11  C7  UNL     1      14.145   2.884  16.803  1.00  0.00     0.004 C 
HETATM   12  C8  UNL     1      14.749   3.085  15.439  1.00  0.00     0.055 C 
HETATM   13  N3  UNL     1      17.084   3.544  15.281  1.00  0.00    -0.348 N 
ATOM     14  H3  UNL     1      17.276   4.216  16.024  1.00  0.00     0.163 HD
ENDROOT
TORSDOF 0
ENDMDL
MODEL 2
REMARK VINA RESULT: -5.300534042      1.000      2.087
REMARK  0 active torsions:
REMARK  status: ('A' for Active; 'I' for Inactive)
ROOT
HETATM    1  C1  UNL     1      17.512   2.330  11.950  1.00  0.00     0.064 C 
HETATM    2  C2  UNL     1      17.154   2.525  13.214  1.00  0.00     0.107 A 
HETATM    3  N1  UNL     1      17.766   3.318  14.211  1.00  0.00    -0.288 N 
ATOM      4  H1  UNL     1      18.612   3.868  14.058  1.00  0.00     0.188 HD
HETATM    5  N2  UNL     1      17.159   3.272  15.301  1.00  0.00    -0.306 N 
ATOM      6  H2  UNL     1      17.439   3.772  16.145  1.00  0.00     0.183 HD
HETATM    7  C3  UNL     1      16.023   2.426  15.204  1.00  0.00     0.119 A 
HETATM    8  C4  UNL     1      14.715   3.114  15.485  1.00  0.00     0.055 C 
HETATM    9  C5  UNL     1      14.458   3.298  16.958  1.00  0.00     0.004 C 
HETATM   10  C6  UNL     1      14.489   1.997  17.718  1.00  0.00     0.000 C 
HETATM   11  C7  UNL     1      14.991   0.852  16.867  1.00  0.00     0.004 C 
HETATM   12  C8  UNL     1      16.238   1.226  16.112  1.00  0.00     0.055 C 
HETATM   13  N3  UNL     1      16.030   1.948  13.849  1.00  0.00    -0.348 N 
ATOM     14  H3  UNL     1      15.353   1.313  13.425  1.00  0.00     0.163 HD
ENDROOT
TORSDOF 0
ENDMDL
MODEL 3
REMARK VINA RESULT: -5.282940716      2.536      3.957
REMARK  0 active torsions:
REMARK  status: ('A' for Active; 'I' for Inactive)
ROOT
HETATM    1  C1  UNL     1      17.114  -1.025  11.575  1.00  0.00     0.064 C 
HETATM    2  C2  UNL     1      16.780   0.230  11.850  1.00  0.00     0.107 A 
HETATM    3  N1  UNL     1      16.021   1.147  11.087  1.00  0.00    -0.288 N 
ATOM      4  H1  UNL     1      15.617   0.929  10.176  1.00  0.00     0.188 HD
HETATM    5  N2  UNL     1      15.898   2.255  11.651  1.00  0.00    -0.306 N 
ATOM      6  H2  UNL     1      15.389   3.050  11.266  1.00  0.00     0.183 HD
HETATM    7  C3  UNL     1      16.566   2.254  12.903  1.00  0.00     0.119 A 
HETATM    8  C4  UNL     1      15.671   2.519  14.082  1.00  0.00     0.055 C 
HETATM    9  C5  UNL     1      15.348   3.981  14.251  1.00  0.00     0.004 C 
HETATM   10  C6  UNL     1      16.582   4.835  14.384  1.00  0.00     0.000 C 
HETATM   11  C7  UNL     1      17.846   4.058  14.092  1.00  0.00     0.004 C 
HETATM   12  C8  UNL     1      17.720   3.242  12.834  1.00  0.00     0.055 C 
HETATM   13  N3  UNL     1      17.133   0.938  13.021  1.00  0.00    -0.348 N 
ATOM     14  H3  UNL     1      17.687   0.583  13.801  1.00  0.00     0.163 HD
ENDROOT
TORSDOF 0
ENDMDL
MODEL 4
REMARK VINA RESULT: -5.196112567      1.807      4.088
REMARK  0 active torsions:
REMARK  status: ('A' for Active; 'I' for Inactive)
ROOT
HETATM    1  C1  UNL     1      14.470   1.224  17.242  1.00  0.00     0.064 C 
HETATM    2  C2  UNL     1      15.279   1.840  16.390  1.00  0.00     0.107 A 
HETATM    3  N1  UNL     1      16.687   1.781  16.281  1.00  0.00    -0.288 N 
ATOM      4  H1  UNL     1      17.279   1.217  16.891  1.00  0.00     0.188 HD
HETATM    5  N2  UNL     1      17.128   2.496  15.357  1.00  0.00    -0.306 N 
ATOM      6  H2  UNL     1      18.114   2.591  15.116  1.00  0.00     0.183 HD
HETATM    7  C3  UNL     1      16.066   3.157  14.687  1.00  0.00     0.119 A 
HETATM    8  C4  UNL     1      15.957   2.827  13.224  1.00  0.00     0.055 C 
HETATM    9  C5  UNL     1      16.958   3.574  12.382  1.00  0.00     0.004 C 
HETATM   10  C6  UNL     1      16.852   5.068  12.546  1.00  0.00     0.000 C 
HETATM   11  C7  UNL     1      15.927   5.453  13.678  1.00  0.00     0.004 C 
HETATM   12  C8  UNL     1      16.206   4.653  14.922  1.00  0.00     0.055 C 
HETATM   13  N3  UNL     1      14.874   2.725  15.365  1.00  0.00    -0.348 N 
ATOM     14  H3  UNL     1      13.917   3.005  15.147  1.00  0.00     0.163 HD
ENDROOT
TORSDOF 0
ENDMDL
MODEL 5
REMARK VINA RESULT: -5.184372843      4.569      5.659
REMARK  0 active torsions:
REMARK  status: ('A' for Active; 'I' for Inactive)
ROOT
HETATM    1  C1  UNL     1      21.814   3.699  10.189  1.00  0.00     0.064 C 
HETATM    2  C2  UNL     1      20.799   3.054  10.751  1.00  0.00     0.107 A 
HETATM    3  N1  UNL     1      20.437   2.958  12.114  1.00  0.00    -0.288 N 
ATOM      4  H1  UNL     1      20.953   3.408  12.870  1.00  0.00     0.188 HD
HETATM    5  N2  UNL     1      19.415   2.263  12.292  1.00  0.00    -0.306 N 
ATOM      6  H2  UNL     1      18.993   2.072  13.200  1.00  0.00     0.183 HD
HETATM    7  C3  UNL     1      18.922   1.775  11.053  1.00  0.00     0.119 A 
HETATM    8  C4  UNL     1      17.520   2.215  10.730  1.00  0.00     0.055 C 
HETATM    9  C5  UNL     1      16.475   1.417  11.466  1.00  0.00     0.004 C 
HETATM   10  C6  UNL     1      16.586  -0.063  11.204  1.00  0.00     0.000 C 
HETATM   11  C7  UNL     1      17.850  -0.416  10.453  1.00  0.00     0.004 C 
HETATM   12  C8  UNL     1      19.057   0.260  11.045  1.00  0.00     0.055 C 
HETATM   13  N3  UNL     1      19.826   2.293  10.063  1.00  0.00    -0.348 N 
ATOM     14  H3  UNL     1      19.775   2.140   9.056  1.00  0.00     0.163 HD
ENDROOT
TORSDOF 0
ENDMDL
