MODEL 1
REMARK VINA RESULT: -5.643806133      0.000      0.000
REMARK  0 active torsions:
REMARK  status: ('A' for Active; 'I' for Inactive)
ROOT
HETATM    1  N1  UNL     1      15.265  -0.388  17.591  1.00  0.00    -0.073 NA
HETATM    2  C1  UNL     1      15.583   0.708  16.736  1.00  0.00     0.182 A 
HETATM    3  O1  UNL     1      16.056   0.569  15.514  1.00  0.00    -0.280 OA
HETATM    4  C2  UNL     1      16.256   1.743  14.964  1.00  0.00     0.170 A 
HETATM    5 CL1  UNL     1      16.872   2.019  13.362  1.00  0.00    -0.054 Cl
HETATM    6  C3  UNL     1      15.897   2.723  15.867  1.00  0.00     0.105 A 
HETATM    7 CL2  UNL     1      15.955   4.454  15.670  1.00  0.00    -0.078 Cl
HETATM    8  C4  UNL     1      15.472   2.048  16.987  1.00  0.00     0.107 A 
HETATM    9 CL3  UNL     1      14.890   2.744  18.474  1.00  0.00    -0.078 Cl
ENDROOT
TORSDOF 0
ENDMDL
MODEL 2
REMARK VINA RESULT: -5.618778874      1.883      2.005
REMARK  0 active torsions:
REMARK  status: ('A' for Active; 'I' for Inactive)
ROOT
HETATM    1  N1  UNL     1      17.394   0.209  16.077  1.00  0.00    -0.073 NA
HETATM    2  C1  UNL     1      16.845   1.524  16.017  1.00  0.00     0.182 A 
HETATM    3  O1  UNL     1      17.258   2.452  15.179  1.00  0.00    -0.280 OA
HETATM    4  C2  UNL     1      16.576   3.559  15.348  1.00  0.00     0.170 A 
HETATM    5 CL1  UNL     1      16.796   5.033  14.451  1.00  0.00    -0.054 Cl
HETATM    6  C3  UNL     1      15.653   3.363  16.356  1.00  0.00     0.105 A 
HETATM    7 CL2  UNL     1      14.489   4.490  16.997  1.00  0.00    -0.078 Cl
HETATM    8  C4  UNL     1      15.838   2.065  16.769  1.00  0.00     0.107 A 
HETATM    9 CL3  UNL     1      14.964   1.228  18.023  1.00  0.00    -0.078 Cl
ENDROOT
TORSDOF 0
ENDMDL
MODEL 3
REMARK VINA RESULT: -5.343328464      1.587      3.167
REMARK  0 active torsions:
REMARK  status: ('A' for Active; 'I' for Inactive)
ROOT
HETATM    1  N1  UNL     1      17.398   0.368  16.121  1.00  0.00    -0.073 NA
HETATM    2  C1  UNL     1      16.542   1.506  16.037  1.00  0.00     0.182 A 
HETATM    3  O1  UNL     1      15.944   2.050  17.077  1.00  0.00    -0.280 OA
HETATM    4  C2  UNL     1      15.222   3.079  16.704  1.00  0.00     0.170 A 
HETATM    5 CL1  UNL     1      14.269   4.083  17.756  1.00  0.00    -0.054 Cl
HETATM    6  C3  UNL     1      15.342   3.234  15.337  1.00  0.00     0.105 A 
HETATM    7 CL2  UNL     1      14.604   4.434  14.311  1.00  0.00    -0.078 Cl
HETATM    8  C4  UNL     1      16.185   2.226  14.931  1.00  0.00     0.107 A 
HETATM    9 CL3  UNL     1      16.720   1.898  13.305  1.00  0.00    -0.078 Cl
ENDROOT
TORSDOF 0
ENDMDL
MODEL 4
REMARK VINA RESULT: -5.283829173      1.637      2.384
REMARK  0 active torsions:
REMARK  status: ('A' for Active; 'I' for Inactive)
ROOT
HETATM    1  N1  UNL     1      16.118   0.110  16.921  1.00  0.00    -0.073 NA
HETATM    2  C1  UNL     1      16.364   0.498  15.571  1.00  0.00     0.182 A 
HETATM    3  O1  UNL     1      16.518  -0.356  14.580  1.00  0.00    -0.280 OA
HETATM    4  C2  UNL     1      16.731   0.282  13.454  1.00  0.00     0.170 A 
HETATM    5 CL1  UNL     1      16.986  -0.460  11.902  1.00  0.00    -0.054 Cl
HETATM    6  C3  UNL     1      16.719   1.639  13.704  1.00  0.00     0.105 A 
HETATM    7 CL2  UNL     1      16.948   2.952  12.580  1.00  0.00    -0.078 Cl
HETATM    8  C4  UNL     1      16.484   1.759  15.053  1.00  0.00     0.107 A 
HETATM    9 CL3  UNL     1      16.358   3.235  15.970  1.00  0.00    -0.078 Cl
ENDROOT
TORSDOF 0
ENDMDL
MODEL 5
REMARK VINA RESULT: -5.279694644      1.266      3.061
REMARK  0 active torsions:
REMARK  status: ('A' for Active; 'I' for Inactive)
ROOT
HETATM    1  N1  UNL     1      16.665  -0.444  15.270  1.00  0.00    -0.073 NA
HETATM    2  C1  UNL     1      16.172   0.723  15.923  1.00  0.00     0.182 A 
HETATM    3  O1  UNL     1      15.762   0.742  17.175  1.00  0.00    -0.280 OA
HETATM    4  C2  UNL     1      15.364   1.947  17.508  1.00  0.00     0.170 A 
HETATM    5 CL1  UNL     1      14.747   2.416  19.065  1.00  0.00    -0.054 Cl
HETATM    6  C3  UNL     1      15.515   2.782  16.419  1.00  0.00     0.105 A 
HETATM    7 CL2  UNL     1      15.145   4.481  16.294  1.00  0.00    -0.078 Cl
HETATM    8  C4  UNL     1      16.030   1.988  15.422  1.00  0.00     0.107 A 
HETATM    9 CL3  UNL     1      16.437   2.474  13.799  1.00  0.00    -0.078 Cl
ENDROOT
TORSDOF 0
ENDMDL
