MODEL 1
REMARK VINA RESULT: -5.953087766      0.000      0.000
REMARK  0 active torsions:
REMARK  status: ('A' for Active; 'I' for Inactive)
ROOT
HETATM    1  O1  UNL     1      17.413   0.227  16.095  1.00  0.00    -0.265 OA
HETATM    2  C1  UNL     1      16.890   1.387  16.029  1.00  0.00     0.285 A 
HETATM    3  N1  UNL     1      17.383   2.336  15.210  1.00  0.00    -0.309 N 
ATOM      4  H1  UNL     1      18.192   2.132  14.624  1.00  0.00     0.170 HD
HETATM    5  C2  UNL     1      16.813   3.549  15.162  1.00  0.00     0.145 A 
HETATM    6 CL1  UNL     1      17.445   4.800  14.096  1.00  0.00    -0.061 Cl
HETATM    7  C3  UNL     1      15.715   3.873  15.935  1.00  0.00     0.143 A 
HETATM    8 CL2  UNL     1      14.969   5.474  15.864  1.00  0.00    -0.061 Cl
HETATM    9  N2  UNL     1      15.220   2.928  16.755  1.00  0.00    -0.330 N 
ATOM     10  H2  UNL     1      14.410   3.133  17.341  1.00  0.00     0.168 HD
HETATM   11  C4  UNL     1      15.800   1.705  16.799  1.00  0.00     0.173 A 
HETATM   12 CL3  UNL     1      15.168   0.445  17.869  1.00  0.00    -0.058 Cl
ENDROOT
TORSDOF 0
ENDMDL
MODEL 2
REMARK VINA RESULT: -5.702601757      1.857      2.869
REMARK  0 active torsions:
REMARK  status: ('A' for Active; 'I' for Inactive)
ROOT
HETATM    1  O1  UNL     1      16.561  -0.469  15.333  1.00  0.00    -0.265 OA
HETATM    2  C1  UNL     1      16.271   0.757  15.524  1.00  0.00     0.285 A 
HETATM    3  N1  UNL     1      15.780   1.190  16.701  1.00  0.00    -0.309 N 
ATOM      4  H1  UNL     1      15.633   0.530  17.464  1.00  0.00     0.170 HD
HETATM    5  C2  UNL     1      15.483   2.486  16.873  1.00  0.00     0.145 A 
HETATM    6 CL1  UNL     1      14.840   3.068  18.406  1.00  0.00    -0.061 Cl
HETATM    7  C3  UNL     1      15.664   3.418  15.869  1.00  0.00     0.143 A 
HETATM    8 CL2  UNL     1      15.271   5.126  16.105  1.00  0.00    -0.061 Cl
HETATM    9  N2  UNL     1      16.154   2.990  14.692  1.00  0.00    -0.330 N 
ATOM     10  H2  UNL     1      16.301   3.650  13.928  1.00  0.00     0.168 HD
HETATM   11  C4  UNL     1      16.452   1.679  14.524  1.00  0.00     0.173 A 
HETATM   12 CL3  UNL     1      17.098   1.091  12.986  1.00  0.00    -0.058 Cl
ENDROOT
TORSDOF 0
ENDMDL
MODEL 3
REMARK VINA RESULT: -5.572860572      1.888      2.794
REMARK  0 active torsions:
REMARK  status: ('A' for Active; 'I' for Inactive)
ROOT
HETATM    1  O1  UNL     1      15.216  -0.430  17.395  1.00  0.00    -0.265 OA
HETATM    2  C1  UNL     1      15.339   0.791  17.052  1.00  0.00     0.285 A 
HETATM    3  N1  UNL     1      14.727   1.779  17.733  1.00  0.00    -0.309 N 
ATOM      4  H1  UNL     1      14.150   1.556  18.544  1.00  0.00     0.170 HD
HETATM    5  C2  UNL     1      14.873   3.055  17.349  1.00  0.00     0.145 A 
HETATM    6 CL1  UNL     1      14.080   4.358  18.229  1.00  0.00    -0.061 Cl
HETATM    7  C3  UNL     1      15.643   3.407  16.258  1.00  0.00     0.143 A 
HETATM    8 CL2  UNL     1      15.832   5.093  15.759  1.00  0.00    -0.061 Cl
HETATM    9  N2  UNL     1      16.256   2.424  15.574  1.00  0.00    -0.330 N 
ATOM     10  H2  UNL     1      16.833   2.647  14.763  1.00  0.00     0.168 HD
HETATM   11  C4  UNL     1      16.105   1.136  15.967  1.00  0.00     0.173 A 
HETATM   12 CL3  UNL     1      16.900  -0.175  15.085  1.00  0.00    -0.058 Cl
ENDROOT
TORSDOF 0
ENDMDL
MODEL 4
REMARK VINA RESULT: -5.469927903      1.133      1.157
REMARK  0 active torsions:
REMARK  status: ('A' for Active; 'I' for Inactive)
ROOT
HETATM    1  O1  UNL     1      16.235  -0.013  16.719  1.00  0.00    -0.265 OA
HETATM    2  C1  UNL     1      16.266   1.190  16.300  1.00  0.00     0.285 A 
HETATM    3  N1  UNL     1      16.924   1.528  15.174  1.00  0.00    -0.309 N 
ATOM      4  H1  UNL     1      17.412   0.811  14.637  1.00  0.00     0.170 HD
HETATM    5  C2  UNL     1      16.941   2.802  14.758  1.00  0.00     0.145 A 
HETATM    6 CL1  UNL     1      17.797   3.258  13.288  1.00  0.00    -0.061 Cl
HETATM    7  C3  UNL     1      16.295   3.807  15.451  1.00  0.00     0.143 A 
HETATM    8 CL2  UNL     1      16.322   5.485  14.894  1.00  0.00    -0.061 Cl
HETATM    9  N2  UNL     1      15.637   3.475  16.577  1.00  0.00    -0.330 N 
ATOM     10  H2  UNL     1      15.149   4.192  17.114  1.00  0.00     0.168 HD
HETATM   11  C4  UNL     1      15.623   2.186  16.992  1.00  0.00     0.173 A 
HETATM   12 CL3  UNL     1      14.765   1.723  18.468  1.00  0.00    -0.058 Cl
ENDROOT
TORSDOF 0
ENDMDL
MODEL 5
REMARK VINA RESULT: -5.366120684      1.999      2.670
REMARK  0 active torsions:
REMARK  status: ('A' for Active; 'I' for Inactive)
ROOT
HETATM    1  O1  UNL     1      17.149  -0.021  16.044  1.00  0.00    -0.265 OA
HETATM    2  C1  UNL     1      16.562   1.057  15.699  1.00  0.00     0.285 A 
HETATM    3  N1  UNL     1      16.038   1.897  16.611  1.00  0.00    -0.309 N 
ATOM      4  H1  UNL     1      16.107   1.675  17.605  1.00  0.00     0.170 HD
HETATM    5  C2  UNL     1      15.425   3.023  16.219  1.00  0.00     0.145 A 
HETATM    6 CL1  UNL     1      14.735   4.132  17.401  1.00  0.00    -0.061 Cl
HETATM    7  C3  UNL     1      15.308   3.366  14.887  1.00  0.00     0.143 A 
HETATM    8 CL2  UNL     1      14.499   4.855  14.378  1.00  0.00    -0.061 Cl
HETATM    9  N2  UNL     1      15.830   2.530  13.971  1.00  0.00    -0.330 N 
ATOM     10  H2  UNL     1      15.761   2.752  12.978  1.00  0.00     0.168 HD
HETATM   11  C4  UNL     1      16.447   1.394  14.373  1.00  0.00     0.173 A 
HETATM   12 CL3  UNL     1      17.142   0.277  13.190  1.00  0.00    -0.058 Cl
ENDROOT
TORSDOF 0
ENDMDL
