MODEL 1
REMARK VINA RESULT: -4.525447645      0.000      0.000
REMARK  1 active torsions:
REMARK  status: ('A' for Active; 'I' for Inactive)
REMARK    1  A    between atoms: N1_2  and  C2_4 
ROOT
HETATM    1  C2  UNL     1      16.327   2.783  16.115  1.00  0.00     0.097 A 
HETATM    2  C3  UNL     1      15.328   2.940  17.018  1.00  0.00     0.138 A 
HETATM    3 CL1  UNL     1      14.872   1.733  18.273  1.00  0.00    -0.061 Cl
HETATM    4  N2  UNL     1      14.635   4.074  16.968  1.00  0.00    -0.314 N 
ATOM      5  H2  UNL     1      13.858   4.356  17.564  1.00  0.00     0.175 HD
HETATM    6  S1  UNL     1      15.321   4.939  15.707  1.00  0.00     0.001 SA
HETATM    7  C4  UNL     1      16.516   3.820  15.241  1.00  0.00     0.120 A 
HETATM    8 CL2  UNL     1      17.726   3.937  13.946  1.00  0.00    -0.072 Cl
ENDROOT
BRANCH   1   9
HETATM    9  N1  UNL     1      17.165   1.589  16.059  1.00  0.00    -0.390 N 
HETATM   10  C1  UNL     1      16.734   0.427  15.315  1.00  0.00     0.146 C 
ATOM     11  H1  UNL     1      18.060   1.574  16.548  1.00  0.00     0.159 HD
ENDBRANCH   1   9
TORSDOF 1
ENDMDL
MODEL 2
REMARK VINA RESULT: -4.403258194      0.812      2.979
REMARK  1 active torsions:
REMARK  status: ('A' for Active; 'I' for Inactive)
REMARK    1  A    between atoms: N1_2  and  C2_4 
ROOT
HETATM    1  C2  UNL     1      16.346   2.620  16.124  1.00  0.00     0.097 A 
HETATM    2  C3  UNL     1      16.459   3.722  15.343  1.00  0.00     0.138 A 
HETATM    3 CL1  UNL     1      17.680   3.943  14.040  1.00  0.00    -0.061 Cl
HETATM    4  N2  UNL     1      15.601   4.715  15.564  1.00  0.00    -0.314 N 
ATOM      5  H2  UNL     1      15.543   5.608  15.076  1.00  0.00     0.175 HD
HETATM    6  S1  UNL     1      14.634   4.173  16.820  1.00  0.00     0.001 SA
HETATM    7  C4  UNL     1      15.349   2.647  17.063  1.00  0.00     0.120 A 
HETATM    8 CL2  UNL     1      14.931   1.379  18.234  1.00  0.00    -0.072 Cl
ENDROOT
BRANCH   1   9
HETATM    9  N1  UNL     1      17.222   1.460  15.989  1.00  0.00    -0.390 N 
HETATM   10  C1  UNL     1      16.775   0.285  15.273  1.00  0.00     0.146 C 
ATOM     11  H1  UNL     1      18.154   1.478  16.401  1.00  0.00     0.159 HD
ENDBRANCH   1   9
TORSDOF 1
ENDMDL
MODEL 3
REMARK VINA RESULT: -4.244679436      1.944      4.086
REMARK  1 active torsions:
REMARK  status: ('A' for Active; 'I' for Inactive)
REMARK    1  A    between atoms: N1_2  and  C2_4 
ROOT
HETATM    1  C2  UNL     1      15.442   2.703  15.876  1.00  0.00     0.097 A 
HETATM    2  C3  UNL     1      16.560   2.974  15.160  1.00  0.00     0.138 A 
HETATM    3 CL1  UNL     1      16.988   4.585  14.482  1.00  0.00    -0.061 Cl
HETATM    4  N2  UNL     1      17.403   1.967  14.944  1.00  0.00    -0.314 N 
ATOM      5  H2  UNL     1      18.283   1.992  14.430  1.00  0.00     0.175 HD
HETATM    6  S1  UNL     1      16.699   0.650  15.702  1.00  0.00     0.001 SA
HETATM    7  C4  UNL     1      15.300   1.410  16.304  1.00  0.00     0.120 A 
HETATM    8 CL2  UNL     1      13.966   0.726  17.256  1.00  0.00    -0.072 Cl
ENDROOT
BRANCH   1   9
HETATM    9  N1  UNL     1      14.435   3.714  16.186  1.00  0.00    -0.390 N 
HETATM   10  C1  UNL     1      14.255   4.175  17.545  1.00  0.00     0.146 C 
ATOM     11  H1  UNL     1      13.855   4.098  15.440  1.00  0.00     0.159 HD
ENDBRANCH   1   9
TORSDOF 1
ENDMDL
MODEL 4
REMARK VINA RESULT: -4.167497709      2.426      2.886
REMARK  1 active torsions:
REMARK  status: ('A' for Active; 'I' for Inactive)
REMARK    1  A    between atoms: N1_2  and  C2_4 
ROOT
HETATM    1  C2  UNL     1      16.032   2.935  15.838  1.00  0.00     0.097 A 
HETATM    2  C3  UNL     1      15.242   3.839  16.467  1.00  0.00     0.138 A 
HETATM    3 CL1  UNL     1      15.098   5.575  16.019  1.00  0.00    -0.061 Cl
HETATM    4  N2  UNL     1      14.520   3.402  17.496  1.00  0.00    -0.314 N 
ATOM      5  H2  UNL     1      13.878   3.939  18.079  1.00  0.00     0.175 HD
HETATM    6  S1  UNL     1      14.897   1.775  17.624  1.00  0.00     0.001 SA
HETATM    7  C4  UNL     1      16.000   1.659  16.334  1.00  0.00     0.120 A 
HETATM    8 CL2  UNL     1      16.904   0.248  15.746  1.00  0.00    -0.072 Cl
ENDROOT
BRANCH   1   9
HETATM    9  N1  UNL     1      16.875   3.279  14.696  1.00  0.00    -0.390 N 
HETATM   10  C1  UNL     1      16.422   3.018  13.348  1.00  0.00     0.146 C 
ATOM     11  H1  UNL     1      17.788   3.706  14.850  1.00  0.00     0.159 HD
ENDBRANCH   1   9
TORSDOF 1
ENDMDL
MODEL 5
REMARK VINA RESULT: -4.157278594      2.246      2.916
REMARK  1 active torsions:
REMARK  status: ('A' for Active; 'I' for Inactive)
REMARK    1  A    between atoms: N1_2  and  C2_4 
ROOT
HETATM    1  C2  UNL     1      16.024   2.867  15.937  1.00  0.00     0.097 A 
HETATM    2  C3  UNL     1      16.759   1.954  15.254  1.00  0.00     0.138 A 
HETATM    3 CL1  UNL     1      16.904   0.214  15.686  1.00  0.00    -0.061 Cl
HETATM    4  N2  UNL     1      17.423   2.386  14.185  1.00  0.00    -0.314 N 
ATOM      5  H2  UNL     1      18.019   1.842  13.561  1.00  0.00     0.175 HD
HETATM    6  S1  UNL     1      17.064   4.019  14.088  1.00  0.00     0.001 SA
HETATM    7  C4  UNL     1      16.044   4.145  15.445  1.00  0.00     0.120 A 
HETATM    8 CL2  UNL     1      15.199   5.566  16.093  1.00  0.00    -0.072 Cl
ENDROOT
BRANCH   1   9
HETATM    9  N1  UNL     1      15.248   2.529  17.126  1.00  0.00    -0.390 N 
HETATM   10  C1  UNL     1      13.968   1.868  17.001  1.00  0.00     0.146 C 
ATOM     11  H1  UNL     1      15.610   2.760  18.051  1.00  0.00     0.159 HD
ENDBRANCH   1   9
TORSDOF 1
ENDMDL
