MODEL 1
REMARK VINA RESULT: -5.157189445      0.000      0.000
REMARK  0 active torsions:
REMARK  status: ('A' for Active; 'I' for Inactive)
ROOT
HETATM    1 CL1  UNL     1      17.039   0.496  13.033  1.00  0.00    -0.035 Cl
HETATM    2  C1  UNL     1      16.422   0.950  14.623  1.00  0.00     0.243 A 
HETATM    3  N1  UNL     1      16.063   2.147  14.908  1.00  0.00    -0.313 N 
ATOM      4  H1  UNL     1      16.141   2.860  14.183  1.00  0.00     0.170 HD
HETATM    5  C2  UNL     1      15.567   2.531  16.168  1.00  0.00     0.146 A 
HETATM    6 CL2  UNL     1      15.080   4.181  16.541  1.00  0.00    -0.061 Cl
HETATM    7  C3  UNL     1      15.448   1.643  17.142  1.00  0.00     0.162 A 
HETATM    8 CL3  UNL     1      14.823   2.136  18.726  1.00  0.00    -0.059 Cl
HETATM    9  N2  UNL     1      15.828   0.301  16.890  1.00  0.00    -0.244 N 
ATOM     10  H2  UNL     1      15.753  -0.415  17.612  1.00  0.00     0.196 HD
HETATM   11  O1  UNL     1      16.301   0.004  15.636  1.00  0.00    -0.205 OA
ENDROOT
TORSDOF 0
ENDMDL
MODEL 2
REMARK VINA RESULT: -4.867303797      1.419      3.552
REMARK  0 active torsions:
REMARK  status: ('A' for Active; 'I' for Inactive)
ROOT
HETATM    1 CL1  UNL     1      14.917   1.946  18.861  1.00  0.00    -0.035 Cl
HETATM    2  C1  UNL     1      15.545   1.599  17.248  1.00  0.00     0.243 A 
HETATM    3  N1  UNL     1      15.388   2.400  16.260  1.00  0.00    -0.313 N 
ATOM      4  H1  UNL     1      14.880   3.270  16.419  1.00  0.00     0.170 HD
HETATM    5  C2  UNL     1      15.881   2.144  14.966  1.00  0.00     0.146 A 
HETATM    6 CL2  UNL     1      15.656   3.257  13.620  1.00  0.00    -0.061 Cl
HETATM    7  C3  UNL     1      16.545   1.029  14.709  1.00  0.00     0.162 A 
HETATM    8 CL3  UNL     1      17.162   0.715  13.077  1.00  0.00    -0.059 Cl
HETATM    9  N2  UNL     1      16.752   0.102  15.760  1.00  0.00    -0.244 N 
ATOM     10  H2  UNL     1      17.258  -0.770  15.606  1.00  0.00     0.196 HD
HETATM   11  O1  UNL     1      16.243   0.423  16.994  1.00  0.00    -0.205 OA
ENDROOT
TORSDOF 0
ENDMDL
MODEL 3
REMARK VINA RESULT: -4.821681697      2.127      2.220
REMARK  0 active torsions:
REMARK  status: ('A' for Active; 'I' for Inactive)
ROOT
HETATM    1 CL1  UNL     1      17.880   4.461  13.621  1.00  0.00    -0.035 Cl
HETATM    2  C1  UNL     1      17.150   3.292  14.724  1.00  0.00     0.243 A 
HETATM    3  N1  UNL     1      16.376   3.641  15.685  1.00  0.00    -0.313 N 
ATOM      4  H1  UNL     1      16.180   4.633  15.811  1.00  0.00     0.170 HD
HETATM    5  C2  UNL     1      15.782   2.726  16.575  1.00  0.00     0.146 A 
HETATM    6 CL2  UNL     1      14.722   3.224  17.890  1.00  0.00    -0.061 Cl
HETATM    7  C3  UNL     1      16.007   1.428  16.452  1.00  0.00     0.162 A 
HETATM    8 CL3  UNL     1      15.254   0.284  17.579  1.00  0.00    -0.059 Cl
HETATM    9  N2  UNL     1      16.853   0.978  15.409  1.00  0.00    -0.244 N 
ATOM     10  H2  UNL     1      17.053  -0.013  15.279  1.00  0.00     0.196 HD
HETATM   11  O1  UNL     1      17.394   1.930  14.581  1.00  0.00    -0.205 OA
ENDROOT
TORSDOF 0
ENDMDL
MODEL 4
REMARK VINA RESULT: -4.654248502      1.962      3.651
REMARK  0 active torsions:
REMARK  status: ('A' for Active; 'I' for Inactive)
ROOT
HETATM    1 CL1  UNL     1      14.717   1.884  18.682  1.00  0.00    -0.035 Cl
HETATM    2  C1  UNL     1      15.620   2.347  17.238  1.00  0.00     0.243 A 
HETATM    3  N1  UNL     1      15.423   3.458  16.628  1.00  0.00    -0.313 N 
ATOM      4  H1  UNL     1      14.715   4.093  16.996  1.00  0.00     0.170 HD
HETATM    5  C2  UNL     1      16.132   3.848  15.475  1.00  0.00     0.146 A 
HETATM    6 CL2  UNL     1      15.846   5.377  14.651  1.00  0.00    -0.061 Cl
HETATM    7  C3  UNL     1      17.059   3.058  14.958  1.00  0.00     0.162 A 
HETATM    8 CL3  UNL     1      17.946   3.558  13.507  1.00  0.00    -0.059 Cl
HETATM    9  N2  UNL     1      17.324   1.817  15.586  1.00  0.00    -0.244 N 
ATOM     10  H2  UNL     1      18.030   1.178  15.221  1.00  0.00     0.196 HD
HETATM   11  O1  UNL     1      16.593   1.507  16.707  1.00  0.00    -0.205 OA
ENDROOT
TORSDOF 0
ENDMDL
MODEL 5
REMARK VINA RESULT: -4.647870597      1.473      1.546
REMARK  0 active torsions:
REMARK  status: ('A' for Active; 'I' for Inactive)
ROOT
HETATM    1 CL1  UNL     1      17.156  -0.565  11.959  1.00  0.00    -0.035 Cl
HETATM    2  C1  UNL     1      16.743   0.291  13.447  1.00  0.00     0.243 A 
HETATM    3  N1  UNL     1      16.530   1.555  13.479  1.00  0.00    -0.313 N 
ATOM      4  H1  UNL     1      16.605   2.080  12.608  1.00  0.00     0.170 HD
HETATM    5  C2  UNL     1      16.199   2.258  14.654  1.00  0.00     0.146 A 
HETATM    6 CL2  UNL     1      15.911   3.995  14.678  1.00  0.00    -0.061 Cl
HETATM    7  C3  UNL     1      16.091   1.621  15.809  1.00  0.00     0.162 A 
HETATM    8 CL3  UNL     1      15.673   2.515  17.282  1.00  0.00    -0.059 Cl
HETATM    9  N2  UNL     1      16.313   0.223  15.839  1.00  0.00    -0.244 N 
ATOM     10  H2  UNL     1      16.240  -0.307  16.708  1.00  0.00     0.196 HD
HETATM   11  O1  UNL     1      16.631  -0.392  14.653  1.00  0.00    -0.205 OA
ENDROOT
TORSDOF 0
ENDMDL
