MODEL 1
REMARK VINA RESULT: -5.763617828      0.000      0.000
REMARK  1 active torsions:
REMARK  status: ('A' for Active; 'I' for Inactive)
REMARK    1  A    between atoms: C4_8  and  O1_9 
ROOT
HETATM    1  N1  UNL     1      15.244  -0.409  17.672  1.00  0.00    -0.091 NA
HETATM    2  C1  UNL     1      15.416   0.901  17.087  1.00  0.00     0.123 A 
HETATM    3  S1  UNL     1      14.430   2.283  17.202  1.00  0.00    -0.059 SA
HETATM    4  C2  UNL     1      15.338   3.354  16.243  1.00  0.00     0.101 A 
HETATM    5 CL1  UNL     1      14.968   5.040  15.861  1.00  0.00    -0.074 Cl
HETATM    6  C3  UNL     1      16.402   2.595  15.852  1.00  0.00     0.098 A 
HETATM    7 CL2  UNL     1      17.662   3.307  14.804  1.00  0.00    -0.079 Cl
HETATM    8  C4  UNL     1      16.453   1.324  16.283  1.00  0.00     0.121 A 
ENDROOT
BRANCH   8   9
HETATM    9  O1  UNL     1      17.508   0.413  15.954  1.00  0.00    -0.357 OA
ATOM     10  H1  UNL     1      18.388   0.744  15.820  1.00  0.00     0.218 HD
ENDBRANCH   8   9
TORSDOF 1
ENDMDL
MODEL 2
REMARK VINA RESULT: -5.630306389      2.187      2.508
REMARK  1 active torsions:
REMARK  status: ('A' for Active; 'I' for Inactive)
REMARK    1  A    between atoms: C4_8  and  O1_9 
ROOT
HETATM    1  N1  UNL     1      16.696  -0.381  14.746  1.00  0.00    -0.091 NA
HETATM    2  C1  UNL     1      16.299   0.869  15.354  1.00  0.00     0.123 A 
HETATM    3  S1  UNL     1      16.348   2.450  14.724  1.00  0.00    -0.059 SA
HETATM    4  C2  UNL     1      15.715   3.299  16.054  1.00  0.00     0.101 A 
HETATM    5 CL1  UNL     1      15.442   5.040  16.193  1.00  0.00    -0.074 Cl
HETATM    6  C3  UNL     1      15.478   2.314  16.968  1.00  0.00     0.098 A 
HETATM    7 CL2  UNL     1      14.793   2.731  18.565  1.00  0.00    -0.079 Cl
HETATM    8  C4  UNL     1      15.776   1.052  16.616  1.00  0.00     0.121 A 
ENDROOT
BRANCH   8   9
HETATM    9  O1  UNL     1      15.580  -0.080  17.470  1.00  0.00    -0.357 OA
ATOM     10  H1  UNL     1      16.137  -0.194  18.232  1.00  0.00     0.218 HD
ENDBRANCH   8   9
TORSDOF 1
ENDMDL
MODEL 3
REMARK VINA RESULT: -5.386541618      1.050      1.050
REMARK  1 active torsions:
REMARK  status: ('A' for Active; 'I' for Inactive)
REMARK    1  A    between atoms: C4_8  and  O1_9 
ROOT
HETATM    1  N1  UNL     1      15.286  -0.352  17.578  1.00  0.00    -0.091 NA
HETATM    2  C1  UNL     1      15.585   0.849  16.832  1.00  0.00     0.123 A 
HETATM    3  S1  UNL     1      15.344   2.481  17.252  1.00  0.00    -0.059 SA
HETATM    4  C2  UNL     1      15.953   3.223  15.850  1.00  0.00     0.101 A 
HETATM    5 CL1  UNL     1      16.056   4.953  15.501  1.00  0.00    -0.074 Cl
HETATM    6  C3  UNL     1      16.334   2.164  15.078  1.00  0.00     0.098 A 
HETATM    7 CL2  UNL     1      17.051   2.453  13.467  1.00  0.00    -0.079 Cl
HETATM    8  C4  UNL     1      16.148   0.931  15.577  1.00  0.00     0.121 A 
ENDROOT
BRANCH   8   9
HETATM    9  O1  UNL     1      16.499  -0.270  14.881  1.00  0.00    -0.357 OA
ATOM     10  H1  UNL     1      16.923  -0.214  14.032  1.00  0.00     0.218 HD
ENDBRANCH   8   9
TORSDOF 1
ENDMDL
MODEL 4
REMARK VINA RESULT: -5.201530980      2.895      3.063
REMARK  1 active torsions:
REMARK  status: ('A' for Active; 'I' for Inactive)
REMARK    1  A    between atoms: C4_8  and  O1_9 
ROOT
HETATM    1  N1  UNL     1      17.446   1.749  13.375  1.00  0.00    -0.091 NA
HETATM    2  C1  UNL     1      16.737   1.912  14.623  1.00  0.00     0.123 A 
HETATM    3  S1  UNL     1      16.230   3.334  15.410  1.00  0.00    -0.059 SA
HETATM    4  C2  UNL     1      15.491   2.648  16.777  1.00  0.00     0.101 A 
HETATM    5 CL1  UNL     1      14.700   3.491  18.115  1.00  0.00    -0.074 Cl
HETATM    6  C3  UNL     1      15.661   1.308  16.584  1.00  0.00     0.098 A 
HETATM    7 CL2  UNL     1      15.033   0.150  17.791  1.00  0.00    -0.079 Cl
HETATM    8  C4  UNL     1      16.304   0.916  15.472  1.00  0.00     0.121 A 
ENDROOT
BRANCH   8   9
HETATM    9  O1  UNL     1      16.554  -0.454  15.137  1.00  0.00    -0.357 OA
ATOM     10  H1  UNL     1      16.175  -0.820  14.346  1.00  0.00     0.218 HD
ENDBRANCH   8   9
TORSDOF 1
ENDMDL
MODEL 5
REMARK VINA RESULT: -5.129188823      1.619      1.839
REMARK  1 active torsions:
REMARK  status: ('A' for Active; 'I' for Inactive)
REMARK    1  A    between atoms: C4_8  and  O1_9 
ROOT
HETATM    1  N1  UNL     1      17.031  -0.272  15.829  1.00  0.00    -0.091 NA
HETATM    2  C1  UNL     1      16.425   0.991  16.187  1.00  0.00     0.123 A 
HETATM    3  S1  UNL     1      15.287   1.347  17.402  1.00  0.00    -0.059 SA
HETATM    4  C2  UNL     1      15.120   3.018  17.146  1.00  0.00     0.101 A 
HETATM    5 CL1  UNL     1      14.087   4.148  18.030  1.00  0.00    -0.074 Cl
HETATM    6  C3  UNL     1      15.967   3.260  16.104  1.00  0.00     0.098 A 
HETATM    7 CL2  UNL     1      16.136   4.920  15.464  1.00  0.00    -0.079 Cl
HETATM    8  C4  UNL     1      16.648   2.218  15.601  1.00  0.00     0.121 A 
ENDROOT
BRANCH   8   9
HETATM    9  O1  UNL     1      17.571   2.321  14.510  1.00  0.00    -0.357 OA
ATOM     10  H1  UNL     1      17.573   3.104  13.972  1.00  0.00     0.218 HD
ENDBRANCH   8   9
TORSDOF 1
ENDMDL
