MODEL 1
REMARK VINA RESULT: -3.982237056      0.000      0.000
REMARK  1 active torsions:
REMARK  status: ('A' for Active; 'I' for Inactive)
REMARK    1  A    between atoms: N1_2  and  C2_4 
ROOT
HETATM    1  C2  UNL     1      15.381   2.980  14.768  1.00  0.00     0.097 A 
HETATM    2  C3  UNL     1      16.195   2.311  13.914  1.00  0.00     0.138 A 
HETATM    3 CL1  UNL     1      16.564   2.818  12.228  1.00  0.00    -0.061 Cl
HETATM    4  N2  UNL     1      16.761   1.193  14.364  1.00  0.00    -0.314 N 
ATOM      5  H2  UNL     1      17.393   0.570  13.861  1.00  0.00     0.175 HD
HETATM    6  S1  UNL     1      16.204   1.033  15.935  1.00  0.00     0.001 SA
HETATM    7  C4  UNL     1      15.230   2.427  16.012  1.00  0.00     0.120 A 
HETATM    8 CL2  UNL     1      14.247   3.043  17.356  1.00  0.00    -0.072 Cl
ENDROOT
BRANCH   1   9
HETATM    9  N1  UNL     1      14.699   4.218  14.405  1.00  0.00    -0.390 N 
HETATM   10  C1  UNL     1      15.252   5.498  14.788  1.00  0.00     0.146 C 
ATOM     11  H1  UNL     1      13.826   4.180  13.879  1.00  0.00     0.159 HD
ENDBRANCH   1   9
TORSDOF 1
ENDMDL
MODEL 2
REMARK VINA RESULT: -3.919688984      2.108      4.146
REMARK  1 active torsions:
REMARK  status: ('A' for Active; 'I' for Inactive)
REMARK    1  A    between atoms: N1_2  and  C2_4 
ROOT
HETATM    1  C2  UNL     1      16.073   2.537  15.882  1.00  0.00     0.097 A 
HETATM    2  C3  UNL     1      14.949   2.623  16.636  1.00  0.00     0.138 A 
HETATM    3 CL1  UNL     1      14.392   1.374  17.806  1.00  0.00    -0.061 Cl
HETATM    4  N2  UNL     1      14.203   3.716  16.493  1.00  0.00    -0.314 N 
ATOM      5  H2  UNL     1      13.333   3.943  16.975  1.00  0.00     0.175 HD
HETATM    6  S1  UNL     1      15.007   4.636  15.348  1.00  0.00     0.001 SA
HETATM    7  C4  UNL     1      16.321   3.596  15.050  1.00  0.00     0.120 A 
HETATM    8 CL2  UNL     1      17.693   3.801  13.941  1.00  0.00    -0.072 Cl
ENDROOT
BRANCH   1   9
HETATM    9  N1  UNL     1      16.980   1.395  15.940  1.00  0.00    -0.390 N 
HETATM   10  C1  UNL     1      16.673   0.180  15.220  1.00  0.00     0.146 C 
ATOM     11  H1  UNL     1      17.836   1.455  16.492  1.00  0.00     0.159 HD
ENDBRANCH   1   9
TORSDOF 1
ENDMDL
MODEL 3
REMARK VINA RESULT: -3.868561857      2.505      2.950
REMARK  1 active torsions:
REMARK  status: ('A' for Active; 'I' for Inactive)
REMARK    1  A    between atoms: N1_2  and  C2_4 
ROOT
HETATM    1  C2  UNL     1      15.642   2.659  15.651  1.00  0.00     0.097 A 
HETATM    2  C3  UNL     1      16.334   1.741  14.932  1.00  0.00     0.138 A 
HETATM    3 CL1  UNL     1      16.657   0.050  15.456  1.00  0.00    -0.061 Cl
HETATM    4  N2  UNL     1      16.811   2.126  13.751  1.00  0.00    -0.314 N 
ATOM      5  H2  UNL     1      17.349   1.572  13.086  1.00  0.00     0.175 HD
HETATM    6  S1  UNL     1      16.331   3.724  13.597  1.00  0.00     0.001 SA
HETATM    7  C4  UNL     1      15.506   3.895  15.076  1.00  0.00     0.120 A 
HETATM    8 CL2  UNL     1      14.665   5.310  15.741  1.00  0.00    -0.072 Cl
ENDROOT
BRANCH   1   9
HETATM    9  N1  UNL     1      15.065   2.370  16.960  1.00  0.00    -0.390 N 
HETATM   10  C1  UNL     1      13.895   1.527  17.074  1.00  0.00     0.146 C 
ATOM     11  H1  UNL     1      15.489   2.764  17.799  1.00  0.00     0.159 HD
ENDBRANCH   1   9
TORSDOF 1
ENDMDL
MODEL 4
REMARK VINA RESULT: -3.867230216      2.304      3.061
REMARK  1 active torsions:
REMARK  status: ('A' for Active; 'I' for Inactive)
REMARK    1  A    between atoms: N1_2  and  C2_4 
ROOT
HETATM    1  C2  UNL     1      15.912   2.773  15.216  1.00  0.00     0.097 A 
HETATM    2  C3  UNL     1      15.081   3.786  15.567  1.00  0.00     0.138 A 
HETATM    3 CL1  UNL     1      14.993   5.382  14.740  1.00  0.00    -0.061 Cl
HETATM    4  N2  UNL     1      14.273   3.579  16.603  1.00  0.00    -0.314 N 
ATOM      5  H2  UNL     1      13.591   4.225  16.999  1.00  0.00     0.175 HD
HETATM    6  S1  UNL     1      14.621   2.022  17.113  1.00  0.00     0.001 SA
HETATM    7  C4  UNL     1      15.826   1.635  15.974  1.00  0.00     0.120 A 
HETATM    8 CL2  UNL     1      16.761   0.138  15.785  1.00  0.00    -0.072 Cl
ENDROOT
BRANCH   1   9
HETATM    9  N1  UNL     1      16.849   2.867  14.101  1.00  0.00    -0.390 N 
HETATM   10  C1  UNL     1      16.518   2.291  12.817  1.00  0.00     0.146 C 
ATOM     11  H1  UNL     1      17.743   3.341  14.228  1.00  0.00     0.159 HD
ENDBRANCH   1   9
TORSDOF 1
ENDMDL
MODEL 5
REMARK VINA RESULT: -3.812992167      2.196      2.592
REMARK  1 active torsions:
REMARK  status: ('A' for Active; 'I' for Inactive)
REMARK    1  A    between atoms: N1_2  and  C2_4 
ROOT
HETATM    1  C2  UNL     1      16.516   2.457  13.587  1.00  0.00     0.097 A 
HETATM    2  C3  UNL     1      16.630   1.112  13.718  1.00  0.00     0.138 A 
HETATM    3 CL1  UNL     1      16.847  -0.044  12.357  1.00  0.00    -0.061 Cl
HETATM    4  N2  UNL     1      16.574   0.615  14.952  1.00  0.00    -0.314 N 
ATOM      5  H2  UNL     1      16.640  -0.363  15.232  1.00  0.00     0.175 HD
HETATM    6  S1  UNL     1      16.369   1.950  15.942  1.00  0.00     0.001 SA
HETATM    7  C4  UNL     1      16.356   3.164  14.749  1.00  0.00     0.120 A 
HETATM    8 CL2  UNL     1      16.180   4.921  14.929  1.00  0.00    -0.072 Cl
ENDROOT
BRANCH   1   9
HETATM    9  N1  UNL     1      16.561   3.133  12.294  1.00  0.00    -0.390 N 
HETATM   10  C1  UNL     1      17.830   3.479  11.692  1.00  0.00     0.146 C 
ATOM     11  H1  UNL     1      15.692   3.363  11.811  1.00  0.00     0.159 HD
ENDBRANCH   1   9
TORSDOF 1
ENDMDL
