MODEL 1
REMARK VINA RESULT: -5.349251098      0.000      0.000
REMARK  0 active torsions:
REMARK  status: ('A' for Active; 'I' for Inactive)
ROOT
HETATM    1  N1  UNL     1      15.328  -0.288  17.590  1.00  0.00    -0.073 NA
HETATM    2  C1  UNL     1      15.519   0.762  16.644  1.00  0.00     0.182 A 
HETATM    3  O1  UNL     1      16.059   0.586  15.455  1.00  0.00    -0.280 OA
HETATM    4  C2  UNL     1      16.109   1.722  14.802  1.00  0.00     0.170 A 
HETATM    5 CL1  UNL     1      16.747   1.942  13.199  1.00  0.00    -0.054 Cl
HETATM    6  C3  UNL     1      15.573   2.716  15.597  1.00  0.00     0.105 A 
HETATM    7 CL2  UNL     1      15.386   4.411  15.238  1.00  0.00    -0.078 Cl
HETATM    8  C4  UNL     1      15.203   2.087  16.763  1.00  0.00     0.107 A 
HETATM    9 CL3  UNL     1      14.463   2.820  18.159  1.00  0.00    -0.078 Cl
ENDROOT
TORSDOF 0
ENDMDL
MODEL 2
REMARK VINA RESULT: -5.347581741      1.802      1.918
REMARK  0 active torsions:
REMARK  status: ('A' for Active; 'I' for Inactive)
ROOT
HETATM    1  N1  UNL     1      16.906  -0.130  15.877  1.00  0.00    -0.073 NA
HETATM    2  C1  UNL     1      16.433   1.216  15.864  1.00  0.00     0.182 A 
HETATM    3  O1  UNL     1      17.006   2.186  15.182  1.00  0.00    -0.280 OA
HETATM    4  C2  UNL     1      16.359   3.313  15.356  1.00  0.00     0.170 A 
HETATM    5 CL1  UNL     1      16.775   4.842  14.640  1.00  0.00    -0.054 Cl
HETATM    6  C3  UNL     1      15.292   3.086  16.203  1.00  0.00     0.105 A 
HETATM    7 CL2  UNL     1      14.100   4.221  16.776  1.00  0.00    -0.078 Cl
HETATM    8  C4  UNL     1      15.355   1.748  16.515  1.00  0.00     0.107 A 
HETATM    9 CL3  UNL     1      14.271   0.861  17.551  1.00  0.00    -0.078 Cl
ENDROOT
TORSDOF 0
ENDMDL
MODEL 3
REMARK VINA RESULT: -5.216482388      1.436      1.481
REMARK  0 active torsions:
REMARK  status: ('A' for Active; 'I' for Inactive)
ROOT
HETATM    1  N1  UNL     1      16.868  -0.071  15.960  1.00  0.00    -0.073 NA
HETATM    2  C1  UNL     1      16.471   1.225  15.517  1.00  0.00     0.182 A 
HETATM    3  O1  UNL     1      16.819   1.739  14.355  1.00  0.00    -0.280 OA
HETATM    4  C2  UNL     1      16.311   2.940  14.216  1.00  0.00     0.170 A 
HETATM    5 CL1  UNL     1      16.522   3.975  12.834  1.00  0.00    -0.054 Cl
HETATM    6  C3  UNL     1      15.583   3.249  15.347  1.00  0.00     0.105 A 
HETATM    7 CL2  UNL     1      14.698   4.707  15.704  1.00  0.00    -0.078 Cl
HETATM    8  C4  UNL     1      15.695   2.147  16.162  1.00  0.00     0.107 A 
HETATM    9 CL3  UNL     1      14.988   1.934  17.741  1.00  0.00    -0.078 Cl
ENDROOT
TORSDOF 0
ENDMDL
MODEL 4
REMARK VINA RESULT: -5.198954908      1.350      3.076
REMARK  0 active torsions:
REMARK  status: ('A' for Active; 'I' for Inactive)
ROOT
HETATM    1  N1  UNL     1      16.840  -0.476  15.189  1.00  0.00    -0.073 NA
HETATM    2  C1  UNL     1      16.204   0.632  15.822  1.00  0.00     0.182 A 
HETATM    3  O1  UNL     1      15.835   0.639  17.087  1.00  0.00    -0.280 OA
HETATM    4  C2  UNL     1      15.277   1.785  17.395  1.00  0.00     0.170 A 
HETATM    5 CL1  UNL     1      14.648   2.218  18.958  1.00  0.00    -0.054 Cl
HETATM    6  C3  UNL     1      15.271   2.592  16.275  1.00  0.00     0.105 A 
HETATM    7 CL2  UNL     1      14.655   4.214  16.109  1.00  0.00    -0.078 Cl
HETATM    8  C4  UNL     1      15.864   1.843  15.286  1.00  0.00     0.107 A 
HETATM    9 CL3  UNL     1      16.146   2.322  13.635  1.00  0.00    -0.078 Cl
ENDROOT
TORSDOF 0
ENDMDL
MODEL 5
REMARK VINA RESULT: -5.155368623      1.918      2.667
REMARK  0 active torsions:
REMARK  status: ('A' for Active; 'I' for Inactive)
ROOT
HETATM    1  N1  UNL     1      16.278   0.295  16.542  1.00  0.00    -0.073 NA
HETATM    2  C1  UNL     1      16.423   0.595  15.155  1.00  0.00     0.182 A 
HETATM    3  O1  UNL     1      16.552  -0.323  14.218  1.00  0.00    -0.280 OA
HETATM    4  C2  UNL     1      16.667   0.240  13.039  1.00  0.00     0.170 A 
HETATM    5 CL1  UNL     1      16.857  -0.601  11.529  1.00  0.00    -0.054 Cl
HETATM    6  C3  UNL     1      16.612   1.611  13.194  1.00  0.00     0.105 A 
HETATM    7 CL2  UNL     1      16.714   2.847  11.969  1.00  0.00    -0.078 Cl
HETATM    8  C4  UNL     1      16.457   1.818  14.544  1.00  0.00     0.107 A 
HETATM    9 CL3  UNL     1      16.324   3.350  15.362  1.00  0.00    -0.078 Cl
ENDROOT
TORSDOF 0
ENDMDL
