MODEL 1
REMARK VINA RESULT: -4.527487546      0.000      0.000
REMARK  1 active torsions:
REMARK  status: ('A' for Active; 'I' for Inactive)
REMARK    1  A    between atoms: N1_2  and  C1_4 
ROOT
HETATM    1  C1  UNL     1      16.229   1.479  15.090  1.00  0.00     0.146 A 
HETATM    2  N2  UNL     1      16.644   0.541  14.292  1.00  0.00    -0.325 N 
ATOM      3  H2  UNL     1      16.882  -0.375  14.673  1.00  0.00     0.169 HD
HETATM    4  C2  UNL     1      16.762   0.758  13.000  1.00  0.00     0.148 A 
HETATM    5 CL2  UNL     1      17.304  -0.334  11.709  1.00  0.00    -0.056 Cl
HETATM    6  S1  UNL     1      16.254   2.403  12.876  1.00  0.00    -0.044 SA
HETATM    7  C3  UNL     1      15.926   2.690  14.521  1.00  0.00     0.122 A 
HETATM    8 CL3  UNL     1      15.359   4.138  15.374  1.00  0.00    -0.072 Cl
ENDROOT
BRANCH   1   9
HETATM    9  N1  UNL     1      16.088   1.272  16.514  1.00  0.00    -0.282 N 
HETATM   10 CL1  UNL     1      14.506   0.992  17.160  1.00  0.00     0.012 Cl
ATOM     11  H1  UNL     1      16.903   1.290  17.126  1.00  0.00     0.182 HD
ENDBRANCH   1   9
TORSDOF 1
ENDMDL
MODEL 2
REMARK VINA RESULT: -4.387380566      2.455      3.509
REMARK  1 active torsions:
REMARK  status: ('A' for Active; 'I' for Inactive)
REMARK    1  A    between atoms: N1_2  and  C1_4 
ROOT
HETATM    1  C1  UNL     1      15.090   2.801  16.058  1.00  0.00     0.146 A 
HETATM    2  N2  UNL     1      14.669   3.945  15.610  1.00  0.00    -0.325 N 
ATOM      3  H2  UNL     1      14.033   4.505  16.179  1.00  0.00     0.169 HD
HETATM    4  C2  UNL     1      15.050   4.391  14.433  1.00  0.00     0.148 A 
HETATM    5 CL2  UNL     1      14.623   5.897  13.594  1.00  0.00    -0.056 Cl
HETATM    6  S1  UNL     1      16.084   3.116  13.898  1.00  0.00    -0.044 SA
HETATM    7  C3  UNL     1      15.942   2.093  15.250  1.00  0.00     0.122 A 
HETATM    8 CL3  UNL     1      16.650   0.505  15.604  1.00  0.00    -0.072 Cl
ENDROOT
BRANCH   1   9
HETATM    9  N1  UNL     1      14.690   2.284  17.349  1.00  0.00    -0.282 N 
HETATM   10 CL1  UNL     1      13.653   0.899  17.405  1.00  0.00     0.012 Cl
ATOM     11  H1  UNL     1      15.013   2.727  18.209  1.00  0.00     0.182 HD
ENDBRANCH   1   9
TORSDOF 1
ENDMDL
MODEL 3
REMARK VINA RESULT: -4.359241648      3.003      4.232
REMARK  1 active torsions:
REMARK  status: ('A' for Active; 'I' for Inactive)
REMARK    1  A    between atoms: N1_2  and  C1_4 
ROOT
HETATM    1  C1  UNL     1      15.377   4.067  15.491  1.00  0.00     0.146 A 
HETATM    2  N2  UNL     1      14.517   3.379  16.180  1.00  0.00    -0.325 N 
ATOM      3  H2  UNL     1      13.662   3.828  16.511  1.00  0.00     0.169 HD
HETATM    4  C2  UNL     1      14.734   2.112  16.458  1.00  0.00     0.148 A 
HETATM    5 CL2  UNL     1      13.737   0.962  17.374  1.00  0.00    -0.056 Cl
HETATM    6  S1  UNL     1      16.261   1.846  15.698  1.00  0.00    -0.044 SA
HETATM    7  C3  UNL     1      16.507   3.410  15.075  1.00  0.00     0.122 A 
HETATM    8 CL3  UNL     1      17.844   4.109  14.140  1.00  0.00    -0.072 Cl
ENDROOT
BRANCH   1   9
HETATM    9  N1  UNL     1      15.167   5.461  15.168  1.00  0.00    -0.282 N 
HETATM   10 CL1  UNL     1      14.339   5.860  13.701  1.00  0.00     0.012 Cl
ATOM     11  H1  UNL     1      15.500   6.195  15.793  1.00  0.00     0.182 HD
ENDBRANCH   1   9
TORSDOF 1
ENDMDL
MODEL 4
REMARK VINA RESULT: -4.275148255      2.046      3.928
REMARK  1 active torsions:
REMARK  status: ('A' for Active; 'I' for Inactive)
REMARK    1  A    between atoms: N1_2  and  C1_4 
ROOT
HETATM    1  C1  UNL     1      15.886   1.889  15.232  1.00  0.00     0.146 A 
HETATM    2  N2  UNL     1      15.765   2.987  14.549  1.00  0.00    -0.325 N 
ATOM      3  H2  UNL     1      16.249   3.081  13.655  1.00  0.00     0.169 HD
HETATM    4  C2  UNL     1      15.028   3.981  14.995  1.00  0.00     0.148 A 
HETATM    5 CL2  UNL     1      14.704   5.571  14.272  1.00  0.00    -0.056 Cl
HETATM    6  S1  UNL     1      14.449   3.340  16.490  1.00  0.00    -0.044 SA
HETATM    7  C3  UNL     1      15.214   1.822  16.425  1.00  0.00     0.122 A 
HETATM    8 CL3  UNL     1      15.219   0.457  17.558  1.00  0.00    -0.072 Cl
ENDROOT
BRANCH   1   9
HETATM    9  N1  UNL     1      16.688   0.778  14.768  1.00  0.00    -0.282 N 
HETATM   10 CL1  UNL     1      16.747   0.447  13.070  1.00  0.00     0.012 Cl
ATOM     11  H1  UNL     1      17.209   0.201  15.428  1.00  0.00     0.182 HD
ENDBRANCH   1   9
TORSDOF 1
ENDMDL
MODEL 5
REMARK VINA RESULT: -4.236184710      1.324      1.324
REMARK  1 active torsions:
REMARK  status: ('A' for Active; 'I' for Inactive)
REMARK    1  A    between atoms: N1_2  and  C1_4 
ROOT
HETATM    1  C1  UNL     1      16.595   1.914  14.187  1.00  0.00     0.146 A 
HETATM    2  N2  UNL     1      16.816   0.691  13.809  1.00  0.00    -0.325 N 
ATOM      3  H2  UNL     1      17.048  -0.017  14.506  1.00  0.00     0.169 HD
HETATM    4  C2  UNL     1      16.745   0.354  12.539  1.00  0.00     0.148 A 
HETATM    5 CL2  UNL     1      17.004  -1.223  11.765  1.00  0.00    -0.056 Cl
HETATM    6  S1  UNL     1      16.336   1.861  11.803  1.00  0.00    -0.044 SA
HETATM    7  C3  UNL     1      16.288   2.822  13.206  1.00  0.00     0.122 A 
HETATM    8 CL3  UNL     1      15.961   4.550  13.439  1.00  0.00    -0.072 Cl
ENDROOT
BRANCH   1   9
HETATM    9  N1  UNL     1      16.663   2.315  15.575  1.00  0.00    -0.282 N 
HETATM   10 CL1  UNL     1      15.188   2.491  16.464  1.00  0.00     0.012 Cl
ATOM     11  H1  UNL     1      17.563   2.491  16.022  1.00  0.00     0.182 HD
ENDBRANCH   1   9
TORSDOF 1
ENDMDL
