MODEL 1
REMARK VINA RESULT: -4.799147741      0.000      0.000
REMARK  0 active torsions:
REMARK  status: ('A' for Active; 'I' for Inactive)
ROOT
HETATM    1  C1  UNL     1      14.746   2.274  18.310  1.00  0.00     0.089 C 
HETATM    2  C2  UNL     1      15.243   2.046  16.903  1.00  0.00     0.079 A 
HETATM    3  N1  UNL     1      15.746   0.906  16.414  1.00  0.00    -0.330 N 
ATOM      4  H1  UNL     1      15.853   0.045  16.951  1.00  0.00     0.168 HD
HETATM    5  C3  UNL     1      16.101   1.047  15.096  1.00  0.00     0.142 A 
HETATM    6  N2  UNL     1      16.621   0.310  14.136  1.00  0.00    -0.325 N 
ATOM      7  H2  UNL     1      16.873  -0.664  14.305  1.00  0.00     0.169 HD
HETATM    8  C4  UNL     1      16.811   0.861  12.941  1.00  0.00     0.146 A 
HETATM    9  S1  UNL     1      17.442   0.150  11.587  1.00  0.00    -0.052 SA
HETATM   10  S2  UNL     1      16.246   2.457  13.167  1.00  0.00    -0.039 SA
HETATM   11  C5  UNL     1      15.787   2.338  14.806  1.00  0.00     0.122 A 
HETATM   12  N3  UNL     1      15.267   2.940  15.904  1.00  0.00    -0.337 N 
ATOM     13  H3  UNL     1      14.949   3.907  15.960  1.00  0.00     0.168 HD
ENDROOT
TORSDOF 0
ENDMDL
MODEL 2
REMARK VINA RESULT: -4.692100139      1.451      1.593
REMARK  0 active torsions:
REMARK  status: ('A' for Active; 'I' for Inactive)
ROOT
HETATM    1  C1  UNL     1      14.747   4.083  16.522  1.00  0.00     0.089 C 
HETATM    2  C2  UNL     1      15.329   3.358  15.333  1.00  0.00     0.079 A 
HETATM    3  N1  UNL     1      15.734   2.082  15.301  1.00  0.00    -0.330 N 
ATOM      4  H1  UNL     1      15.694   1.444  16.096  1.00  0.00     0.168 HD
HETATM    5  C3  UNL     1      16.211   1.746  14.060  1.00  0.00     0.142 A 
HETATM    6  N2  UNL     1      16.720   0.689  13.457  1.00  0.00    -0.325 N 
ATOM      7  H2  UNL     1      16.840  -0.190  13.961  1.00  0.00     0.169 HD
HETATM    8  C4  UNL     1      17.072   0.793  12.180  1.00  0.00     0.146 A 
HETATM    9  S1  UNL     1      17.726  -0.380  11.212  1.00  0.00    -0.052 SA
HETATM   10  S2  UNL     1      16.682   2.413  11.810  1.00  0.00    -0.039 SA
HETATM   11  C5  UNL     1      16.077   2.887  13.333  1.00  0.00     0.122 A 
HETATM   12  N3  UNL     1      15.542   3.862  14.109  1.00  0.00    -0.337 N 
ATOM     13  H3  UNL     1      15.336   4.816  13.811  1.00  0.00     0.168 HD
ENDROOT
TORSDOF 0
ENDMDL
MODEL 3
REMARK VINA RESULT: -4.691400332      2.346      2.553
REMARK  0 active torsions:
REMARK  status: ('A' for Active; 'I' for Inactive)
ROOT
HETATM    1  C1  UNL     1      14.953   0.388  17.476  1.00  0.00     0.089 C 
HETATM    2  C2  UNL     1      15.389   1.467  16.515  1.00  0.00     0.079 A 
HETATM    3  N1  UNL     1      16.522   1.484  15.801  1.00  0.00    -0.330 N 
ATOM      4  H1  UNL     1      17.233   0.752  15.829  1.00  0.00     0.168 HD
HETATM    5  C3  UNL     1      16.603   2.614  15.028  1.00  0.00     0.142 A 
HETATM    6  N2  UNL     1      17.439   3.154  14.164  1.00  0.00    -0.325 N 
ATOM      7  H2  UNL     1      18.312   2.686  13.921  1.00  0.00     0.169 HD
HETATM    8  C4  UNL     1      17.121   4.323  13.615  1.00  0.00     0.146 A 
HETATM    9  S1  UNL     1      17.996   5.195  12.514  1.00  0.00    -0.052 SA
HETATM   10  S2  UNL     1      15.610   4.676  14.327  1.00  0.00    -0.039 SA
HETATM   11  C5  UNL     1      15.456   3.289  15.309  1.00  0.00     0.122 A 
HETATM   12  N3  UNL     1      14.724   2.590  16.210  1.00  0.00    -0.337 N 
ATOM     13  H3  UNL     1      13.820   2.871  16.592  1.00  0.00     0.168 HD
ENDROOT
TORSDOF 0
ENDMDL
MODEL 4
REMARK VINA RESULT: -4.650210718      2.390      4.565
REMARK  0 active torsions:
REMARK  status: ('A' for Active; 'I' for Inactive)
ROOT
HETATM    1  C1  UNL     1      17.247   0.278  11.503  1.00  0.00     0.089 C 
HETATM    2  C2  UNL     1      16.707   0.906  12.766  1.00  0.00     0.079 A 
HETATM    3  N1  UNL     1      16.141   2.114  12.871  1.00  0.00    -0.330 N 
ATOM      4  H1  UNL     1      16.008   2.760  12.092  1.00  0.00     0.168 HD
HETATM    5  C3  UNL     1      15.762   2.371  14.164  1.00  0.00     0.142 A 
HETATM    6  N2  UNL     1      15.186   3.343  14.843  1.00  0.00    -0.325 N 
ATOM      7  H2  UNL     1      14.892   4.202  14.376  1.00  0.00     0.169 HD
HETATM    8  C4  UNL     1      14.994   3.181  16.149  1.00  0.00     0.146 A 
HETATM    9  S1  UNL     1      14.299   4.245  17.209  1.00  0.00    -0.052 SA
HETATM   10  S2  UNL     1      15.638   1.627  16.436  1.00  0.00    -0.039 SA
HETATM   11  C5  UNL     1      16.130   1.253  14.845  1.00  0.00     0.122 A 
HETATM   12  N3  UNL     1      16.702   0.367  13.993  1.00  0.00    -0.337 N 
ATOM     13  H3  UNL     1      17.066  -0.552  14.244  1.00  0.00     0.168 HD
ENDROOT
TORSDOF 0
ENDMDL
MODEL 5
REMARK VINA RESULT: -4.591337990      2.621      4.574
REMARK  0 active torsions:
REMARK  status: ('A' for Active; 'I' for Inactive)
ROOT
HETATM    1  C1  UNL     1      17.182  -0.601  11.304  1.00  0.00     0.089 C 
HETATM    2  C2  UNL     1      16.789   0.425  12.339  1.00  0.00     0.079 A 
HETATM    3  N1  UNL     1      16.450   1.699  12.104  1.00  0.00    -0.330 N 
ATOM      4  H1  UNL     1      16.420   2.127  11.178  1.00  0.00     0.168 HD
HETATM    5  C3  UNL     1      16.148   2.354  13.271  1.00  0.00     0.142 A 
HETATM    6  N2  UNL     1      15.768   3.557  13.651  1.00  0.00    -0.325 N 
ATOM      7  H2  UNL     1      15.624   4.299  12.965  1.00  0.00     0.169 HD
HETATM    8  C4  UNL     1      15.576   3.785  14.947  1.00  0.00     0.146 A 
HETATM    9  S1  UNL     1      15.103   5.198  15.666  1.00  0.00    -0.052 SA
HETATM   10  S2  UNL     1      15.937   2.274  15.654  1.00  0.00    -0.039 SA
HETATM   11  C5  UNL     1      16.322   1.410  14.234  1.00  0.00     0.122 A 
HETATM   12  N3  UNL     1      16.711   0.243  13.664  1.00  0.00    -0.337 N 
ATOM     13  H3  UNL     1      16.909  -0.627  14.160  1.00  0.00     0.168 HD
ENDROOT
TORSDOF 0
ENDMDL
