MODEL 1
REMARK VINA RESULT: -5.165008923      0.000      0.000
REMARK  1 active torsions:
REMARK  status: ('A' for Active; 'I' for Inactive)
REMARK    1  A    between atoms: C9_10  and  C10_11 
ROOT
HETATM    1  C1  UNL     1      19.601   0.697  10.811  1.00  0.00     0.080 C 
HETATM    2  C2  UNL     1      18.669   1.719  11.320  1.00  0.00     0.171 C 
HETATM    3  O1  UNL     1      18.148   2.567  10.336  1.00  0.00    -0.342 OA
HETATM    4  C3  UNL     1      18.119   3.844  10.888  1.00  0.00     0.088 C 
HETATM    5  C4  UNL     1      19.417   4.515  10.492  1.00  0.00     0.049 C 
HETATM    6  C5  UNL     1      16.935   4.649  10.513  1.00  0.00     0.049 C 
HETATM    7  C6  UNL     1      18.172   3.488  12.364  1.00  0.00     0.092 C 
HETATM    8  C7  UNL     1      18.407   4.617  13.264  1.00  0.00     0.049 C 
HETATM    9  C8  UNL     1      17.071   2.548  12.764  1.00  0.00     0.056 C 
HETATM   10  C9  UNL     1      17.541   1.215  12.159  1.00  0.00     0.088 C 
HETATM   11  O2  UNL     1      19.267   2.591  12.269  1.00  0.00    -0.341 OA
ENDROOT
BRANCH  10  12
HETATM   12  C10 UNL     1      16.475   0.540  11.444  1.00  0.00     0.063 C 
HETATM   13  N1  UNL     1      15.638   1.209  10.757  1.00  0.00    -0.410 N 
ATOM     14  H12 UNL     1      15.731   2.224  10.720  1.00  0.00     0.155 HD
ATOM     15  H11 UNL     1      14.888   0.735  10.254  1.00  0.00     0.155 HD
ENDBRANCH  10  12
TORSDOF 1
ENDMDL
MODEL 2
REMARK VINA RESULT: -5.055088801      1.703      2.802
REMARK  1 active torsions:
REMARK  status: ('A' for Active; 'I' for Inactive)
REMARK    1  A    between atoms: C9_10  and  C10_11 
ROOT
HETATM    1  C1  UNL     1      16.065   2.188  14.569  1.00  0.00     0.080 C 
HETATM    2  C2  UNL     1      16.607   2.490  13.231  1.00  0.00     0.171 C 
HETATM    3  O1  UNL     1      17.998   2.649  13.195  1.00  0.00    -0.342 OA
HETATM    4  C3  UNL     1      18.254   3.709  12.331  1.00  0.00     0.088 C 
HETATM    5  C4  UNL     1      18.339   4.953  13.189  1.00  0.00     0.049 C 
HETATM    6  C5  UNL     1      19.452   3.533  11.480  1.00  0.00     0.049 C 
HETATM    7  C6  UNL     1      16.949   3.729  11.553  1.00  0.00     0.092 C 
HETATM    8  C7  UNL     1      16.757   4.899  10.698  1.00  0.00     0.049 C 
HETATM    9  C8  UNL     1      16.639   2.400  10.926  1.00  0.00     0.056 C 
HETATM   10  C9  UNL     1      16.206   1.557  12.137  1.00  0.00     0.088 C 
HETATM   11  O2  UNL     1      16.092   3.696  12.684  1.00  0.00    -0.341 OA
ENDROOT
BRANCH  10  12
HETATM   12  C10 UNL     1      16.848   0.257  12.149  1.00  0.00     0.063 C 
HETATM   13  N1  UNL     1      18.049   0.129  11.747  1.00  0.00    -0.410 N 
ATOM     14  H12 UNL     1      18.548   0.955  11.417  1.00  0.00     0.155 HD
ATOM     15  H11 UNL     1      18.500  -0.785  11.755  1.00  0.00     0.155 HD
ENDBRANCH  10  12
TORSDOF 1
ENDMDL
MODEL 3
REMARK VINA RESULT: -4.940915792      1.842      3.107
REMARK  1 active torsions:
REMARK  status: ('A' for Active; 'I' for Inactive)
REMARK    1  A    between atoms: C9_10  and  C10_11 
ROOT
HETATM    1  C1  UNL     1      16.731   0.686  12.216  1.00  0.00     0.080 C 
HETATM    2  C2  UNL     1      17.288   2.022  11.937  1.00  0.00     0.171 C 
HETATM    3  O1  UNL     1      17.722   2.715  13.074  1.00  0.00    -0.342 OA
HETATM    4  C3  UNL     1      17.346   4.043  12.896  1.00  0.00     0.088 C 
HETATM    5  C4  UNL     1      15.997   4.201  13.565  1.00  0.00     0.049 C 
HETATM    6  C5  UNL     1      18.333   5.032  13.385  1.00  0.00     0.049 C 
HETATM    7  C6  UNL     1      17.160   4.059  11.389  1.00  0.00     0.092 C 
HETATM    8  C7  UNL     1      16.515   5.260  10.858  1.00  0.00     0.049 C 
HETATM    9  C8  UNL     1      18.388   3.596  10.658  1.00  0.00     0.056 C 
HETATM   10  C9  UNL     1      18.365   2.079  10.905  1.00  0.00     0.088 C 
HETATM   11  O2  UNL     1      16.352   2.894  11.318  1.00  0.00    -0.341 OA
ENDROOT
BRANCH  10  12
HETATM   12  C10 UNL     1      19.662   1.579  11.318  1.00  0.00     0.063 C 
HETATM   13  N1  UNL     1      20.445   2.312  12.004  1.00  0.00    -0.410 N 
ATOM     14  H12 UNL     1      20.143   3.253  12.256  1.00  0.00     0.155 HD
ATOM     15  H11 UNL     1      21.357   1.961  12.295  1.00  0.00     0.155 HD
ENDBRANCH  10  12
TORSDOF 1
ENDMDL
MODEL 4
REMARK VINA RESULT: -4.846694155      2.680      3.860
REMARK  1 active torsions:
REMARK  status: ('A' for Active; 'I' for Inactive)
REMARK    1  A    between atoms: C9_10  and  C10_11 
ROOT
HETATM    1  C1  UNL     1      15.450   2.187  15.389  1.00  0.00     0.080 C 
HETATM    2  C2  UNL     1      16.117   3.100  14.442  1.00  0.00     0.171 C 
HETATM    3  O1  UNL     1      15.733   2.926  13.107  1.00  0.00    -0.342 OA
HETATM    4  C3  UNL     1      16.888   3.058  12.343  1.00  0.00     0.088 C 
HETATM    5  C4  UNL     1      17.440   1.662  12.152  1.00  0.00     0.049 C 
HETATM    6  C5  UNL     1      16.697   3.765  11.056  1.00  0.00     0.049 C 
HETATM    7  C6  UNL     1      17.766   3.811  13.328  1.00  0.00     0.092 C 
HETATM    8  C7  UNL     1      19.175   3.914  12.948  1.00  0.00     0.049 C 
HETATM    9  C8  UNL     1      17.122   5.079  13.812  1.00  0.00     0.056 C 
HETATM   10  C9  UNL     1      16.044   4.554  14.774  1.00  0.00     0.088 C 
HETATM   11  O2  UNL     1      17.531   2.953  14.434  1.00  0.00    -0.341 OA
ENDROOT
BRANCH  10  12
HETATM   12  C10 UNL     1      14.760   5.189  14.547  1.00  0.00     0.063 C 
HETATM   13  N1  UNL     1      14.515   5.763  13.437  1.00  0.00    -0.410 N 
ATOM     14  H12 UNL     1      15.235   5.766  12.715  1.00  0.00     0.155 HD
ATOM     15  H11 UNL     1      13.612   6.210  13.277  1.00  0.00     0.155 HD
ENDBRANCH  10  12
TORSDOF 1
ENDMDL
MODEL 5
REMARK VINA RESULT: -4.762957845      2.628      3.959
REMARK  1 active torsions:
REMARK  status: ('A' for Active; 'I' for Inactive)
REMARK    1  A    between atoms: C9_10  and  C10_11 
ROOT
HETATM    1  C1  UNL     1      14.736   5.121  14.410  1.00  0.00     0.080 C 
HETATM    2  C2  UNL     1      15.790   4.261  13.841  1.00  0.00     0.171 C 
HETATM    3  O1  UNL     1      17.089   4.604  14.236  1.00  0.00    -0.342 OA
HETATM    4  C3  UNL     1      17.896   4.458  13.111  1.00  0.00     0.088 C 
HETATM    5  C4  UNL     1      17.958   5.817  12.446  1.00  0.00     0.049 C 
HETATM    6  C5  UNL     1      19.242   3.908  13.387  1.00  0.00     0.049 C 
HETATM    7  C6  UNL     1      17.018   3.537  12.281  1.00  0.00     0.092 C 
HETATM    8  C7  UNL     1      17.447   3.358  10.894  1.00  0.00     0.049 C 
HETATM    9  C8  UNL     1      16.649   2.283  13.020  1.00  0.00     0.056 C 
HETATM   10  C9  UNL     1      15.608   2.791  14.031  1.00  0.00     0.088 C 
HETATM   11  O2  UNL     1      15.824   4.290  12.421  1.00  0.00    -0.341 OA
ENDROOT
BRANCH  10  12
HETATM   12  C10 UNL     1      15.863   2.291  15.368  1.00  0.00     0.063 C 
HETATM   13  N1  UNL     1      16.953   1.688  15.632  1.00  0.00    -0.410 N 
ATOM     14  H12 UNL     1      17.639   1.564  14.888  1.00  0.00     0.155 HD
ATOM     15  H11 UNL     1      17.132   1.335  16.572  1.00  0.00     0.155 HD
ENDBRANCH  10  12
TORSDOF 1
ENDMDL
