MODEL 1
REMARK VINA RESULT: -5.229171617      0.000      0.000
REMARK  0 active torsions:
REMARK  status: ('A' for Active; 'I' for Inactive)
ROOT
HETATM    1  S1  UNL     1      16.483   6.203  12.399  1.00  0.00    -0.052 SA
HETATM    2  C1  UNL     1      16.235   4.900  13.374  1.00  0.00     0.145 A 
HETATM    3  N1  UNL     1      15.532   4.814  14.495  1.00  0.00    -0.343 N 
ATOM      4  H1  UNL     1      15.050   5.634  14.863  1.00  0.00     0.167 HD
HETATM    5  C2  UNL     1      15.461   3.670  15.126  1.00  0.00     0.044 A 
HETATM    6  C3  UNL     1      16.128   2.601  14.588  1.00  0.00     0.095 A 
HETATM    7  S2  UNL     1      16.833   3.316  13.178  1.00  0.00    -0.041 SA
HETATM    8  N2  UNL     1      16.254   1.251  14.998  1.00  0.00    -0.383 N 
ATOM      9  H2  UNL     1      16.418   0.589  14.240  1.00  0.00     0.160 HD
HETATM   10  C4  UNL     1      16.189   0.671  16.287  1.00  0.00     0.120 C 
HETATM   11  C5  UNL     1      15.337   1.356  17.294  1.00  0.00     0.020 C 
HETATM   12  C6  UNL     1      14.242   2.130  16.626  1.00  0.00     0.008 C 
HETATM   13  C7  UNL     1      14.646   3.563  16.419  1.00  0.00     0.060 C 
ENDROOT
TORSDOF 0
ENDMDL
MODEL 2
REMARK VINA RESULT: -5.156449766      1.255      1.426
REMARK  0 active torsions:
REMARK  status: ('A' for Active; 'I' for Inactive)
ROOT
HETATM    1  S1  UNL     1      17.006   4.515  11.809  1.00  0.00    -0.052 SA
HETATM    2  C1  UNL     1      16.384   3.934  13.218  1.00  0.00     0.145 A 
HETATM    3  N1  UNL     1      15.877   4.599  14.247  1.00  0.00    -0.343 N 
ATOM      4  H1  UNL     1      15.836   5.618  14.230  1.00  0.00     0.167 HD
HETATM    5  C2  UNL     1      15.430   3.939  15.285  1.00  0.00     0.044 A 
HETATM    6  C3  UNL     1      15.511   2.572  15.256  1.00  0.00     0.095 A 
HETATM    7  S2  UNL     1      16.239   2.308  13.707  1.00  0.00    -0.041 SA
HETATM    8  N2  UNL     1      15.125   1.574  16.184  1.00  0.00    -0.383 N 
ATOM      9  H2  UNL     1      14.890   0.672  15.768  1.00  0.00     0.160 HD
HETATM   10  C4  UNL     1      15.012   1.622  17.593  1.00  0.00     0.120 C 
HETATM   11  C5  UNL     1      14.673   2.937  18.200  1.00  0.00     0.020 C 
HETATM   12  C6  UNL     1      13.913   3.789  17.230  1.00  0.00     0.008 C 
HETATM   13  C7  UNL     1      14.840   4.701  16.475  1.00  0.00     0.060 C 
ENDROOT
TORSDOF 0
ENDMDL
MODEL 3
REMARK VINA RESULT: -4.985334850      1.290      2.724
REMARK  0 active torsions:
REMARK  status: ('A' for Active; 'I' for Inactive)
ROOT
HETATM    1  S1  UNL     1      17.749   2.018  11.282  1.00  0.00    -0.052 SA
HETATM    2  C1  UNL     1      17.014   2.341  12.719  1.00  0.00     0.145 A 
HETATM    3  N1  UNL     1      16.667   1.506  13.689  1.00  0.00    -0.343 N 
ATOM      4  H1  UNL     1      16.850   0.507  13.597  1.00  0.00     0.167 HD
HETATM    5  C2  UNL     1      16.086   1.973  14.765  1.00  0.00     0.044 A 
HETATM    6  C3  UNL     1      15.862   3.322  14.836  1.00  0.00     0.095 A 
HETATM    7  S2  UNL     1      16.513   3.855  13.322  1.00  0.00    -0.041 SA
HETATM    8  N2  UNL     1      15.276   4.141  15.833  1.00  0.00    -0.383 N 
ATOM      9  H2  UNL     1      15.613   5.104  15.846  1.00  0.00     0.160 HD
HETATM   10  C4  UNL     1      14.301   3.841  16.813  1.00  0.00     0.120 C 
HETATM   11  C5  UNL     1      14.252   2.441  17.312  1.00  0.00     0.020 C 
HETATM   12  C6  UNL     1      15.591   1.782  17.178  1.00  0.00     0.008 C 
HETATM   13  C7  UNL     1      15.685   1.014  15.890  1.00  0.00     0.060 C 
ENDROOT
TORSDOF 0
ENDMDL
MODEL 4
REMARK VINA RESULT: -4.984104000      2.397      4.222
REMARK  0 active torsions:
REMARK  status: ('A' for Active; 'I' for Inactive)
ROOT
HETATM    1  S1  UNL     1      13.911   0.911  17.278  1.00  0.00    -0.052 SA
HETATM    2  C1  UNL     1      14.833   1.845  16.285  1.00  0.00     0.145 A 
HETATM    3  N1  UNL     1      14.669   3.114  15.938  1.00  0.00    -0.343 N 
ATOM      4  H1  UNL     1      13.880   3.647  16.301  1.00  0.00     0.167 HD
HETATM    5  C2  UNL     1      15.527   3.677  15.126  1.00  0.00     0.044 A 
HETATM    6  C3  UNL     1      16.568   2.914  14.668  1.00  0.00     0.095 A 
HETATM    7  S2  UNL     1      16.249   1.401  15.446  1.00  0.00    -0.041 SA
HETATM    8  N2  UNL     1      17.653   3.202  13.803  1.00  0.00    -0.383 N 
ATOM      9  H2  UNL     1      18.488   2.638  13.965  1.00  0.00     0.160 HD
HETATM   10  C4  UNL     1      17.769   4.143  12.753  1.00  0.00     0.120 C 
HETATM   11  C5  UNL     1      16.959   5.385  12.866  1.00  0.00     0.020 C 
HETATM   12  C6  UNL     1      16.675   5.705  14.302  1.00  0.00     0.008 C 
HETATM   13  C7  UNL     1      15.345   5.144  14.724  1.00  0.00     0.060 C 
ENDROOT
TORSDOF 0
ENDMDL
MODEL 5
REMARK VINA RESULT: -4.919726220      1.639      2.165
REMARK  0 active torsions:
REMARK  status: ('A' for Active; 'I' for Inactive)
ROOT
HETATM    1  S1  UNL     1      16.244   5.843  12.591  1.00  0.00    -0.052 SA
HETATM    2  C1  UNL     1      15.899   4.795  13.812  1.00  0.00     0.145 A 
HETATM    3  N1  UNL     1      16.157   3.498  13.901  1.00  0.00    -0.343 N 
ATOM      4  H1  UNL     1      16.635   3.016  13.140  1.00  0.00     0.167 HD
HETATM    5  C2  UNL     1      15.794   2.840  14.973  1.00  0.00     0.044 A 
HETATM    6  C3  UNL     1      15.154   3.536  15.964  1.00  0.00     0.095 A 
HETATM    7  S2  UNL     1      15.110   5.128  15.287  1.00  0.00    -0.041 SA
HETATM    8  N2  UNL     1      14.644   3.145  17.227  1.00  0.00    -0.383 N 
ATOM      9  H2  UNL     1      14.620   3.888  17.925  1.00  0.00     0.160 HD
HETATM   10  C4  UNL     1      14.163   1.893  17.677  1.00  0.00     0.120 C 
HETATM   11  C5  UNL     1      14.743   0.678  17.046  1.00  0.00     0.020 C 
HETATM   12  C6  UNL     1      16.125   0.954  16.535  1.00  0.00     0.008 C 
HETATM   13  C7  UNL     1      16.093   1.341  15.083  1.00  0.00     0.060 C 
ENDROOT
TORSDOF 0
ENDMDL
