MODEL 1
REMARK VINA RESULT: -5.939039612      0.000      0.000
REMARK  0 active torsions:
REMARK  status: ('A' for Active; 'I' for Inactive)
ROOT
HETATM    1  C1  UNL     1      16.787   2.614  13.429  1.00  0.00     0.053 C 
HETATM    2  C2  UNL     1      16.005   2.992  14.633  1.00  0.00     0.001 A 
HETATM    3  C3  UNL     1      15.694   2.093  15.639  1.00  0.00     0.092 A 
HETATM    4  C4  UNL     1      16.135   0.730  15.536  1.00  0.00     0.103 C 
HETATM    5  N1  UNL     1      16.509  -0.383  15.454  1.00  0.00    -0.191 NA
HETATM    6  C5  UNL     1      14.955   2.539  16.733  1.00  0.00     0.136 A 
HETATM    7  S1  UNL     1      14.625   1.416  17.884  1.00  0.00    -0.057 SA
HETATM    8  N2  UNL     1      14.537   3.813  16.839  1.00  0.00    -0.288 N 
ATOM      9  H2  UNL     1      13.997   4.123  17.647  1.00  0.00     0.188 HD
HETATM   10  N3  UNL     1      14.845   4.643  15.872  1.00  0.00    -0.289 N 
ATOM     11  H3  UNL     1      14.529   5.610  15.948  1.00  0.00     0.188 HD
HETATM   12  C6  UNL     1      15.558   4.285  14.781  1.00  0.00     0.122 A 
HETATM   13  S2  UNL     1      15.922   5.359  13.592  1.00  0.00    -0.059 SA
ENDROOT
TORSDOF 0
ENDMDL
MODEL 2
REMARK VINA RESULT: -5.850250668      1.619      2.975
REMARK  0 active torsions:
REMARK  status: ('A' for Active; 'I' for Inactive)
ROOT
HETATM    1  C1  UNL     1      14.985   1.698  17.694  1.00  0.00     0.053 C 
HETATM    2  C2  UNL     1      15.155   2.494  16.451  1.00  0.00     0.001 A 
HETATM    3  C3  UNL     1      15.748   1.983  15.309  1.00  0.00     0.092 A 
HETATM    4  C4  UNL     1      16.227   0.630  15.300  1.00  0.00     0.103 C 
HETATM    5  N1  UNL     1      16.608  -0.484  15.293  1.00  0.00    -0.191 NA
HETATM    6  C5  UNL     1      15.864   2.805  14.190  1.00  0.00     0.136 A 
HETATM    7  S1  UNL     1      16.578   2.131  12.873  1.00  0.00    -0.057 SA
HETATM    8  N2  UNL     1      15.419   4.074  14.187  1.00  0.00    -0.288 N 
ATOM      9  H2  UNL     1      15.512   4.662  13.359  1.00  0.00     0.188 HD
HETATM   10  N3  UNL     1      14.862   4.532  15.282  1.00  0.00    -0.289 N 
ATOM     11  H3  UNL     1      14.523   5.493  15.286  1.00  0.00     0.188 HD
HETATM   12  C6  UNL     1      14.713   3.796  16.407  1.00  0.00     0.122 A 
HETATM   13  S2  UNL     1      14.009   4.410  17.758  1.00  0.00    -0.059 SA
ENDROOT
TORSDOF 0
ENDMDL
MODEL 3
REMARK VINA RESULT: -5.757489532      1.638      4.420
REMARK  0 active torsions:
REMARK  status: ('A' for Active; 'I' for Inactive)
ROOT
HETATM    1  C1  UNL     1      14.329   3.301  16.829  1.00  0.00     0.053 C 
HETATM    2  C2  UNL     1      15.141   2.529  15.854  1.00  0.00     0.001 A 
HETATM    3  C3  UNL     1      15.492   3.025  14.610  1.00  0.00     0.092 A 
HETATM    4  C4  UNL     1      15.065   4.340  14.222  1.00  0.00     0.103 C 
HETATM    5  N1  UNL     1      14.723   5.423  13.913  1.00  0.00    -0.191 NA
HETATM    6  C5  UNL     1      16.257   2.227  13.762  1.00  0.00     0.136 A 
HETATM    7  S1  UNL     1      16.634   2.883  12.304  1.00  0.00    -0.057 SA
HETATM    8  N2  UNL     1      16.662   0.995  14.114  1.00  0.00    -0.288 N 
ATOM      9  H2  UNL     1      17.222   0.424  13.481  1.00  0.00     0.188 HD
HETATM   10  N3  UNL     1      16.315   0.549  15.298  1.00  0.00    -0.289 N 
ATOM     11  H3  UNL     1      16.619  -0.385  15.570  1.00  0.00     0.188 HD
HETATM   12  C6  UNL     1      15.576   1.264  16.176  1.00  0.00     0.122 A 
HETATM   13  S2  UNL     1      15.163   0.667  17.650  1.00  0.00    -0.059 SA
ENDROOT
TORSDOF 0
ENDMDL
MODEL 4
REMARK VINA RESULT: -5.729169575      1.330      3.000
REMARK  0 active torsions:
REMARK  status: ('A' for Active; 'I' for Inactive)
ROOT
HETATM    1  C1  UNL     1      15.483   5.033  14.398  1.00  0.00     0.053 C 
HETATM    2  C2  UNL     1      15.749   3.593  14.649  1.00  0.00     0.001 A 
HETATM    3  C3  UNL     1      15.321   2.939  15.792  1.00  0.00     0.092 A 
HETATM    4  C4  UNL     1      14.587   3.662  16.792  1.00  0.00     0.103 C 
HETATM    5  N1  UNL     1      13.975   4.254  17.605  1.00  0.00    -0.191 NA
HETATM    6  C5  UNL     1      15.618   1.586  15.940  1.00  0.00     0.136 A 
HETATM    7  S1  UNL     1      15.079   0.879  17.321  1.00  0.00    -0.057 SA
HETATM    8  N2  UNL     1      16.304   0.900  15.010  1.00  0.00    -0.288 N 
ATOM      9  H2  UNL     1      16.513  -0.091  15.135  1.00  0.00     0.188 HD
HETATM   10  N3  UNL     1      16.697   1.544  13.938  1.00  0.00    -0.289 N 
ATOM     11  H3  UNL     1      17.219   1.029  13.229  1.00  0.00     0.188 HD
HETATM   12  C6  UNL     1      16.448   2.856  13.722  1.00  0.00     0.122 A 
HETATM   13  S2  UNL     1      16.959   3.624  12.363  1.00  0.00    -0.059 SA
ENDROOT
TORSDOF 0
ENDMDL
MODEL 5
REMARK VINA RESULT: -5.458562836      3.076      4.797
REMARK  0 active torsions:
REMARK  status: ('A' for Active; 'I' for Inactive)
ROOT
HETATM    1  C1  UNL     1      15.816   3.643  13.774  1.00  0.00     0.053 C 
HETATM    2  C2  UNL     1      16.207   2.221  13.603  1.00  0.00     0.001 A 
HETATM    3  C3  UNL     1      16.554   1.679  12.377  1.00  0.00     0.092 A 
HETATM    4  C4  UNL     1      16.542   2.508  11.205  1.00  0.00     0.103 C 
HETATM    5  N1  UNL     1      16.544   3.194  10.248  1.00  0.00    -0.191 NA
HETATM    6  C5  UNL     1      16.907   0.333  12.314  1.00  0.00     0.136 A 
HETATM    7  S1  UNL     1      17.305  -0.238  10.827  1.00  0.00    -0.057 SA
HETATM    8  N2  UNL     1      16.921  -0.453  13.406  1.00  0.00    -0.288 N 
ATOM      9  H2  UNL     1      17.182  -1.436  13.342  1.00  0.00     0.188 HD
HETATM   10  N3  UNL     1      16.588   0.086  14.554  1.00  0.00    -0.289 N 
ATOM     11  H3  UNL     1      16.596  -0.505  15.385  1.00  0.00     0.188 HD
HETATM   12  C6  UNL     1      16.234   1.384  14.695  1.00  0.00     0.122 A 
HETATM   13  S2  UNL     1      15.824   2.017  16.154  1.00  0.00    -0.059 SA
ENDROOT
TORSDOF 0
ENDMDL
