MODEL 1
REMARK VINA RESULT: -5.135098491      0.000      0.000
REMARK  0 active torsions:
REMARK  status: ('A' for Active; 'I' for Inactive)
ROOT
HETATM    1  N1  UNL     1      17.211  -0.244  15.832  1.00  0.00    -0.197 NA
HETATM    2  C1  UNL     1      16.975  -0.176  14.708  1.00  0.00     0.066 C 
HETATM    3  C2  UNL     1      16.674  -0.094  13.303  1.00  0.00     0.125 C 
HETATM    4  C3  UNL     1      17.502  -1.117  12.523  1.00  0.00     0.054 C 
HETATM    5  C4  UNL     1      17.736  -0.338  11.250  1.00  0.00     0.187 C 
HETATM    6  C5  UNL     1      16.433   0.153  10.679  1.00  0.00     0.035 C 
HETATM    7  C6  UNL     1      16.079   1.403  11.489  1.00  0.00     0.036 C 
HETATM    8  C7  UNL     1      17.049   1.196  12.655  1.00  0.00     0.204 C 
HETATM    9  N2  UNL     1      18.255   0.905  11.854  1.00  0.00    -0.065 N 
ATOM     10  H21 UNL     1      18.588   1.634  11.222  1.00  0.00     0.278 HD
ATOM     11  H22 UNL     1      19.147   0.854  12.347  1.00  0.00     0.278 HD
ENDROOT
TORSDOF 0
ENDMDL
MODEL 2
REMARK VINA RESULT: -5.103734320      3.500      4.373
REMARK  0 active torsions:
REMARK  status: ('A' for Active; 'I' for Inactive)
ROOT
HETATM    1  N1  UNL     1      15.420  -0.214  17.160  1.00  0.00    -0.197 NA
HETATM    2  C1  UNL     1      15.675   0.829  16.747  1.00  0.00     0.066 C 
HETATM    3  C2  UNL     1      15.994   2.136  16.236  1.00  0.00     0.125 C 
HETATM    4  C3  UNL     1      14.714   2.930  15.972  1.00  0.00     0.054 C 
HETATM    5  C4  UNL     1      15.144   3.712  14.754  1.00  0.00     0.187 C 
HETATM    6  C5  UNL     1      16.431   4.445  15.020  1.00  0.00     0.035 C 
HETATM    7  C6  UNL     1      17.538   3.400  14.855  1.00  0.00     0.036 C 
HETATM    8  C7  UNL     1      16.666   2.142  14.904  1.00  0.00     0.204 C 
HETATM    9  N2  UNL     1      15.637   2.582  13.941  1.00  0.00    -0.065 N 
ATOM     10  H21 UNL     1      15.940   2.784  12.987  1.00  0.00     0.278 HD
ATOM     11  H22 UNL     1      14.955   1.891  13.631  1.00  0.00     0.278 HD
ENDROOT
TORSDOF 0
ENDMDL
MODEL 3
REMARK VINA RESULT: -5.066920563      1.722      2.728
REMARK  0 active torsions:
REMARK  status: ('A' for Active; 'I' for Inactive)
ROOT
HETATM    1  N1  UNL     1      18.421  -2.909  11.547  1.00  0.00    -0.197 NA
HETATM    2  C1  UNL     1      18.109  -1.822  11.340  1.00  0.00     0.066 C 
HETATM    3  C2  UNL     1      17.719  -0.461  11.075  1.00  0.00     0.125 C 
HETATM    4  C3  UNL     1      18.935   0.464  11.153  1.00  0.00     0.054 C 
HETATM    5  C4  UNL     1      18.281   1.698  11.726  1.00  0.00     0.187 C 
HETATM    6  C5  UNL     1      17.091   2.103  10.898  1.00  0.00     0.035 C 
HETATM    7  C6  UNL     1      15.953   1.180  11.340  1.00  0.00     0.036 C 
HETATM    8  C7  UNL     1      16.789   0.132  12.079  1.00  0.00     0.204 C 
HETATM    9  N2  UNL     1      17.607   1.065  12.878  1.00  0.00    -0.065 N 
ATOM     10  H21 UNL     1      17.120   1.676  13.534  1.00  0.00     0.278 HD
ATOM     11  H22 UNL     1      18.197   0.668  13.609  1.00  0.00     0.278 HD
ENDROOT
TORSDOF 0
ENDMDL
MODEL 4
REMARK VINA RESULT: -5.009547915      3.479      4.363
REMARK  0 active torsions:
REMARK  status: ('A' for Active; 'I' for Inactive)
ROOT
HETATM    1  N1  UNL     1      17.112   0.064  16.190  1.00  0.00    -0.197 NA
HETATM    2  C1  UNL     1      16.864   1.171  15.996  1.00  0.00     0.066 C 
HETATM    3  C2  UNL     1      16.555   2.557  15.759  1.00  0.00     0.125 C 
HETATM    4  C3  UNL     1      15.040   2.771  15.766  1.00  0.00     0.054 C 
HETATM    5  C4  UNL     1      14.931   3.854  14.719  1.00  0.00     0.187 C 
HETATM    6  C5  UNL     1      15.846   5.004  15.045  1.00  0.00     0.035 C 
HETATM    7  C6  UNL     1      17.236   4.564  14.579  1.00  0.00     0.036 C 
HETATM    8  C7  UNL     1      16.954   3.068  14.416  1.00  0.00     0.204 C 
HETATM    9  N2  UNL     1      15.700   3.190  13.647  1.00  0.00    -0.065 N 
ATOM     10  H21 UNL     1      15.747   3.657  12.741  1.00  0.00     0.278 HD
ATOM     11  H22 UNL     1      15.309   2.339  13.244  1.00  0.00     0.278 HD
ENDROOT
TORSDOF 0
ENDMDL
MODEL 5
REMARK VINA RESULT: -4.989951511      2.184      3.031
REMARK  0 active torsions:
REMARK  status: ('A' for Active; 'I' for Inactive)
ROOT
HETATM    1  N1  UNL     1      18.002  -3.747  11.502  1.00  0.00    -0.197 NA
HETATM    2  C1  UNL     1      18.047  -2.604  11.624  1.00  0.00     0.066 C 
HETATM    3  C2  UNL     1      18.108  -1.174  11.782  1.00  0.00     0.125 C 
HETATM    4  C3  UNL     1      16.974  -0.692  12.689  1.00  0.00     0.054 C 
HETATM    5  C4  UNL     1      16.677   0.639  12.040  1.00  0.00     0.187 C 
HETATM    6  C5  UNL     1      17.930   1.462  11.917  1.00  0.00     0.035 C 
HETATM    7  C6  UNL     1      18.656   0.918  10.683  1.00  0.00     0.036 C 
HETATM    8  C7  UNL     1      17.883  -0.395  10.531  1.00  0.00     0.204 C 
HETATM    9  N2  UNL     1      16.523   0.167  10.649  1.00  0.00    -0.065 N 
ATOM     10  H21 UNL     1      16.232   0.850   9.949  1.00  0.00     0.278 HD
ATOM     11  H22 UNL     1      15.738  -0.451  10.445  1.00  0.00     0.278 HD
ENDROOT
TORSDOF 0
ENDMDL
