MODEL 1
REMARK VINA RESULT: -3.934433968      0.000      0.000
REMARK  1 active torsions:
REMARK  status: ('A' for Active; 'I' for Inactive)
REMARK    1  A    between atoms: O1_1  and  C1_3 
ROOT
HETATM    1  C1  UNL     1      16.529   0.553  16.154  1.00  0.00     0.179 C 
HETATM    2  C2  UNL     1      15.437   0.497  17.198  1.00  0.00     0.042 C 
HETATM    3  C3  UNL     1      14.916   1.857  17.566  1.00  0.00     0.004 C 
HETATM    4  C4  UNL     1      14.213   2.545  16.431  1.00  0.00     0.010 C 
HETATM    5  C5  UNL     1      15.132   2.916  15.317  1.00  0.00     0.076 C 
HETATM    6  S1  UNL     1      16.808   2.332  15.788  1.00  0.00    -0.138 SA
ENDROOT
BRANCH   1   7
HETATM    7  O1  UNL     1      16.088   0.016  14.923  1.00  0.00    -0.385 OA
ATOM      8  H1  UNL     1      16.817  -0.313  14.411  1.00  0.00     0.211 HD
ENDBRANCH   1   7
TORSDOF 1
ENDMDL
MODEL 2
REMARK VINA RESULT: -3.862890718      1.298      1.970
REMARK  1 active torsions:
REMARK  status: ('A' for Active; 'I' for Inactive)
REMARK    1  A    between atoms: O1_1  and  C1_3 
ROOT
HETATM    1  C1  UNL     1      15.090   1.380  17.179  1.00  0.00     0.179 C 
HETATM    2  C2  UNL     1      14.222   2.604  16.989  1.00  0.00     0.042 C 
HETATM    3  C3  UNL     1      14.845   3.621  16.075  1.00  0.00     0.004 C 
HETATM    4  C4  UNL     1      14.991   3.133  14.663  1.00  0.00     0.010 C 
HETATM    5  C5  UNL     1      15.982   2.027  14.529  1.00  0.00     0.076 C 
HETATM    6  S1  UNL     1      16.625   1.676  16.213  1.00  0.00    -0.138 SA
ENDROOT
BRANCH   1   7
HETATM    7  O1  UNL     1      14.514   0.245  16.564  1.00  0.00    -0.385 OA
ATOM      8  H1  UNL     1      14.563  -0.515  17.133  1.00  0.00     0.211 HD
ENDBRANCH   1   7
TORSDOF 1
ENDMDL
MODEL 3
REMARK VINA RESULT: -3.837276312      4.774      5.512
REMARK  1 active torsions:
REMARK  status: ('A' for Active; 'I' for Inactive)
REMARK    1  A    between atoms: O1_1  and  C1_3 
ROOT
HETATM    1  C1  UNL     1      16.867  -0.534  12.116  1.00  0.00     0.179 C 
HETATM    2  C2  UNL     1      18.252  -0.788  11.565  1.00  0.00     0.042 C 
HETATM    3  C3  UNL     1      18.750   0.339  10.706  1.00  0.00     0.004 C 
HETATM    4  C4  UNL     1      18.959   1.614  11.470  1.00  0.00     0.010 C 
HETATM    5  C5  UNL     1      17.685   2.213  11.963  1.00  0.00     0.076 C 
HETATM    6  S1  UNL     1      16.329   1.090  11.444  1.00  0.00    -0.138 SA
ENDROOT
BRANCH   1   7
HETATM    7  O1  UNL     1      16.903  -0.328  13.514  1.00  0.00    -0.385 OA
ATOM      8  H1  UNL     1      16.046  -0.086  13.848  1.00  0.00     0.211 HD
ENDBRANCH   1   7
TORSDOF 1
ENDMDL
MODEL 4
REMARK VINA RESULT: -3.796851920      4.692      5.799
REMARK  1 active torsions:
REMARK  status: ('A' for Active; 'I' for Inactive)
REMARK    1  A    between atoms: O1_1  and  C1_3 
ROOT
HETATM    1  C1  UNL     1      16.304   1.771  12.034  1.00  0.00     0.179 C 
HETATM    2  C2  UNL     1      17.506   2.464  11.432  1.00  0.00     0.042 C 
HETATM    3  C3  UNL     1      18.762   1.647  11.544  1.00  0.00     0.004 C 
HETATM    4  C4  UNL     1      18.713   0.379  10.742  1.00  0.00     0.010 C 
HETATM    5  C5  UNL     1      17.721  -0.604  11.268  1.00  0.00     0.076 C 
HETATM    6  S1  UNL     1      16.910   0.177  12.718  1.00  0.00    -0.138 SA
ENDROOT
BRANCH   1   7
HETATM    7  O1  UNL     1      15.383   1.384  11.033  1.00  0.00    -0.385 OA
ATOM      8  H1  UNL     1      15.189   2.107  10.447  1.00  0.00     0.211 HD
ENDBRANCH   1   7
TORSDOF 1
ENDMDL
MODEL 5
REMARK VINA RESULT: -3.787394065      5.393      5.746
REMARK  1 active torsions:
REMARK  status: ('A' for Active; 'I' for Inactive)
REMARK    1  A    between atoms: O1_1  and  C1_3 
ROOT
HETATM    1  C1  UNL     1      19.279   0.799  11.219  1.00  0.00     0.179 C 
HETATM    2  C2  UNL     1      18.481  -0.474  11.389  1.00  0.00     0.042 C 
HETATM    3  C3  UNL     1      17.122  -0.231  11.982  1.00  0.00     0.004 C 
HETATM    4  C4  UNL     1      16.223   0.571  11.085  1.00  0.00     0.010 C 
HETATM    5  C5  UNL     1      16.681   1.980  10.911  1.00  0.00     0.076 C 
HETATM    6  S1  UNL     1      18.234   2.161  11.874  1.00  0.00    -0.138 SA
ENDROOT
BRANCH   1   7
HETATM    7  O1  UNL     1      19.441   1.122   9.852  1.00  0.00    -0.385 OA
ATOM      8  H1  UNL     1      20.354   1.285   9.643  1.00  0.00     0.211 HD
ENDBRANCH   1   7
TORSDOF 1
ENDMDL
