MODEL 1
REMARK VINA RESULT: -6.531417218      0.000      0.000
REMARK  5 active torsions:
REMARK  status: ('A' for Active; 'I' for Inactive)
REMARK    1  A    between atoms: C2_2  and  C3_3 
REMARK    2  A    between atoms: C2_2  and  C5_11 
REMARK    3  A    between atoms: C3_3  and  C4_4 
REMARK    4  A    between atoms: C4_4  and  O1_5 
REMARK    5  A    between atoms: N1_7  and  O2_9 
ROOT
HETATM    1  C5  UNL     1      -9.745  11.644 -10.306  1.00  0.00    -0.006 C 
HETATM    2  C6  UNL     1     -11.240  11.992 -10.305  1.00  0.00     0.006 C 
HETATM    3  C7  UNL     1     -11.796  11.298  -9.071  1.00  0.00     0.011 C 
HETATM    4  C8  UNL     1     -10.620  11.486  -8.154  1.00  0.00     0.035 C 
HETATM    5  C9  UNL     1     -10.474  10.511  -7.086  1.00  0.00    -0.016 C 
HETATM    6  N2  UNL     1     -11.374   9.981  -6.359  1.00  0.00    -0.405 N 
ATOM      7  H21 UNL     1     -11.272   9.297  -5.610  1.00  0.00     0.155 HD
ATOM      8  H22 UNL     1     -12.373  10.177  -6.427  1.00  0.00     0.155 HD
HETATM    9  C10 UNL     1      -9.014  10.225  -6.986  1.00  0.00     0.053 C 
HETATM   10  C11 UNL     1      -8.400  10.881  -8.245  1.00  0.00     0.011 C 
HETATM   11  C12 UNL     1      -9.556  10.901  -9.109  1.00  0.00    -0.000 C 
ENDROOT
BRANCH   1  12
HETATM   12  C2  UNL     1      -8.889  12.787 -10.692  1.00  0.00    -0.007 C 
HETATM   13  C1  UNL     1      -7.697  12.212 -11.479  1.00  0.00     0.011 C 
BRANCH  12  14
HETATM   14  C3  UNL     1      -9.479  13.850 -11.518  1.00  0.00     0.090 C 
BRANCH  14  15
HETATM   15  C4  UNL     1      -8.842  15.142 -11.177  1.00  0.00     0.135 C 
HETATM   16  N1  UNL     1      -9.395  15.925 -10.324  1.00  0.00    -0.251 N 
ATOM     17  H1  UNL     1     -10.273  15.620  -9.904  1.00  0.00     0.196 HD
BRANCH  15  18
HETATM   18  O1  UNL     1      -7.644  15.569 -11.746  1.00  0.00    -0.348 OA
ATOM     19  H1  UNL     1      -7.351  16.473 -11.716  1.00  0.00     0.219 HD
ENDBRANCH  15  18
BRANCH  16  20
HETATM   20  O2  UNL     1      -8.900  17.125  -9.941  1.00  0.00    -0.288 OA
ATOM     21  H2  UNL     1      -8.941  17.471  -9.058  1.00  0.00     0.244 HD
ENDBRANCH  16  20
ENDBRANCH  14  15
ENDBRANCH  12  14
ENDBRANCH   1  12
TORSDOF 5
ENDMDL
MODEL 2
REMARK VINA RESULT: -6.209778243      0.783      1.018
REMARK  5 active torsions:
REMARK  status: ('A' for Active; 'I' for Inactive)
REMARK    1  A    between atoms: C2_2  and  C3_3 
REMARK    2  A    between atoms: C2_2  and  C5_11 
REMARK    3  A    between atoms: C3_3  and  C4_4 
REMARK    4  A    between atoms: C4_4  and  O1_5 
REMARK    5  A    between atoms: N1_7  and  O2_9 
ROOT
HETATM    1  C5  UNL     1      -9.779  11.546 -10.084  1.00  0.00    -0.006 C 
HETATM    2  C6  UNL     1     -11.286  11.837 -10.057  1.00  0.00     0.006 C 
HETATM    3  C7  UNL     1     -11.799  11.093  -8.834  1.00  0.00     0.011 C 
HETATM    4  C8  UNL     1     -10.619  11.303  -7.926  1.00  0.00     0.035 C 
HETATM    5  C9  UNL     1     -10.423  10.309  -6.884  1.00  0.00    -0.016 C 
HETATM    6  N2  UNL     1     -11.293   9.727  -6.160  1.00  0.00    -0.405 N 
ATOM      7  H21 UNL     1     -11.156   9.029  -5.429  1.00  0.00     0.155 HD
ATOM      8  H22 UNL     1     -12.299   9.886  -6.211  1.00  0.00     0.155 HD
HETATM    9  C10 UNL     1      -8.952  10.076  -6.809  1.00  0.00     0.053 C 
HETATM   10  C11 UNL     1      -8.379  10.785  -8.058  1.00  0.00     0.011 C 
HETATM   11  C12 UNL     1      -9.546  10.782  -8.907  1.00  0.00    -0.000 C 
ENDROOT
BRANCH   1  12
HETATM   12  C2  UNL     1      -8.972  12.729 -10.452  1.00  0.00    -0.007 C 
HETATM   13  C1  UNL     1      -7.814  12.229 -11.334  1.00  0.00     0.011 C 
BRANCH  12  14
HETATM   14  C3  UNL     1      -9.631  13.821 -11.183  1.00  0.00     0.090 C 
BRANCH  14  15
HETATM   15  C4  UNL     1      -9.614  15.045 -10.351  1.00  0.00     0.135 C 
HETATM   16  N1  UNL     1      -8.964  16.079 -10.744  1.00  0.00    -0.251 N 
ATOM     17  H1  UNL     1      -8.473  16.017 -11.636  1.00  0.00     0.196 HD
BRANCH  15  18
HETATM   18  O1  UNL     1     -10.279  15.140  -9.130  1.00  0.00    -0.348 OA
ATOM     19  H1  UNL     1     -10.674  14.393  -8.698  1.00  0.00     0.219 HD
ENDBRANCH  15  18
BRANCH  16  20
HETATM   20  O2  UNL     1      -8.883  17.246 -10.064  1.00  0.00    -0.288 OA
ATOM     21  H2  UNL     1      -8.721  18.094 -10.459  1.00  0.00     0.244 HD
ENDBRANCH  16  20
ENDBRANCH  14  15
ENDBRANCH  12  14
ENDBRANCH   1  12
TORSDOF 5
ENDMDL
MODEL 3
REMARK VINA RESULT: -6.095932366      2.748      4.145
REMARK  5 active torsions:
REMARK  status: ('A' for Active; 'I' for Inactive)
REMARK    1  A    between atoms: C2_2  and  C3_3 
REMARK    2  A    between atoms: C2_2  and  C5_11 
REMARK    3  A    between atoms: C3_3  and  C4_4 
REMARK    4  A    between atoms: C4_4  and  O1_5 
REMARK    5  A    between atoms: N1_7  and  O2_9 
ROOT
HETATM    1  C5  UNL     1     -12.004  13.501  -8.893  1.00  0.00    -0.006 C 
HETATM    2  C6  UNL     1     -11.259  13.494  -7.551  1.00  0.00     0.006 C 
HETATM    3  C7  UNL     1      -9.972  12.732  -7.831  1.00  0.00     0.011 C 
HETATM    4  C8  UNL     1      -9.718  13.218  -9.231  1.00  0.00     0.035 C 
HETATM    5  C9  UNL     1      -8.936  12.339 -10.084  1.00  0.00    -0.016 C 
HETATM    6  N2  UNL     1      -7.914  11.640  -9.790  1.00  0.00    -0.405 N 
ATOM      7  H21 UNL     1      -7.366  11.024 -10.389  1.00  0.00     0.155 HD
ATOM      8  H22 UNL     1      -7.479  11.597  -8.869  1.00  0.00     0.155 HD
HETATM    9  C10 UNL     1      -9.573  12.402 -11.432  1.00  0.00     0.053 C 
HETATM   10  C11 UNL     1     -10.911  13.140 -11.199  1.00  0.00     0.011 C 
HETATM   11  C12 UNL     1     -11.111  12.863  -9.796  1.00  0.00    -0.000 C 
ENDROOT
BRANCH   1  12
HETATM   12  C2  UNL     1     -12.656  14.797  -9.182  1.00  0.00    -0.007 C 
HETATM   13  C1  UNL     1     -14.175  14.571  -9.078  1.00  0.00     0.011 C 
BRANCH  12  14
HETATM   14  C3  UNL     1     -12.331  15.945  -8.323  1.00  0.00     0.090 C 
BRANCH  14  15
HETATM   15  C4  UNL     1     -11.668  16.990  -9.137  1.00  0.00     0.135 C 
HETATM   16  N1  UNL     1     -10.520  16.761  -9.663  1.00  0.00    -0.251 N 
ATOM     17  H1  UNL     1     -10.098  15.848  -9.496  1.00  0.00     0.196 HD
BRANCH  15  18
HETATM   18  O1  UNL     1     -12.234  18.241  -9.369  1.00  0.00    -0.348 OA
ATOM     19  H1  UNL     1     -12.110  18.722 -10.179  1.00  0.00     0.219 HD
ENDBRANCH  15  18
BRANCH  16  20
HETATM   20  O2  UNL     1      -9.829  17.643 -10.422  1.00  0.00    -0.288 OA
ATOM     21  H2  UNL     1      -9.996  18.577 -10.455  1.00  0.00     0.244 HD
ENDBRANCH  16  20
ENDBRANCH  14  15
ENDBRANCH  12  14
ENDBRANCH   1  12
TORSDOF 5
ENDMDL
MODEL 4
REMARK VINA RESULT: -6.084830934      2.598      5.178
REMARK  5 active torsions:
REMARK  status: ('A' for Active; 'I' for Inactive)
REMARK    1  A    between atoms: C2_2  and  C3_3 
REMARK    2  A    between atoms: C2_2  and  C5_11 
REMARK    3  A    between atoms: C3_3  and  C4_4 
REMARK    4  A    between atoms: C4_4  and  O1_5 
REMARK    5  A    between atoms: N1_7  and  O2_9 
ROOT
HETATM    1  C5  UNL     1     -10.588  12.912 -10.652  1.00  0.00    -0.006 C 
HETATM    2  C6  UNL     1      -9.982  11.560 -11.054  1.00  0.00     0.006 C 
HETATM    3  C7  UNL     1      -8.811  11.917 -11.956  1.00  0.00     0.011 C 
HETATM    4  C8  UNL     1      -8.353  13.166 -11.255  1.00  0.00     0.035 C 
HETATM    5  C9  UNL     1      -7.642  14.137 -12.068  1.00  0.00    -0.016 C 
HETATM    6  N2  UNL     1      -6.775  13.937 -12.978  1.00  0.00    -0.405 N 
ATOM      7  H21 UNL     1      -6.276  14.619 -13.549  1.00  0.00     0.155 HD
ATOM      8  H22 UNL     1      -6.440  13.021 -13.277  1.00  0.00     0.155 HD
HETATM    9  C10 UNL     1      -8.131  15.477 -11.631  1.00  0.00     0.053 C 
HETATM   10  C11 UNL     1      -9.354  15.173 -10.734  1.00  0.00     0.011 C 
HETATM   11  C12 UNL     1      -9.725  13.875 -11.244  1.00  0.00    -0.000 C 
ENDROOT
BRANCH   1  12
HETATM   12  C2  UNL     1     -10.998  12.959  -9.232  1.00  0.00    -0.007 C 
HETATM   13  C1  UNL     1     -12.536  13.016  -9.208  1.00  0.00     0.011 C 
BRANCH  12  14
HETATM   14  C3  UNL     1     -10.593  11.852  -8.354  1.00  0.00     0.090 C 
BRANCH  14  15
HETATM   15  C4  UNL     1      -9.346  12.222  -7.646  1.00  0.00     0.135 C 
HETATM   16  N1  UNL     1      -8.524  11.309  -7.274  1.00  0.00    -0.251 N 
ATOM     17  H1  UNL     1      -8.768  10.341  -7.485  1.00  0.00     0.196 HD
BRANCH  15  18
HETATM   18  O1  UNL     1      -9.005  13.540  -7.352  1.00  0.00    -0.348 OA
ATOM     19  H1  UNL     1      -9.472  14.063  -6.711  1.00  0.00     0.219 HD
ENDBRANCH  15  18
BRANCH  16  20
HETATM   20  O2  UNL     1      -7.360  11.536  -6.623  1.00  0.00    -0.288 OA
ATOM     21  H2  UNL     1      -6.637  10.922  -6.576  1.00  0.00     0.244 HD
ENDBRANCH  16  20
ENDBRANCH  14  15
ENDBRANCH  12  14
ENDBRANCH   1  12
TORSDOF 5
ENDMDL
MODEL 5
REMARK VINA RESULT: -6.084658063      0.967      1.025
REMARK  5 active torsions:
REMARK  status: ('A' for Active; 'I' for Inactive)
REMARK    1  A    between atoms: C2_2  and  C3_3 
REMARK    2  A    between atoms: C2_2  and  C5_11 
REMARK    3  A    between atoms: C3_3  and  C4_4 
REMARK    4  A    between atoms: C4_4  and  O1_5 
REMARK    5  A    between atoms: N1_7  and  O2_9 
ROOT
HETATM    1  C5  UNL     1      -9.946  11.555  -9.894  1.00  0.00    -0.006 C 
HETATM    2  C6  UNL     1     -11.457  11.794  -9.781  1.00  0.00     0.006 C 
HETATM    3  C7  UNL     1     -11.885  10.986  -8.566  1.00  0.00     0.011 C 
HETATM    4  C8  UNL     1     -10.668  11.199  -7.709  1.00  0.00     0.035 C 
HETATM    5  C9  UNL     1     -10.389  10.171  -6.721  1.00  0.00    -0.016 C 
HETATM    6  N2  UNL     1     -11.202   9.533  -5.979  1.00  0.00    -0.405 N 
ATOM      7  H21 UNL     1     -11.007   8.812  -5.285  1.00  0.00     0.155 HD
ATOM      8  H22 UNL     1     -12.214   9.661  -5.974  1.00  0.00     0.155 HD
HETATM    9  C10 UNL     1      -8.909   9.984  -6.728  1.00  0.00     0.053 C 
HETATM   10  C11 UNL     1      -8.422  10.761  -7.974  1.00  0.00     0.011 C 
HETATM   11  C12 UNL     1      -9.630  10.753  -8.763  1.00  0.00    -0.000 C 
ENDROOT
BRANCH   1  12
HETATM   12  C2  UNL     1      -9.195  12.778 -10.253  1.00  0.00    -0.007 C 
HETATM   13  C1  UNL     1      -7.954  12.329 -11.046  1.00  0.00     0.011 C 
BRANCH  12  14
HETATM   14  C3  UNL     1      -9.876  13.800 -11.060  1.00  0.00     0.090 C 
BRANCH  14  15
HETATM   15  C4  UNL     1      -9.861  15.088 -10.328  1.00  0.00     0.135 C 
HETATM   16  N1  UNL     1     -10.889  15.454  -9.653  1.00  0.00    -0.251 N 
ATOM     17  H1  UNL     1     -11.696  14.830  -9.646  1.00  0.00     0.196 HD
BRANCH  15  18
HETATM   18  O1  UNL     1      -8.766  15.949 -10.332  1.00  0.00    -0.348 OA
ATOM     19  H1  UNL     1      -8.687  16.688  -9.740  1.00  0.00     0.219 HD
ENDBRANCH  15  18
BRANCH  16  20
HETATM   20  O2  UNL     1     -10.981  16.606  -8.950  1.00  0.00    -0.288 OA
ATOM     21  H2  UNL     1     -10.248  17.170  -8.735  1.00  0.00     0.244 HD
ENDBRANCH  16  20
ENDBRANCH  14  15
ENDBRANCH  12  14
ENDBRANCH   1  12
TORSDOF 5
ENDMDL
