MODEL 1
REMARK VINA RESULT: -6.123041686      0.000      0.000
REMARK  4 active torsions:
REMARK  status: ('A' for Active; 'I' for Inactive)
REMARK    1  A    between atoms: C3_5  and  O1_6 
REMARK    2  A    between atoms: C4_8  and  C5_9 
REMARK    3  A    between atoms: C11_18  and  N3_19 
REMARK    4  A    between atoms: N3_19  and  O2_21 
ROOT
HETATM    1  C1  UNL     1      -8.372  10.168  -6.391  1.00  0.00     0.070 C 
HETATM    2  C2  UNL     1      -9.195  10.705  -7.505  1.00  0.00     0.036 A 
HETATM    3  N1  UNL     1     -10.538  10.876  -7.538  1.00  0.00    -0.338 N 
ATOM      4  H1  UNL     1     -11.181  10.640  -6.783  1.00  0.00     0.168 HD
HETATM    5  C3  UNL     1     -10.887  11.404  -8.720  1.00  0.00     0.151 A 
HETATM    6  C4  UNL     1      -9.712  11.574  -9.472  1.00  0.00     0.054 A 
HETATM    7  C11 UNL     1      -8.649  11.135  -8.718  1.00  0.00     0.089 A 
ENDROOT
BRANCH   6   8
HETATM    8  C5  UNL     1      -9.633  12.108 -10.867  1.00  0.00     0.225 C 
HETATM    9  C6  UNL     1      -8.243  12.124 -11.408  1.00  0.00     0.038 C 
HETATM   10  C7  UNL     1      -8.176  13.136 -12.539  1.00  0.00     0.002 C 
HETATM   11  C8  UNL     1      -7.742  14.485 -12.084  1.00  0.00     0.002 C 
HETATM   12  C9  UNL     1      -8.774  15.272 -11.332  1.00  0.00     0.027 C 
HETATM   13  C10 UNL     1      -9.536  14.451 -10.342  1.00  0.00     0.233 C 
HETATM   14  N2  UNL     1     -10.277  13.382 -10.938  1.00  0.00    -0.067 N 
ATOM     15  H22 UNL     1     -10.513  13.608 -11.905  1.00  0.00     0.277 HD
ATOM     16  H21 UNL     1     -11.213  13.330 -10.537  1.00  0.00     0.277 HD
ENDBRANCH   6   8
BRANCH   5  17
HETATM   17  O1  UNL     1     -12.169  11.727  -9.140  1.00  0.00    -0.346 OA
ATOM     18  H1  UNL     1     -12.583  11.470  -9.955  1.00  0.00     0.219 HD
ENDBRANCH   5  17
BRANCH   7  19
HETATM   19  N3  UNL     1      -7.269  11.094  -9.032  1.00  0.00    -0.267 N 
ATOM     20  H3  UNL     1      -6.778  11.963  -9.243  1.00  0.00     0.194 HD
BRANCH  19  21
HETATM   21  O2  UNL     1      -6.636  10.002  -9.055  1.00  0.00    -0.289 OA
ATOM     22  H2  UNL     1      -6.178   9.716  -9.836  1.00  0.00     0.244 HD
ENDBRANCH  19  21
ENDBRANCH   7  19
TORSDOF 4
ENDMDL
MODEL 2
REMARK VINA RESULT: -6.111435641      2.113      5.227
REMARK  4 active torsions:
REMARK  status: ('A' for Active; 'I' for Inactive)
REMARK    1  A    between atoms: C3_5  and  O1_6 
REMARK    2  A    between atoms: C4_8  and  C5_9 
REMARK    3  A    between atoms: C11_18  and  N3_19 
REMARK    4  A    between atoms: N3_19  and  O2_21 
ROOT
HETATM    1  C1  UNL     1      -9.260  17.370 -10.358  1.00  0.00     0.070 C 
HETATM    2  C2  UNL     1      -8.951  15.987 -10.803  1.00  0.00     0.036 A 
HETATM    3  N1  UNL     1      -8.026  15.594 -11.711  1.00  0.00    -0.338 N 
ATOM      4  H1  UNL     1      -7.410  16.216 -12.233  1.00  0.00     0.168 HD
HETATM    5  C3  UNL     1      -8.049  14.258 -11.815  1.00  0.00     0.151 A 
HETATM    6  C4  UNL     1      -9.035  13.781 -10.934  1.00  0.00     0.054 A 
HETATM    7  C11 UNL     1      -9.606  14.859 -10.300  1.00  0.00     0.089 A 
ENDROOT
BRANCH   6   8
HETATM    8  C5  UNL     1      -9.424  12.348 -10.744  1.00  0.00     0.225 C 
HETATM    9  C6  UNL     1     -10.900  12.148 -10.676  1.00  0.00     0.038 C 
HETATM   10  C7  UNL     1     -11.177  10.835  -9.963  1.00  0.00     0.002 C 
HETATM   11  C8  UNL     1     -11.389  11.003  -8.500  1.00  0.00     0.002 C 
HETATM   12  C9  UNL     1     -10.150  11.271  -7.697  1.00  0.00     0.027 C 
HETATM   13  C10 UNL     1      -9.223  12.245  -8.351  1.00  0.00     0.233 C 
HETATM   14  N2  UNL     1      -8.731  11.802  -9.619  1.00  0.00    -0.067 N 
ATOM     15  H22 UNL     1      -8.729  10.783  -9.664  1.00  0.00     0.277 HD
ATOM     16  H21 UNL     1      -7.730  11.983  -9.695  1.00  0.00     0.277 HD
ENDBRANCH   6   8
BRANCH   5  17
HETATM   17  O1  UNL     1      -7.254  13.473 -12.637  1.00  0.00    -0.346 OA
ATOM     18  H1  UNL     1      -6.962  13.683 -13.517  1.00  0.00     0.219 HD
ENDBRANCH   5  17
BRANCH   7  19
HETATM   19  N3  UNL     1     -10.640  14.901  -9.334  1.00  0.00    -0.267 N 
ATOM     20  H3  UNL     1     -10.430  14.661  -8.365  1.00  0.00     0.194 HD
BRANCH  19  21
HETATM   21  O2  UNL     1     -11.817  15.231  -9.649  1.00  0.00    -0.289 OA
ATOM     22  H2  UNL     1     -12.518  14.591  -9.670  1.00  0.00     0.244 HD
ENDBRANCH  19  21
ENDBRANCH   7  19
TORSDOF 4
ENDMDL
MODEL 3
REMARK VINA RESULT: -6.006862269      2.233      4.696
REMARK  4 active torsions:
REMARK  status: ('A' for Active; 'I' for Inactive)
REMARK    1  A    between atoms: C3_5  and  O1_6 
REMARK    2  A    between atoms: C4_8  and  C5_9 
REMARK    3  A    between atoms: C11_18  and  N3_19 
REMARK    4  A    between atoms: N3_19  and  O2_21 
ROOT
HETATM    1  C1  UNL     1      -7.678  13.634 -12.582  1.00  0.00     0.070 C 
HETATM    2  C2  UNL     1      -8.534  14.038 -11.437  1.00  0.00     0.036 A 
HETATM    3  N1  UNL     1      -9.044  15.265 -11.174  1.00  0.00    -0.338 N 
ATOM      4  H1  UNL     1      -8.893  16.100 -11.739  1.00  0.00     0.168 HD
HETATM    5  C3  UNL     1      -9.779  15.207 -10.055  1.00  0.00     0.151 A 
HETATM    6  C4  UNL     1      -9.731  13.884  -9.584  1.00  0.00     0.054 A 
HETATM    7  C11 UNL     1      -8.951  13.147 -10.443  1.00  0.00     0.089 A 
ENDROOT
BRANCH   6   8
HETATM    8  C5  UNL     1     -10.388  13.370  -8.342  1.00  0.00     0.225 C 
HETATM    9  C6  UNL     1     -10.475  11.882  -8.300  1.00  0.00     0.038 C 
HETATM   10  C7  UNL     1     -11.585  11.489  -7.340  1.00  0.00     0.002 C 
HETATM   11  C8  UNL     1     -12.895  11.292  -8.017  1.00  0.00     0.002 C 
HETATM   12  C9  UNL     1     -13.595  12.550  -8.440  1.00  0.00     0.027 C 
HETATM   13  C10 UNL     1     -12.677  13.560  -9.049  1.00  0.00     0.233 C 
HETATM   14  N2  UNL     1     -11.652  14.011  -8.158  1.00  0.00    -0.067 N 
ATOM     15  H22 UNL     1     -11.959  13.923  -7.190  1.00  0.00     0.277 HD
ATOM     16  H21 UNL     1     -11.550  15.024  -8.218  1.00  0.00     0.277 HD
ENDBRANCH   6   8
BRANCH   5  17
HETATM   17  O1  UNL     1     -10.466  16.253  -9.456  1.00  0.00    -0.346 OA
ATOM     18  H1  UNL     1     -11.406  16.327  -9.343  1.00  0.00     0.219 HD
ENDBRANCH   5  17
BRANCH   7  19
HETATM   19  N3  UNL     1      -8.596  11.777 -10.400  1.00  0.00    -0.267 N 
ATOM     20  H3  UNL     1      -9.269  11.076 -10.712  1.00  0.00     0.194 HD
BRANCH  19  21
HETATM   21  O2  UNL     1      -7.464  11.408  -9.982  1.00  0.00    -0.289 OA
ATOM     22  H2  UNL     1      -6.716  11.361 -10.565  1.00  0.00     0.244 HD
ENDBRANCH  19  21
ENDBRANCH   7  19
TORSDOF 4
ENDMDL
MODEL 4
REMARK VINA RESULT: -5.944587466      1.166      2.736
REMARK  4 active torsions:
REMARK  status: ('A' for Active; 'I' for Inactive)
REMARK    1  A    between atoms: C3_5  and  O1_6 
REMARK    2  A    between atoms: C4_8  and  C5_9 
REMARK    3  A    between atoms: C11_18  and  N3_19 
REMARK    4  A    between atoms: N3_19  and  O2_21 
ROOT
HETATM    1  C1  UNL     1     -11.607  10.684  -6.706  1.00  0.00     0.070 C 
HETATM    2  C2  UNL     1     -10.612  10.981  -7.769  1.00  0.00     0.036 A 
HETATM    3  N1  UNL     1      -9.272  10.790  -7.729  1.00  0.00    -0.338 N 
ATOM      4  H1  UNL     1      -8.753  10.418  -6.934  1.00  0.00     0.168 HD
HETATM    5  C3  UNL     1      -8.736  11.169  -8.898  1.00  0.00     0.151 A 
HETATM    6  C4  UNL     1      -9.784  11.622  -9.717  1.00  0.00     0.054 A 
HETATM    7  C11 UNL     1     -10.961  11.510  -9.015  1.00  0.00     0.089 A 
ENDROOT
BRANCH   6   8
HETATM    8  C5  UNL     1      -9.642  12.167 -11.103  1.00  0.00     0.225 C 
HETATM    9  C6  UNL     1      -8.249  12.074 -11.627  1.00  0.00     0.038 C 
HETATM   10  C7  UNL     1      -8.081  13.093 -12.741  1.00  0.00     0.002 C 
HETATM   11  C8  UNL     1      -7.542  14.393 -12.261  1.00  0.00     0.002 C 
HETATM   12  C9  UNL     1      -8.513  15.254 -11.509  1.00  0.00     0.027 C 
HETATM   13  C10 UNL     1      -9.356  14.486 -10.542  1.00  0.00     0.233 C 
HETATM   14  N2  UNL     1     -10.176  13.492 -11.163  1.00  0.00    -0.067 N 
ATOM     15  H22 UNL     1     -10.379  13.751 -12.128  1.00  0.00     0.277 HD
ATOM     16  H21 UNL     1     -11.118  13.514 -10.773  1.00  0.00     0.277 HD
ENDBRANCH   6   8
BRANCH   5  17
HETATM   17  O1  UNL     1      -7.395  11.129  -9.250  1.00  0.00    -0.346 OA
ATOM     18  H1  UNL     1      -7.030  10.812 -10.068  1.00  0.00     0.219 HD
ENDBRANCH   5  17
BRANCH   7  19
HETATM   19  N3  UNL     1     -12.283  11.840  -9.400  1.00  0.00    -0.267 N 
ATOM     20  H3  UNL     1     -12.978  11.098  -9.489  1.00  0.00     0.194 HD
BRANCH  19  21
HETATM   21  O2  UNL     1     -12.617  13.034  -9.635  1.00  0.00    -0.289 OA
ATOM     22  H2  UNL     1     -12.641  13.683  -8.943  1.00  0.00     0.244 HD
ENDBRANCH  19  21
ENDBRANCH   7  19
TORSDOF 4
ENDMDL
MODEL 5
REMARK VINA RESULT: -5.864834103      1.749      4.689
REMARK  4 active torsions:
REMARK  status: ('A' for Active; 'I' for Inactive)
REMARK    1  A    between atoms: C3_5  and  O1_6 
REMARK    2  A    between atoms: C4_8  and  C5_9 
REMARK    3  A    between atoms: C11_18  and  N3_19 
REMARK    4  A    between atoms: N3_19  and  O2_21 
ROOT
HETATM    1  C1  UNL     1      -8.694  13.973 -12.320  1.00  0.00     0.070 C 
HETATM    2  C2  UNL     1      -9.308  13.901 -10.969  1.00  0.00     0.036 A 
HETATM    3  N1  UNL     1     -10.051  14.844 -10.344  1.00  0.00    -0.338 N 
ATOM      4  H1  UNL     1     -10.284  15.761 -10.725  1.00  0.00     0.168 HD
HETATM    5  C3  UNL     1     -10.432  14.383  -9.144  1.00  0.00     0.151 A 
HETATM    6  C4  UNL     1      -9.904  13.089  -9.001  1.00  0.00     0.054 A 
HETATM    7  C11 UNL     1      -9.197  12.782 -10.139  1.00  0.00     0.089 A 
ENDROOT
BRANCH   6   8
HETATM    8  C5  UNL     1     -10.056  12.207  -7.802  1.00  0.00     0.225 C 
HETATM    9  C6  UNL     1      -9.182  10.999  -7.852  1.00  0.00     0.038 C 
HETATM   10  C7  UNL     1      -9.769   9.940  -6.933  1.00  0.00     0.002 C 
HETATM   11  C8  UNL     1     -10.678   8.998  -7.640  1.00  0.00     0.002 C 
HETATM   12  C9  UNL     1     -12.026   9.552  -7.997  1.00  0.00     0.027 C 
HETATM   13  C10 UNL     1     -11.967  10.947  -8.531  1.00  0.00     0.233 C 
HETATM   14  N2  UNL     1     -11.435  11.893  -7.599  1.00  0.00    -0.067 N 
ATOM     15  H22 UNL     1     -11.592  11.577  -6.642  1.00  0.00     0.277 HD
ATOM     16  H21 UNL     1     -11.997  12.745  -7.597  1.00  0.00     0.277 HD
ENDBRANCH   6   8
BRANCH   5  17
HETATM   17  O1  UNL     1     -11.203  15.049  -8.203  1.00  0.00    -0.346 OA
ATOM     18  H1  UNL     1     -11.991  15.554  -8.367  1.00  0.00     0.219 HD
ENDBRANCH   5  17
BRANCH   7  19
HETATM   19  N3  UNL     1      -8.481  11.608 -10.474  1.00  0.00    -0.267 N 
ATOM     20  H3  UNL     1      -8.994  10.768 -10.744  1.00  0.00     0.194 HD
BRANCH  19  21
HETATM   21  O2  UNL     1      -7.219  11.581 -10.446  1.00  0.00    -0.289 OA
ATOM     22  H2  UNL     1      -6.749  10.787 -10.219  1.00  0.00     0.244 HD
ENDBRANCH  19  21
ENDBRANCH   7  19
TORSDOF 4
ENDMDL
