MODEL 1
REMARK VINA RESULT: -5.111871746      0.000      0.000
REMARK  1 active torsions:
REMARK  status: ('A' for Active; 'I' for Inactive)
REMARK    1  A    between atoms: N1_1  and  C1_5 
ROOT
HETATM    1  C1  UNL     1      16.382   2.657  14.244  1.00  0.00     0.207 C 
HETATM    2  S1  UNL     1      16.140   2.006  12.567  1.00  0.00    -0.050 SA
HETATM    3  C2  UNL     1      15.282   3.685  14.477  1.00  0.00     0.020 C 
HETATM    4  C3  UNL     1      15.082   4.373  15.718  1.00  0.00    -0.026 C 
HETATM    5  C4  UNL     1      14.198   3.860  16.842  1.00  0.00     0.038 C 
HETATM    6  C5  UNL     1      14.635   2.433  17.321  1.00  0.00     0.083 C 
HETATM    7  C6  UNL     1      15.466   1.928  16.305  1.00  0.00    -0.179 C 
HETATM    8  C7  UNL     1      16.277   1.464  15.262  1.00  0.00     0.135 C 
ENDROOT
BRANCH   1   9
HETATM    9  N1  UNL     1      17.652   3.242  14.446  1.00  0.00    -0.056 N 
ATOM     10  H13 UNL     1      17.572   4.254  14.536  1.00  0.00     0.276 HD
ATOM     11  H12 UNL     1      18.009   3.016  15.374  1.00  0.00     0.276 HD
ATOM     12  H11 UNL     1      18.334   2.997  13.728  1.00  0.00     0.276 HD
ENDBRANCH   1   9
TORSDOF 1
ENDMDL
MODEL 2
REMARK VINA RESULT: -4.810519426      1.034      1.274
REMARK  1 active torsions:
REMARK  status: ('A' for Active; 'I' for Inactive)
REMARK    1  A    between atoms: N1_1  and  C1_5 
ROOT
HETATM    1  C1  UNL     1      16.779   3.047  13.634  1.00  0.00     0.207 C 
HETATM    2  S1  UNL     1      16.544   2.304  11.995  1.00  0.00    -0.050 SA
HETATM    3  C2  UNL     1      16.079   4.401  13.606  1.00  0.00     0.020 C 
HETATM    4  C3  UNL     1      15.971   5.267  14.742  1.00  0.00    -0.026 C 
HETATM    5  C4  UNL     1      14.829   5.221  15.742  1.00  0.00     0.038 C 
HETATM    6  C5  UNL     1      14.683   3.802  16.393  1.00  0.00     0.083 C 
HETATM    7  C6  UNL     1      15.412   2.928  15.568  1.00  0.00    -0.179 C 
HETATM    8  C7  UNL     1      16.140   2.095  14.709  1.00  0.00     0.135 C 
ENDROOT
BRANCH   1   9
HETATM    9  N1  UNL     1      18.135   3.202  13.996  1.00  0.00    -0.056 N 
ATOM     10  H13 UNL     1      18.262   3.045  14.995  1.00  0.00     0.276 HD
ATOM     11  H12 UNL     1      18.696   2.433  13.631  1.00  0.00     0.276 HD
ATOM     12  H11 UNL     1      18.532   4.100  13.719  1.00  0.00     0.276 HD
ENDBRANCH   1   9
TORSDOF 1
ENDMDL
MODEL 3
REMARK VINA RESULT: -4.786205218      1.870      2.735
REMARK  1 active torsions:
REMARK  status: ('A' for Active; 'I' for Inactive)
REMARK    1  A    between atoms: N1_1  and  C1_5 
ROOT
HETATM    1  C1  UNL     1      15.352   3.857  15.092  1.00  0.00     0.207 C 
HETATM    2  S1  UNL     1      16.463   5.243  14.715  1.00  0.00    -0.050 SA
HETATM    3  C2  UNL     1      16.240   2.652  15.381  1.00  0.00     0.020 C 
HETATM    4  C3  UNL     1      15.741   1.375  15.797  1.00  0.00    -0.026 C 
HETATM    5  C4  UNL     1      15.525   0.977  17.247  1.00  0.00     0.038 C 
HETATM    6  C5  UNL     1      14.558   1.966  17.985  1.00  0.00     0.083 C 
HETATM    7  C6  UNL     1      14.499   3.115  17.175  1.00  0.00    -0.179 C 
HETATM    8  C7  UNL     1      14.482   4.241  16.343  1.00  0.00     0.135 C 
ENDROOT
BRANCH   1   9
HETATM    9  N1  UNL     1      14.445   3.560  14.051  1.00  0.00    -0.056 N 
ATOM     10  H13 UNL     1      13.483   3.675  14.368  1.00  0.00     0.276 HD
ATOM     11  H12 UNL     1      14.474   4.282  13.331  1.00  0.00     0.276 HD
ATOM     12  H11 UNL     1      14.581   2.637  13.641  1.00  0.00     0.276 HD
ENDBRANCH   1   9
TORSDOF 1
ENDMDL
MODEL 4
REMARK VINA RESULT: -4.776796558      1.392      2.312
REMARK  1 active torsions:
REMARK  status: ('A' for Active; 'I' for Inactive)
REMARK    1  A    between atoms: N1_1  and  C1_5 
ROOT
HETATM    1  C1  UNL     1      16.278   3.403  14.212  1.00  0.00     0.207 C 
HETATM    2  S1  UNL     1      17.918   4.003  13.717  1.00  0.00    -0.050 SA
HETATM    3  C2  UNL     1      16.498   2.434  15.368  1.00  0.00     0.020 C 
HETATM    4  C3  UNL     1      15.436   1.801  16.093  1.00  0.00    -0.026 C 
HETATM    5  C4  UNL     1      14.776   2.393  17.326  1.00  0.00     0.038 C 
HETATM    6  C5  UNL     1      14.182   3.816  17.042  1.00  0.00     0.083 C 
HETATM    7  C6  UNL     1      14.779   4.246  15.844  1.00  0.00    -0.179 C 
HETATM    8  C7  UNL     1      15.408   4.635  14.655  1.00  0.00     0.135 C 
ENDROOT
BRANCH   1   9
HETATM    9  N1  UNL     1      15.568   2.769  13.169  1.00  0.00    -0.056 N 
ATOM     10  H13 UNL     1      15.293   1.826  13.441  1.00  0.00     0.276 HD
ATOM     11  H12 UNL     1      14.646   3.189  13.053  1.00  0.00     0.276 HD
ATOM     12  H11 UNL     1      16.071   2.755  12.282  1.00  0.00     0.276 HD
ENDBRANCH   1   9
TORSDOF 1
ENDMDL
MODEL 5
REMARK VINA RESULT: -4.737318643      2.811      3.502
REMARK  1 active torsions:
REMARK  status: ('A' for Active; 'I' for Inactive)
REMARK    1  A    between atoms: N1_1  and  C1_5 
ROOT
HETATM    1  C1  UNL     1      14.591   2.046  17.115  1.00  0.00     0.207 C 
HETATM    2  S1  UNL     1      14.757   1.995  18.921  1.00  0.00    -0.050 SA
HETATM    3  C2  UNL     1      14.573   3.517  16.718  1.00  0.00     0.020 C 
HETATM    4  C3  UNL     1      14.531   3.978  15.362  1.00  0.00    -0.026 C 
HETATM    5  C4  UNL     1      15.764   4.246  14.515  1.00  0.00     0.038 C 
HETATM    6  C5  UNL     1      16.681   2.979  14.406  1.00  0.00     0.083 C 
HETATM    7  C6  UNL     1      16.262   2.116  15.435  1.00  0.00    -0.179 C 
HETATM    8  C7  UNL     1      15.817   1.296  16.479  1.00  0.00     0.135 C 
ENDROOT
BRANCH   1   9
HETATM    9  N1  UNL     1      13.434   1.394  16.635  1.00  0.00    -0.056 N 
ATOM     10  H13 UNL     1      13.550   0.381  16.669  1.00  0.00     0.276 HD
ATOM     11  H12 UNL     1      12.662   1.499  17.292  1.00  0.00     0.276 HD
ATOM     12  H11 UNL     1      13.154   1.692  15.700  1.00  0.00     0.276 HD
ENDBRANCH   1   9
TORSDOF 1
ENDMDL
