MODEL 1
REMARK VINA RESULT: -6.058120576      0.000      0.000
REMARK  1 active torsions:
REMARK  status: ('A' for Active; 'I' for Inactive)
REMARK    1  A    between atoms: N1_1  and  N2_4 
ROOT
HETATM    1  N2  UNL     1      16.559   1.463  13.807  1.00  0.00    -0.175 N 
HETATM    2  C1  UNL     1      16.426   2.849  13.246  1.00  0.00     0.183 C 
HETATM    3  C2  UNL     1      16.761   3.872  14.260  1.00  0.00     0.024 C 
HETATM    4  C3  UNL     1      15.810   4.273  15.287  1.00  0.00     0.002 C 
HETATM    5  C4  UNL     1      14.450   3.738  15.337  1.00  0.00     0.000 C 
HETATM    6  C5  UNL     1      14.009   3.302  16.694  1.00  0.00     0.000 C 
HETATM    7  C6  UNL     1      14.866   2.370  17.451  1.00  0.00     0.006 C 
HETATM    8  C7  UNL     1      14.976   0.966  16.922  1.00  0.00     0.061 C 
HETATM    9  C8  UNL     1      16.343   0.868  16.224  1.00  0.00     0.183 C 
HETATM   10  N3  UNL     1      16.448   1.155  15.057  1.00  0.00    -0.325 NA
ENDROOT
BRANCH   1  11
HETATM   11  N1  UNL     1      16.808   0.522  12.767  1.00  0.00    -0.318 N 
ATOM     12  H12 UNL     1      16.509  -0.453  12.790  1.00  0.00     0.179 HD
ATOM     13  H11 UNL     1      17.312   0.963  11.997  1.00  0.00     0.179 HD
ENDBRANCH   1  11
TORSDOF 1
ENDMDL
MODEL 2
REMARK VINA RESULT: -5.912129864      1.311      3.208
REMARK  1 active torsions:
REMARK  status: ('A' for Active; 'I' for Inactive)
REMARK    1  A    between atoms: N1_1  and  N2_4 
ROOT
HETATM    1  N2  UNL     1      16.029   0.937  15.945  1.00  0.00    -0.175 N 
HETATM    2  C1  UNL     1      15.079   0.854  17.103  1.00  0.00     0.183 C 
HETATM    3  C2  UNL     1      13.760   1.425  16.756  1.00  0.00     0.024 C 
HETATM    4  C3  UNL     1      13.522   2.861  16.756  1.00  0.00     0.002 C 
HETATM    5  C4  UNL     1      14.551   3.818  17.160  1.00  0.00     0.000 C 
HETATM    6  C5  UNL     1      14.705   4.984  16.242  1.00  0.00     0.000 C 
HETATM    7  C6  UNL     1      14.897   4.728  14.801  1.00  0.00     0.006 C 
HETATM    8  C7  UNL     1      16.200   4.101  14.390  1.00  0.00     0.061 C 
HETATM    9  C8  UNL     1      15.900   2.620  14.102  1.00  0.00     0.183 C 
HETATM   10  N3  UNL     1      15.963   1.807  14.992  1.00  0.00    -0.325 NA
ENDROOT
BRANCH   1  11
HETATM   11  N1  UNL     1      17.034  -0.068  16.046  1.00  0.00    -0.318 N 
ATOM     12  H12 UNL     1      18.007   0.114  16.292  1.00  0.00     0.179 HD
ATOM     13  H11 UNL     1      16.640  -0.990  15.853  1.00  0.00     0.179 HD
ENDBRANCH   1  11
TORSDOF 1
ENDMDL
MODEL 3
REMARK VINA RESULT: -5.684068890      1.540      2.041
REMARK  1 active torsions:
REMARK  status: ('A' for Active; 'I' for Inactive)
REMARK    1  A    between atoms: N1_1  and  N2_4 
ROOT
HETATM    1  N2  UNL     1      15.945   3.080  14.320  1.00  0.00    -0.175 N 
HETATM    2  C1  UNL     1      14.874   4.090  14.613  1.00  0.00     0.183 C 
HETATM    3  C2  UNL     1      14.830   4.421  16.053  1.00  0.00     0.024 C 
HETATM    4  C3  UNL     1      14.175   3.553  17.021  1.00  0.00     0.002 C 
HETATM    5  C4  UNL     1      13.469   2.337  16.619  1.00  0.00     0.000 C 
HETATM    6  C5  UNL     1      13.784   1.137  17.447  1.00  0.00     0.000 C 
HETATM    7  C6  UNL     1      15.199   0.768  17.646  1.00  0.00     0.006 C 
HETATM    8  C7  UNL     1      15.944   0.260  16.442  1.00  0.00     0.061 C 
HETATM    9  C8  UNL     1      16.835   1.417  15.960  1.00  0.00     0.183 C 
HETATM   10  N3  UNL     1      16.405   2.220  15.168  1.00  0.00    -0.325 NA
ENDROOT
BRANCH   1  11
HETATM   11  N1  UNL     1      16.377   3.184  12.967  1.00  0.00    -0.318 N 
ATOM     12  H12 UNL     1      16.793   2.419  12.435  1.00  0.00     0.179 HD
ATOM     13  H11 UNL     1      16.201   4.121  12.605  1.00  0.00     0.179 HD
ENDBRANCH   1  11
TORSDOF 1
ENDMDL
MODEL 4
REMARK VINA RESULT: -5.483696355      1.209      1.710
REMARK  1 active torsions:
REMARK  status: ('A' for Active; 'I' for Inactive)
REMARK    1  A    between atoms: N1_1  and  N2_4 
ROOT
HETATM    1  N2  UNL     1      16.856   1.873  13.443  1.00  0.00    -0.175 N 
HETATM    2  C1  UNL     1      17.379   2.998  12.600  1.00  0.00     0.183 C 
HETATM    3  C2  UNL     1      17.852   4.121  13.439  1.00  0.00     0.024 C 
HETATM    4  C3  UNL     1      16.930   5.082  14.025  1.00  0.00     0.002 C 
HETATM    5  C4  UNL     1      15.491   5.034  13.768  1.00  0.00     0.000 C 
HETATM    6  C5  UNL     1      14.641   5.180  14.985  1.00  0.00     0.000 C 
HETATM    7  C6  UNL     1      14.901   4.297  16.139  1.00  0.00     0.006 C 
HETATM    8  C7  UNL     1      14.582   2.838  15.963  1.00  0.00     0.061 C 
HETATM    9  C8  UNL     1      15.925   2.120  15.749  1.00  0.00     0.183 C 
HETATM   10  N3  UNL     1      16.374   2.000  14.635  1.00  0.00    -0.325 NA
ENDROOT
BRANCH   1  11
HETATM   11  N1  UNL     1      16.945   0.636  12.741  1.00  0.00    -0.318 N 
ATOM     12  H12 UNL     1      16.972   0.553  11.724  1.00  0.00     0.179 HD
ATOM     13  H11 UNL     1      16.990  -0.146  13.394  1.00  0.00     0.179 HD
ENDBRANCH   1  11
TORSDOF 1
ENDMDL
MODEL 5
REMARK VINA RESULT: -5.341610392      1.246      3.479
REMARK  1 active torsions:
REMARK  status: ('A' for Active; 'I' for Inactive)
REMARK    1  A    between atoms: N1_1  and  N2_4 
ROOT
HETATM    1  N2  UNL     1      16.238   1.571  15.433  1.00  0.00    -0.175 N 
HETATM    2  C1  UNL     1      15.407   2.378  16.386  1.00  0.00     0.183 C 
HETATM    3  C2  UNL     1      14.399   3.186  15.665  1.00  0.00     0.024 C 
HETATM    4  C3  UNL     1      14.745   4.442  15.014  1.00  0.00     0.002 C 
HETATM    5  C4  UNL     1      16.091   5.009  15.090  1.00  0.00     0.000 C 
HETATM    6  C5  UNL     1      16.632   5.488  13.785  1.00  0.00     0.000 C 
HETATM    7  C6  UNL     1      16.617   4.567  12.632  1.00  0.00     0.006 C 
HETATM    8  C7  UNL     1      17.541   3.382  12.698  1.00  0.00     0.061 C 
HETATM    9  C8  UNL     1      16.666   2.165  13.044  1.00  0.00     0.183 C 
HETATM   10  N3  UNL     1      16.460   1.878  14.197  1.00  0.00    -0.325 NA
ENDROOT
BRANCH   1  11
HETATM   11  N1  UNL     1      16.771   0.420  16.082  1.00  0.00    -0.318 N 
ATOM     12  H12 UNL     1      16.829   0.306  17.095  1.00  0.00     0.179 HD
ATOM     13  H11 UNL     1      17.072  -0.272  15.396  1.00  0.00     0.179 HD
ENDBRANCH   1  11
TORSDOF 1
ENDMDL
