MODEL 1
REMARK VINA RESULT: -4.306283620      0.000      0.000
REMARK  0 active torsions:
REMARK  status: ('A' for Active; 'I' for Inactive)
ROOT
HETATM    1  C1  UNL     1      16.649  -0.049  10.209  1.00  0.00     0.015 C 
HETATM    2  C2  UNL     1      17.168   0.710  11.402  1.00  0.00    -0.041 C 
HETATM    3  C3  UNL     1      16.906  -0.191  12.616  1.00  0.00     0.015 C 
HETATM    4  C4  UNL     1      18.647   0.951  11.357  1.00  0.00     0.042 C 
HETATM    5  C5  UNL     1      18.909   2.419  11.668  1.00  0.00     0.186 C 
HETATM    6  C6  UNL     1      18.283   3.200  10.531  1.00  0.00     0.033 C 
HETATM    7  C7  UNL     1      16.778   3.073  10.655  1.00  0.00     0.009 C 
HETATM    8  C8  UNL     1      16.440   1.994  11.654  1.00  0.00     0.019 C 
HETATM    9  C9  UNL     1      16.910   2.521  13.010  1.00  0.00     0.238 C 
HETATM   10  N1  UNL     1      18.315   2.790  12.919  1.00  0.00    -0.070 N 
ATOM     11  H11 UNL     1      18.502   3.771  13.125  1.00  0.00     0.277 HD
ATOM     12  H12 UNL     1      18.812   2.351  13.694  1.00  0.00     0.277 HD
ENDROOT
TORSDOF 0
ENDMDL
MODEL 2
REMARK VINA RESULT: -4.154892812      1.023      1.151
REMARK  0 active torsions:
REMARK  status: ('A' for Active; 'I' for Inactive)
ROOT
HETATM    1  C1  UNL     1      16.579   0.638  10.436  1.00  0.00     0.015 C 
HETATM    2  C2  UNL     1      17.489   1.258  11.463  1.00  0.00    -0.041 C 
HETATM    3  C3  UNL     1      16.942   0.817  12.827  1.00  0.00     0.015 C 
HETATM    4  C4  UNL     1      18.902   0.760  11.385  1.00  0.00     0.042 C 
HETATM    5  C5  UNL     1      19.840   1.959  11.408  1.00  0.00     0.186 C 
HETATM    6  C6  UNL     1      19.556   2.730  10.135  1.00  0.00     0.033 C 
HETATM    7  C7  UNL     1      18.180   3.353  10.267  1.00  0.00     0.009 C 
HETATM    8  C8  UNL     1      17.465   2.755  11.454  1.00  0.00     0.019 C 
HETATM    9  C9  UNL     1      18.238   3.227  12.686  1.00  0.00     0.238 C 
HETATM   10  N1  UNL     1      19.594   2.781  12.557  1.00  0.00    -0.070 N 
ATOM     11  H11 UNL     1      20.232   3.576  12.570  1.00  0.00     0.277 HD
ATOM     12  H12 UNL     1      19.893   2.303  13.407  1.00  0.00     0.277 HD
ENDROOT
TORSDOF 0
ENDMDL
MODEL 3
REMARK VINA RESULT: -4.093010679      1.504      3.150
REMARK  0 active torsions:
REMARK  status: ('A' for Active; 'I' for Inactive)
ROOT
HETATM    1  C1  UNL     1      19.681   2.209  12.075  1.00  0.00     0.015 C 
HETATM    2  C2  UNL     1      18.435   1.953  11.269  1.00  0.00    -0.041 C 
HETATM    3  C3  UNL     1      18.381   3.069  10.218  1.00  0.00     0.015 C 
HETATM    4  C4  UNL     1      18.469   0.656  10.518  1.00  0.00     0.042 C 
HETATM    5  C5  UNL     1      17.160  -0.082  10.765  1.00  0.00     0.186 C 
HETATM    6  C6  UNL     1      17.144  -0.410  12.244  1.00  0.00     0.033 C 
HETATM    7  C7  UNL     1      16.969   0.889  13.006  1.00  0.00     0.009 C 
HETATM    8  C8  UNL     1      17.175   2.056  12.071  1.00  0.00     0.019 C 
HETATM    9  C9  UNL     1      16.007   2.010  11.085  1.00  0.00     0.238 C 
HETATM   10  N1  UNL     1      16.036   0.740  10.421  1.00  0.00    -0.070 N 
ATOM     11  H11 UNL     1      15.164   0.236  10.581  1.00  0.00     0.277 HD
ATOM     12  H12 UNL     1      15.983   0.866   9.411  1.00  0.00     0.277 HD
ENDROOT
TORSDOF 0
ENDMDL
MODEL 4
REMARK VINA RESULT: -4.000412431      6.414      7.769
REMARK  0 active torsions:
REMARK  status: ('A' for Active; 'I' for Inactive)
ROOT
HETATM    1  C1  UNL     1      13.685   7.544  11.578  1.00  0.00     0.015 C 
HETATM    2  C2  UNL     1      14.411   7.903  10.308  1.00  0.00    -0.041 C 
HETATM    3  C3  UNL     1      15.591   8.784  10.737  1.00  0.00     0.015 C 
HETATM    4  C4  UNL     1      14.995   6.716   9.601  1.00  0.00     0.042 C 
HETATM    5  C5  UNL     1      14.614   6.794   8.129  1.00  0.00     0.186 C 
HETATM    6  C6  UNL     1      13.106   6.656   8.085  1.00  0.00     0.033 C 
HETATM    7  C7  UNL     1      12.507   7.918   8.673  1.00  0.00     0.009 C 
HETATM    8  C8  UNL     1      13.587   8.719   9.361  1.00  0.00     0.019 C 
HETATM    9  C9  UNL     1      14.520   9.199   8.249  1.00  0.00     0.238 C 
HETATM   10  N1  UNL     1      15.021   8.046   7.560  1.00  0.00    -0.070 N 
ATOM     11  H11 UNL     1      14.771   8.086   6.572  1.00  0.00     0.277 HD
ATOM     12  H12 UNL     1      16.037   8.090   7.485  1.00  0.00     0.277 HD
ENDROOT
TORSDOF 0
ENDMDL
MODEL 5
REMARK VINA RESULT: -3.938614859      1.391      2.318
REMARK  0 active torsions:
REMARK  status: ('A' for Active; 'I' for Inactive)
ROOT
HETATM    1  C1  UNL     1      19.906   2.686   9.715  1.00  0.00     0.015 C 
HETATM    2  C2  UNL     1      19.153   2.325  10.968  1.00  0.00    -0.041 C 
HETATM    3  C3  UNL     1      19.430   0.835  11.208  1.00  0.00     0.015 C 
HETATM    4  C4  UNL     1      19.638   3.054  12.185  1.00  0.00     0.042 C 
HETATM    5  C5  UNL     1      18.434   3.628  12.920  1.00  0.00     0.186 C 
HETATM    6  C6  UNL     1      17.829   4.653  11.983  1.00  0.00     0.033 C 
HETATM    7  C7  UNL     1      17.212   3.909  10.816  1.00  0.00     0.009 C 
HETATM    8  C8  UNL     1      17.668   2.470  10.833  1.00  0.00     0.019 C 
HETATM    9  C9  UNL     1      17.039   1.850  12.082  1.00  0.00     0.238 C 
HETATM   10  N1  UNL     1      17.480   2.599  13.221  1.00  0.00    -0.070 N 
ATOM     11  H11 UNL     1      16.682   2.990  13.720  1.00  0.00     0.277 HD
ATOM     12  H12 UNL     1      17.846   1.974  13.938  1.00  0.00     0.277 HD
ENDROOT
TORSDOF 0
ENDMDL
