MODEL 1
REMARK VINA RESULT: -11.056655376      0.000      0.000
REMARK  15 active torsions:
REMARK  status: ('A' for Active; 'I' for Inactive)
REMARK    1  A    between atoms: O1_2  and  C2_3 
REMARK    2  A    between atoms: C3_4  and  N1_5 
REMARK    3  A    between atoms: N2_10  and  C5_11 
REMARK    4  A    between atoms: C6_14  and  N4_15 
REMARK    5  A    between atoms: C10_21  and  N5_22 
REMARK    6  A    between atoms: N5_22  and  C11_24 
REMARK    7  A    between atoms: C12_27  and  N7_28 
REMARK    8  A    between atoms: C17_36  and  N9_37 
REMARK    9  A    between atoms: C22_56  and  O4_57 
REMARK   10  A    between atoms: O4_57  and  C23_58 
REMARK   11  A    between atoms: C23_58  and  C24_59 
REMARK   12  A    between atoms: C24_59  and  N15_60 
REMARK   13  A    between atoms: N15_60  and  C26_62 
REMARK   14  A    between atoms: C26_62  and  C27_63 
REMARK   15  A    between atoms: C27_63  and  C28_64 
ROOT
HETATM    1  C5  UNL     1      52.741  23.459  22.571  1.00  0.00     0.683 A 
HETATM    2  N3  UNL     1      51.740  24.383  22.414  1.00  0.00    -0.176 N 
ATOM      3  H3  UNL     1      51.851  25.114  21.711  1.00  0.00     0.186 HD
HETATM    4  C6  UNL     1      50.621  24.358  23.154  1.00  0.00     0.128 A 
HETATM    5  C7  UNL     1      50.451  23.378  24.112  1.00  0.00     0.054 A 
HETATM    6  C8  UNL     1      49.304  23.331  24.896  1.00  0.00     0.039 A 
HETATM    7  C9  UNL     1      49.157  22.346  25.854  1.00  0.00     0.061 A 
HETATM    8  C10 UNL     1      48.022  22.258  26.666  1.00  0.00     0.138 A 
HETATM    9  N11 UNL     1      47.930  21.286  27.582  1.00  0.00    -0.307 N 
ATOM     10  H11 UNL     1      47.115  21.201  28.189  1.00  0.00     0.171 HD
HETATM   11  C18 UNL     1      48.975  20.417  27.668  1.00  0.00     0.225 A 
HETATM   12  N12 UNL     1      48.856  19.481  28.570  1.00  0.00    -0.365 N 
ATOM     13 1H12 UNL     1      49.639  18.830  28.635  1.00  0.00     0.159 HD
ATOM     14 2H12 UNL     1      48.030  19.415  29.165  1.00  0.00     0.159 HD
HETATM   15  O3  UNL     1      50.035  20.502  26.904  1.00  0.00    -0.261 OA
HETATM   16  C19 UNL     1      50.175  21.444  25.985  1.00  0.00     0.167 A 
HETATM   17  N13 UNL     1      51.293  21.494  25.216  1.00  0.00    -0.321 N 
ATOM     18  H13 UNL     1      52.028  20.799  25.347  1.00  0.00     0.169 HD
HETATM   19  C20 UNL     1      51.440  22.444  24.288  1.00  0.00     0.137 A 
HETATM   20  N14 UNL     1      52.547  22.526  23.506  1.00  0.00    -0.175 N 
ATOM     21  H14 UNL     1      53.278  21.827  23.642  1.00  0.00     0.186 HD
ENDROOT
BRANCH   1  22
HETATM   22  N2  UNL     1      53.890  23.579  21.747  1.00  0.00    -0.213 N 
HETATM   23  C4  UNL     1      53.957  22.836  20.472  1.00  0.00     0.177 C 
HETATM   24  C3  UNL     1      55.092  21.854  20.560  1.00  0.00     0.233 C 
HETATM   25  C2  UNL     1      56.382  22.504  21.011  1.00  0.00     0.183 C 
HETATM   26  C22 UNL     1      56.204  23.376  22.205  1.00  0.00     0.171 C 
HETATM   27  C21 UNL     1      55.066  24.362  22.041  1.00  0.00     0.175 C 
BRANCH  24  28
HETATM   28  N1  UNL     1      54.736  20.741  21.411  1.00  0.00    -0.071 N 
ATOM     29  H13 UNL     1      53.908  20.256  21.065  1.00  0.00     0.274 HD
ATOM     30  H12 UNL     1      55.410  19.978  21.330  1.00  0.00     0.274 HD
ATOM     31  H11 UNL     1      54.620  21.035  22.380  1.00  0.00     0.274 HD
ENDBRANCH  24  28
BRANCH  25  32
HETATM   32  O1  UNL     1      56.895  23.232  19.939  1.00  0.00    -0.386 OA
HETATM   33  C1  UNL     1      57.339  22.463  18.896  1.00  0.00     0.202 C 
ENDBRANCH  25  32
BRANCH  26  34
HETATM   34  O4  UNL     1      57.393  23.877  22.592  1.00  0.00    -0.380 OA
BRANCH  34  35
HETATM   35  C23 UNL     1      57.398  24.709  23.684  1.00  0.00     0.188 C 
BRANCH  35  36
HETATM   36  C24 UNL     1      56.662  24.088  24.862  1.00  0.00     0.147 C 
BRANCH  36  37
HETATM   37  N15 UNL     1      55.695  24.930  25.462  1.00  0.00    -0.395 N 
HETATM   38  C25 UNL     1      55.546  26.166  24.805  1.00  0.00     0.148 C 
BRANCH  37  39
HETATM   39  C26 UNL     1      54.505  24.356  25.927  1.00  0.00     0.068 C 
BRANCH  39  40
HETATM   40  C27 UNL     1      53.268  25.177  25.826  1.00  0.00     0.157 C 
BRANCH  40  41
HETATM   41  C28 UNL     1      52.307  25.076  26.919  1.00  0.00     0.177 C 
HETATM   42  O5  UNL     1      51.809  26.138  27.428  1.00  0.00    -0.648 OA
HETATM   43  O6  UNL     1      51.868  23.867  27.480  1.00  0.00    -0.648 OA
ENDBRANCH  40  41
ENDBRANCH  39  40
ENDBRANCH  37  39
ENDBRANCH  36  37
ENDBRANCH  35  36
ENDBRANCH  34  35
ENDBRANCH  26  34
ENDBRANCH   1  22
BRANCH   4  44
HETATM   44  N4  UNL     1      49.681  25.219  23.009  1.00  0.00    -0.384 N 
ATOM     45  H42 UNL     1      48.753  24.870  22.767  1.00  0.00     0.157 HD
ATOM     46  H41 UNL     1      49.832  26.220  23.127  1.00  0.00     0.157 HD
ENDBRANCH   4  44
BRANCH   8  47
HETATM   47  N5  UNL     1      47.097  23.102  26.505  1.00  0.00    -0.174 N 
ATOM     48  H5  UNL     1      47.430  24.024  26.220  1.00  0.00     0.186 HD
BRANCH  47  49
HETATM   49  C11 UNL     1      45.721  23.024  26.638  1.00  0.00     0.713 A 
HETATM   50  N6  UNL     1      45.080  24.044  27.252  1.00  0.00    -0.021 N 
HETATM   51  C12 UNL     1      43.766  24.050  27.405  1.00  0.00     0.709 A 
ATOM     52  H6  UNL     1      45.625  24.830  27.606  1.00  0.00     0.203 HD
HETATM   53  N8  UNL     1      43.013  23.015  26.942  1.00  0.00    -0.022 N 
HETATM   54  C17 UNL     1      43.609  21.985  26.327  1.00  0.00     0.705 A 
ATOM     55  H8  UNL     1      42.000  23.024  27.062  1.00  0.00     0.203 HD
HETATM   56  N10 UNL     1      44.951  22.028  26.196  1.00  0.00    -0.021 N 
ATOM     57  H10 UNL     1      45.408  21.245  25.729  1.00  0.00     0.203 HD
BRANCH  51  58
HETATM   58  N7  UNL     1      43.120  25.171  28.042  1.00  0.00    -0.213 N 
HETATM   59  C13 UNL     1      42.807  25.058  29.445  1.00  0.00     0.167 C 
HETATM   60  C14 UNL     1      41.810  26.117  29.821  1.00  0.00     0.188 C 
HETATM   61  O2  UNL     1      42.219  27.325  29.268  1.00  0.00    -0.388 OA
HETATM   62  C15 UNL     1      41.830  27.262  27.909  1.00  0.00     0.188 C 
HETATM   63  C16 UNL     1      42.839  26.324  27.239  1.00  0.00     0.167 C 
ENDBRANCH  51  58
BRANCH  54  64
HETATM   64  N9  UNL     1      42.934  20.972  25.863  1.00  0.00    -0.234 N 
ATOM     65  H92 UNL     1      42.037  21.119  25.401  1.00  0.00     0.174 HD
ATOM     66  H91 UNL     1      43.271  20.013  25.946  1.00  0.00     0.174 HD
ENDBRANCH  54  64
ENDBRANCH  47  49
ENDBRANCH   8  47
TORSDOF 15
ENDMDL
MODEL 2
REMARK VINA RESULT: -10.734412945      1.009      1.343
REMARK  15 active torsions:
REMARK  status: ('A' for Active; 'I' for Inactive)
REMARK    1  A    between atoms: O1_2  and  C2_3 
REMARK    2  A    between atoms: C3_4  and  N1_5 
REMARK    3  A    between atoms: N2_10  and  C5_11 
REMARK    4  A    between atoms: C6_14  and  N4_15 
REMARK    5  A    between atoms: C10_21  and  N5_22 
REMARK    6  A    between atoms: N5_22  and  C11_24 
REMARK    7  A    between atoms: C12_27  and  N7_28 
REMARK    8  A    between atoms: C17_36  and  N9_37 
REMARK    9  A    between atoms: C22_56  and  O4_57 
REMARK   10  A    between atoms: O4_57  and  C23_58 
REMARK   11  A    between atoms: C23_58  and  C24_59 
REMARK   12  A    between atoms: C24_59  and  N15_60 
REMARK   13  A    between atoms: N15_60  and  C26_62 
REMARK   14  A    between atoms: C26_62  and  C27_63 
REMARK   15  A    between atoms: C27_63  and  C28_64 
ROOT
HETATM    1  C5  UNL     1      52.769  23.524  22.487  1.00  0.00     0.683 A 
HETATM    2  N3  UNL     1      51.775  24.448  22.294  1.00  0.00    -0.176 N 
ATOM      3  H3  UNL     1      51.900  25.165  21.579  1.00  0.00     0.186 HD
HETATM    4  C6  UNL     1      50.642  24.440  23.013  1.00  0.00     0.128 A 
HETATM    5  C7  UNL     1      50.451  23.479  23.986  1.00  0.00     0.054 A 
HETATM    6  C8  UNL     1      49.289  23.450  24.749  1.00  0.00     0.039 A 
HETATM    7  C9  UNL     1      49.122  22.483  25.723  1.00  0.00     0.061 A 
HETATM    8  C10 UNL     1      47.972  22.414  26.516  1.00  0.00     0.138 A 
HETATM    9  N11 UNL     1      47.860  21.461  27.448  1.00  0.00    -0.307 N 
ATOM     10  H11 UNL     1      47.033  21.389  28.041  1.00  0.00     0.171 HD
HETATM   11  C18 UNL     1      48.900  20.590  27.570  1.00  0.00     0.225 A 
HETATM   12  N12 UNL     1      48.762  19.672  28.487  1.00  0.00    -0.365 N 
ATOM     13 1H12 UNL     1      49.541  19.020  28.579  1.00  0.00     0.159 HD
ATOM     14 2H12 UNL     1      47.925  19.619  29.068  1.00  0.00     0.159 HD
HETATM   15  O3  UNL     1      49.974  20.658  26.824  1.00  0.00    -0.261 OA
HETATM   16  C19 UNL     1      50.134  21.581  25.890  1.00  0.00     0.167 A 
HETATM   17  N13 UNL     1      51.267  21.614  25.141  1.00  0.00    -0.321 N 
ATOM     18  H13 UNL     1      51.997  20.919  25.299  1.00  0.00     0.169 HD
HETATM   19  C20 UNL     1      51.434  22.546  24.198  1.00  0.00     0.137 A 
HETATM   20  N14 UNL     1      52.555  22.610  23.436  1.00  0.00    -0.175 N 
ATOM     21  H14 UNL     1      53.282  21.912  23.598  1.00  0.00     0.186 HD
ENDROOT
BRANCH   1  22
HETATM   22  N2  UNL     1      53.933  23.626  21.683  1.00  0.00    -0.213 N 
HETATM   23  C4  UNL     1      54.011  22.880  20.410  1.00  0.00     0.177 C 
HETATM   24  C3  UNL     1      55.129  21.881  20.518  1.00  0.00     0.233 C 
HETATM   25  C2  UNL     1      56.421  22.511  20.989  1.00  0.00     0.183 C 
HETATM   26  C22 UNL     1      56.237  23.388  22.180  1.00  0.00     0.171 C 
HETATM   27  C21 UNL     1      55.116  24.392  21.995  1.00  0.00     0.175 C 
BRANCH  24  28
HETATM   28  N1  UNL     1      54.742  20.774  21.364  1.00  0.00    -0.071 N 
ATOM     29  H13 UNL     1      54.121  21.077  22.114  1.00  0.00     0.274 HD
ATOM     30  H12 UNL     1      54.108  20.138  20.881  1.00  0.00     0.274 HD
ATOM     31  H11 UNL     1      55.557  20.283  21.730  1.00  0.00     0.274 HD
ENDBRANCH  24  28
BRANCH  25  32
HETATM   32  O1  UNL     1      56.964  23.230  19.925  1.00  0.00    -0.386 OA
HETATM   33  C1  UNL     1      57.372  22.456  18.872  1.00  0.00     0.202 C 
ENDBRANCH  25  32
BRANCH  26  34
HETATM   34  O4  UNL     1      57.426  23.872  22.586  1.00  0.00    -0.380 OA
BRANCH  34  35
HETATM   35  C23 UNL     1      57.435  24.650  23.716  1.00  0.00     0.188 C 
BRANCH  35  36
HETATM   36  C24 UNL     1      56.610  24.024  24.832  1.00  0.00     0.147 C 
BRANCH  36  37
HETATM   37  N15 UNL     1      55.676  24.900  25.437  1.00  0.00    -0.395 N 
HETATM   38  C25 UNL     1      55.548  26.130  24.765  1.00  0.00     0.148 C 
BRANCH  37  39
HETATM   39  C26 UNL     1      54.481  24.364  25.930  1.00  0.00     0.068 C 
BRANCH  39  40
HETATM   40  C27 UNL     1      53.262  25.211  25.829  1.00  0.00     0.157 C 
BRANCH  40  41
HETATM   41  C28 UNL     1      52.281  25.106  26.904  1.00  0.00     0.177 C 
HETATM   42  O5  UNL     1      51.769  26.166  27.404  1.00  0.00    -0.648 OA
HETATM   43  O6  UNL     1      51.838  23.896  27.459  1.00  0.00    -0.648 OA
ENDBRANCH  40  41
ENDBRANCH  39  40
ENDBRANCH  37  39
ENDBRANCH  36  37
ENDBRANCH  35  36
ENDBRANCH  34  35
ENDBRANCH  26  34
ENDBRANCH   1  22
BRANCH   4  44
HETATM   44  N4  UNL     1      49.707  25.301  22.835  1.00  0.00    -0.384 N 
ATOM     45  H42 UNL     1      49.656  25.763  21.927  1.00  0.00     0.157 HD
ATOM     46  H41 UNL     1      49.028  25.529  23.560  1.00  0.00     0.157 HD
ENDBRANCH   4  44
BRANCH   8  47
HETATM   47  N5  UNL     1      47.053  23.258  26.321  1.00  0.00    -0.174 N 
ATOM     48  H5  UNL     1      47.344  24.058  25.759  1.00  0.00     0.186 HD
BRANCH  47  49
HETATM   49  C11 UNL     1      45.728  23.311  26.720  1.00  0.00     0.713 A 
HETATM   50  N6  UNL     1      44.987  24.375  26.334  1.00  0.00    -0.021 N 
HETATM   51  C12 UNL     1      43.711  24.492  26.663  1.00  0.00     0.709 A 
ATOM     52  H6  UNL     1      45.425  25.106  25.773  1.00  0.00     0.203 HD
HETATM   53  N8  UNL     1      43.100  23.531  27.409  1.00  0.00    -0.022 N 
HETATM   54  C17 UNL     1      43.798  22.461  27.812  1.00  0.00     0.705 A 
ATOM     55  H8  UNL     1      42.116  23.625  27.660  1.00  0.00     0.203 HD
HETATM   56  N10 UNL     1      45.096  22.390  27.449  1.00  0.00    -0.021 N 
ATOM     57  H10 UNL     1      45.631  21.576  27.754  1.00  0.00     0.203 HD
BRANCH  51  58
HETATM   58  N7  UNL     1      42.951  25.629  26.207  1.00  0.00    -0.213 N 
HETATM   59  C13 UNL     1      42.767  25.789  24.786  1.00  0.00     0.167 C 
HETATM   60  C14 UNL     1      42.318  27.193  24.495  1.00  0.00     0.188 C 
HETATM   61  O2  UNL     1      41.316  27.532  25.395  1.00  0.00    -0.388 OA
HETATM   62  C15 UNL     1      41.990  27.861  26.596  1.00  0.00     0.188 C 
HETATM   63  C16 UNL     1      42.426  26.522  27.198  1.00  0.00     0.167 C 
ENDBRANCH  51  58
BRANCH  54  64
HETATM   64  N9  UNL     1      43.261  21.512  28.524  1.00  0.00    -0.234 N 
ATOM     65  H92 UNL     1      43.321  21.535  29.542  1.00  0.00     0.174 HD
ATOM     66  H91 UNL     1      42.772  20.724  28.098  1.00  0.00     0.174 HD
ENDBRANCH  54  64
ENDBRANCH  47  49
ENDBRANCH   8  47
TORSDOF 15
ENDMDL
MODEL 3
REMARK VINA RESULT: -10.715130122      2.065      4.711
REMARK  15 active torsions:
REMARK  status: ('A' for Active; 'I' for Inactive)
REMARK    1  A    between atoms: O1_2  and  C2_3 
REMARK    2  A    between atoms: C3_4  and  N1_5 
REMARK    3  A    between atoms: N2_10  and  C5_11 
REMARK    4  A    between atoms: C6_14  and  N4_15 
REMARK    5  A    between atoms: C10_21  and  N5_22 
REMARK    6  A    between atoms: N5_22  and  C11_24 
REMARK    7  A    between atoms: C12_27  and  N7_28 
REMARK    8  A    between atoms: C17_36  and  N9_37 
REMARK    9  A    between atoms: C22_56  and  O4_57 
REMARK   10  A    between atoms: O4_57  and  C23_58 
REMARK   11  A    between atoms: C23_58  and  C24_59 
REMARK   12  A    between atoms: C24_59  and  N15_60 
REMARK   13  A    between atoms: N15_60  and  C26_62 
REMARK   14  A    between atoms: C26_62  and  C27_63 
REMARK   15  A    between atoms: C27_63  and  C28_64 
ROOT
HETATM    1  C5  UNL     1      52.384  22.562  23.477  1.00  0.00     0.683 A 
HETATM    2  N3  UNL     1      51.662  23.712  23.670  1.00  0.00    -0.176 N 
ATOM      3  H3  UNL     1      51.992  24.578  23.242  1.00  0.00     0.186 HD
HETATM    4  C6  UNL     1      50.538  23.737  24.402  1.00  0.00     0.128 A 
HETATM    5  C7  UNL     1      50.075  22.577  24.991  1.00  0.00     0.054 A 
HETATM    6  C8  UNL     1      48.916  22.574  25.759  1.00  0.00     0.039 A 
HETATM    7  C9  UNL     1      48.474  21.402  26.345  1.00  0.00     0.061 A 
HETATM    8  C10 UNL     1      47.315  21.350  27.126  1.00  0.00     0.138 A 
HETATM    9  N11 UNL     1      46.932  20.191  27.674  1.00  0.00    -0.307 N 
ATOM     10  H11 UNL     1      46.092  20.126  28.250  1.00  0.00     0.171 HD
HETATM   11  C18 UNL     1      47.713  19.103  27.430  1.00  0.00     0.225 A 
HETATM   12  N12 UNL     1      47.313  17.988  27.978  1.00  0.00    -0.365 N 
ATOM     13 1H12 UNL     1      47.899  17.173  27.796  1.00  0.00     0.159 HD
ATOM     14 2H12 UNL     1      46.469  17.946  28.549  1.00  0.00     0.159 HD
HETATM   15  O3  UNL     1      48.796  19.157  26.696  1.00  0.00    -0.261 OA
HETATM   16  C19 UNL     1      49.219  20.277  26.133  1.00  0.00     0.167 A 
HETATM   17  N13 UNL     1      50.350  20.285  25.381  1.00  0.00    -0.321 N 
ATOM     18  H13 UNL     1      50.874  19.421  25.249  1.00  0.00     0.169 HD
HETATM   19  C20 UNL     1      50.782  21.415  24.813  1.00  0.00     0.137 A 
HETATM   20  N14 UNL     1      51.910  21.459  24.060  1.00  0.00    -0.175 N 
ATOM     21  H14 UNL     1      52.431  20.591  23.931  1.00  0.00     0.186 HD
ENDROOT
BRANCH   1  22
HETATM   22  N2  UNL     1      53.565  22.645  22.695  1.00  0.00    -0.213 N 
HETATM   23  C4  UNL     1      54.851  22.191  23.262  1.00  0.00     0.177 C 
HETATM   24  C3  UNL     1      55.770  23.377  23.352  1.00  0.00     0.233 C 
HETATM   25  C2  UNL     1      55.859  24.136  22.046  1.00  0.00     0.183 C 
HETATM   26  C22 UNL     1      54.525  24.412  21.444  1.00  0.00     0.171 C 
HETATM   27  C21 UNL     1      53.660  23.171  21.354  1.00  0.00     0.175 C 
BRANCH  24  28
HETATM   28  N1  UNL     1      55.377  24.244  24.440  1.00  0.00    -0.071 N 
ATOM     29  H13 UNL     1      54.848  23.737  25.150  1.00  0.00     0.274 HD
ATOM     30  H12 UNL     1      56.179  24.519  25.008  1.00  0.00     0.274 HD
ATOM     31  H11 UNL     1      54.863  25.057  24.102  1.00  0.00     0.274 HD
ENDBRANCH  24  28
BRANCH  25  32
HETATM   32  O1  UNL     1      56.653  23.396  21.171  1.00  0.00    -0.386 OA
HETATM   33  C1  UNL     1      57.930  23.178  21.616  1.00  0.00     0.202 C 
ENDBRANCH  25  32
BRANCH  26  34
HETATM   34  O4  UNL     1      54.667  25.137  20.319  1.00  0.00    -0.380 OA
BRANCH  34  35
HETATM   35  C23 UNL     1      54.301  24.542  19.137  1.00  0.00     0.188 C 
BRANCH  35  36
HETATM   36  C24 UNL     1      55.460  24.500  18.151  1.00  0.00     0.147 C 
BRANCH  36  37
HETATM   37  N15 UNL     1      55.915  23.198  17.832  1.00  0.00    -0.395 N 
HETATM   38  C25 UNL     1      54.932  22.397  17.221  1.00  0.00     0.148 C 
BRANCH  37  39
HETATM   39  C26 UNL     1      57.208  23.050  17.316  1.00  0.00     0.068 C 
BRANCH  39  40
HETATM   40  C27 UNL     1      57.386  23.259  15.853  1.00  0.00     0.157 C 
BRANCH  40  41
HETATM   41  C28 UNL     1      57.887  24.558  15.418  1.00  0.00     0.177 C 
HETATM   42  O5  UNL     1      57.129  25.341  14.750  1.00  0.00    -0.648 OA
HETATM   43  O6  UNL     1      59.180  25.038  15.679  1.00  0.00    -0.648 OA
ENDBRANCH  40  41
ENDBRANCH  39  40
ENDBRANCH  37  39
ENDBRANCH  36  37
ENDBRANCH  35  36
ENDBRANCH  34  35
ENDBRANCH  26  34
ENDBRANCH   1  22
BRANCH   4  44
HETATM   44  N4  UNL     1      49.858  24.809  24.585  1.00  0.00    -0.384 N 
ATOM     45  H42 UNL     1      49.653  25.384  23.767  1.00  0.00     0.157 HD
ATOM     46  H41 UNL     1      49.525  25.097  25.505  1.00  0.00     0.157 HD
ENDBRANCH   4  44
BRANCH   8  47
HETATM   47  N5  UNL     1      46.647  22.409  27.286  1.00  0.00    -0.174 N 
ATOM     48  H5  UNL     1      47.105  23.096  27.885  1.00  0.00     0.186 HD
BRANCH  47  49
HETATM   49  C11 UNL     1      45.414  22.823  26.809  1.00  0.00     0.713 A 
HETATM   50  N6  UNL     1      44.801  23.854  27.433  1.00  0.00    -0.021 N 
HETATM   51  C12 UNL     1      43.628  24.316  27.029  1.00  0.00     0.709 A 
ATOM     52  H6  UNL     1      45.255  24.286  28.237  1.00  0.00     0.203 HD
HETATM   53  N8  UNL     1      43.000  23.758  25.957  1.00  0.00    -0.022 N 
HETATM   54  C17 UNL     1      43.574  22.735  25.311  1.00  0.00     0.705 A 
ATOM     55  H8  UNL     1      42.097  24.118  25.649  1.00  0.00     0.203 HD
HETATM   56  N10 UNL     1      44.769  22.302  25.763  1.00  0.00    -0.021 N 
ATOM     57  H10 UNL     1      45.209  21.523  25.273  1.00  0.00     0.203 HD
BRANCH  51  58
HETATM   58  N7  UNL     1      43.023  25.435  27.707  1.00  0.00    -0.213 N 
HETATM   59  C13 UNL     1      42.823  25.329  29.131  1.00  0.00     0.167 C 
HETATM   60  C14 UNL     1      41.848  26.381  29.577  1.00  0.00     0.188 C 
HETATM   61  O2  UNL     1      42.197  27.588  28.985  1.00  0.00    -0.388 OA
HETATM   62  C15 UNL     1      41.701  27.510  27.661  1.00  0.00     0.188 C 
HETATM   63  C16 UNL     1      42.664  26.578  26.920  1.00  0.00     0.167 C 
ENDBRANCH  51  58
BRANCH  54  64
HETATM   64  N9  UNL     1      43.016  22.169  24.279  1.00  0.00    -0.234 N 
ATOM     65  H92 UNL     1      42.032  21.902  24.307  1.00  0.00     0.174 HD
ATOM     66  H91 UNL     1      43.534  21.971  23.423  1.00  0.00     0.174 HD
ENDBRANCH  54  64
ENDBRANCH  47  49
ENDBRANCH   8  47
TORSDOF 15
ENDMDL
MODEL 4
REMARK VINA RESULT: -10.608067666      2.353      4.868
REMARK  15 active torsions:
REMARK  status: ('A' for Active; 'I' for Inactive)
REMARK    1  A    between atoms: O1_2  and  C2_3 
REMARK    2  A    between atoms: C3_4  and  N1_5 
REMARK    3  A    between atoms: N2_10  and  C5_11 
REMARK    4  A    between atoms: C6_14  and  N4_15 
REMARK    5  A    between atoms: C10_21  and  N5_22 
REMARK    6  A    between atoms: N5_22  and  C11_24 
REMARK    7  A    between atoms: C12_27  and  N7_28 
REMARK    8  A    between atoms: C17_36  and  N9_37 
REMARK    9  A    between atoms: C22_56  and  O4_57 
REMARK   10  A    between atoms: O4_57  and  C23_58 
REMARK   11  A    between atoms: C23_58  and  C24_59 
REMARK   12  A    between atoms: C24_59  and  N15_60 
REMARK   13  A    between atoms: N15_60  and  C26_62 
REMARK   14  A    between atoms: C26_62  and  C27_63 
REMARK   15  A    between atoms: C27_63  and  C28_64 
ROOT
HETATM    1  C5  UNL     1      52.240  22.403  24.450  1.00  0.00     0.683 A 
HETATM    2  N3  UNL     1      51.704  23.560  24.955  1.00  0.00    -0.176 N 
ATOM      3  H3  UNL     1      52.279  24.402  24.973  1.00  0.00     0.186 HD
HETATM    4  C6  UNL     1      50.449  23.620  25.427  1.00  0.00     0.128 A 
HETATM    5  C7  UNL     1      49.655  22.491  25.414  1.00  0.00     0.054 A 
HETATM    6  C8  UNL     1      48.353  22.523  25.901  1.00  0.00     0.039 A 
HETATM    7  C9  UNL     1      47.576  21.379  25.885  1.00  0.00     0.061 A 
HETATM    8  C10 UNL     1      46.263  21.362  26.363  1.00  0.00     0.138 A 
HETATM    9  N11 UNL     1      45.554  20.227  26.328  1.00  0.00    -0.307 N 
ATOM     10  H11 UNL     1      44.595  20.187  26.673  1.00  0.00     0.171 HD
HETATM   11  C18 UNL     1      46.171  19.129  25.812  1.00  0.00     0.225 A 
HETATM   12  N12 UNL     1      45.455  18.038  25.791  1.00  0.00    -0.365 N 
ATOM     13 1H12 UNL     1      45.917  17.215  25.405  1.00  0.00     0.159 HD
ATOM     14 2H12 UNL     1      44.497  18.021  26.141  1.00  0.00     0.159 HD
HETATM   15  O3  UNL     1      47.401  19.150  25.363  1.00  0.00    -0.261 OA
HETATM   16  C19 UNL     1      48.144  20.245  25.376  1.00  0.00     0.167 A 
HETATM   17  N13 UNL     1      49.416  20.219  24.901  1.00  0.00    -0.321 N 
ATOM     18  H13 UNL     1      49.798  19.350  24.530  1.00  0.00     0.169 HD
HETATM   19  C20 UNL     1      50.171  21.322  24.915  1.00  0.00     0.137 A 
HETATM   20  N14 UNL     1      51.447  21.329  24.452  1.00  0.00    -0.175 N 
ATOM     21  H14 UNL     1      51.824  20.457  24.082  1.00  0.00     0.186 HD
ENDROOT
BRANCH   1  22
HETATM   22  N2  UNL     1      53.580  22.441  23.986  1.00  0.00    -0.213 N 
HETATM   23  C4  UNL     1      54.521  23.433  24.547  1.00  0.00     0.177 C 
HETATM   24  C3  UNL     1      54.942  24.359  23.440  1.00  0.00     0.233 C 
HETATM   25  C2  UNL     1      55.427  23.612  22.217  1.00  0.00     0.183 C 
HETATM   26  C22 UNL     1      54.509  22.512  21.809  1.00  0.00     0.171 C 
HETATM   27  C21 UNL     1      54.148  21.598  22.962  1.00  0.00     0.175 C 
BRANCH  24  28
HETATM   28  N1  UNL     1      53.873  25.275  23.109  1.00  0.00    -0.071 N 
ATOM     29  H13 UNL     1      54.146  26.244  23.276  1.00  0.00     0.274 HD
ATOM     30  H12 UNL     1      53.723  25.326  22.101  1.00  0.00     0.274 HD
ATOM     31  H11 UNL     1      53.014  25.039  23.604  1.00  0.00     0.274 HD
ENDBRANCH  24  28
BRANCH  25  32
HETATM   32  O1  UNL     1      56.701  23.117  22.492  1.00  0.00    -0.386 OA
HETATM   33  C1  UNL     1      57.570  24.046  22.998  1.00  0.00     0.202 C 
ENDBRANCH  25  32
BRANCH  26  34
HETATM   34  O4  UNL     1      54.963  21.924  20.686  1.00  0.00    -0.380 OA
BRANCH  34  35
HETATM   35  C23 UNL     1      54.529  22.437  19.489  1.00  0.00     0.188 C 
BRANCH  35  36
HETATM   36  C24 UNL     1      55.678  22.619  18.509  1.00  0.00     0.147 C 
BRANCH  36  37
HETATM   37  N15 UNL     1      56.643  23.577  18.904  1.00  0.00    -0.395 N 
HETATM   38  C25 UNL     1      57.903  23.017  19.187  1.00  0.00     0.148 C 
BRANCH  37  39
HETATM   39  C26 UNL     1      56.675  24.808  18.236  1.00  0.00     0.068 C 
BRANCH  39  40
HETATM   40  C27 UNL     1      56.534  24.783  16.755  1.00  0.00     0.157 C 
BRANCH  40  41
HETATM   41  C28 UNL     1      57.642  24.227  15.986  1.00  0.00     0.177 C 
HETATM   42  O5  UNL     1      57.520  23.081  15.433  1.00  0.00    -0.648 OA
HETATM   43  O6  UNL     1      58.876  24.867  15.797  1.00  0.00    -0.648 OA
ENDBRANCH  40  41
ENDBRANCH  39  40
ENDBRANCH  37  39
ENDBRANCH  36  37
ENDBRANCH  35  36
ENDBRANCH  34  35
ENDBRANCH  26  34
ENDBRANCH   1  22
BRANCH   4  44
HETATM   44  N4  UNL     1      49.942  24.699  25.899  1.00  0.00    -0.384 N 
ATOM     45  H42 UNL     1      48.933  24.824  25.816  1.00  0.00     0.157 HD
ATOM     46  H41 UNL     1      50.508  25.421  26.346  1.00  0.00     0.157 HD
ENDBRANCH   4  44
BRANCH   8  47
HETATM   47  N5  UNL     1      45.770  22.434  26.812  1.00  0.00    -0.174 N 
ATOM     48  H5  UNL     1      45.953  22.585  27.805  1.00  0.00     0.186 HD
BRANCH  47  49
HETATM   49  C11 UNL     1      45.030  23.446  26.223  1.00  0.00     0.713 A 
HETATM   50  N6  UNL     1      44.266  24.225  27.022  1.00  0.00    -0.021 N 
HETATM   51  C12 UNL     1      43.541  25.221  26.537  1.00  0.00     0.709 A 
ATOM     52  H6  UNL     1      44.248  24.040  28.024  1.00  0.00     0.203 HD
HETATM   53  N8  UNL     1      43.546  25.492  25.203  1.00  0.00    -0.022 N 
HETATM   54  C17 UNL     1      44.290  24.744  24.378  1.00  0.00     0.705 A 
ATOM     55  H8  UNL     1      42.986  26.260  24.833  1.00  0.00     0.203 HD
HETATM   56  N10 UNL     1      45.010  23.741  24.922  1.00  0.00    -0.021 N 
ATOM     57  H10 UNL     1      45.578  23.170  24.297  1.00  0.00     0.203 HD
BRANCH  51  58
HETATM   58  N7  UNL     1      42.761  26.044  27.427  1.00  0.00    -0.213 N 
HETATM   59  C13 UNL     1      42.089  27.190  26.867  1.00  0.00     0.167 C 
HETATM   60  C14 UNL     1      41.679  28.118  27.975  1.00  0.00     0.188 C 
HETATM   61  O2  UNL     1      41.100  27.367  28.990  1.00  0.00    -0.388 OA
HETATM   62  C15 UNL     1      42.186  26.799  29.698  1.00  0.00     0.188 C 
HETATM   63  C16 UNL     1      42.702  25.664  28.808  1.00  0.00     0.167 C 
ENDBRANCH  51  58
BRANCH  54  64
HETATM   64  N9  UNL     1      44.333  24.963  23.094  1.00  0.00    -0.234 N 
ATOM     65  H92 UNL     1      43.882  24.317  22.446  1.00  0.00     0.174 HD
ATOM     66  H91 UNL     1      44.813  25.771  22.698  1.00  0.00     0.174 HD
ENDBRANCH  54  64
ENDBRANCH  47  49
ENDBRANCH   8  47
TORSDOF 15
ENDMDL
MODEL 5
REMARK VINA RESULT: -10.411887059      1.876      3.089
REMARK  15 active torsions:
REMARK  status: ('A' for Active; 'I' for Inactive)
REMARK    1  A    between atoms: O1_2  and  C2_3 
REMARK    2  A    between atoms: C3_4  and  N1_5 
REMARK    3  A    between atoms: N2_10  and  C5_11 
REMARK    4  A    between atoms: C6_14  and  N4_15 
REMARK    5  A    between atoms: C10_21  and  N5_22 
REMARK    6  A    between atoms: N5_22  and  C11_24 
REMARK    7  A    between atoms: C12_27  and  N7_28 
REMARK    8  A    between atoms: C17_36  and  N9_37 
REMARK    9  A    between atoms: C22_56  and  O4_57 
REMARK   10  A    between atoms: O4_57  and  C23_58 
REMARK   11  A    between atoms: C23_58  and  C24_59 
REMARK   12  A    between atoms: C24_59  and  N15_60 
REMARK   13  A    between atoms: N15_60  and  C26_62 
REMARK   14  A    between atoms: C26_62  and  C27_63 
REMARK   15  A    between atoms: C27_63  and  C28_64 
ROOT
HETATM    1  C5  UNL     1      52.540  23.414  22.484  1.00  0.00     0.683 A 
HETATM    2  N3  UNL     1      51.562  24.370  22.392  1.00  0.00    -0.176 N 
ATOM      3  H3  UNL     1      51.664  25.115  21.702  1.00  0.00     0.186 HD
HETATM    4  C6  UNL     1      50.475  24.359  23.179  1.00  0.00     0.128 A 
HETATM    5  C7  UNL     1      50.317  23.362  24.120  1.00  0.00     0.054 A 
HETATM    6  C8  UNL     1      49.204  23.329  24.952  1.00  0.00     0.039 A 
HETATM    7  C9  UNL     1      49.069  22.324  25.893  1.00  0.00     0.061 A 
HETATM    8  C10 UNL     1      47.968  22.249  26.751  1.00  0.00     0.138 A 
HETATM    9  N11 UNL     1      47.886  21.258  27.647  1.00  0.00    -0.307 N 
ATOM     10  H11 UNL     1      47.095  21.182  28.287  1.00  0.00     0.171 HD
HETATM   11  C18 UNL     1      48.907  20.357  27.667  1.00  0.00     0.225 A 
HETATM   12  N12 UNL     1      48.799  19.403  28.551  1.00  0.00    -0.365 N 
ATOM     13 1H12 UNL     1      49.563  18.728  28.566  1.00  0.00     0.159 HD
ATOM     14 2H12 UNL     1      47.997  19.346  29.180  1.00  0.00     0.159 HD
HETATM   15  O3  UNL     1      49.935  20.430  26.859  1.00  0.00    -0.261 OA
HETATM   16  C19 UNL     1      50.063  21.390  25.958  1.00  0.00     0.167 A 
HETATM   17  N13 UNL     1      51.149  21.426  25.142  1.00  0.00    -0.321 N 
ATOM     18  H13 UNL     1      51.867  20.707  25.225  1.00  0.00     0.169 HD
HETATM   19  C20 UNL     1      51.284  22.395  24.231  1.00  0.00     0.137 A 
HETATM   20  N14 UNL     1      52.358  22.464  23.404  1.00  0.00    -0.175 N 
ATOM     21  H14 UNL     1      53.074  21.741  23.491  1.00  0.00     0.186 HD
ENDROOT
BRANCH   1  22
HETATM   22  N2  UNL     1      53.656  23.521  21.614  1.00  0.00    -0.213 N 
HETATM   23  C4  UNL     1      53.760  22.626  20.443  1.00  0.00     0.177 C 
HETATM   24  C3  UNL     1      54.978  21.763  20.619  1.00  0.00     0.233 C 
HETATM   25  C2  UNL     1      56.215  22.571  20.939  1.00  0.00     0.183 C 
HETATM   26  C22 UNL     1      55.989  23.575  22.017  1.00  0.00     0.171 C 
HETATM   27  C21 UNL     1      54.765  24.432  21.765  1.00  0.00     0.175 C 
BRANCH  24  28
HETATM   28  N1  UNL     1      54.740  20.744  21.617  1.00  0.00    -0.071 N 
ATOM     29  H13 UNL     1      55.607  20.287  21.898  1.00  0.00     0.274 HD
ATOM     30  H12 UNL     1      54.479  21.153  22.514  1.00  0.00     0.274 HD
ATOM     31  H11 UNL     1      54.047  20.066  21.299  1.00  0.00     0.274 HD
ENDBRANCH  24  28
BRANCH  25  32
HETATM   32  O1  UNL     1      56.640  23.194  19.766  1.00  0.00    -0.386 OA
HETATM   33  C1  UNL     1      57.785  22.666  19.230  1.00  0.00     0.202 C 
ENDBRANCH  25  32
BRANCH  26  34
HETATM   34  O4  UNL     1      57.137  24.220  22.296  1.00  0.00    -0.380 OA
BRANCH  34  35
HETATM   35  C23 UNL     1      57.356  24.575  23.604  1.00  0.00     0.188 C 
BRANCH  35  36
HETATM   36  C24 UNL     1      56.376  23.883  24.541  1.00  0.00     0.147 C 
BRANCH  36  37
HETATM   37  N15 UNL     1      55.582  24.762  25.316  1.00  0.00    -0.395 N 
HETATM   38  C25 UNL     1      55.523  26.068  24.795  1.00  0.00     0.148 C 
BRANCH  37  39
HETATM   39  C26 UNL     1      54.382  24.281  25.853  1.00  0.00     0.068 C 
BRANCH  39  40
HETATM   40  C27 UNL     1      53.182  25.152  25.728  1.00  0.00     0.157 C 
BRANCH  40  41
HETATM   41  C28 UNL     1      52.271  25.205  26.866  1.00  0.00     0.177 C 
HETATM   42  O5  UNL     1      51.843  24.120  27.388  1.00  0.00    -0.648 OA
HETATM   43  O6  UNL     1      51.806  26.390  27.456  1.00  0.00    -0.648 OA
ENDBRANCH  40  41
ENDBRANCH  39  40
ENDBRANCH  37  39
ENDBRANCH  36  37
ENDBRANCH  35  36
ENDBRANCH  34  35
ENDBRANCH  26  34
ENDBRANCH   1  22
BRANCH   4  44
HETATM   44  N4  UNL     1      49.556  25.251  23.096  1.00  0.00    -0.384 N 
ATOM     45  H42 UNL     1      49.734  26.060  22.501  1.00  0.00     0.157 HD
ATOM     46  H41 UNL     1      48.672  25.173  23.598  1.00  0.00     0.157 HD
ENDBRANCH   4  44
BRANCH   8  47
HETATM   47  N5  UNL     1      47.063  23.124  26.650  1.00  0.00    -0.174 N 
ATOM     48  H5  UNL     1      47.376  24.066  26.886  1.00  0.00     0.186 HD
BRANCH  47  49
HETATM   49  C11 UNL     1      45.729  23.057  26.282  1.00  0.00     0.713 A 
HETATM   50  N6  UNL     1      45.231  21.858  25.905  1.00  0.00    -0.021 N 
HETATM   51  C12 UNL     1      43.964  21.709  25.552  1.00  0.00     0.709 A 
ATOM     52  H6  UNL     1      45.848  21.046  25.891  1.00  0.00     0.203 HD
HETATM   53  N8  UNL     1      43.116  22.775  25.561  1.00  0.00    -0.022 N 
HETATM   54  C17 UNL     1      43.570  23.980  25.929  1.00  0.00     0.705 A 
ATOM     55  H8  UNL     1      42.141  22.656  25.289  1.00  0.00     0.203 HD
HETATM   56  N10 UNL     1      44.870  24.077  26.279  1.00  0.00    -0.021 N 
ATOM     57  H10 UNL     1      45.219  24.994  26.560  1.00  0.00     0.203 HD
BRANCH  51  58
HETATM   58  N7  UNL     1      43.467  20.407  25.182  1.00  0.00    -0.213 N 
HETATM   59  C13 UNL     1      44.274  19.261  25.515  1.00  0.00     0.167 C 
HETATM   60  C14 UNL     1      43.808  18.074  24.720  1.00  0.00     0.188 C 
HETATM   61  O2  UNL     1      42.421  18.021  24.776  1.00  0.00    -0.388 OA
HETATM   62  C15 UNL     1      41.973  18.984  23.840  1.00  0.00     0.188 C 
HETATM   63  C16 UNL     1      42.201  20.341  24.512  1.00  0.00     0.167 C 
ENDBRANCH  51  58
BRANCH  54  64
HETATM   64  N9  UNL     1      42.800  25.031  25.958  1.00  0.00    -0.234 N 
ATOM     65  H92 UNL     1      41.846  24.980  25.601  1.00  0.00     0.174 HD
ATOM     66  H91 UNL     1      43.119  25.926  26.328  1.00  0.00     0.174 HD
ENDBRANCH  54  64
ENDBRANCH  47  49
ENDBRANCH   8  47
TORSDOF 15
ENDMDL
