MODEL 1
REMARK VINA RESULT: -9.183944114      0.000      0.000
REMARK  17 active torsions:
REMARK  status: ('A' for Active; 'I' for Inactive)
REMARK    1  A    between atoms: N1_1  and  N2_4 
REMARK    2  A    between atoms: N2_4  and  S1_6 
REMARK    3  A    between atoms: S1_6  and  C1_9 
REMARK    4  A    between atoms: C2_14  and  N5_15 
REMARK       I    between atoms: N5_15  and  C3_17 
REMARK    5  A    between atoms: C3_17  and  C4_19 
REMARK    6  A    between atoms: C4_19  and  N6_20 
REMARK    7  A    between atoms: C4_19  and  C12_38 
REMARK       I    between atoms: N6_20  and  C5_22 
REMARK    8  A    between atoms: C5_22  and  C6_24 
REMARK    9  A    between atoms: N7_28  and  C8_29 
REMARK   10  A    between atoms: C8_29  and  O5_30 
REMARK   11  A    between atoms: O5_30  and  C9_31 
REMARK   12  A    between atoms: C9_31  and  C10_32 
REMARK   13  A    between atoms: C10_32  and  O6_33 
REMARK   14  A    between atoms: C11_35  and  O7_36 
REMARK   15  A    between atoms: C16_42  and  O8_43 
REMARK   16  A    between atoms: O8_43  and  S4_44 
REMARK   17  A    between atoms: N8_49  and  N9_50 
ROOT
HETATM    1  C4  UNL     1      53.948  22.410  24.238  1.00  0.00     0.211 C 
ENDROOT
BRANCH   1   2
HETATM    2  C3  UNL     1      54.493  21.444  23.271  1.00  0.00     0.263 C 
HETATM    3  N5  UNL     1      55.545  21.796  22.430  1.00  0.00    -0.154 N 
ATOM      4  H5  UNL     1      56.464  21.811  22.871  1.00  0.00     0.187 HD
HETATM    5  O3  UNL     1      54.011  20.263  23.188  1.00  0.00    -0.270 OA
BRANCH   3   6
HETATM    6  C2  UNL     1      55.533  22.101  21.202  1.00  0.00     0.722 A 
HETATM    7  N4  UNL     1      54.501  21.882  20.357  1.00  0.00    -0.128 N 
HETATM    8  N3  UNL     1      54.857  22.331  19.180  1.00  0.00    -0.258 N 
ATOM      9  H4  UNL     1      53.609  21.446  20.593  1.00  0.00     0.205 HD
HETATM   10  C1  UNL     1      56.106  22.841  19.242  1.00  0.00     0.278 A 
ATOM     11  H3  UNL     1      54.277  22.301  18.341  1.00  0.00     0.190 HD
HETATM   12  N8  UNL     1      56.504  22.689  20.496  1.00  0.00    -0.060 N 
BRANCH  10  13
HETATM   13  S1  UNL     1      56.965  23.553  17.884  1.00  0.00     0.311 S 
HETATM   14  O1  UNL     1      56.764  25.032  17.806  1.00  0.00    -0.196 OA
HETATM   15  O2  UNL     1      58.452  23.319  18.109  1.00  0.00    -0.196 OA
BRANCH  13  16
HETATM   16  N2  UNL     1      56.501  22.852  16.393  1.00  0.00    -0.227 N 
ATOM     17  H2  UNL     1      56.776  21.930  16.052  1.00  0.00     0.199 HD
BRANCH  16  18
HETATM   18  N1  UNL     1      55.667  23.775  15.716  1.00  0.00    -0.336 N 
ATOM     19  H12 UNL     1      55.963  24.682  15.358  1.00  0.00     0.177 HD
ATOM     20  H11 UNL     1      54.733  23.369  15.656  1.00  0.00     0.177 HD
ENDBRANCH  16  18
ENDBRANCH  13  16
ENDBRANCH  10  13
BRANCH  12  21
HETATM   21  N9  UNL     1      57.745  23.079  21.010  1.00  0.00    -0.322 N 
ATOM     22  H92 UNL     1      58.586  23.229  20.454  1.00  0.00     0.178 HD
ATOM     23  H91 UNL     1      57.951  23.257  21.992  1.00  0.00     0.178 HD
ENDBRANCH  12  21
ENDBRANCH   3   6
ENDBRANCH   1   2
BRANCH   1  24
HETATM   24  N6  UNL     1      52.524  22.261  24.382  1.00  0.00    -0.339 N 
HETATM   25  C5  UNL     1      51.926  22.404  25.642  1.00  0.00     0.264 C 
HETATM   26  O4  UNL     1      52.617  22.661  26.654  1.00  0.00    -0.267 OA
ATOM     27  H6  UNL     1      51.949  22.052  23.566  1.00  0.00     0.164 HD
BRANCH  25  28
HETATM   28  C6  UNL     1      50.458  22.253  25.811  1.00  0.00     0.126 A 
HETATM   29  S2  UNL     1      49.194  22.936  24.888  1.00  0.00    -0.050 SA
HETATM   30  C7  UNL     1      47.881  22.259  25.737  1.00  0.00     0.149 A 
HETATM   31  S3  UNL     1      46.256  22.444  25.454  1.00  0.00    -0.052 SA
HETATM   32  N7  UNL     1      48.475  21.536  26.694  1.00  0.00    -0.289 N 
HETATM   33  C11 UNL     1      49.776  21.524  26.744  1.00  0.00     0.168 A 
BRANCH  32  34
HETATM   34  C8  UNL     1      47.608  20.778  27.638  1.00  0.00     0.302 C 
BRANCH  34  35
HETATM   35  O5  UNL     1      47.121  19.623  27.098  1.00  0.00    -0.369 OA
BRANCH  35  36
HETATM   36  C9  UNL     1      47.742  18.455  27.444  1.00  0.00     0.196 C 
BRANCH  36  37
HETATM   37  C10 UNL     1      48.161  18.588  28.910  1.00  0.00     0.190 C 
BRANCH  37  38
HETATM   38  O6  UNL     1      48.561  17.356  29.429  1.00  0.00    -0.399 OA
ATOM     39  H6  UNL     1      49.272  17.463  30.050  1.00  0.00     0.209 HD
ENDBRANCH  37  38
ENDBRANCH  36  37
ENDBRANCH  35  36
ENDBRANCH  34  35
ENDBRANCH  32  34
BRANCH  33  40
HETATM   40  O7  UNL     1      50.515  20.787  27.720  1.00  0.00    -0.345 OA
ATOM     41  H7  UNL     1      50.320  20.921  28.640  1.00  0.00     0.219 HD
ENDBRANCH  33  40
ENDBRANCH  25  28
ENDBRANCH   1  24
BRANCH   1  42
HETATM   42  C12 UNL     1      54.264  23.836  23.858  1.00  0.00    -0.024 A 
HETATM   43  C13 UNL     1      55.400  24.407  24.371  1.00  0.00     0.010 A 
HETATM   44  C14 UNL     1      55.676  25.718  24.021  1.00  0.00     0.003 A 
HETATM   45  C15 UNL     1      54.848  26.438  23.188  1.00  0.00     0.038 A 
HETATM   46  C16 UNL     1      53.704  25.836  22.684  1.00  0.00     0.092 A 
HETATM   47  C17 UNL     1      53.431  24.550  23.024  1.00  0.00     0.048 A 
BRANCH  46  48
HETATM   48  O8  UNL     1      52.917  26.619  21.854  1.00  0.00    -0.214 OA
BRANCH  48  49
HETATM   49  S4  UNL     1      52.156  25.895  20.490  1.00  0.00     0.256 S 
HETATM   50  O9  UNL     1      50.962  25.096  20.932  1.00  0.00    -0.572 OA
HETATM   51  O10 UNL     1      51.736  26.932  19.504  1.00  0.00    -0.572 OA
HETATM   52  O11 UNL     1      53.239  24.837  19.786  1.00  0.00    -0.572 OA
ENDBRANCH  48  49
ENDBRANCH  46  48
ENDBRANCH   1  42
TORSDOF 17
ENDMDL
MODEL 2
REMARK VINA RESULT: -9.171206859      4.317      7.536
REMARK  17 active torsions:
REMARK  status: ('A' for Active; 'I' for Inactive)
REMARK    1  A    between atoms: N1_1  and  N2_4 
REMARK    2  A    between atoms: N2_4  and  S1_6 
REMARK    3  A    between atoms: S1_6  and  C1_9 
REMARK    4  A    between atoms: C2_14  and  N5_15 
REMARK       I    between atoms: N5_15  and  C3_17 
REMARK    5  A    between atoms: C3_17  and  C4_19 
REMARK    6  A    between atoms: C4_19  and  N6_20 
REMARK    7  A    between atoms: C4_19  and  C12_38 
REMARK       I    between atoms: N6_20  and  C5_22 
REMARK    8  A    between atoms: C5_22  and  C6_24 
REMARK    9  A    between atoms: N7_28  and  C8_29 
REMARK   10  A    between atoms: C8_29  and  O5_30 
REMARK   11  A    between atoms: O5_30  and  C9_31 
REMARK   12  A    between atoms: C9_31  and  C10_32 
REMARK   13  A    between atoms: C10_32  and  O6_33 
REMARK   14  A    between atoms: C11_35  and  O7_36 
REMARK   15  A    between atoms: C16_42  and  O8_43 
REMARK   16  A    between atoms: O8_43  and  S4_44 
REMARK   17  A    between atoms: N8_49  and  N9_50 
ROOT
HETATM    1  C4  UNL     1      50.678  24.451  23.894  1.00  0.00     0.211 C 
ENDROOT
BRANCH   1   2
HETATM    2  C3  UNL     1      51.395  23.702  24.938  1.00  0.00     0.263 C 
HETATM    3  N5  UNL     1      51.101  22.364  25.181  1.00  0.00    -0.154 N 
ATOM      4  H5  UNL     1      51.487  21.707  24.503  1.00  0.00     0.187 HD
HETATM    5  O3  UNL     1      52.303  24.267  25.639  1.00  0.00    -0.270 OA
BRANCH   3   6
HETATM    6  C2  UNL     1      50.428  21.838  26.115  1.00  0.00     0.722 A 
HETATM    7  N4  UNL     1      50.458  22.229  27.409  1.00  0.00    -0.128 N 
HETATM    8  N3  UNL     1      49.634  21.457  28.070  1.00  0.00    -0.258 N 
ATOM      9  H4  UNL     1      51.020  22.987  27.798  1.00  0.00     0.205 HD
HETATM   10  C1  UNL     1      49.065  20.566  27.228  1.00  0.00     0.278 A 
ATOM     11  H3  UNL     1      49.448  21.518  29.071  1.00  0.00     0.190 HD
HETATM   12  N8  UNL     1      49.568  20.818  26.030  1.00  0.00    -0.060 N 
BRANCH  10  13
HETATM   13  S1  UNL     1      47.893  19.346  27.706  1.00  0.00     0.311 S 
HETATM   14  O1  UNL     1      46.486  19.832  27.558  1.00  0.00    -0.196 OA
HETATM   15  O2  UNL     1      48.054  18.162  26.763  1.00  0.00    -0.196 OA
BRANCH  13  16
HETATM   16  N2  UNL     1      48.131  18.823  29.318  1.00  0.00    -0.227 N 
ATOM     17  H2  UNL     1      48.141  19.419  30.147  1.00  0.00     0.199 HD
BRANCH  16  18
HETATM   18  N1  UNL     1      48.313  17.419  29.300  1.00  0.00    -0.336 N 
ATOM     19  H12 UNL     1      48.379  16.845  28.460  1.00  0.00     0.177 HD
ATOM     20  H11 UNL     1      48.366  17.095  30.266  1.00  0.00     0.177 HD
ENDBRANCH  16  18
ENDBRANCH  13  16
ENDBRANCH  10  13
BRANCH  12  21
HETATM   21  N9  UNL     1      49.256  20.130  24.854  1.00  0.00    -0.322 N 
ATOM     22  H92 UNL     1      48.901  19.175  24.813  1.00  0.00     0.178 HD
ATOM     23  H91 UNL     1      49.344  20.499  23.908  1.00  0.00     0.178 HD
ENDBRANCH  12  21
ENDBRANCH   3   6
ENDBRANCH   1   2
BRANCH   1  24
HETATM   24  N6  UNL     1      49.401  23.854  23.604  1.00  0.00    -0.339 N 
HETATM   25  C5  UNL     1      48.374  23.892  24.558  1.00  0.00     0.264 C 
HETATM   26  O4  UNL     1      48.551  24.442  25.669  1.00  0.00    -0.267 OA
ATOM     27  H6  UNL     1      49.243  23.403  22.703  1.00  0.00     0.164 HD
BRANCH  25  28
HETATM   28  C6  UNL     1      47.050  23.280  24.278  1.00  0.00     0.126 A 
HETATM   29  S2  UNL     1      46.212  23.165  22.794  1.00  0.00    -0.050 SA
HETATM   30  C7  UNL     1      44.833  22.340  23.359  1.00  0.00     0.149 A 
HETATM   31  S3  UNL     1      43.501  21.839  22.504  1.00  0.00    -0.052 SA
HETATM   32  N7  UNL     1      45.079  22.189  24.666  1.00  0.00    -0.289 N 
HETATM   33  C11 UNL     1      46.195  22.659  25.144  1.00  0.00     0.168 A 
BRANCH  32  34
HETATM   34  C8  UNL     1      44.064  21.479  25.491  1.00  0.00     0.302 C 
BRANCH  34  35
HETATM   35  O5  UNL     1      43.576  22.246  26.508  1.00  0.00    -0.369 OA
BRANCH  35  36
HETATM   36  C9  UNL     1      43.281  21.617  27.686  1.00  0.00     0.196 C 
BRANCH  36  37
HETATM   37  C10 UNL     1      43.173  22.704  28.759  1.00  0.00     0.190 C 
BRANCH  37  38
HETATM   38  O6  UNL     1      42.797  22.158  29.987  1.00  0.00    -0.399 OA
ATOM     39  H6  UNL     1      43.541  22.096  30.574  1.00  0.00     0.209 HD
ENDBRANCH  37  38
ENDBRANCH  36  37
ENDBRANCH  35  36
ENDBRANCH  34  35
ENDBRANCH  32  34
BRANCH  33  40
HETATM   40  O7  UNL     1      46.562  22.554  26.520  1.00  0.00    -0.345 OA
ATOM     41  H7  UNL     1      46.230  23.198  27.135  1.00  0.00     0.219 HD
ENDBRANCH  33  40
ENDBRANCH  25  28
ENDBRANCH   1  24
BRANCH   1  42
HETATM   42  C12 UNL     1      51.478  24.560  22.620  1.00  0.00    -0.024 A 
HETATM   43  C13 UNL     1      51.407  25.730  21.907  1.00  0.00     0.010 A 
HETATM   44  C14 UNL     1      52.140  25.816  20.737  1.00  0.00     0.003 A 
HETATM   45  C15 UNL     1      52.918  24.771  20.287  1.00  0.00     0.038 A 
HETATM   46  C16 UNL     1      52.971  23.599  21.026  1.00  0.00     0.092 A 
HETATM   47  C17 UNL     1      52.254  23.511  22.176  1.00  0.00     0.048 A 
BRANCH  46  48
HETATM   48  O8  UNL     1      53.772  22.590  20.514  1.00  0.00    -0.214 OA
BRANCH  48  49
HETATM   49  S4  UNL     1      54.859  21.766  21.564  1.00  0.00     0.256 S 
HETATM   50  O9  UNL     1      54.106  20.770  22.402  1.00  0.00    -0.572 OA
HETATM   51  O10 UNL     1      55.926  21.073  20.787  1.00  0.00    -0.572 OA
HETATM   52  O11 UNL     1      55.536  22.886  22.601  1.00  0.00    -0.572 OA
ENDBRANCH  48  49
ENDBRANCH  46  48
ENDBRANCH   1  42
TORSDOF 17
ENDMDL
MODEL 3
REMARK VINA RESULT: -9.141153444      2.558      3.879
REMARK  17 active torsions:
REMARK  status: ('A' for Active; 'I' for Inactive)
REMARK    1  A    between atoms: N1_1  and  N2_4 
REMARK    2  A    between atoms: N2_4  and  S1_6 
REMARK    3  A    between atoms: S1_6  and  C1_9 
REMARK    4  A    between atoms: C2_14  and  N5_15 
REMARK       I    between atoms: N5_15  and  C3_17 
REMARK    5  A    between atoms: C3_17  and  C4_19 
REMARK    6  A    between atoms: C4_19  and  N6_20 
REMARK    7  A    between atoms: C4_19  and  C12_38 
REMARK       I    between atoms: N6_20  and  C5_22 
REMARK    8  A    between atoms: C5_22  and  C6_24 
REMARK    9  A    between atoms: N7_28  and  C8_29 
REMARK   10  A    between atoms: C8_29  and  O5_30 
REMARK   11  A    between atoms: O5_30  and  C9_31 
REMARK   12  A    between atoms: C9_31  and  C10_32 
REMARK   13  A    between atoms: C10_32  and  O6_33 
REMARK   14  A    between atoms: C11_35  and  O7_36 
REMARK   15  A    between atoms: C16_42  and  O8_43 
REMARK   16  A    between atoms: O8_43  and  S4_44 
REMARK   17  A    between atoms: N8_49  and  N9_50 
ROOT
HETATM    1  C4  UNL     1      53.232  21.945  23.529  1.00  0.00     0.211 C 
ENDROOT
BRANCH   1   2
HETATM    2  C3  UNL     1      53.293  21.898  22.060  1.00  0.00     0.263 C 
HETATM    3  N5  UNL     1      54.342  21.251  21.413  1.00  0.00    -0.154 N 
ATOM      4  H5  UNL     1      54.281  20.233  21.402  1.00  0.00     0.187 HD
HETATM    5  O3  UNL     1      52.381  22.447  21.352  1.00  0.00    -0.270 OA
BRANCH   3   6
HETATM    6  C2  UNL     1      55.359  21.735  20.836  1.00  0.00     0.722 A 
HETATM    7  N4  UNL     1      56.580  21.871  21.401  1.00  0.00    -0.128 N 
HETATM    8  N3  UNL     1      57.370  22.403  20.502  1.00  0.00    -0.258 N 
ATOM      9  H4  UNL     1      56.839  21.608  22.352  1.00  0.00     0.205 HD
HETATM   10  C1  UNL     1      56.683  22.617  19.358  1.00  0.00     0.278 A 
ATOM     11  H3  UNL     1      58.356  22.623  20.643  1.00  0.00     0.190 HD
HETATM   12  N8  UNL     1      55.447  22.199  19.585  1.00  0.00    -0.060 N 
BRANCH  10  13
HETATM   13  S1  UNL     1      57.367  23.313  17.896  1.00  0.00     0.311 S 
HETATM   14  O1  UNL     1      58.862  23.348  17.938  1.00  0.00    -0.196 OA
HETATM   15  O2  UNL     1      56.977  22.412  16.733  1.00  0.00    -0.196 OA
BRANCH  13  16
HETATM   16  N2  UNL     1      56.785  24.897  17.606  1.00  0.00    -0.227 N 
ATOM     17  H2  UNL     1      57.111  25.749  18.062  1.00  0.00     0.199 HD
BRANCH  16  18
HETATM   18  N1  UNL     1      55.771  24.815  16.621  1.00  0.00    -0.336 N 
ATOM     19  H12 UNL     1      55.561  25.537  15.931  1.00  0.00     0.177 HD
ATOM     20  H11 UNL     1      55.299  23.917  16.727  1.00  0.00     0.177 HD
ENDBRANCH  16  18
ENDBRANCH  13  16
ENDBRANCH  10  13
BRANCH  12  21
HETATM   21  N9  UNL     1      54.394  22.234  18.668  1.00  0.00    -0.322 N 
ATOM     22  H92 UNL     1      53.911  21.414  18.300  1.00  0.00     0.178 HD
ATOM     23  H91 UNL     1      53.987  23.076  18.262  1.00  0.00     0.178 HD
ENDBRANCH  12  21
ENDBRANCH   3   6
ENDBRANCH   1   2
BRANCH   1  24
HETATM   24  N6  UNL     1      51.871  22.006  23.996  1.00  0.00    -0.339 N 
HETATM   25  C5  UNL     1      51.462  21.210  25.075  1.00  0.00     0.264 C 
HETATM   26  O4  UNL     1      52.269  20.440  25.646  1.00  0.00    -0.267 OA
ATOM     27  H6  UNL     1      51.204  22.628  23.541  1.00  0.00     0.164 HD
BRANCH  25  28
HETATM   28  C6  UNL     1      50.063  21.258  25.571  1.00  0.00     0.126 A 
HETATM   29  S2  UNL     1      49.031  19.967  26.001  1.00  0.00    -0.050 SA
HETATM   30  C7  UNL     1      47.669  20.886  26.451  1.00  0.00     0.149 A 
HETATM   31  S3  UNL     1      46.197  20.355  27.005  1.00  0.00    -0.052 SA
HETATM   32  N7  UNL     1      48.069  22.147  26.249  1.00  0.00    -0.289 N 
HETATM   33  C11 UNL     1      49.276  22.350  25.805  1.00  0.00     0.168 A 
BRANCH  32  34
HETATM   34  C8  UNL     1      47.111  23.243  26.560  1.00  0.00     0.302 C 
BRANCH  34  35
HETATM   35  O5  UNL     1      46.934  24.104  25.517  1.00  0.00    -0.369 OA
BRANCH  35  36
HETATM   36  C9  UNL     1      45.714  24.102  24.900  1.00  0.00     0.196 C 
BRANCH  36  37
HETATM   37  C10 UNL     1      44.798  25.019  25.715  1.00  0.00     0.190 C 
BRANCH  37  38
HETATM   38  O6  UNL     1      45.036  26.361  25.411  1.00  0.00    -0.399 OA
ATOM     39  H6  UNL     1      45.319  26.839  26.182  1.00  0.00     0.209 HD
ENDBRANCH  37  38
ENDBRANCH  36  37
ENDBRANCH  35  36
ENDBRANCH  34  35
ENDBRANCH  32  34
BRANCH  33  40
HETATM   40  O7  UNL     1      49.809  23.651  25.555  1.00  0.00    -0.345 OA
ATOM     41  H7  UNL     1      49.213  24.359  25.341  1.00  0.00     0.219 HD
ENDBRANCH  33  40
ENDBRANCH  25  28
ENDBRANCH   1  24
BRANCH   1  42
HETATM   42  C12 UNL     1      54.005  23.111  24.094  1.00  0.00    -0.024 A 
HETATM   43  C13 UNL     1      55.365  23.131  23.924  1.00  0.00     0.010 A 
HETATM   44  C14 UNL     1      56.064  24.202  24.452  1.00  0.00     0.003 A 
HETATM   45  C15 UNL     1      55.431  25.221  25.130  1.00  0.00     0.038 A 
HETATM   46  C16 UNL     1      54.054  25.176  25.290  1.00  0.00     0.092 A 
HETATM   47  C17 UNL     1      53.365  24.126  24.771  1.00  0.00     0.048 A 
BRANCH  46  48
HETATM   48  O8  UNL     1      53.484  26.232  25.982  1.00  0.00    -0.214 OA
BRANCH  48  49
HETATM   49  S4  UNL     1      52.083  25.950  26.941  1.00  0.00     0.256 S 
HETATM   50  O9  UNL     1      50.847  26.080  26.094  1.00  0.00    -0.572 OA
HETATM   51  O10 UNL     1      52.130  24.597  27.566  1.00  0.00    -0.572 OA
HETATM   52  O11 UNL     1      52.011  27.128  28.122  1.00  0.00    -0.572 OA
ENDBRANCH  48  49
ENDBRANCH  46  48
ENDBRANCH   1  42
TORSDOF 17
ENDMDL
MODEL 4
REMARK VINA RESULT: -9.052154480      5.305     10.468
REMARK  17 active torsions:
REMARK  status: ('A' for Active; 'I' for Inactive)
REMARK    1  A    between atoms: N1_1  and  N2_4 
REMARK    2  A    between atoms: N2_4  and  S1_6 
REMARK    3  A    between atoms: S1_6  and  C1_9 
REMARK    4  A    between atoms: C2_14  and  N5_15 
REMARK       I    between atoms: N5_15  and  C3_17 
REMARK    5  A    between atoms: C3_17  and  C4_19 
REMARK    6  A    between atoms: C4_19  and  N6_20 
REMARK    7  A    between atoms: C4_19  and  C12_38 
REMARK       I    between atoms: N6_20  and  C5_22 
REMARK    8  A    between atoms: C5_22  and  C6_24 
REMARK    9  A    between atoms: N7_28  and  C8_29 
REMARK   10  A    between atoms: C8_29  and  O5_30 
REMARK   11  A    between atoms: O5_30  and  C9_31 
REMARK   12  A    between atoms: C9_31  and  C10_32 
REMARK   13  A    between atoms: C10_32  and  O6_33 
REMARK   14  A    between atoms: C11_35  and  O7_36 
REMARK   15  A    between atoms: C16_42  and  O8_43 
REMARK   16  A    between atoms: O8_43  and  S4_44 
REMARK   17  A    between atoms: N8_49  and  N9_50 
ROOT
HETATM    1  C4  UNL     1      43.896  23.637  24.991  1.00  0.00     0.211 C 
ENDROOT
BRANCH   1   2
HETATM    2  C3  UNL     1      44.892  23.080  25.919  1.00  0.00     0.263 C 
HETATM    3  N5  UNL     1      46.086  23.751  26.166  1.00  0.00    -0.154 N 
ATOM      4  H5  UNL     1      46.011  24.552  26.792  1.00  0.00     0.187 HD
HETATM    5  O3  UNL     1      44.678  21.971  26.518  1.00  0.00    -0.270 OA
BRANCH   3   6
HETATM    6  C2  UNL     1      47.252  23.519  25.730  1.00  0.00     0.722 A 
HETATM    7  N4  UNL     1      47.811  24.115  24.653  1.00  0.00    -0.128 N 
HETATM    8  N3  UNL     1      49.017  23.622  24.516  1.00  0.00    -0.258 N 
ATOM      9  H4  UNL     1      47.375  24.819  24.057  1.00  0.00     0.205 HD
HETATM   10  C1  UNL     1      49.254  22.713  25.486  1.00  0.00     0.278 A 
ATOM     11  H3  UNL     1      49.679  23.886  23.786  1.00  0.00     0.190 HD
HETATM   12  N8  UNL     1      48.154  22.664  26.223  1.00  0.00    -0.060 N 
BRANCH  10  13
HETATM   13  S1  UNL     1      50.754  21.815  25.672  1.00  0.00     0.311 S 
HETATM   14  O1  UNL     1      51.138  21.657  27.108  1.00  0.00    -0.196 OA
HETATM   15  O2  UNL     1      50.522  20.416  25.119  1.00  0.00    -0.196 OA
BRANCH  13  16
HETATM   16  N2  UNL     1      52.049  22.550  24.829  1.00  0.00    -0.227 N 
ATOM     17  H2  UNL     1      52.597  23.349  25.149  1.00  0.00     0.199 HD
BRANCH  16  18
HETATM   18  N1  UNL     1      52.228  21.854  23.609  1.00  0.00    -0.336 N 
ATOM     19  H12 UNL     1      52.114  22.257  22.679  1.00  0.00     0.177 HD
ATOM     20  H11 UNL     1      52.489  20.893  23.830  1.00  0.00     0.177 HD
ENDBRANCH  16  18
ENDBRANCH  13  16
ENDBRANCH  10  13
BRANCH  12  21
HETATM   21  N9  UNL     1      47.958  21.849  27.341  1.00  0.00    -0.322 N 
ATOM     22  H92 UNL     1      48.703  21.436  27.901  1.00  0.00     0.178 HD
ATOM     23  H91 UNL     1      47.054  21.575  27.726  1.00  0.00     0.178 HD
ENDBRANCH  12  21
ENDBRANCH   3   6
ENDBRANCH   1   2
BRANCH   1  24
HETATM   24  N6  UNL     1      44.471  23.893  23.696  1.00  0.00    -0.339 N 
HETATM   25  C5  UNL     1      44.201  23.032  22.624  1.00  0.00     0.264 C 
HETATM   26  O4  UNL     1      43.461  22.033  22.775  1.00  0.00    -0.267 OA
ATOM     27  H6  UNL     1      45.075  24.703  23.559  1.00  0.00     0.164 HD
BRANCH  25  28
HETATM   28  C6  UNL     1      44.786  23.278  21.281  1.00  0.00     0.126 A 
HETATM   29  S2  UNL     1      44.128  22.935  19.744  1.00  0.00    -0.050 SA
HETATM   30  C7  UNL     1      45.410  23.530  18.793  1.00  0.00     0.149 A 
HETATM   31  S3  UNL     1      45.547  23.563  17.139  1.00  0.00    -0.052 SA
HETATM   32  N7  UNL     1      46.289  23.967  19.703  1.00  0.00    -0.289 N 
HETATM   33  C11 UNL     1      45.987  23.847  20.963  1.00  0.00     0.168 A 
BRANCH  32  34
HETATM   34  C8  UNL     1      47.555  24.580  19.214  1.00  0.00     0.302 C 
BRANCH  34  35
HETATM   35  O5  UNL     1      47.848  25.759  19.834  1.00  0.00    -0.369 OA
BRANCH  35  36
HETATM   36  C9  UNL     1      49.134  26.214  19.747  1.00  0.00     0.196 C 
BRANCH  36  37
HETATM   37  C10 UNL     1      49.964  25.404  20.747  1.00  0.00     0.190 C 
BRANCH  37  38
HETATM   38  O6  UNL     1      49.382  25.428  22.015  1.00  0.00    -0.399 OA
ATOM     39  H6  UNL     1      48.611  25.984  22.025  1.00  0.00     0.209 HD
ENDBRANCH  37  38
ENDBRANCH  36  37
ENDBRANCH  35  36
ENDBRANCH  34  35
ENDBRANCH  32  34
BRANCH  33  40
HETATM   40  O7  UNL     1      46.847  24.280  22.019  1.00  0.00    -0.345 OA
ATOM     41  H7  UNL     1      46.821  23.821  22.850  1.00  0.00     0.219 HD
ENDBRANCH  33  40
ENDBRANCH  25  28
ENDBRANCH   1  24
BRANCH   1  42
HETATM   42  C12 UNL     1      43.272  24.905  25.518  1.00  0.00    -0.024 A 
HETATM   43  C13 UNL     1      42.671  25.754  24.623  1.00  0.00     0.010 A 
HETATM   44  C14 UNL     1      42.108  26.917  25.118  1.00  0.00     0.003 A 
HETATM   45  C15 UNL     1      42.141  27.228  26.460  1.00  0.00     0.038 A 
HETATM   46  C16 UNL     1      42.755  26.353  27.344  1.00  0.00     0.092 A 
HETATM   47  C17 UNL     1      43.308  25.210  26.861  1.00  0.00     0.048 A 
BRANCH  46  48
HETATM   48  O8  UNL     1      42.752  26.729  28.677  1.00  0.00    -0.214 OA
BRANCH  48  49
HETATM   49  S4  UNL     1      42.457  25.540  29.886  1.00  0.00     0.256 S 
HETATM   50  O9  UNL     1      43.463  25.675  30.995  1.00  0.00    -0.572 OA
HETATM   51  O10 UNL     1      41.077  25.669  30.433  1.00  0.00    -0.572 OA
HETATM   52  O11 UNL     1      42.665  24.032  29.198  1.00  0.00    -0.572 OA
ENDBRANCH  48  49
ENDBRANCH  46  48
ENDBRANCH   1  42
TORSDOF 17
ENDMDL
MODEL 5
REMARK VINA RESULT: -9.000010952      1.666      1.990
REMARK  17 active torsions:
REMARK  status: ('A' for Active; 'I' for Inactive)
REMARK    1  A    between atoms: N1_1  and  N2_4 
REMARK    2  A    between atoms: N2_4  and  S1_6 
REMARK    3  A    between atoms: S1_6  and  C1_9 
REMARK    4  A    between atoms: C2_14  and  N5_15 
REMARK       I    between atoms: N5_15  and  C3_17 
REMARK    5  A    between atoms: C3_17  and  C4_19 
REMARK    6  A    between atoms: C4_19  and  N6_20 
REMARK    7  A    between atoms: C4_19  and  C12_38 
REMARK       I    between atoms: N6_20  and  C5_22 
REMARK    8  A    between atoms: C5_22  and  C6_24 
REMARK    9  A    between atoms: N7_28  and  C8_29 
REMARK   10  A    between atoms: C8_29  and  O5_30 
REMARK   11  A    between atoms: O5_30  and  C9_31 
REMARK   12  A    between atoms: C9_31  and  C10_32 
REMARK   13  A    between atoms: C10_32  and  O6_33 
REMARK   14  A    between atoms: C11_35  and  O7_36 
REMARK   15  A    between atoms: C16_42  and  O8_43 
REMARK   16  A    between atoms: O8_43  and  S4_44 
REMARK   17  A    between atoms: N8_49  and  N9_50 
ROOT
HETATM    1  C4  UNL     1      52.416  23.124  24.500  1.00  0.00     0.211 C 
ENDROOT
BRANCH   1   2
HETATM    2  C3  UNL     1      53.346  22.032  24.177  1.00  0.00     0.263 C 
HETATM    3  N5  UNL     1      54.547  22.291  23.522  1.00  0.00    -0.154 N 
ATOM      4  H5  UNL     1      55.282  22.688  24.108  1.00  0.00     0.187 HD
HETATM    5  O3  UNL     1      53.070  20.824  24.494  1.00  0.00    -0.270 OA
BRANCH   3   6
HETATM    6  C2  UNL     1      54.865  22.110  22.311  1.00  0.00     0.722 A 
HETATM    7  N4  UNL     1      54.671  20.964  21.620  1.00  0.00    -0.128 N 
HETATM    8  N3  UNL     1      55.122  21.158  20.406  1.00  0.00    -0.258 N 
ATOM      9  H4  UNL     1      54.250  20.107  21.978  1.00  0.00     0.205 HD
HETATM   10  C1  UNL     1      55.609  22.413  20.293  1.00  0.00     0.278 A 
ATOM     11  H3  UNL     1      55.108  20.465  19.657  1.00  0.00     0.190 HD
HETATM   12  N8  UNL     1      55.441  22.982  21.477  1.00  0.00    -0.060 N 
BRANCH  10  13
HETATM   13  S1  UNL     1      56.307  23.087  18.827  1.00  0.00     0.311 S 
HETATM   14  O1  UNL     1      56.660  24.531  18.987  1.00  0.00    -0.196 OA
HETATM   15  O2  UNL     1      57.605  22.341  18.553  1.00  0.00    -0.196 OA
BRANCH  13  16
HETATM   16  N2  UNL     1      55.262  22.918  17.482  1.00  0.00    -0.227 N 
ATOM     17  H2  UNL     1      54.256  22.750  17.521  1.00  0.00     0.199 HD
BRANCH  16  18
HETATM   18  N1  UNL     1      56.039  23.051  16.305  1.00  0.00    -0.336 N 
ATOM     19  H12 UNL     1      56.934  23.536  16.243  1.00  0.00     0.177 HD
ATOM     20  H11 UNL     1      55.545  22.581  15.547  1.00  0.00     0.177 HD
ENDBRANCH  16  18
ENDBRANCH  13  16
ENDBRANCH  10  13
BRANCH  12  21
HETATM   21  N9  UNL     1      55.808  24.289  21.812  1.00  0.00    -0.322 N 
ATOM     22  H92 UNL     1      55.997  25.033  21.141  1.00  0.00     0.178 HD
ATOM     23  H91 UNL     1      55.927  24.648  22.759  1.00  0.00     0.178 HD
ENDBRANCH  12  21
ENDBRANCH   3   6
ENDBRANCH   1   2
BRANCH   1  24
HETATM   24  N6  UNL     1      51.071  22.637  24.660  1.00  0.00    -0.339 N 
HETATM   25  C5  UNL     1      50.191  23.278  25.543  1.00  0.00     0.264 C 
HETATM   26  O4  UNL     1      50.560  24.278  26.202  1.00  0.00    -0.267 OA
ATOM     27  H6  UNL     1      50.757  21.824  24.129  1.00  0.00     0.164 HD
BRANCH  25  28
HETATM   28  C6  UNL     1      48.800  22.790  25.723  1.00  0.00     0.126 A 
HETATM   29  S2  UNL     1      47.334  23.657  25.605  1.00  0.00    -0.050 SA
HETATM   30  C7  UNL     1      46.265  22.373  25.935  1.00  0.00     0.149 A 
HETATM   31  S3  UNL     1      44.607  22.395  26.011  1.00  0.00    -0.052 SA
HETATM   32  N7  UNL     1      47.086  21.332  26.122  1.00  0.00    -0.289 N 
HETATM   33  C11 UNL     1      48.368  21.528  26.017  1.00  0.00     0.168 A 
BRANCH  32  34
HETATM   34  C8  UNL     1      46.477  20.007  26.424  1.00  0.00     0.302 C 
BRANCH  34  35
HETATM   35  O5  UNL     1      46.748  19.574  27.689  1.00  0.00    -0.369 OA
BRANCH  35  36
HETATM   36  C9  UNL     1      47.321  18.340  27.824  1.00  0.00     0.196 C 
BRANCH  36  37
HETATM   37  C10 UNL     1      48.309  18.430  28.990  1.00  0.00     0.190 C 
BRANCH  37  38
HETATM   38  O6  UNL     1      49.018  19.632  28.952  1.00  0.00    -0.399 OA
ATOM     39  H6  UNL     1      49.754  19.574  28.353  1.00  0.00     0.209 HD
ENDBRANCH  37  38
ENDBRANCH  36  37
ENDBRANCH  35  36
ENDBRANCH  34  35
ENDBRANCH  32  34
BRANCH  33  40
HETATM   40  O7  UNL     1      49.335  20.491  26.194  1.00  0.00    -0.345 OA
ATOM     41  H7  UNL     1      49.301  19.729  25.627  1.00  0.00     0.219 HD
ENDBRANCH  33  40
ENDBRANCH  25  28
ENDBRANCH   1  24
BRANCH   1  42
HETATM   42  C12 UNL     1      52.430  24.213  23.456  1.00  0.00    -0.024 A 
HETATM   43  C13 UNL     1      53.049  25.398  23.763  1.00  0.00     0.010 A 
HETATM   44  C14 UNL     1      53.050  26.392  22.800  1.00  0.00     0.003 A 
HETATM   45  C15 UNL     1      52.455  26.214  21.570  1.00  0.00     0.038 A 
HETATM   46  C16 UNL     1      51.834  25.006  21.286  1.00  0.00     0.092 A 
HETATM   47  C17 UNL     1      51.832  24.028  22.229  1.00  0.00     0.048 A 
BRANCH  46  48
HETATM   48  O8  UNL     1      51.255  24.898  20.032  1.00  0.00    -0.214 OA
BRANCH  48  49
HETATM   49  S4  UNL     1      49.706  25.596  19.758  1.00  0.00     0.256 S 
HETATM   50  O9  UNL     1      48.872  25.501  21.006  1.00  0.00    -0.572 OA
HETATM   51  O10 UNL     1      49.832  27.022  19.339  1.00  0.00    -0.572 OA
HETATM   52  O11 UNL     1      48.936  24.712  18.569  1.00  0.00    -0.572 OA
ENDBRANCH  48  49
ENDBRANCH  46  48
ENDBRANCH   1  42
TORSDOF 17
ENDMDL
