MODEL 1
REMARK VINA RESULT: -10.363734013      0.000      0.000
REMARK  19 active torsions:
REMARK  status: ('A' for Active; 'I' for Inactive)
REMARK    1  A    between atoms: C2_2  and  C3_3 
REMARK    2  A    between atoms: C3_3  and  O2_5 
REMARK    3  A    between atoms: O2_5  and  C4_6 
REMARK    4  A    between atoms: N1_8  and  O3_9 
REMARK    5  A    between atoms: O3_9  and  C6_10 
REMARK    6  A    between atoms: C6_10  and  C7_11 
REMARK    7  A    between atoms: C6_10  and  C8_14 
REMARK    8  A    between atoms: C7_11  and  O4_12 
REMARK    9  A    between atoms: C8_14  and  O6_16 
REMARK   10  A    between atoms: O6_16  and  C9_17 
REMARK   11  A    between atoms: C9_17  and  N2_19 
REMARK   12  A    between atoms: C17_36  and  N7_37 
REMARK       I    between atoms: N7_37  and  C18_39 
REMARK   13  A    between atoms: C18_39  and  C19_41 
REMARK   14  A    between atoms: C20_45  and  O10_46 
REMARK   15  A    between atoms: O10_46  and  C21_47 
REMARK   16  A    between atoms: C21_47  and  O12_49 
REMARK   17  A    between atoms: O12_49  and  C22_50 
REMARK   18  A    between atoms: C22_50  and  O13_53 
REMARK   19  A    between atoms: C25_55  and  O14_56 
ROOT
HETATM    1  C4  UNL     1      50.738  23.291  25.815  1.00  0.00     0.171 C 
HETATM    2  C5  UNL     1      49.344  23.238  25.299  1.00  0.00     0.155 C 
HETATM    3  N1  UNL     1      49.019  21.862  25.376  1.00  0.00    -0.191 NA
HETATM    4  C16 UNL     1      50.190  21.098  25.167  1.00  0.00     0.148 C 
HETATM    5  C17 UNL     1      51.363  22.092  25.167  1.00  0.00     0.131 C 
ENDROOT
BRANCH   3   6
HETATM    6  O3  UNL     1      48.239  21.495  26.299  1.00  0.00    -0.286 OA
BRANCH   6   7
HETATM    7  C6  UNL     1      48.150  20.251  26.810  1.00  0.00     0.268 C 
BRANCH   7   8
HETATM    8  C7  UNL     1      49.024  20.021  28.052  1.00  0.00     0.208 C 
BRANCH   8   9
HETATM    9  O4  UNL     1      49.585  21.170  28.539  1.00  0.00    -0.398 OA
ATOM     10  H4  UNL     1      49.442  21.292  29.470  1.00  0.00     0.209 HD
ENDBRANCH   8   9
ENDBRANCH   7   8
BRANCH   7  11
HETATM   11  C8  UNL     1      46.743  19.832  27.112  1.00  0.00     0.294 C 
HETATM   12  O5  UNL     1      46.479  18.605  27.046  1.00  0.00    -0.262 OA
BRANCH  11  13
HETATM   13  O6  UNL     1      45.727  20.672  27.451  1.00  0.00    -0.293 OA
BRANCH  13  14
HETATM   14  C9  UNL     1      44.610  20.985  26.679  1.00  0.00     0.237 C 
HETATM   15  C10 UNL     1      44.753  20.745  25.216  1.00  0.00     0.064 C 
BRANCH  14  16
HETATM   16  N2  UNL     1      44.233  22.382  26.879  1.00  0.00    -0.281 N 
HETATM   17  C11 UNL     1      44.499  23.298  25.918  1.00  0.00     0.190 A 
HETATM   18  N3  UNL     1      44.172  24.596  26.055  1.00  0.00    -0.336 N 
HETATM   19  C12 UNL     1      43.561  25.050  27.161  1.00  0.00     0.155 A 
ATOM     20  H3  UNL     1      44.393  25.248  25.303  1.00  0.00     0.168 HD
HETATM   21  N4  UNL     1      43.126  26.282  27.556  1.00  0.00    -0.174 N 
HETATM   22  C14 UNL     1      43.276  24.144  28.161  1.00  0.00     0.161 A 
HETATM   23  C13 UNL     1      42.581  26.143  28.778  1.00  0.00     0.678 A 
ATOM     24  H4  UNL     1      43.201  27.149  27.023  1.00  0.00     0.186 HD
HETATM   25  N5  UNL     1      42.045  27.073  29.519  1.00  0.00    -0.234 N 
HETATM   26  N6  UNL     1      42.672  24.852  29.141  1.00  0.00    -0.183 N 
ATOM     27  H52 UNL     1      41.976  28.053  29.244  1.00  0.00     0.174 HD
ATOM     28  H51 UNL     1      41.632  26.967  30.445  1.00  0.00     0.174 HD
ATOM     29  H6  UNL     1      42.336  24.465  30.023  1.00  0.00     0.184 HD
HETATM   30  C15 UNL     1      43.621  22.818  27.994  1.00  0.00     0.281 A 
HETATM   31  O7  UNL     1      43.353  22.015  28.912  1.00  0.00    -0.265 OA
ENDBRANCH  14  16
ENDBRANCH  13  14
ENDBRANCH  11  13
ENDBRANCH   7  11
ENDBRANCH   6   7
ENDBRANCH   3   6
BRANCH   1  32
HETATM   32  O2  UNL     1      51.418  24.484  25.561  1.00  0.00    -0.313 OA
BRANCH  32  33
HETATM   33  C3  UNL     1      52.416  24.919  26.404  1.00  0.00     0.258 C 
HETATM   34  O1  UNL     1      52.159  24.905  27.629  1.00  0.00    -0.265 OA
BRANCH  33  35
HETATM   35  C2  UNL     1      53.746  25.389  25.928  1.00  0.00     0.106 C 
HETATM   36  C1  UNL     1      54.662  24.246  25.603  1.00  0.00     0.015 C 
ENDBRANCH  33  35
ENDBRANCH  32  33
ENDBRANCH   1  32
BRANCH   5  37
HETATM   37  N7  UNL     1      51.719  22.479  23.815  1.00  0.00    -0.347 N 
HETATM   38  C18 UNL     1      52.871  21.942  23.148  1.00  0.00     0.280 C 
HETATM   39  O8  UNL     1      53.550  21.127  23.782  1.00  0.00    -0.265 OA
ATOM     40  H7  UNL     1      51.133  23.154  23.324  1.00  0.00     0.163 HD
BRANCH  38  41
HETATM   41  C19 UNL     1      53.213  22.342  21.792  1.00  0.00     0.203 A 
HETATM   42  O9  UNL     1      52.619  23.250  21.048  1.00  0.00    -0.227 OA
HETATM   43  N8  UNL     1      53.184  23.346  19.901  1.00  0.00    -0.236 N 
HETATM   44  C20 UNL     1      54.204  22.488  19.824  1.00  0.00     0.210 A 
ATOM     45  H8  UNL     1      52.897  23.983  19.158  1.00  0.00     0.197 HD
HETATM   46  C25 UNL     1      54.237  21.824  21.050  1.00  0.00     0.161 A 
BRANCH  44  47
HETATM   47  O10 UNL     1      55.088  22.246  18.784  1.00  0.00    -0.233 OA
BRANCH  47  48
HETATM   48  C21 UNL     1      56.315  22.851  18.721  1.00  0.00     0.415 C 
HETATM   49  O11 UNL     1      57.240  22.406  19.476  1.00  0.00    -0.229 OA
BRANCH  48  50
HETATM   50  O12 UNL     1      56.607  23.919  17.880  1.00  0.00    -0.261 OA
BRANCH  50  51
HETATM   51  C22 UNL     1      56.848  23.728  16.491  1.00  0.00     0.165 C 
HETATM   52  C23 UNL     1      58.145  24.396  16.105  1.00  0.00     0.079 C 
HETATM   53  C24 UNL     1      55.664  24.258  15.720  1.00  0.00     0.079 C 
BRANCH  51  54
HETATM   54  O13 UNL     1      56.956  22.351  16.201  1.00  0.00    -0.365 OA
ATOM     55  H13 UNL     1      57.851  22.059  16.329  1.00  0.00     0.213 HD
ENDBRANCH  51  54
ENDBRANCH  50  51
ENDBRANCH  48  50
ENDBRANCH  47  48
ENDBRANCH  44  47
BRANCH  46  56
HETATM   56  O14 UNL     1      55.156  20.850  21.366  1.00  0.00    -0.354 OA
ATOM     57  H14 UNL     1      55.113  19.907  21.252  1.00  0.00     0.218 HD
ENDBRANCH  46  56
ENDBRANCH  38  41
ENDBRANCH   5  37
TORSDOF 19
ENDMDL
MODEL 2
REMARK VINA RESULT: -10.290416474      0.854      1.141
REMARK  19 active torsions:
REMARK  status: ('A' for Active; 'I' for Inactive)
REMARK    1  A    between atoms: C2_2  and  C3_3 
REMARK    2  A    between atoms: C3_3  and  O2_5 
REMARK    3  A    between atoms: O2_5  and  C4_6 
REMARK    4  A    between atoms: N1_8  and  O3_9 
REMARK    5  A    between atoms: O3_9  and  C6_10 
REMARK    6  A    between atoms: C6_10  and  C7_11 
REMARK    7  A    between atoms: C6_10  and  C8_14 
REMARK    8  A    between atoms: C7_11  and  O4_12 
REMARK    9  A    between atoms: C8_14  and  O6_16 
REMARK   10  A    between atoms: O6_16  and  C9_17 
REMARK   11  A    between atoms: C9_17  and  N2_19 
REMARK   12  A    between atoms: C17_36  and  N7_37 
REMARK       I    between atoms: N7_37  and  C18_39 
REMARK   13  A    between atoms: C18_39  and  C19_41 
REMARK   14  A    between atoms: C20_45  and  O10_46 
REMARK   15  A    between atoms: O10_46  and  C21_47 
REMARK   16  A    between atoms: C21_47  and  O12_49 
REMARK   17  A    between atoms: O12_49  and  C22_50 
REMARK   18  A    between atoms: C22_50  and  O13_53 
REMARK   19  A    between atoms: C25_55  and  O14_56 
ROOT
HETATM    1  C4  UNL     1      50.446  22.944  26.169  1.00  0.00     0.171 C 
HETATM    2  C5  UNL     1      49.073  22.682  25.660  1.00  0.00     0.155 C 
HETATM    3  N1  UNL     1      48.947  21.275  25.770  1.00  0.00    -0.191 NA
HETATM    4  C16 UNL     1      50.214  20.680  25.575  1.00  0.00     0.148 C 
HETATM    5  C17 UNL     1      51.234  21.831  25.547  1.00  0.00     0.131 C 
ENDROOT
BRANCH   3   6
HETATM    6  O3  UNL     1      48.227  20.824  26.705  1.00  0.00    -0.286 OA
BRANCH   6   7
HETATM    7  C6  UNL     1      47.662  19.600  26.745  1.00  0.00     0.268 C 
BRANCH   7   8
HETATM    8  C7  UNL     1      47.763  18.908  28.113  1.00  0.00     0.208 C 
BRANCH   8   9
HETATM    9  O4  UNL     1      47.265  17.634  28.112  1.00  0.00    -0.398 OA
ATOM     10  H4  UNL     1      47.369  17.190  28.946  1.00  0.00     0.209 HD
ENDBRANCH   8   9
ENDBRANCH   7   8
BRANCH   7  11
HETATM   11  C8  UNL     1      46.233  19.591  26.292  1.00  0.00     0.294 C 
HETATM   12  O5  UNL     1      45.697  18.472  26.094  1.00  0.00    -0.262 OA
BRANCH  11  13
HETATM   13  O6  UNL     1      45.469  20.696  26.075  1.00  0.00    -0.293 OA
BRANCH  13  14
HETATM   14  C9  UNL     1      44.115  20.847  26.372  1.00  0.00     0.237 C 
HETATM   15  C10 UNL     1      43.171  20.349  25.334  1.00  0.00     0.064 C 
BRANCH  14  16
HETATM   16  N2  UNL     1      43.808  22.250  26.635  1.00  0.00    -0.281 N 
HETATM   17  C11 UNL     1      43.864  23.154  25.629  1.00  0.00     0.190 A 
HETATM   18  N3  UNL     1      43.590  24.458  25.820  1.00  0.00    -0.336 N 
HETATM   19  C12 UNL     1      43.246  24.930  27.029  1.00  0.00     0.155 A 
ATOM     20  H3  UNL     1      43.644  25.100  25.030  1.00  0.00     0.168 HD
HETATM   21  N4  UNL     1      42.925  26.171  27.498  1.00  0.00    -0.174 N 
HETATM   22  C14 UNL     1      43.182  24.036  28.078  1.00  0.00     0.161 A 
HETATM   23  C13 UNL     1      42.665  26.050  28.811  1.00  0.00     0.678 A 
ATOM     24  H4  UNL     1      42.889  27.032  26.951  1.00  0.00     0.186 HD
HETATM   25  N5  UNL     1      42.319  26.993  29.643  1.00  0.00    -0.234 N 
HETATM   26  N6  UNL     1      42.820  24.761  29.160  1.00  0.00    -0.183 N 
ATOM     27  H52 UNL     1      42.201  27.972  29.379  1.00  0.00     0.174 HD
ATOM     28  H51 UNL     1      42.122  26.901  30.639  1.00  0.00     0.174 HD
ATOM     29  H6  UNL     1      42.685  24.386  30.099  1.00  0.00     0.184 HD
HETATM   30  C15 UNL     1      43.466  22.705  27.854  1.00  0.00     0.281 A 
HETATM   31  O7  UNL     1      43.401  21.913  28.817  1.00  0.00    -0.265 OA
ENDBRANCH  14  16
ENDBRANCH  13  14
ENDBRANCH  11  13
ENDBRANCH   7  11
ENDBRANCH   6   7
ENDBRANCH   3   6
BRANCH   1  32
HETATM   32  O2  UNL     1      50.949  24.216  25.885  1.00  0.00    -0.313 OA
BRANCH  32  33
HETATM   33  C3  UNL     1      52.100  24.668  26.490  1.00  0.00     0.258 C 
HETATM   34  O1  UNL     1      52.127  24.630  27.740  1.00  0.00    -0.265 OA
BRANCH  33  35
HETATM   35  C2  UNL     1      53.275  25.185  25.735  1.00  0.00     0.106 C 
HETATM   36  C1  UNL     1      54.431  24.230  25.774  1.00  0.00     0.015 C 
ENDBRANCH  33  35
ENDBRANCH  32  33
ENDBRANCH   1  32
BRANCH   5  37
HETATM   37  N7  UNL     1      51.530  22.233  24.185  1.00  0.00    -0.347 N 
HETATM   38  C18 UNL     1      52.723  21.806  23.508  1.00  0.00     0.280 C 
HETATM   39  O8  UNL     1      53.491  21.075  24.144  1.00  0.00    -0.265 OA
ATOM     40  H7  UNL     1      50.872  22.837  23.693  1.00  0.00     0.163 HD
BRANCH  38  41
HETATM   41  C19 UNL     1      53.004  22.219  22.143  1.00  0.00     0.203 A 
HETATM   42  O9  UNL     1      52.365  23.119  21.426  1.00  0.00    -0.227 OA
HETATM   43  N8  UNL     1      52.883  23.231  20.259  1.00  0.00    -0.236 N 
HETATM   44  C20 UNL     1      53.916  22.394  20.138  1.00  0.00     0.210 A 
ATOM     45  H8  UNL     1      52.555  23.866  19.531  1.00  0.00     0.197 HD
HETATM   46  C25 UNL     1      54.009  21.725  21.359  1.00  0.00     0.161 A 
BRANCH  44  47
HETATM   47  O10 UNL     1      54.763  22.175  19.064  1.00  0.00    -0.233 OA
BRANCH  47  48
HETATM   48  C21 UNL     1      55.770  23.047  18.745  1.00  0.00     0.415 C 
HETATM   49  O11 UNL     1      55.799  24.171  19.346  1.00  0.00    -0.229 OA
BRANCH  48  50
HETATM   50  O12 UNL     1      56.759  22.775  17.807  1.00  0.00    -0.261 OA
BRANCH  50  51
HETATM   51  C22 UNL     1      56.612  23.147  16.442  1.00  0.00     0.165 C 
HETATM   52  C23 UNL     1      56.616  21.910  15.577  1.00  0.00     0.079 C 
HETATM   53  C24 UNL     1      57.715  24.113  16.086  1.00  0.00     0.079 C 
BRANCH  51  54
HETATM   54  O13 UNL     1      55.385  23.819  16.250  1.00  0.00    -0.365 OA
ATOM     55  H13 UNL     1      55.542  24.704  15.944  1.00  0.00     0.213 HD
ENDBRANCH  51  54
ENDBRANCH  50  51
ENDBRANCH  48  50
ENDBRANCH  47  48
ENDBRANCH  44  47
BRANCH  46  56
HETATM   56  O14 UNL     1      54.958  20.769  21.633  1.00  0.00    -0.354 OA
ATOM     57  H14 UNL     1      55.905  20.808  21.565  1.00  0.00     0.218 HD
ENDBRANCH  46  56
ENDBRANCH  38  41
ENDBRANCH   5  37
TORSDOF 19
ENDMDL
MODEL 3
REMARK VINA RESULT: -10.178949906      4.477     11.768
REMARK  19 active torsions:
REMARK  status: ('A' for Active; 'I' for Inactive)
REMARK    1  A    between atoms: C2_2  and  C3_3 
REMARK    2  A    between atoms: C3_3  and  O2_5 
REMARK    3  A    between atoms: O2_5  and  C4_6 
REMARK    4  A    between atoms: N1_8  and  O3_9 
REMARK    5  A    between atoms: O3_9  and  C6_10 
REMARK    6  A    between atoms: C6_10  and  C7_11 
REMARK    7  A    between atoms: C6_10  and  C8_14 
REMARK    8  A    between atoms: C7_11  and  O4_12 
REMARK    9  A    between atoms: C8_14  and  O6_16 
REMARK   10  A    between atoms: O6_16  and  C9_17 
REMARK   11  A    between atoms: C9_17  and  N2_19 
REMARK   12  A    between atoms: C17_36  and  N7_37 
REMARK       I    between atoms: N7_37  and  C18_39 
REMARK   13  A    between atoms: C18_39  and  C19_41 
REMARK   14  A    between atoms: C20_45  and  O10_46 
REMARK   15  A    between atoms: O10_46  and  C21_47 
REMARK   16  A    between atoms: C21_47  and  O12_49 
REMARK   17  A    between atoms: O12_49  and  C22_50 
REMARK   18  A    between atoms: C22_50  and  O13_53 
REMARK   19  A    between atoms: C25_55  and  O14_56 
ROOT
HETATM    1  C4  UNL     1      44.601  21.558  26.352  1.00  0.00     0.171 C 
HETATM    2  C5  UNL     1      45.540  21.629  25.201  1.00  0.00     0.155 C 
HETATM    3  N1  UNL     1      46.745  22.084  25.790  1.00  0.00    -0.191 NA
HETATM    4  C16 UNL     1      46.437  22.930  26.880  1.00  0.00     0.148 C 
HETATM    5  C17 UNL     1      44.919  22.817  27.101  1.00  0.00     0.131 C 
ENDROOT
BRANCH   3   6
HETATM    6  O3  UNL     1      47.674  21.242  25.947  1.00  0.00    -0.286 OA
BRANCH   6   7
HETATM    7  C6  UNL     1      48.235  20.897  27.124  1.00  0.00     0.268 C 
BRANCH   7   8
HETATM    8  C7  UNL     1      47.944  19.452  27.556  1.00  0.00     0.208 C 
BRANCH   8   9
HETATM    9  O4  UNL     1      46.626  19.107  27.436  1.00  0.00    -0.398 OA
ATOM     10  H4  UNL     1      46.458  18.193  27.635  1.00  0.00     0.209 HD
ENDBRANCH   8   9
ENDBRANCH   7   8
BRANCH   7  11
HETATM   11  C8  UNL     1      49.714  21.138  27.169  1.00  0.00     0.294 C 
HETATM   12  O5  UNL     1      50.320  20.813  28.221  1.00  0.00    -0.262 OA
BRANCH  11  13
HETATM   13  O6  UNL     1      50.455  21.681  26.164  1.00  0.00    -0.293 OA
BRANCH  13  14
HETATM   14  C9  UNL     1      50.902  22.997  26.074  1.00  0.00     0.237 C 
HETATM   15  C10 UNL     1      49.968  23.948  25.409  1.00  0.00     0.064 C 
BRANCH  14  16
HETATM   16  N2  UNL     1      52.183  23.050  25.376  1.00  0.00    -0.281 N 
HETATM   17  C11 UNL     1      52.381  22.296  24.268  1.00  0.00     0.190 A 
HETATM   18  N3  UNL     1      53.543  22.309  23.590  1.00  0.00    -0.336 N 
HETATM   19  C12 UNL     1      54.572  23.076  23.982  1.00  0.00     0.155 A 
ATOM     20  H3  UNL     1      53.643  21.723  22.761  1.00  0.00     0.168 HD
HETATM   21  N4  UNL     1      55.832  23.280  23.496  1.00  0.00    -0.174 N 
HETATM   22  C14 UNL     1      54.406  23.856  25.107  1.00  0.00     0.161 A 
HETATM   23  C13 UNL     1      56.435  24.169  24.304  1.00  0.00     0.678 A 
ATOM     24  H4  UNL     1      56.240  22.838  22.672  1.00  0.00     0.186 HD
HETATM   25  N5  UNL     1      57.647  24.642  24.201  1.00  0.00    -0.234 N 
HETATM   26  N6  UNL     1      55.573  24.517  25.275  1.00  0.00    -0.183 N 
ATOM     27  H52 UNL     1      58.301  24.379  23.463  1.00  0.00     0.174 HD
ATOM     28  H51 UNL     1      58.104  25.317  24.813  1.00  0.00     0.174 HD
ATOM     29  H6  UNL     1      55.770  25.179  26.026  1.00  0.00     0.184 HD
HETATM   30  C15 UNL     1      53.204  23.825  25.784  1.00  0.00     0.281 A 
HETATM   31  O7  UNL     1      53.075  24.540  26.799  1.00  0.00    -0.265 OA
ENDBRANCH  14  16
ENDBRANCH  13  14
ENDBRANCH  11  13
ENDBRANCH   7  11
ENDBRANCH   6   7
ENDBRANCH   3   6
BRANCH   1  32
HETATM   32  O2  UNL     1      43.253  21.434  26.009  1.00  0.00    -0.313 OA
BRANCH  32  33
HETATM   33  C3  UNL     1      42.837  20.460  25.130  1.00  0.00     0.258 C 
HETATM   34  O1  UNL     1      43.209  19.290  25.374  1.00  0.00    -0.265 OA
BRANCH  33  35
HETATM   35  C2  UNL     1      41.987  20.738  23.938  1.00  0.00     0.106 C 
HETATM   36  C1  UNL     1      41.737  19.501  23.127  1.00  0.00     0.015 C 
ENDBRANCH  33  35
ENDBRANCH  32  33
ENDBRANCH   1  32
BRANCH   5  37
HETATM   37  N7  UNL     1      44.214  23.895  26.435  1.00  0.00    -0.347 N 
HETATM   38  C18 UNL     1      43.496  24.901  27.166  1.00  0.00     0.280 C 
HETATM   39  O8  UNL     1      43.507  24.806  28.398  1.00  0.00    -0.265 OA
ATOM     40  H7  UNL     1      44.228  23.940  25.416  1.00  0.00     0.163 HD
BRANCH  38  41
HETATM   41  C19 UNL     1      42.793  25.974  26.481  1.00  0.00     0.203 A 
HETATM   42  O9  UNL     1      42.173  27.002  27.020  1.00  0.00    -0.227 OA
HETATM   43  N8  UNL     1      41.661  27.756  26.117  1.00  0.00    -0.236 N 
HETATM   44  C20 UNL     1      41.922  27.256  24.907  1.00  0.00     0.210 A 
ATOM     45  H8  UNL     1      41.134  28.610  26.298  1.00  0.00     0.197 HD
HETATM   46  C25 UNL     1      42.660  26.092  25.126  1.00  0.00     0.161 A 
BRANCH  44  47
HETATM   47  O10 UNL     1      41.569  27.730  23.653  1.00  0.00    -0.233 OA
BRANCH  47  48
HETATM   48  C21 UNL     1      41.057  28.987  23.472  1.00  0.00     0.415 C 
HETATM   49  O11 UNL     1      40.263  29.442  24.359  1.00  0.00    -0.229 OA
BRANCH  48  50
HETATM   50  O12 UNL     1      41.355  29.792  22.379  1.00  0.00    -0.261 OA
BRANCH  50  51
HETATM   51  C22 UNL     1      40.364  30.601  21.758  1.00  0.00     0.165 C 
HETATM   52  C23 UNL     1      39.239  29.729  21.258  1.00  0.00     0.079 C 
HETATM   53  C24 UNL     1      41.016  31.402  20.658  1.00  0.00     0.079 C 
BRANCH  51  54
HETATM   54  O13 UNL     1      39.833  31.520  22.689  1.00  0.00    -0.365 OA
ATOM     55  H13 UNL     1      38.965  31.797  22.417  1.00  0.00     0.213 HD
ENDBRANCH  51  54
ENDBRANCH  50  51
ENDBRANCH  48  50
ENDBRANCH  47  48
ENDBRANCH  44  47
BRANCH  46  56
HETATM   56  O14 UNL     1      43.122  25.282  24.115  1.00  0.00    -0.354 OA
ATOM     57  H14 UNL     1      43.585  25.504  23.316  1.00  0.00     0.218 HD
ENDBRANCH  46  56
ENDBRANCH  38  41
ENDBRANCH   5  37
TORSDOF 19
ENDMDL
MODEL 4
REMARK VINA RESULT: -10.131581238      1.571      2.006
REMARK  19 active torsions:
REMARK  status: ('A' for Active; 'I' for Inactive)
REMARK    1  A    between atoms: C2_2  and  C3_3 
REMARK    2  A    between atoms: C3_3  and  O2_5 
REMARK    3  A    between atoms: O2_5  and  C4_6 
REMARK    4  A    between atoms: N1_8  and  O3_9 
REMARK    5  A    between atoms: O3_9  and  C6_10 
REMARK    6  A    between atoms: C6_10  and  C7_11 
REMARK    7  A    between atoms: C6_10  and  C8_14 
REMARK    8  A    between atoms: C7_11  and  O4_12 
REMARK    9  A    between atoms: C8_14  and  O6_16 
REMARK   10  A    between atoms: O6_16  and  C9_17 
REMARK   11  A    between atoms: C9_17  and  N2_19 
REMARK   12  A    between atoms: C17_36  and  N7_37 
REMARK       I    between atoms: N7_37  and  C18_39 
REMARK   13  A    between atoms: C18_39  and  C19_41 
REMARK   14  A    between atoms: C20_45  and  O10_46 
REMARK   15  A    between atoms: O10_46  and  C21_47 
REMARK   16  A    between atoms: C21_47  and  O12_49 
REMARK   17  A    between atoms: O12_49  and  C22_50 
REMARK   18  A    between atoms: C22_50  and  O13_53 
REMARK   19  A    between atoms: C25_55  and  O14_56 
ROOT
HETATM    1  C4  UNL     1      50.526  22.981  25.927  1.00  0.00     0.171 C 
HETATM    2  C5  UNL     1      49.178  22.760  25.340  1.00  0.00     0.155 C 
HETATM    3  N1  UNL     1      49.022  21.353  25.401  1.00  0.00    -0.191 NA
HETATM    4  C16 UNL     1      50.288  20.740  25.253  1.00  0.00     0.148 C 
HETATM    5  C17 UNL     1      51.327  21.872  25.313  1.00  0.00     0.131 C 
ENDROOT
BRANCH   3   6
HETATM    6  O3  UNL     1      48.247  20.888  26.283  1.00  0.00    -0.286 OA
BRANCH   6   7
HETATM    7  C6  UNL     1      48.402  19.716  26.931  1.00  0.00     0.268 C 
BRANCH   7   8
HETATM    8  C7  UNL     1      48.884  19.863  28.383  1.00  0.00     0.208 C 
BRANCH   8   9
HETATM    9  O4  UNL     1      49.462  21.077  28.640  1.00  0.00    -0.398 OA
ATOM     10  H4  UNL     1      50.306  21.006  29.072  1.00  0.00     0.209 HD
ENDBRANCH   8   9
ENDBRANCH   7   8
BRANCH   7  11
HETATM   11  C8  UNL     1      47.175  18.856  26.904  1.00  0.00     0.294 C 
HETATM   12  O5  UNL     1      46.911  18.194  27.939  1.00  0.00    -0.262 OA
BRANCH  11  13
HETATM   13  O6  UNL     1      46.324  18.730  25.849  1.00  0.00    -0.293 OA
BRANCH  13  14
HETATM   14  C9  UNL     1      45.015  19.204  25.771  1.00  0.00     0.237 C 
HETATM   15  C10 UNL     1      44.090  18.396  24.929  1.00  0.00     0.064 C 
BRANCH  14  16
HETATM   16  N2  UNL     1      45.003  20.577  25.276  1.00  0.00    -0.281 N 
HETATM   17  C11 UNL     1      45.147  20.820  23.952  1.00  0.00     0.190 A 
HETATM   18  N3  UNL     1      45.143  22.067  23.447  1.00  0.00    -0.336 N 
HETATM   19  C12 UNL     1      44.995  23.142  24.239  1.00  0.00     0.155 A 
ATOM     20  H3  UNL     1      45.254  22.199  22.441  1.00  0.00     0.168 HD
HETATM   21  N4  UNL     1      44.956  24.486  24.002  1.00  0.00    -0.174 N 
HETATM   22  C14 UNL     1      44.848  22.931  25.594  1.00  0.00     0.161 A 
HETATM   23  C13 UNL     1      44.786  25.097  25.188  1.00  0.00     0.678 A 
ATOM     24  H4  UNL     1      45.039  24.942  23.094  1.00  0.00     0.186 HD
HETATM   25  N5  UNL     1      44.694  26.378  25.415  1.00  0.00    -0.234 N 
HETATM   26  N6  UNL     1      44.720  24.157  26.147  1.00  0.00    -0.183 N 
ATOM     27  H52 UNL     1      44.743  27.091  24.687  1.00  0.00     0.174 HD
ATOM     28  H51 UNL     1      44.565  26.842  26.314  1.00  0.00     0.174 HD
ATOM     29  H6  UNL     1      44.594  24.342  27.143  1.00  0.00     0.184 HD
HETATM   30  C15 UNL     1      44.855  21.642  26.085  1.00  0.00     0.281 A 
HETATM   31  O7  UNL     1      44.719  21.474  27.315  1.00  0.00    -0.265 OA
ENDBRANCH  14  16
ENDBRANCH  13  14
ENDBRANCH  11  13
ENDBRANCH   7  11
ENDBRANCH   6   7
ENDBRANCH   3   6
BRANCH   1  32
HETATM   32  O2  UNL     1      51.066  24.251  25.707  1.00  0.00    -0.313 OA
BRANCH  32  33
HETATM   33  C3  UNL     1      52.133  24.700  26.451  1.00  0.00     0.258 C 
HETATM   34  O1  UNL     1      52.022  24.620  27.695  1.00  0.00    -0.265 OA
BRANCH  33  35
HETATM   35  C2  UNL     1      53.375  25.260  25.850  1.00  0.00     0.106 C 
HETATM   36  C1  UNL     1      54.426  24.208  25.652  1.00  0.00     0.015 C 
ENDBRANCH  33  35
ENDBRANCH  32  33
ENDBRANCH   1  32
BRANCH   5  37
HETATM   37  N7  UNL     1      51.701  22.308  23.981  1.00  0.00    -0.347 N 
HETATM   38  C18 UNL     1      52.852  21.781  23.303  1.00  0.00     0.280 C 
HETATM   39  O8  UNL     1      53.514  20.932  23.911  1.00  0.00    -0.265 OA
ATOM     40  H7  UNL     1      51.129  23.009  23.511  1.00  0.00     0.163 HD
BRANCH  38  41
HETATM   41  C19 UNL     1      53.212  22.229  21.968  1.00  0.00     0.203 A 
HETATM   42  O9  UNL     1      52.594  23.122  21.225  1.00  0.00    -0.227 OA
HETATM   43  N8  UNL     1      53.187  23.274  20.098  1.00  0.00    -0.236 N 
HETATM   44  C20 UNL     1      54.253  22.472  20.035  1.00  0.00     0.210 A 
ATOM     45  H8  UNL     1      52.889  23.913  19.361  1.00  0.00     0.197 HD
HETATM   46  C25 UNL     1      54.284  21.783  21.246  1.00  0.00     0.161 A 
BRANCH  44  47
HETATM   47  O10 UNL     1      55.179  22.302  19.017  1.00  0.00    -0.233 OA
BRANCH  47  48
HETATM   48  C21 UNL     1      56.073  23.282  18.679  1.00  0.00     0.415 C 
HETATM   49  O11 UNL     1      56.050  24.367  19.347  1.00  0.00    -0.229 OA
BRANCH  48  50
HETATM   50  O12 UNL     1      57.001  23.159  17.652  1.00  0.00    -0.261 OA
BRANCH  50  51
HETATM   51  C22 UNL     1      56.626  23.309  16.288  1.00  0.00     0.165 C 
HETATM   52  C23 UNL     1      56.591  21.955  15.621  1.00  0.00     0.079 C 
HETATM   53  C24 UNL     1      57.590  24.262  15.626  1.00  0.00     0.079 C 
BRANCH  51  54
HETATM   54  O13 UNL     1      55.339  23.881  16.198  1.00  0.00    -0.365 OA
ATOM     55  H13 UNL     1      54.741  23.437  16.789  1.00  0.00     0.213 HD
ENDBRANCH  51  54
ENDBRANCH  50  51
ENDBRANCH  48  50
ENDBRANCH  47  48
ENDBRANCH  44  47
BRANCH  46  56
HETATM   56  O14 UNL     1      55.244  20.851  21.569  1.00  0.00    -0.354 OA
ATOM     57  H14 UNL     1      56.012  20.930  22.123  1.00  0.00     0.218 HD
ENDBRANCH  46  56
ENDBRANCH  38  41
ENDBRANCH   5  37
TORSDOF 19
ENDMDL
MODEL 5
REMARK VINA RESULT: -10.113117031      0.972      1.168
REMARK  19 active torsions:
REMARK  status: ('A' for Active; 'I' for Inactive)
REMARK    1  A    between atoms: C2_2  and  C3_3 
REMARK    2  A    between atoms: C3_3  and  O2_5 
REMARK    3  A    between atoms: O2_5  and  C4_6 
REMARK    4  A    between atoms: N1_8  and  O3_9 
REMARK    5  A    between atoms: O3_9  and  C6_10 
REMARK    6  A    between atoms: C6_10  and  C7_11 
REMARK    7  A    between atoms: C6_10  and  C8_14 
REMARK    8  A    between atoms: C7_11  and  O4_12 
REMARK    9  A    between atoms: C8_14  and  O6_16 
REMARK   10  A    between atoms: O6_16  and  C9_17 
REMARK   11  A    between atoms: C9_17  and  N2_19 
REMARK   12  A    between atoms: C17_36  and  N7_37 
REMARK       I    between atoms: N7_37  and  C18_39 
REMARK   13  A    between atoms: C18_39  and  C19_41 
REMARK   14  A    between atoms: C20_45  and  O10_46 
REMARK   15  A    between atoms: O10_46  and  C21_47 
REMARK   16  A    between atoms: C21_47  and  O12_49 
REMARK   17  A    between atoms: O12_49  and  C22_50 
REMARK   18  A    between atoms: C22_50  and  O13_53 
REMARK   19  A    between atoms: C25_55  and  O14_56 
ROOT
HETATM    1  C4  UNL     1      50.758  23.294  25.896  1.00  0.00     0.171 C 
HETATM    2  C5  UNL     1      49.447  23.155  25.209  1.00  0.00     0.155 C 
HETATM    3  N1  UNL     1      49.196  21.761  25.262  1.00  0.00    -0.191 NA
HETATM    4  C16 UNL     1      50.427  21.068  25.213  1.00  0.00     0.148 C 
HETATM    5  C17 UNL     1      51.530  22.132  25.349  1.00  0.00     0.131 C 
ENDROOT
BRANCH   3   6
HETATM    6  O3  UNL     1      48.328  21.354  26.083  1.00  0.00    -0.286 OA
BRANCH   6   7
HETATM    7  C6  UNL     1      48.247  20.108  26.592  1.00  0.00     0.268 C 
BRANCH   7   8
HETATM    8  C7  UNL     1      48.790  19.980  28.024  1.00  0.00     0.208 C 
BRANCH   8   9
HETATM    9  O4  UNL     1      49.442  21.102  28.457  1.00  0.00    -0.398 OA
ATOM     10  H4  UNL     1      49.928  20.967  29.262  1.00  0.00     0.209 HD
ENDBRANCH   8   9
ENDBRANCH   7   8
BRANCH   7  11
HETATM   11  C8  UNL     1      46.864  19.533  26.536  1.00  0.00     0.294 C 
HETATM   12  O5  UNL     1      46.571  18.648  27.380  1.00  0.00    -0.262 OA
BRANCH  11  13
HETATM   13  O6  UNL     1      45.898  19.888  25.645  1.00  0.00    -0.293 OA
BRANCH  13  14
HETATM   14  C9  UNL     1      44.525  19.939  25.878  1.00  0.00     0.237 C 
HETATM   15  C10 UNL     1      43.680  19.211  24.890  1.00  0.00     0.064 C 
BRANCH  14  16
HETATM   16  N2  UNL     1      44.072  21.326  25.933  1.00  0.00    -0.281 N 
HETATM   17  C11 UNL     1      43.708  21.964  24.796  1.00  0.00     0.190 A 
HETATM   18  N3  UNL     1      43.285  23.242  24.795  1.00  0.00    -0.336 N 
HETATM   19  C12 UNL     1      43.202  23.952  25.932  1.00  0.00     0.155 A 
ATOM     20  H3  UNL     1      43.021  23.680  23.913  1.00  0.00     0.168 HD
HETATM   21  N4  UNL     1      42.817  25.230  26.216  1.00  0.00    -0.174 N 
HETATM   22  C14 UNL     1      43.566  23.332  27.109  1.00  0.00     0.161 A 
HETATM   23  C13 UNL     1      42.939  25.400  27.544  1.00  0.00     0.678 A 
ATOM     24  H4  UNL     1      42.496  25.927  25.545  1.00  0.00     0.186 HD
HETATM   25  N5  UNL     1      42.675  26.475  28.235  1.00  0.00    -0.234 N 
HETATM   26  N6  UNL     1      43.391  24.254  28.082  1.00  0.00    -0.183 N 
ATOM     27  H52 UNL     1      42.332  27.345  27.827  1.00  0.00     0.174 HD
ATOM     28  H51 UNL     1      42.768  26.604  29.242  1.00  0.00     0.174 HD
ATOM     29  H6  UNL     1      43.573  24.102  29.075  1.00  0.00     0.184 HD
HETATM   30  C15 UNL     1      43.996  22.021  27.082  1.00  0.00     0.281 A 
HETATM   31  O7  UNL     1      44.320  21.480  28.160  1.00  0.00    -0.265 OA
ENDBRANCH  14  16
ENDBRANCH  13  14
ENDBRANCH  11  13
ENDBRANCH   7  11
ENDBRANCH   6   7
ENDBRANCH   3   6
BRANCH   1  32
HETATM   32  O2  UNL     1      51.393  24.525  25.715  1.00  0.00    -0.313 OA
BRANCH  32  33
HETATM   33  C3  UNL     1      52.415  24.919  26.549  1.00  0.00     0.258 C 
HETATM   34  O1  UNL     1      52.192  24.855  27.778  1.00  0.00    -0.265 OA
BRANCH  33  35
HETATM   35  C2  UNL     1      53.735  25.402  26.056  1.00  0.00     0.106 C 
HETATM   36  C1  UNL     1      54.708  24.277  25.865  1.00  0.00     0.015 C 
ENDBRANCH  33  35
ENDBRANCH  32  33
ENDBRANCH   1  32
BRANCH   5  37
HETATM   37  N7  UNL     1      52.031  22.532  24.048  1.00  0.00    -0.347 N 
HETATM   38  C18 UNL     1      53.130  21.859  23.416  1.00  0.00     0.280 C 
HETATM   39  O8  UNL     1      53.633  20.914  24.035  1.00  0.00    -0.265 OA
ATOM     40  H7  UNL     1      51.589  23.316  23.568  1.00  0.00     0.163 HD
BRANCH  38  41
HETATM   41  C19 UNL     1      53.620  22.274  22.111  1.00  0.00     0.203 A 
HETATM   42  O9  UNL     1      53.129  23.211  21.328  1.00  0.00    -0.227 OA
HETATM   43  N8  UNL     1      53.812  23.313  20.248  1.00  0.00    -0.236 N 
HETATM   44  C20 UNL     1      54.814  22.430  20.259  1.00  0.00     0.210 A 
ATOM     45  H8  UNL     1      53.619  23.971  19.493  1.00  0.00     0.197 HD
HETATM   46  C25 UNL     1      54.703  21.743  21.468  1.00  0.00     0.161 A 
BRANCH  44  47
HETATM   47  O10 UNL     1      55.794  22.185  19.311  1.00  0.00    -0.233 OA
BRANCH  47  48
HETATM   48  C21 UNL     1      56.766  23.104  19.019  1.00  0.00     0.415 C 
HETATM   49  O11 UNL     1      56.973  24.041  19.857  1.00  0.00    -0.229 OA
BRANCH  48  50
HETATM   50  O12 UNL     1      57.537  23.072  17.863  1.00  0.00    -0.261 OA
BRANCH  50  51
HETATM   51  C22 UNL     1      57.004  23.459  16.602  1.00  0.00     0.165 C 
HETATM   52  C23 UNL     1      56.691  22.230  15.784  1.00  0.00     0.079 C 
HETATM   53  C24 UNL     1      57.991  24.377  15.924  1.00  0.00     0.079 C 
BRANCH  51  54
HETATM   54  O13 UNL     1      55.808  24.187  16.782  1.00  0.00    -0.365 OA
ATOM     55  H13 UNL     1      55.116  23.610  17.084  1.00  0.00     0.213 HD
ENDBRANCH  51  54
ENDBRANCH  50  51
ENDBRANCH  48  50
ENDBRANCH  47  48
ENDBRANCH  44  47
BRANCH  46  56
HETATM   56  O14 UNL     1      55.561  20.741  21.856  1.00  0.00    -0.354 OA
ATOM     57  H14 UNL     1      55.557  19.814  21.644  1.00  0.00     0.218 HD
ENDBRANCH  46  56
ENDBRANCH  38  41
ENDBRANCH   5  37
TORSDOF 19
ENDMDL
