MODEL 1
REMARK VINA RESULT: -10.936480714      0.000      0.000
REMARK  5 active torsions:
REMARK  status: ('A' for Active; 'I' for Inactive)
REMARK    1  A    between atoms: C2_2  and  C3_3 
REMARK    2  A    between atoms: C5_5  and  O1_6 
REMARK    3  A    between atoms: C6_8  and  C7_9 
REMARK    4  A    between atoms: C10_13  and  O3_14 
REMARK    5  A    between atoms: O3_14  and  C11_15 
ROOT
HETATM    1  C3  UNL     1      22.314 -12.062   6.363  1.00  0.00    -0.045 A 
HETATM    2  C4  UNL     1      23.313 -11.276   5.871  1.00  0.00     0.045 A 
HETATM    3  C5  UNL     1      24.530 -11.778   5.444  1.00  0.00     0.080 A 
HETATM    4  C6  UNL     1      24.772 -13.167   5.512  1.00  0.00     0.046 A 
HETATM    5  C8  UNL     1      23.770 -13.978   6.007  1.00  0.00    -0.007 A 
HETATM    6  C9  UNL     1      23.913 -15.331   6.104  1.00  0.00     0.050 A 
HETATM    7  C10 UNL     1      22.910 -16.205   6.602  1.00  0.00     0.077 A 
HETATM    8  C20 UNL     1      21.733 -15.590   6.999  1.00  0.00     0.038 A 
HETATM    9  C21 UNL     1      21.556 -14.232   6.914  1.00  0.00     0.015 A 
HETATM   10  C22 UNL     1      22.553 -13.415   6.426  1.00  0.00    -0.018 A 
ENDROOT
BRANCH   7  11
HETATM   11  O3  UNL     1      23.168 -17.481   6.646  1.00  0.00    -0.310 OA
BRANCH  11  12
HETATM   12  C11 UNL     1      23.391 -18.596   7.316  1.00  0.00     0.085 A 
HETATM   13  C12 UNL     1      22.408 -19.442   7.845  1.00  0.00     0.080 A 
HETATM   14  C13 UNL     1      22.746 -20.587   8.532  1.00  0.00     0.119 A 
HETATM   15  F1  UNL     1      21.749 -21.385   9.030  1.00  0.00    -0.206 F 
HETATM   16  C14 UNL     1      24.067 -20.904   8.701  1.00  0.00     0.050 A 
HETATM   17  C15 UNL     1      25.080 -20.096   8.195  1.00  0.00    -0.046 A 
HETATM   18  C16 UNL     1      24.733 -18.974   7.522  1.00  0.00    -0.018 A 
HETATM   19  C19 UNL     1      26.580 -20.249   8.267  1.00  0.00     0.039 C 
HETATM   20  C17 UNL     1      25.984 -18.259   7.067  1.00  0.00     0.042 C 
HETATM   21  C18 UNL     1      27.024 -19.359   7.131  1.00  0.00     0.009 C 
ENDBRANCH  11  12
ENDBRANCH   7  11
BRANCH   4  22
HETATM   22  C7  UNL     1      26.023 -13.694   5.076  1.00  0.00     0.273 C 
HETATM   23  O2  UNL     1      27.133 -13.485   5.537  1.00  0.00    -0.301 OA
ENDBRANCH   4  22
BRANCH   3  24
HETATM   24  O1  UNL     1      25.494 -10.926   4.959  1.00  0.00    -0.360 OA
ATOM     25  H1  UNL     1      26.154 -11.248   4.358  1.00  0.00     0.217 HD
ENDBRANCH   3  24
BRANCH   1  26
HETATM   26  C2  UNL     1      21.021 -11.503   6.829  1.00  0.00     0.035 C 
HETATM   27  C1  UNL     1      20.018 -11.360   5.691  1.00  0.00     0.010 C 
ENDBRANCH   1  26
TORSDOF 5
ENDMDL
MODEL 2
REMARK VINA RESULT: -10.843892117      1.135      2.346
REMARK  5 active torsions:
REMARK  status: ('A' for Active; 'I' for Inactive)
REMARK    1  A    between atoms: C2_2  and  C3_3 
REMARK    2  A    between atoms: C5_5  and  O1_6 
REMARK    3  A    between atoms: C6_8  and  C7_9 
REMARK    4  A    between atoms: C10_13  and  O3_14 
REMARK    5  A    between atoms: O3_14  and  C11_15 
ROOT
HETATM    1  C3  UNL     1      22.322 -12.118   6.375  1.00  0.00    -0.045 A 
HETATM    2  C4  UNL     1      23.324 -11.329   5.890  1.00  0.00     0.045 A 
HETATM    3  C5  UNL     1      24.541 -11.830   5.463  1.00  0.00     0.080 A 
HETATM    4  C6  UNL     1      24.781 -13.220   5.522  1.00  0.00     0.046 A 
HETATM    5  C8  UNL     1      23.777 -14.033   6.009  1.00  0.00    -0.007 A 
HETATM    6  C9  UNL     1      23.918 -15.387   6.097  1.00  0.00     0.050 A 
HETATM    7  C10 UNL     1      22.913 -16.263   6.587  1.00  0.00     0.077 A 
HETATM    8  C20 UNL     1      21.736 -15.649   6.985  1.00  0.00     0.038 A 
HETATM    9  C21 UNL     1      21.561 -14.290   6.909  1.00  0.00     0.015 A 
HETATM   10  C22 UNL     1      22.560 -13.471   6.429  1.00  0.00    -0.018 A 
ENDROOT
BRANCH   7  11
HETATM   11  O3  UNL     1      23.169 -17.539   6.622  1.00  0.00    -0.310 OA
BRANCH  11  12
HETATM   12  C11 UNL     1      23.583 -18.621   7.254  1.00  0.00     0.085 A 
HETATM   13  C12 UNL     1      24.907 -19.070   7.323  1.00  0.00     0.080 A 
HETATM   14  C13 UNL     1      25.238 -20.217   8.012  1.00  0.00     0.119 A 
HETATM   15  F1  UNL     1      26.549 -20.617   8.052  1.00  0.00    -0.206 F 
HETATM   16  C14 UNL     1      24.253 -20.931   8.640  1.00  0.00     0.050 A 
HETATM   17  C15 UNL     1      22.922 -20.526   8.600  1.00  0.00    -0.046 A 
HETATM   18  C16 UNL     1      22.612 -19.397   7.920  1.00  0.00    -0.018 A 
HETATM   19  C19 UNL     1      21.691 -21.154   9.208  1.00  0.00     0.039 C 
HETATM   20  C17 UNL     1      21.124 -19.153   8.013  1.00  0.00     0.042 C 
HETATM   21  C18 UNL     1      20.736 -19.985   9.218  1.00  0.00     0.009 C 
ENDBRANCH  11  12
ENDBRANCH   7  11
BRANCH   4  22
HETATM   22  C7  UNL     1      26.032 -13.745   5.086  1.00  0.00     0.273 C 
HETATM   23  O2  UNL     1      27.151 -13.465   5.485  1.00  0.00    -0.301 OA
ENDBRANCH   4  22
BRANCH   3  24
HETATM   24  O1  UNL     1      25.507 -10.976   4.987  1.00  0.00    -0.360 OA
ATOM     25  H1  UNL     1      25.453 -10.646   4.098  1.00  0.00     0.217 HD
ENDBRANCH   3  24
BRANCH   1  26
HETATM   26  C2  UNL     1      21.029 -11.560   6.842  1.00  0.00     0.035 C 
HETATM   27  C1  UNL     1      20.032 -11.400   5.701  1.00  0.00     0.010 C 
ENDBRANCH   1  26
TORSDOF 5
ENDMDL
MODEL 3
REMARK VINA RESULT: -10.690047816      2.055      3.853
REMARK  5 active torsions:
REMARK  status: ('A' for Active; 'I' for Inactive)
REMARK    1  A    between atoms: C2_2  and  C3_3 
REMARK    2  A    between atoms: C5_5  and  O1_6 
REMARK    3  A    between atoms: C6_8  and  C7_9 
REMARK    4  A    between atoms: C10_13  and  O3_14 
REMARK    5  A    between atoms: O3_14  and  C11_15 
ROOT
HETATM    1  C3  UNL     1      23.644 -12.231   6.049  1.00  0.00    -0.045 A 
HETATM    2  C4  UNL     1      22.484 -11.514   6.077  1.00  0.00     0.045 A 
HETATM    3  C5  UNL     1      21.242 -12.093   6.271  1.00  0.00     0.080 A 
HETATM    4  C6  UNL     1      21.145 -13.490   6.452  1.00  0.00     0.046 A 
HETATM    5  C8  UNL     1      22.311 -14.230   6.427  1.00  0.00    -0.007 A 
HETATM    6  C9  UNL     1      22.314 -15.584   6.598  1.00  0.00     0.050 A 
HETATM    7  C10 UNL     1      23.486 -16.386   6.585  1.00  0.00     0.077 A 
HETATM    8  C20 UNL     1      24.672 -15.697   6.383  1.00  0.00     0.038 A 
HETATM    9  C21 UNL     1      24.704 -14.337   6.208  1.00  0.00     0.015 A 
HETATM   10  C22 UNL     1      23.545 -13.591   6.226  1.00  0.00    -0.018 A 
ENDROOT
BRANCH   7  11
HETATM   11  O3  UNL     1      23.359 -17.670   6.759  1.00  0.00    -0.310 OA
BRANCH  11  12
HETATM   12  C11 UNL     1      23.656 -18.788   7.395  1.00  0.00     0.085 A 
HETATM   13  C12 UNL     1      24.935 -19.343   7.517  1.00  0.00     0.080 A 
HETATM   14  C13 UNL     1      25.141 -20.520   8.204  1.00  0.00     0.119 A 
HETATM   15  F1  UNL     1      26.412 -21.025   8.298  1.00  0.00    -0.206 F 
HETATM   16  C14 UNL     1      24.074 -21.158   8.777  1.00  0.00     0.050 A 
HETATM   17  C15 UNL     1      22.783 -20.647   8.683  1.00  0.00    -0.046 A 
HETATM   18  C16 UNL     1      22.597 -19.490   8.006  1.00  0.00    -0.018 A 
HETATM   19  C19 UNL     1      21.480 -21.179   9.227  1.00  0.00     0.039 C 
HETATM   20  C17 UNL     1      21.130 -19.127   8.035  1.00  0.00     0.042 C 
HETATM   21  C18 UNL     1      20.621 -19.938   9.209  1.00  0.00     0.009 C 
ENDBRANCH  11  12
ENDBRANCH   7  11
BRANCH   4  22
HETATM   22  C7  UNL     1      19.871 -14.095   6.651  1.00  0.00     0.273 C 
HETATM   23  O2  UNL     1      18.774 -13.675   6.321  1.00  0.00    -0.301 OA
ENDBRANCH   4  22
BRANCH   3  24
HETATM   24  O1  UNL     1      20.113 -11.309   6.287  1.00  0.00    -0.360 OA
ATOM     25  H1  UNL     1      19.505 -11.365   7.014  1.00  0.00     0.217 HD
ENDBRANCH   3  24
BRANCH   1  26
HETATM   26  C2  UNL     1      24.965 -11.594   5.824  1.00  0.00     0.035 C 
HETATM   27  C1  UNL     1      25.172 -11.210   4.363  1.00  0.00     0.010 C 
ENDBRANCH   1  26
TORSDOF 5
ENDMDL
MODEL 4
REMARK VINA RESULT: -10.688746507      1.630      2.468
REMARK  5 active torsions:
REMARK  status: ('A' for Active; 'I' for Inactive)
REMARK    1  A    between atoms: C2_2  and  C3_3 
REMARK    2  A    between atoms: C5_5  and  O1_6 
REMARK    3  A    between atoms: C6_8  and  C7_9 
REMARK    4  A    between atoms: C10_13  and  O3_14 
REMARK    5  A    between atoms: O3_14  and  C11_15 
ROOT
HETATM    1  C3  UNL     1      21.921 -12.740   6.278  1.00  0.00    -0.045 A 
HETATM    2  C4  UNL     1      22.660 -11.595   6.230  1.00  0.00     0.045 A 
HETATM    3  C5  UNL     1      24.044 -11.586   6.265  1.00  0.00     0.080 A 
HETATM    4  C6  UNL     1      24.746 -12.807   6.354  1.00  0.00     0.046 A 
HETATM    5  C8  UNL     1      24.012 -13.976   6.401  1.00  0.00    -0.007 A 
HETATM    6  C9  UNL     1      24.606 -15.202   6.482  1.00  0.00     0.050 A 
HETATM    7  C10 UNL     1      23.895 -16.430   6.529  1.00  0.00     0.077 A 
HETATM    8  C20 UNL     1      22.514 -16.317   6.487  1.00  0.00     0.038 A 
HETATM    9  C21 UNL     1      21.885 -15.100   6.406  1.00  0.00     0.015 A 
HETATM   10  C22 UNL     1      22.609 -13.928   6.363  1.00  0.00    -0.018 A 
ENDROOT
BRANCH   7  11
HETATM   11  O3  UNL     1      24.576 -17.538   6.606  1.00  0.00    -0.310 OA
BRANCH  11  12
HETATM   12  C11 UNL     1      25.152 -18.497   7.305  1.00  0.00     0.085 A 
HETATM   13  C12 UNL     1      26.520 -18.593   7.589  1.00  0.00     0.080 A 
HETATM   14  C13 UNL     1      27.025 -19.639   8.330  1.00  0.00     0.119 A 
HETATM   15  F1  UNL     1      28.372 -19.689   8.583  1.00  0.00    -0.206 F 
HETATM   16  C14 UNL     1      26.174 -20.603   8.797  1.00  0.00     0.050 A 
HETATM   17  C15 UNL     1      24.807 -20.554   8.542  1.00  0.00    -0.046 A 
HETATM   18  C16 UNL     1      24.325 -19.519   7.812  1.00  0.00    -0.018 A 
HETATM   19  C19 UNL     1      23.701 -21.497   8.949  1.00  0.00     0.039 C 
HETATM   20  C17 UNL     1      22.829 -19.670   7.663  1.00  0.00     0.042 C 
HETATM   21  C18 UNL     1      22.486 -20.615   8.797  1.00  0.00     0.009 C 
ENDBRANCH  11  12
ENDBRANCH   7  11
BRANCH   4  22
HETATM   22  C7  UNL     1      26.171 -12.808   6.391  1.00  0.00     0.273 C 
HETATM   23  O2  UNL     1      26.949 -12.312   5.593  1.00  0.00    -0.301 OA
ENDBRANCH   4  22
BRANCH   3  24
HETATM   24  O1  UNL     1      24.725 -10.393   6.214  1.00  0.00    -0.360 OA
ATOM     25  H1  UNL     1      24.444  -9.710   5.618  1.00  0.00     0.217 HD
ENDBRANCH   3  24
BRANCH   1  26
HETATM   26  C2  UNL     1      20.438 -12.728   6.254  1.00  0.00     0.035 C 
HETATM   27  C1  UNL     1      19.884 -11.353   5.901  1.00  0.00     0.010 C 
ENDBRANCH   1  26
TORSDOF 5
ENDMDL
MODEL 5
REMARK VINA RESULT: -10.687370735      2.890      7.455
REMARK  5 active torsions:
REMARK  status: ('A' for Active; 'I' for Inactive)
REMARK    1  A    between atoms: C2_2  and  C3_3 
REMARK    2  A    between atoms: C5_5  and  O1_6 
REMARK    3  A    between atoms: C6_8  and  C7_9 
REMARK    4  A    between atoms: C10_13  and  O3_14 
REMARK    5  A    between atoms: O3_14  and  C11_15 
ROOT
HETATM    1  C3  UNL     1      21.847 -19.935   8.226  1.00  0.00    -0.045 A 
HETATM    2  C4  UNL     1      22.583 -21.052   8.489  1.00  0.00     0.045 A 
HETATM    3  C5  UNL     1      23.950 -21.122   8.289  1.00  0.00     0.080 A 
HETATM    4  C6  UNL     1      24.639 -19.995   7.791  1.00  0.00     0.046 A 
HETATM    5  C8  UNL     1      23.909 -18.855   7.521  1.00  0.00    -0.007 A 
HETATM    6  C9  UNL     1      24.491 -17.717   7.041  1.00  0.00     0.050 A 
HETATM    7  C10 UNL     1      23.783 -16.521   6.752  1.00  0.00     0.077 A 
HETATM    8  C20 UNL     1      22.419 -16.568   6.992  1.00  0.00     0.038 A 
HETATM    9  C21 UNL     1      21.802 -17.695   7.474  1.00  0.00     0.015 A 
HETATM   10  C22 UNL     1      22.522 -18.839   7.742  1.00  0.00    -0.018 A 
ENDROOT
BRANCH   7  11
HETATM   11  O3  UNL     1      24.452 -15.500   6.298  1.00  0.00    -0.310 OA
BRANCH  11  12
HETATM   12  C11 UNL     1      25.383 -14.575   6.429  1.00  0.00     0.085 A 
HETATM   13  C12 UNL     1      26.615 -14.740   7.073  1.00  0.00     0.080 A 
HETATM   14  C13 UNL     1      27.523 -13.707   7.157  1.00  0.00     0.119 A 
HETATM   15  F1  UNL     1      28.717 -13.917   7.797  1.00  0.00    -0.206 F 
HETATM   16  C14 UNL     1      27.215 -12.495   6.599  1.00  0.00     0.050 A 
HETATM   17  C15 UNL     1      26.003 -12.280   5.949  1.00  0.00    -0.046 A 
HETATM   18  C16 UNL     1      25.122 -13.305   5.875  1.00  0.00    -0.018 A 
HETATM   19  C19 UNL     1      25.461 -11.042   5.276  1.00  0.00     0.039 C 
HETATM   20  C17 UNL     1      23.889 -12.848   5.130  1.00  0.00     0.042 C 
HETATM   21  C18 UNL     1      24.397 -11.631   4.383  1.00  0.00     0.009 C 
ENDBRANCH  11  12
ENDBRANCH   7  11
BRANCH   4  22
HETATM   22  C7  UNL     1      26.047 -20.057   7.581  1.00  0.00     0.273 C 
HETATM   23  O2  UNL     1      26.892 -20.601   8.273  1.00  0.00    -0.301 OA
ENDBRANCH   4  22
BRANCH   3  24
HETATM   24  O1  UNL     1      24.629 -22.283   8.576  1.00  0.00    -0.360 OA
ATOM     25  H1  UNL     1      25.452 -22.471   8.142  1.00  0.00     0.217 HD
ENDBRANCH   3  24
BRANCH   1  26
HETATM   26  C2  UNL     1      20.378 -19.885   8.433  1.00  0.00     0.035 C 
HETATM   27  C1  UNL     1      19.627 -20.701   7.387  1.00  0.00     0.010 C 
ENDBRANCH   1  26
TORSDOF 5
ENDMDL
