MODEL 1
REMARK VINA RESULT: -10.426759271      0.000      0.000
REMARK  5 active torsions:
REMARK  status: ('A' for Active; 'I' for Inactive)
REMARK    1  A    between atoms: C2_2  and  O1_3 
REMARK    2  A    between atoms: O1_3  and  C3_4 
REMARK    3  A    between atoms: C3_4  and  C4_6 
REMARK    4  A    between atoms: C10_12  and  C11_13 
REMARK    5  A    between atoms: C11_13  and  C12_14 
ROOT
HETATM    1  C4  UNL     1      23.866 -14.696   6.243  1.00  0.00     0.048 C 
HETATM    2  C5  UNL     1      23.139 -14.830   4.899  1.00  0.00     0.026 C 
HETATM    3  C6  UNL     1      22.876 -14.386   7.345  1.00  0.00     0.020 C 
HETATM    4  C7  UNL     1      21.784 -15.400   7.170  1.00  0.00     0.002 C 
HETATM    5  C8  UNL     1      22.272 -16.820   7.342  1.00  0.00     0.005 C 
HETATM    6  C9  UNL     1      23.728 -17.018   7.293  1.00  0.00    -0.005 C 
HETATM    7  C10 UNL     1      24.231 -18.330   6.773  1.00  0.00    -0.002 C 
HETATM    8  C18 UNL     1      25.746 -18.208   6.695  1.00  0.00    -0.014 C 
HETATM    9  C19 UNL     1      26.434 -19.508   7.062  1.00  0.00     0.010 C 
HETATM   10  C20 UNL     1      26.306 -17.177   7.645  1.00  0.00     0.005 C 
HETATM   11  C21 UNL     1      25.824 -15.793   7.337  1.00  0.00     0.007 C 
HETATM   12  C22 UNL     1      24.526 -15.979   6.532  1.00  0.00     0.008 C 
ENDROOT
BRANCH   7  13
HETATM   13  C11 UNL     1      23.801 -19.597   7.352  1.00  0.00     0.046 C 
BRANCH  13  14
HETATM   14  C12 UNL     1      22.412 -20.034   7.302  1.00  0.00    -0.031 A 
HETATM   15  C13 UNL     1      21.536 -19.913   8.350  1.00  0.00     0.051 A 
HETATM   16  C14 UNL     1      20.249 -20.356   8.336  1.00  0.00     0.117 A 
HETATM   17  F1  UNL     1      19.414 -20.212   9.407  1.00  0.00    -0.206 F 
HETATM   18  C15 UNL     1      19.759 -20.969   7.218  1.00  0.00     0.044 A 
HETATM   19  C16 UNL     1      20.593 -21.120   6.132  1.00  0.00     0.030 A 
HETATM   20  C17 UNL     1      21.895 -20.667   6.160  1.00  0.00     0.052 A 
HETATM   21  N1  UNL     1      22.683 -20.857   5.013  1.00  0.00    -0.102 NA
ENDBRANCH  13  14
ENDBRANCH   7  13
BRANCH   1  22
HETATM   22  C3  UNL     1      24.775 -13.539   6.129  1.00  0.00     0.267 C 
HETATM   23  O2  UNL     1      24.952 -12.710   7.059  1.00  0.00    -0.264 OA
BRANCH  22  24
HETATM   24  O1  UNL     1      25.513 -13.271   4.976  1.00  0.00    -0.321 OA
BRANCH  24  25
HETATM   25  C2  UNL     1      25.996 -11.979   4.649  1.00  0.00     0.174 C 
HETATM   26  C1  UNL     1      24.813 -11.174   4.158  1.00  0.00     0.034 C 
ENDBRANCH  24  25
ENDBRANCH  22  24
ENDBRANCH   1  22
TORSDOF 5
ENDMDL
MODEL 2
REMARK VINA RESULT: -10.038903064      0.892      1.143
REMARK  5 active torsions:
REMARK  status: ('A' for Active; 'I' for Inactive)
REMARK    1  A    between atoms: C2_2  and  O1_3 
REMARK    2  A    between atoms: O1_3  and  C3_4 
REMARK    3  A    between atoms: C3_4  and  C4_6 
REMARK    4  A    between atoms: C10_12  and  C11_13 
REMARK    5  A    between atoms: C11_13  and  C12_14 
ROOT
HETATM    1  C4  UNL     1      23.794 -14.420   6.044  1.00  0.00     0.048 C 
HETATM    2  C5  UNL     1      22.923 -14.619   4.797  1.00  0.00     0.026 C 
HETATM    3  C6  UNL     1      22.949 -13.931   7.200  1.00  0.00     0.020 C 
HETATM    4  C7  UNL     1      21.775 -14.865   7.235  1.00  0.00     0.002 C 
HETATM    5  C8  UNL     1      22.175 -16.297   7.500  1.00  0.00     0.005 C 
HETATM    6  C9  UNL     1      23.600 -16.616   7.330  1.00  0.00    -0.005 C 
HETATM    7  C10 UNL     1      23.951 -18.008   6.898  1.00  0.00    -0.002 C 
HETATM    8  C18 UNL     1      25.454 -18.017   6.662  1.00  0.00    -0.014 C 
HETATM    9  C19 UNL     1      26.082 -19.328   7.089  1.00  0.00     0.010 C 
HETATM   10  C20 UNL     1      26.183 -16.951   7.445  1.00  0.00     0.005 C 
HETATM   11  C21 UNL     1      25.772 -15.567   7.048  1.00  0.00     0.007 C 
HETATM   12  C22 UNL     1      24.388 -15.720   6.395  1.00  0.00     0.008 C 
ENDROOT
BRANCH   7  13
HETATM   13  C11 UNL     1      23.495 -19.176   7.640  1.00  0.00     0.046 C 
BRANCH  13  14
HETATM   14  C12 UNL     1      22.214 -19.812   7.362  1.00  0.00    -0.031 A 
HETATM   15  C13 UNL     1      21.151 -19.799   8.230  1.00  0.00     0.051 A 
HETATM   16  C14 UNL     1      19.963 -20.425   8.005  1.00  0.00     0.117 A 
HETATM   17  F1  UNL     1      18.934 -20.382   8.901  1.00  0.00    -0.206 F 
HETATM   18  C15 UNL     1      19.779 -21.126   6.847  1.00  0.00     0.044 A 
HETATM   19  C16 UNL     1      20.811 -21.175   5.937  1.00  0.00     0.030 A 
HETATM   20  C17 UNL     1      22.009 -20.536   6.177  1.00  0.00     0.052 A 
HETATM   21  N1  UNL     1      23.014 -20.633   5.200  1.00  0.00    -0.102 NA
ENDBRANCH  13  14
ENDBRANCH   7  13
BRANCH   1  22
HETATM   22  C3  UNL     1      24.766 -13.357   5.728  1.00  0.00     0.267 C 
HETATM   23  O2  UNL     1      25.407 -13.311   4.646  1.00  0.00    -0.264 OA
BRANCH  22  24
HETATM   24  O1  UNL     1      25.054 -12.313   6.607  1.00  0.00    -0.321 OA
BRANCH  24  25
HETATM   25  C2  UNL     1      26.369 -11.834   6.837  1.00  0.00     0.174 C 
HETATM   26  C1  UNL     1      26.246 -10.584   7.679  1.00  0.00     0.034 C 
ENDBRANCH  24  25
ENDBRANCH  22  24
ENDBRANCH   1  22
TORSDOF 5
ENDMDL
MODEL 3
REMARK VINA RESULT: -9.479692827      1.316      1.572
REMARK  5 active torsions:
REMARK  status: ('A' for Active; 'I' for Inactive)
REMARK    1  A    between atoms: C2_2  and  O1_3 
REMARK    2  A    between atoms: O1_3  and  C3_4 
REMARK    3  A    between atoms: C3_4  and  C4_6 
REMARK    4  A    between atoms: C10_12  and  C11_13 
REMARK    5  A    between atoms: C11_13  and  C12_14 
ROOT
HETATM    1  C4  UNL     1      23.946 -15.090   6.270  1.00  0.00     0.048 C 
HETATM    2  C5  UNL     1      23.293 -15.216   4.887  1.00  0.00     0.026 C 
HETATM    3  C6  UNL     1      22.884 -14.944   7.338  1.00  0.00     0.020 C 
HETATM    4  C7  UNL     1      21.907 -16.047   7.057  1.00  0.00     0.002 C 
HETATM    5  C8  UNL     1      22.526 -17.420   7.174  1.00  0.00     0.005 C 
HETATM    6  C9  UNL     1      23.995 -17.473   7.185  1.00  0.00    -0.005 C 
HETATM    7  C10 UNL     1      24.648 -18.697   6.619  1.00  0.00    -0.002 C 
HETATM    8  C18 UNL     1      26.145 -18.424   6.622  1.00  0.00    -0.014 C 
HETATM    9  C19 UNL     1      26.942 -19.670   6.951  1.00  0.00     0.010 C 
HETATM   10  C20 UNL     1      26.558 -17.401   7.652  1.00  0.00     0.005 C 
HETATM   11  C21 UNL     1      25.955 -16.054   7.396  1.00  0.00     0.007 C 
HETATM   12  C22 UNL     1      24.717 -16.318   6.521  1.00  0.00     0.008 C 
ENDROOT
BRANCH   7  13
HETATM   13  C11 UNL     1      24.322 -20.031   7.108  1.00  0.00     0.046 C 
BRANCH  13  14
HETATM   14  C12 UNL     1      22.979 -20.382   7.552  1.00  0.00    -0.031 A 
HETATM   15  C13 UNL     1      21.875 -20.352   6.740  1.00  0.00     0.051 A 
HETATM   16  C14 UNL     1      20.607 -20.634   7.150  1.00  0.00     0.117 A 
HETATM   17  F1  UNL     1      19.538 -20.591   6.301  1.00  0.00    -0.206 F 
HETATM   18  C15 UNL     1      20.379 -20.972   8.453  1.00  0.00     0.044 A 
HETATM   19  C16 UNL     1      21.451 -21.017   9.317  1.00  0.00     0.030 A 
HETATM   20  C17 UNL     1      22.730 -20.730   8.889  1.00  0.00     0.052 A 
HETATM   21  N1  UNL     1      23.769 -20.799   9.830  1.00  0.00    -0.102 NA
ENDBRANCH  13  14
ENDBRANCH   7  13
BRANCH   1  22
HETATM   22  C3  UNL     1      24.738 -13.847   6.263  1.00  0.00     0.267 C 
HETATM   23  O2  UNL     1      24.750 -13.033   7.223  1.00  0.00    -0.264 OA
BRANCH  22  24
HETATM   24  O1  UNL     1      25.542 -13.471   5.186  1.00  0.00    -0.321 OA
BRANCH  24  25
HETATM   25  C2  UNL     1      25.997 -12.144   4.985  1.00  0.00     0.174 C 
HETATM   26  C1  UNL     1      24.884 -11.394   4.287  1.00  0.00     0.034 C 
ENDBRANCH  24  25
ENDBRANCH  22  24
ENDBRANCH   1  22
TORSDOF 5
ENDMDL
MODEL 4
REMARK VINA RESULT: -9.374656683      2.025      2.503
REMARK  5 active torsions:
REMARK  status: ('A' for Active; 'I' for Inactive)
REMARK    1  A    between atoms: C2_2  and  O1_3 
REMARK    2  A    between atoms: O1_3  and  C3_4 
REMARK    3  A    between atoms: C3_4  and  C4_6 
REMARK    4  A    between atoms: C10_12  and  C11_13 
REMARK    5  A    between atoms: C11_13  and  C12_14 
ROOT
HETATM    1  C4  UNL     1      23.717 -13.354   5.773  1.00  0.00     0.048 C 
HETATM    2  C5  UNL     1      22.920 -13.720   4.514  1.00  0.00     0.026 C 
HETATM    3  C6  UNL     1      22.781 -12.896   6.870  1.00  0.00     0.020 C 
HETATM    4  C7  UNL     1      21.716 -13.951   6.926  1.00  0.00     0.002 C 
HETATM    5  C8  UNL     1      22.259 -15.313   7.290  1.00  0.00     0.005 C 
HETATM    6  C9  UNL     1      23.716 -15.481   7.184  1.00  0.00    -0.005 C 
HETATM    7  C10 UNL     1      24.232 -16.847   6.849  1.00  0.00    -0.002 C 
HETATM    8  C18 UNL     1      25.735 -16.703   6.661  1.00  0.00    -0.014 C 
HETATM    9  C19 UNL     1      26.486 -17.910   7.187  1.00  0.00     0.010 C 
HETATM   10  C20 UNL     1      26.313 -15.520   7.399  1.00  0.00     0.005 C 
HETATM   11  C21 UNL     1      25.769 -14.215   6.905  1.00  0.00     0.007 C 
HETATM   12  C22 UNL     1      24.435 -14.558   6.221  1.00  0.00     0.008 C 
ENDROOT
BRANCH   7  13
HETATM   13  C11 UNL     1      23.878 -18.014   7.647  1.00  0.00     0.046 C 
BRANCH  13  14
HETATM   14  C12 UNL     1      23.078 -19.104   7.104  1.00  0.00    -0.031 A 
HETATM   15  C13 UNL     1      23.530 -19.979   6.149  1.00  0.00     0.051 A 
HETATM   16  C14 UNL     1      22.782 -20.975   5.599  1.00  0.00     0.117 A 
HETATM   17  F1  UNL     1      23.278 -21.823   4.650  1.00  0.00    -0.206 F 
HETATM   18  C15 UNL     1      21.487 -21.146   5.999  1.00  0.00     0.044 A 
HETATM   19  C16 UNL     1      20.978 -20.296   6.956  1.00  0.00     0.030 A 
HETATM   20  C17 UNL     1      21.746 -19.291   7.505  1.00  0.00     0.052 A 
HETATM   21  N1  UNL     1      21.155 -18.466   8.475  1.00  0.00    -0.102 NA
ENDBRANCH  13  14
ENDBRANCH   7  13
BRANCH   1  22
HETATM   22  C3  UNL     1      24.579 -12.210   5.422  1.00  0.00     0.267 C 
HETATM   23  O2  UNL     1      25.307 -12.186   4.396  1.00  0.00    -0.264 OA
BRANCH  22  24
HETATM   24  O1  UNL     1      24.656 -11.057   6.203  1.00  0.00    -0.321 OA
BRANCH  24  25
HETATM   25  C2  UNL     1      25.856 -10.325   6.388  1.00  0.00     0.174 C 
HETATM   26  C1  UNL     1      26.343 -10.616   7.791  1.00  0.00     0.034 C 
ENDBRANCH  24  25
ENDBRANCH  22  24
ENDBRANCH   1  22
TORSDOF 5
ENDMDL
MODEL 5
REMARK VINA RESULT: -9.275798430      2.609      4.430
REMARK  5 active torsions:
REMARK  status: ('A' for Active; 'I' for Inactive)
REMARK    1  A    between atoms: C2_2  and  O1_3 
REMARK    2  A    between atoms: O1_3  and  C3_4 
REMARK    3  A    between atoms: C3_4  and  C4_6 
REMARK    4  A    between atoms: C10_12  and  C11_13 
REMARK    5  A    between atoms: C11_13  and  C12_14 
ROOT
HETATM    1  C4  UNL     1      26.382 -12.925   7.528  1.00  0.00     0.048 C 
HETATM    2  C5  UNL     1      26.244 -13.282   9.014  1.00  0.00     0.026 C 
HETATM    3  C6  UNL     1      27.379 -13.845   6.859  1.00  0.00     0.020 C 
HETATM    4  C7  UNL     1      26.959 -15.225   7.272  1.00  0.00     0.002 C 
HETATM    5  C8  UNL     1      25.572 -15.583   6.792  1.00  0.00     0.005 C 
HETATM    6  C9  UNL     1      24.735 -14.465   6.333  1.00  0.00    -0.005 C 
HETATM    7  C10 UNL     1      23.252 -14.594   6.507  1.00  0.00    -0.002 C 
HETATM    8  C18 UNL     1      22.654 -13.258   6.091  1.00  0.00    -0.014 C 
HETATM    9  C19 UNL     1      21.331 -13.434   5.374  1.00  0.00     0.010 C 
HETATM   10  C20 UNL     1      23.530 -12.491   5.130  1.00  0.00     0.005 C 
HETATM   11  C21 UNL     1      24.849 -12.115   5.732  1.00  0.00     0.007 C 
HETATM   12  C22 UNL     1      25.065 -13.097   6.896  1.00  0.00     0.008 C 
ENDROOT
BRANCH   7  13
HETATM   13  C11 UNL     1      22.515 -15.729   5.967  1.00  0.00     0.046 C 
BRANCH  13  14
HETATM   14  C12 UNL     1      22.298 -16.944   6.741  1.00  0.00    -0.031 A 
HETATM   15  C13 UNL     1      22.909 -18.142   6.468  1.00  0.00     0.051 A 
HETATM   16  C14 UNL     1      22.684 -19.297   7.153  1.00  0.00     0.117 A 
HETATM   17  F1  UNL     1      23.319 -20.466   6.843  1.00  0.00    -0.206 F 
HETATM   18  C15 UNL     1      21.795 -19.304   8.189  1.00  0.00     0.044 A 
HETATM   19  C16 UNL     1      21.149 -18.130   8.510  1.00  0.00     0.030 A 
HETATM   20  C17 UNL     1      21.386 -16.967   7.808  1.00  0.00     0.052 A 
HETATM   21  N1  UNL     1      20.690 -15.812   8.196  1.00  0.00    -0.102 NA
ENDBRANCH  13  14
ENDBRANCH   7  13
BRANCH   1  22
HETATM   22  C3  UNL     1      26.931 -11.557   7.461  1.00  0.00     0.267 C 
HETATM   23  O2  UNL     1      28.044 -11.288   6.940  1.00  0.00    -0.264 OA
BRANCH  22  24
HETATM   24  O1  UNL     1      26.257 -10.449   7.974  1.00  0.00    -0.321 OA
BRANCH  24  25
HETATM   25  C2  UNL     1      26.852  -9.168   8.094  1.00  0.00     0.174 C 
HETATM   26  C1  UNL     1      26.376  -8.344   6.918  1.00  0.00     0.034 C 
ENDBRANCH  24  25
ENDBRANCH  22  24
ENDBRANCH   1  22
TORSDOF 5
ENDMDL
