MODEL 1
REMARK VINA RESULT: -9.055392100      0.000      0.000
REMARK  5 active torsions:
REMARK  status: ('A' for Active; 'I' for Inactive)
REMARK    1  A    between atoms: C1_2  and  O2_3 
REMARK    2  A    between atoms: C1_2  and  C8_10 
REMARK    3  A    between atoms: O2_3  and  C2_4 
REMARK    4  A    between atoms: C13_16  and  N1_17 
REMARK       I    between atoms: N1_17  and  C14_19 
REMARK    5  A    between atoms: C14_19  and  C15_21 
ROOT
HETATM    1  C8  UNL     1      24.630 -18.292   7.249  1.00  0.00     0.067 A 
HETATM    2  C9  UNL     1      24.927 -19.564   7.813  1.00  0.00     0.044 A 
HETATM    3  C10 UNL     1      23.971 -20.528   7.967  1.00  0.00     0.035 A 
HETATM    4 CL1  UNL     1      24.317 -22.094   8.655  1.00  0.00    -0.084 Cl
HETATM    5  C11 UNL     1      22.691 -20.256   7.566  1.00  0.00     0.026 A 
HETATM    6  C12 UNL     1      22.402 -19.011   7.016  1.00  0.00     0.032 A 
HETATM    7  C13 UNL     1      23.354 -18.014   6.848  1.00  0.00     0.051 A 
ENDROOT
BRANCH   1   8
HETATM    8  C1  UNL     1      25.726 -17.363   7.073  1.00  0.00     0.296 C 
HETATM    9  O1  UNL     1      26.936 -17.541   7.269  1.00  0.00    -0.259 OA
BRANCH   8  10
HETATM   10  O2  UNL     1      25.451 -16.041   6.613  1.00  0.00    -0.312 OA
BRANCH  10  11
HETATM   11  C2  UNL     1      26.084 -14.901   7.161  1.00  0.00     0.132 C 
HETATM   12  C3  UNL     1      26.566 -13.972   6.099  1.00  0.00     0.032 C 
HETATM   13  C4  UNL     1      26.213 -12.541   6.268  1.00  0.00     0.002 C 
HETATM   14  C5  UNL     1      25.989 -12.047   7.636  1.00  0.00     0.000 C 
HETATM   15  C6  UNL     1      25.842 -13.068   8.708  1.00  0.00     0.002 C 
HETATM   16  C7  UNL     1      25.098 -14.252   8.111  1.00  0.00     0.032 C 
ENDBRANCH  10  11
ENDBRANCH   8  10
ENDBRANCH   1   8
BRANCH   7  17
HETATM   17  N1  UNL     1      22.990 -16.758   6.369  1.00  0.00    -0.326 N 
HETATM   18  C14 UNL     1      21.971 -15.941   6.935  1.00  0.00     0.226 C 
HETATM   19  O3  UNL     1      21.249 -16.198   7.910  1.00  0.00    -0.273 OA
ATOM     20  H1  UNL     1      23.488 -16.398   5.555  1.00  0.00     0.169 HD
BRANCH  18  21
HETATM   21  C15 UNL     1      21.697 -14.582   6.304  1.00  0.00     0.078 C 
HETATM   22  C16 UNL     1      21.961 -13.493   7.324  1.00  0.00     0.014 C 
HETATM   23  C17 UNL     1      22.306 -12.321   6.444  1.00  0.00     0.001 C 
HETATM   24  C18 UNL     1      22.924 -12.882   5.191  1.00  0.00     0.001 C 
HETATM   25  C19 UNL     1      22.726 -14.374   5.227  1.00  0.00     0.014 C 
ENDBRANCH  18  21
ENDBRANCH   7  17
TORSDOF 5
ENDMDL
MODEL 2
REMARK VINA RESULT: -8.973642969      1.212      1.461
REMARK  5 active torsions:
REMARK  status: ('A' for Active; 'I' for Inactive)
REMARK    1  A    between atoms: C1_2  and  O2_3 
REMARK    2  A    between atoms: C1_2  and  C8_10 
REMARK    3  A    between atoms: O2_3  and  C2_4 
REMARK    4  A    between atoms: C13_16  and  N1_17 
REMARK       I    between atoms: N1_17  and  C14_19 
REMARK    5  A    between atoms: C14_19  and  C15_21 
ROOT
HETATM    1  C8  UNL     1      24.222 -17.816   7.168  1.00  0.00     0.067 A 
HETATM    2  C9  UNL     1      24.673 -19.118   7.520  1.00  0.00     0.044 A 
HETATM    3  C10 UNL     1      23.803 -20.141   7.769  1.00  0.00     0.035 A 
HETATM    4 CL1  UNL     1      24.339 -21.746   8.200  1.00  0.00    -0.084 Cl
HETATM    5  C11 UNL     1      22.460 -19.901   7.677  1.00  0.00     0.026 A 
HETATM    6  C12 UNL     1      22.020 -18.626   7.335  1.00  0.00     0.032 A 
HETATM    7  C13 UNL     1      22.881 -17.568   7.077  1.00  0.00     0.051 A 
ENDROOT
BRANCH   1   8
HETATM    8  C1  UNL     1      25.225 -16.816   6.864  1.00  0.00     0.296 C 
HETATM    9  O1  UNL     1      26.433 -16.818   7.139  1.00  0.00    -0.259 OA
BRANCH   8  10
HETATM   10  O2  UNL     1      24.843 -15.641   6.151  1.00  0.00    -0.312 OA
BRANCH  10  11
HETATM   11  C2  UNL     1      25.472 -14.391   6.359  1.00  0.00     0.132 C 
HETATM   12  C3  UNL     1      25.309 -13.488   5.184  1.00  0.00     0.032 C 
HETATM   13  C4  UNL     1      24.854 -12.107   5.475  1.00  0.00     0.002 C 
HETATM   14  C5  UNL     1      25.165 -11.547   6.800  1.00  0.00     0.000 C 
HETATM   15  C6  UNL     1      25.643 -12.497   7.840  1.00  0.00     0.002 C 
HETATM   16  C7  UNL     1      24.901 -13.808   7.636  1.00  0.00     0.032 C 
ENDBRANCH  10  11
ENDBRANCH   8  10
ENDBRANCH   1   8
BRANCH   7  17
HETATM   17  N1  UNL     1      22.384 -16.293   6.820  1.00  0.00    -0.326 N 
HETATM   18  C14 UNL     1      21.387 -15.643   7.599  1.00  0.00     0.226 C 
HETATM   19  O3  UNL     1      20.801 -16.084   8.601  1.00  0.00    -0.273 OA
ATOM     20  H1  UNL     1      22.760 -15.790   6.017  1.00  0.00     0.169 HD
BRANCH  18  21
HETATM   21  C15 UNL     1      20.953 -14.239   7.198  1.00  0.00     0.078 C 
HETATM   22  C16 UNL     1      21.647 -13.849   5.908  1.00  0.00     0.014 C 
HETATM   23  C17 UNL     1      20.682 -12.851   5.326  1.00  0.00     0.001 C 
HETATM   24  C18 UNL     1      19.309 -13.237   5.810  1.00  0.00     0.001 C 
HETATM   25  C19 UNL     1      19.490 -14.304   6.857  1.00  0.00     0.014 C 
ENDBRANCH  18  21
ENDBRANCH   7  17
TORSDOF 5
ENDMDL
MODEL 3
REMARK VINA RESULT: -8.964606558      1.596      2.232
REMARK  5 active torsions:
REMARK  status: ('A' for Active; 'I' for Inactive)
REMARK    1  A    between atoms: C1_2  and  O2_3 
REMARK    2  A    between atoms: C1_2  and  C8_10 
REMARK    3  A    between atoms: O2_3  and  C2_4 
REMARK    4  A    between atoms: C13_16  and  N1_17 
REMARK       I    between atoms: N1_17  and  C14_19 
REMARK    5  A    between atoms: C14_19  and  C15_21 
ROOT
HETATM    1  C8  UNL     1      24.887 -16.434   6.928  1.00  0.00     0.067 A 
HETATM    2  C9  UNL     1      25.389 -17.636   7.497  1.00  0.00     0.044 A 
HETATM    3  C10 UNL     1      24.668 -18.796   7.489  1.00  0.00     0.035 A 
HETATM    4 CL1  UNL     1      25.268 -20.282   8.181  1.00  0.00    -0.084 Cl
HETATM    5  C11 UNL     1      23.425 -18.795   6.917  1.00  0.00     0.026 A 
HETATM    6  C12 UNL     1      22.934 -17.617   6.363  1.00  0.00     0.032 A 
HETATM    7  C13 UNL     1      23.645 -16.424   6.357  1.00  0.00     0.051 A 
ENDROOT
BRANCH   1   8
HETATM    8  C1  UNL     1      25.754 -15.274   6.933  1.00  0.00     0.296 C 
HETATM    9  O1  UNL     1      26.988 -15.226   6.833  1.00  0.00    -0.259 OA
BRANCH   8  10
HETATM   10  O2  UNL     1      25.180 -13.976   7.068  1.00  0.00    -0.312 OA
BRANCH  10  11
HETATM   11  C2  UNL     1      25.750 -12.829   6.467  1.00  0.00     0.132 C 
HETATM   12  C3  UNL     1      25.305 -12.666   5.054  1.00  0.00     0.032 C 
HETATM   13  C4  UNL     1      24.820 -11.319   4.669  1.00  0.00     0.002 C 
HETATM   14  C5  UNL     1      25.338 -10.163   5.418  1.00  0.00     0.000 C 
HETATM   15  C6  UNL     1      26.070 -10.449   6.681  1.00  0.00     0.002 C 
HETATM   16  C7  UNL     1      25.395 -11.641   7.339  1.00  0.00     0.032 C 
ENDBRANCH  10  11
ENDBRANCH   8  10
ENDBRANCH   1   8
BRANCH   7  17
HETATM   17  N1  UNL     1      23.071 -15.257   5.862  1.00  0.00    -0.326 N 
HETATM   18  C14 UNL     1      21.888 -14.658   6.377  1.00  0.00     0.226 C 
HETATM   19  O3  UNL     1      21.182 -15.059   7.315  1.00  0.00    -0.273 OA
ATOM     20  H1  UNL     1      23.530 -14.799   5.075  1.00  0.00     0.169 HD
BRANCH  18  21
HETATM   21  C15 UNL     1      21.388 -13.369   5.736  1.00  0.00     0.078 C 
HETATM   22  C16 UNL     1      19.880 -13.297   5.864  1.00  0.00     0.014 C 
HETATM   23  C17 UNL     1      19.637 -11.811   5.836  1.00  0.00     0.001 C 
HETATM   24  C18 UNL     1      20.863 -11.156   6.416  1.00  0.00     0.001 C 
HETATM   25  C19 UNL     1      21.911 -12.227   6.563  1.00  0.00     0.014 C 
ENDBRANCH  18  21
ENDBRANCH   7  17
TORSDOF 5
ENDMDL
MODEL 4
REMARK VINA RESULT: -8.804747671      2.614      5.602
REMARK  5 active torsions:
REMARK  status: ('A' for Active; 'I' for Inactive)
REMARK    1  A    between atoms: C1_2  and  O2_3 
REMARK    2  A    between atoms: C1_2  and  C8_10 
REMARK    3  A    between atoms: O2_3  and  C2_4 
REMARK    4  A    between atoms: C13_16  and  N1_17 
REMARK       I    between atoms: N1_17  and  C14_19 
REMARK    5  A    between atoms: C14_19  and  C15_21 
ROOT
HETATM    1  C8  UNL     1      23.639 -16.273   7.009  1.00  0.00     0.067 A 
HETATM    2  C9  UNL     1      24.719 -15.348   7.013  1.00  0.00     0.044 A 
HETATM    3  C10 UNL     1      26.022 -15.759   7.047  1.00  0.00     0.035 A 
HETATM    4 CL1  UNL     1      27.361 -14.639   7.051  1.00  0.00    -0.084 Cl
HETATM    5  C11 UNL     1      26.290 -17.100   7.081  1.00  0.00     0.026 A 
HETATM    6  C12 UNL     1      25.231 -18.003   7.080  1.00  0.00     0.032 A 
HETATM    7  C13 UNL     1      23.898 -17.614   7.045  1.00  0.00     0.051 A 
ENDROOT
BRANCH   1   8
HETATM    8  C1  UNL     1      22.297 -15.738   6.909  1.00  0.00     0.296 C 
HETATM    9  O1  UNL     1      21.250 -16.164   7.416  1.00  0.00    -0.259 OA
BRANCH   8  10
HETATM   10  O2  UNL     1      22.074 -14.559   6.138  1.00  0.00    -0.312 OA
BRANCH  10  11
HETATM   11  C2  UNL     1      21.161 -13.554   6.537  1.00  0.00     0.132 C 
HETATM   12  C3  UNL     1      21.858 -12.287   6.899  1.00  0.00     0.032 C 
HETATM   13  C4  UNL     1      21.318 -11.045   6.296  1.00  0.00     0.002 C 
HETATM   14  C5  UNL     1      19.895 -11.024   5.925  1.00  0.00     0.000 C 
HETATM   15  C6  UNL     1      19.183 -12.330   5.906  1.00  0.00     0.002 C 
HETATM   16  C7  UNL     1      20.165 -13.378   5.409  1.00  0.00     0.032 C 
ENDBRANCH  10  11
ENDBRANCH   8  10
ENDBRANCH   1   8
BRANCH   7  17
HETATM   17  N1  UNL     1      22.880 -18.559   7.129  1.00  0.00    -0.326 N 
HETATM   18  C14 UNL     1      22.969 -19.781   7.853  1.00  0.00     0.226 C 
HETATM   19  O3  UNL     1      23.936 -20.207   8.504  1.00  0.00    -0.273 OA
ATOM     20  H1  UNL     1      22.008 -18.363   6.637  1.00  0.00     0.169 HD
BRANCH  18  21
HETATM   21  C15 UNL     1      21.761 -20.709   7.861  1.00  0.00     0.078 C 
HETATM   22  C16 UNL     1      20.657 -20.089   8.693  1.00  0.00     0.014 C 
HETATM   23  C17 UNL     1      19.426 -20.704   8.083  1.00  0.00     0.001 C 
HETATM   24  C18 UNL     1      19.745 -20.980   6.637  1.00  0.00     0.001 C 
HETATM   25  C19 UNL     1      21.222 -20.753   6.458  1.00  0.00     0.014 C 
ENDBRANCH  18  21
ENDBRANCH   7  17
TORSDOF 5
ENDMDL
MODEL 5
REMARK VINA RESULT: -8.768788047      2.682      5.062
REMARK  5 active torsions:
REMARK  status: ('A' for Active; 'I' for Inactive)
REMARK    1  A    between atoms: C1_2  and  O2_3 
REMARK    2  A    between atoms: C1_2  and  C8_10 
REMARK    3  A    between atoms: O2_3  and  C2_4 
REMARK    4  A    between atoms: C13_16  and  N1_17 
REMARK       I    between atoms: N1_17  and  C14_19 
REMARK    5  A    between atoms: C14_19  and  C15_21 
ROOT
HETATM    1  C8  UNL     1      22.973 -15.307   6.308  1.00  0.00     0.067 A 
HETATM    2  C9  UNL     1      21.815 -14.488   6.203  1.00  0.00     0.044 A 
HETATM    3  C10 UNL     1      20.664 -14.774   6.882  1.00  0.00     0.035 A 
HETATM    4 CL1  UNL     1      19.233 -13.780   6.766  1.00  0.00    -0.084 Cl
HETATM    5  C11 UNL     1      20.629 -15.882   7.683  1.00  0.00     0.026 A 
HETATM    6  C12 UNL     1      21.762 -16.683   7.783  1.00  0.00     0.032 A 
HETATM    7  C13 UNL     1      22.945 -16.416   7.105  1.00  0.00     0.051 A 
ENDROOT
BRANCH   1   8
HETATM    8  C1  UNL     1      24.161 -14.884   5.597  1.00  0.00     0.296 C 
HETATM    9  O1  UNL     1      24.316 -14.702   4.382  1.00  0.00    -0.259 OA
BRANCH   8  10
HETATM   10  O2  UNL     1      25.356 -14.624   6.331  1.00  0.00    -0.312 OA
BRANCH  10  11
HETATM   11  C2  UNL     1      26.123 -13.451   6.138  1.00  0.00     0.132 C 
HETATM   12  C3  UNL     1      25.366 -12.226   6.525  1.00  0.00     0.032 C 
HETATM   13  C4  UNL     1      26.075 -11.266   7.405  1.00  0.00     0.002 C 
HETATM   14  C5  UNL     1      27.546 -11.238   7.347  1.00  0.00     0.000 C 
HETATM   15  C6  UNL     1      28.215 -12.363   6.640  1.00  0.00     0.002 C 
HETATM   16  C7  UNL     1      27.409 -13.621   6.920  1.00  0.00     0.032 C 
ENDBRANCH  10  11
ENDBRANCH   8  10
ENDBRANCH   1   8
BRANCH   7  17
HETATM   17  N1  UNL     1      24.020 -17.298   7.179  1.00  0.00    -0.326 N 
HETATM   18  C14 UNL     1      23.930 -18.701   6.957  1.00  0.00     0.226 C 
HETATM   19  O3  UNL     1      22.917 -19.361   6.680  1.00  0.00    -0.273 OA
ATOM     20  H1  UNL     1      24.935 -16.912   7.407  1.00  0.00     0.169 HD
BRANCH  18  21
HETATM   21  C15 UNL     1      25.201 -19.534   7.061  1.00  0.00     0.078 C 
HETATM   22  C16 UNL     1      26.408 -18.620   6.983  1.00  0.00     0.014 C 
HETATM   23  C17 UNL     1      27.444 -19.410   7.737  1.00  0.00     0.001 C 
HETATM   24  C18 UNL     1      26.707 -20.239   8.756  1.00  0.00     0.001 C 
HETATM   25  C19 UNL     1      25.239 -20.121   8.445  1.00  0.00     0.014 C 
ENDBRANCH  18  21
ENDBRANCH   7  17
TORSDOF 5
ENDMDL
