MODEL 1
REMARK VINA RESULT: -4.811642790      0.000      0.000
REMARK  0 active torsions:
REMARK  status: ('A' for Active; 'I' for Inactive)
ROOT
HETATM    1  O1  UNL     1      13.711   1.687  15.885  1.00  0.00    -0.064 OA
HETATM    2  N1  UNL     1      14.989   2.015  16.144  1.00  0.00     0.018 N 
HETATM    3  C1  UNL     1      15.487   3.047  15.331  1.00  0.00     0.312 C 
HETATM    4  C2  UNL     1      14.689   4.266  15.824  1.00  0.00     0.039 C 
HETATM    5  C3  UNL     1      14.095   3.822  17.173  1.00  0.00     0.044 C 
HETATM    6  C4  UNL     1      14.971   2.666  17.472  1.00  0.00     0.255 C 
HETATM    7  C5  UNL     1      14.394   1.568  18.282  1.00  0.00     0.044 C 
HETATM    8  C6  UNL     1      15.120   0.353  17.677  1.00  0.00     0.039 C 
HETATM    9  C7  UNL     1      15.829   0.910  16.430  1.00  0.00     0.312 C 
ENDROOT
TORSDOF 0
ENDMDL
MODEL 2
REMARK VINA RESULT: -4.608391227      5.689      7.181
REMARK  0 active torsions:
REMARK  status: ('A' for Active; 'I' for Inactive)
ROOT
HETATM    1  O1  UNL     1      17.106   1.686  10.194  1.00  0.00    -0.064 OA
HETATM    2  N1  UNL     1      17.646   1.511  11.413  1.00  0.00     0.018 N 
HETATM    3  C1  UNL     1      16.843   0.758  12.286  1.00  0.00     0.312 C 
HETATM    4  C2  UNL     1      16.900  -0.644  11.655  1.00  0.00     0.039 C 
HETATM    5  C3  UNL     1      18.092  -0.584  10.682  1.00  0.00     0.044 C 
HETATM    6  C4  UNL     1      18.797   0.606  11.212  1.00  0.00     0.255 C 
HETATM    7  C5  UNL     1      19.586   1.411  10.252  1.00  0.00     0.044 C 
HETATM    8  C6  UNL     1      19.402   2.822  10.841  1.00  0.00     0.039 C 
HETATM    9  C7  UNL     1      18.321   2.649  11.921  1.00  0.00     0.312 C 
ENDROOT
TORSDOF 0
ENDMDL
MODEL 3
REMARK VINA RESULT: -4.526586385      0.653      3.155
REMARK  0 active torsions:
REMARK  status: ('A' for Active; 'I' for Inactive)
ROOT
HETATM    1  O1  UNL     1      13.392   1.937  16.356  1.00  0.00    -0.064 OA
HETATM    2  N1  UNL     1      14.320   2.430  17.194  1.00  0.00     0.018 N 
HETATM    3  C1  UNL     1      14.519   1.650  18.345  1.00  0.00     0.312 C 
HETATM    4  C2  UNL     1      15.179   0.384  17.772  1.00  0.00     0.039 C 
HETATM    5  C3  UNL     1      15.639   0.790  16.359  1.00  0.00     0.044 C 
HETATM    6  C4  UNL     1      15.613   2.265  16.495  1.00  0.00     0.255 C 
HETATM    7  C5  UNL     1      15.342   3.055  15.272  1.00  0.00     0.044 C 
HETATM    8  C6  UNL     1      14.572   4.249  15.867  1.00  0.00     0.039 C 
HETATM    9  C7  UNL     1      14.298   3.841  17.325  1.00  0.00     0.312 C 
ENDROOT
TORSDOF 0
ENDMDL
MODEL 4
REMARK VINA RESULT: -4.469306946      2.172      3.380
REMARK  0 active torsions:
REMARK  status: ('A' for Active; 'I' for Inactive)
ROOT
HETATM    1  O1  UNL     1      14.185   3.848  13.873  1.00  0.00    -0.064 OA
HETATM    2  N1  UNL     1      15.347   3.518  14.464  1.00  0.00     0.018 N 
HETATM    3  C1  UNL     1      16.322   3.042  13.573  1.00  0.00     0.312 C 
HETATM    4  C2  UNL     1      16.668   4.302  12.762  1.00  0.00     0.039 C 
HETATM    5  C3  UNL     1      16.098   5.467  13.592  1.00  0.00     0.044 C 
HETATM    6  C4  UNL     1      15.945   4.797  14.904  1.00  0.00     0.255 C 
HETATM    7  C5  UNL     1      14.868   5.286  15.795  1.00  0.00     0.044 C 
HETATM    8  C6  UNL     1      14.461   3.978  16.497  1.00  0.00     0.039 C 
HETATM    9  C7  UNL     1      15.202   2.877  15.720  1.00  0.00     0.312 C 
ENDROOT
TORSDOF 0
ENDMDL
MODEL 5
REMARK VINA RESULT: -4.449987697      2.303      3.730
REMARK  0 active torsions:
REMARK  status: ('A' for Active; 'I' for Inactive)
ROOT
HETATM    1  O1  UNL     1      14.203   4.380  13.927  1.00  0.00    -0.064 OA
HETATM    2  N1  UNL     1      15.301   4.684  14.641  1.00  0.00     0.018 N 
HETATM    3  C1  UNL     1      15.024   5.288  15.878  1.00  0.00     0.312 C 
HETATM    4  C2  UNL     1      14.381   4.136  16.668  1.00  0.00     0.039 C 
HETATM    5  C3  UNL     1      14.744   2.869  15.873  1.00  0.00     0.044 C 
HETATM    6  C4  UNL     1      15.871   3.387  15.064  1.00  0.00     0.255 C 
HETATM    7  C5  UNL     1      16.098   2.767  13.739  1.00  0.00     0.044 C 
HETATM    8  C6  UNL     1      16.621   3.976  12.941  1.00  0.00     0.039 C 
HETATM    9  C7  UNL     1      16.381   5.180  13.868  1.00  0.00     0.312 C 
ENDROOT
TORSDOF 0
ENDMDL
