MODEL 1
REMARK VINA RESULT: -6.315749392      0.000      0.000
REMARK  1 active torsions:
REMARK  status: ('A' for Active; 'I' for Inactive)
REMARK    1  A    between atoms: O1_1  and  C1_3 
ROOT
HETATM    1  C1  UNL     1      15.838   0.684  16.141  1.00  0.00     0.118 C 
HETATM    2  C2  UNL     1      16.416   2.067  15.936  1.00  0.00     0.032 C 
HETATM    3  C3  UNL     1      15.645   2.894  14.961  1.00  0.00     0.002 C 
HETATM    4  C4  UNL     1      14.892   4.027  15.550  1.00  0.00     0.000 C 
HETATM    5  C5  UNL     1      14.251   3.777  16.859  1.00  0.00     0.000 C 
HETATM    6  C6  UNL     1      13.715   2.416  17.079  1.00  0.00     0.000 C 
HETATM    7  C7  UNL     1      14.592   1.697  18.073  1.00  0.00     0.002 C 
HETATM    8  C8  UNL     1      15.236   0.483  17.490  1.00  0.00     0.032 C 
ENDROOT
BRANCH   1   9
HETATM    9  O1  UNL     1      16.831  -0.314  15.992  1.00  0.00    -0.396 OA
ATOM     10  H1  UNL     1      16.919  -0.579  15.084  1.00  0.00     0.210 HD
ENDBRANCH   1   9
TORSDOF 1
ENDMDL
MODEL 2
REMARK VINA RESULT: -6.162404763      0.914      1.136
REMARK  1 active torsions:
REMARK  status: ('A' for Active; 'I' for Inactive)
REMARK    1  A    between atoms: O1_1  and  C1_3 
ROOT
HETATM    1  C1  UNL     1      15.035   0.885  16.809  1.00  0.00     0.118 C 
HETATM    2  C2  UNL     1      16.117   1.728  16.170  1.00  0.00     0.032 C 
HETATM    3  C3  UNL     1      15.696   2.363  14.887  1.00  0.00     0.002 C 
HETATM    4  C4  UNL     1      15.515   3.833  14.938  1.00  0.00     0.000 C 
HETATM    5  C5  UNL     1      14.911   4.376  16.174  1.00  0.00     0.000 C 
HETATM    6  C6  UNL     1      13.878   3.539  16.823  1.00  0.00     0.000 C 
HETATM    7  C7  UNL     1      14.442   2.960  18.096  1.00  0.00     0.002 C 
HETATM    8  C8  UNL     1      14.490   1.468  18.068  1.00  0.00     0.032 C 
ENDROOT
BRANCH   1   9
HETATM    9  O1  UNL     1      15.518  -0.404  17.139  1.00  0.00    -0.396 OA
ATOM     10  H1  UNL     1      15.190  -0.688  17.984  1.00  0.00     0.210 HD
ENDBRANCH   1   9
TORSDOF 1
ENDMDL
MODEL 3
REMARK VINA RESULT: -5.624148183      0.804      2.445
REMARK  1 active torsions:
REMARK  status: ('A' for Active; 'I' for Inactive)
REMARK    1  A    between atoms: O1_1  and  C1_3 
ROOT
HETATM    1  C1  UNL     1      16.052   1.238  16.014  1.00  0.00     0.118 C 
HETATM    2  C2  UNL     1      14.755   1.240  16.792  1.00  0.00     0.032 C 
HETATM    3  C3  UNL     1      14.827   2.016  18.066  1.00  0.00     0.002 C 
HETATM    4  C4  UNL     1      14.058   3.283  18.079  1.00  0.00     0.000 C 
HETATM    5  C5  UNL     1      14.066   4.067  16.825  1.00  0.00     0.000 C 
HETATM    6  C6  UNL     1      15.320   4.040  16.041  1.00  0.00     0.000 C 
HETATM    7  C7  UNL     1      15.104   3.220  14.794  1.00  0.00     0.002 C 
HETATM    8  C8  UNL     1      15.987   2.017  14.744  1.00  0.00     0.032 C 
ENDROOT
BRANCH   1   9
HETATM    9  O1  UNL     1      16.434  -0.077  15.658  1.00  0.00    -0.396 OA
ATOM     10  H1  UNL     1      17.375  -0.143  15.540  1.00  0.00     0.210 HD
ENDBRANCH   1   9
TORSDOF 1
ENDMDL
MODEL 4
REMARK VINA RESULT: -5.606331526      1.025      2.391
REMARK  1 active torsions:
REMARK  status: ('A' for Active; 'I' for Inactive)
REMARK    1  A    between atoms: O1_1  and  C1_3 
ROOT
HETATM    1  C1  UNL     1      15.609   0.944  16.839  1.00  0.00     0.118 C 
HETATM    2  C2  UNL     1      14.277   1.652  16.947  1.00  0.00     0.032 C 
HETATM    3  C3  UNL     1      14.350   2.948  17.684  1.00  0.00     0.002 C 
HETATM    4  C4  UNL     1      14.167   4.160  16.851  1.00  0.00     0.000 C 
HETATM    5  C5  UNL     1      14.779   4.128  15.505  1.00  0.00     0.000 C 
HETATM    6  C6  UNL     1      16.066   3.407  15.385  1.00  0.00     0.000 C 
HETATM    7  C7  UNL     1      15.840   2.121  14.631  1.00  0.00     0.002 C 
HETATM    8  C8  UNL     1      16.159   0.916  15.453  1.00  0.00     0.032 C 
ENDROOT
BRANCH   1   9
HETATM    9  O1  UNL     1      15.510  -0.404  17.258  1.00  0.00    -0.396 OA
ATOM     10  H1  UNL     1      16.369  -0.786  17.397  1.00  0.00     0.210 HD
ENDBRANCH   1   9
TORSDOF 1
ENDMDL
MODEL 5
REMARK VINA RESULT: -5.085996690      1.795      3.090
REMARK  1 active torsions:
REMARK  status: ('A' for Active; 'I' for Inactive)
REMARK    1  A    between atoms: O1_1  and  C1_3 
ROOT
HETATM    1  C1  UNL     1      15.768   3.615  15.482  1.00  0.00     0.118 C 
HETATM    2  C2  UNL     1      15.374   2.171  15.258  1.00  0.00     0.032 C 
HETATM    3  C3  UNL     1      16.097   1.213  16.144  1.00  0.00     0.002 C 
HETATM    4  C4  UNL     1      15.269   0.575  17.196  1.00  0.00     0.000 C 
HETATM    5  C5  UNL     1      14.253   1.435  17.839  1.00  0.00     0.000 C 
HETATM    6  C6  UNL     1      14.619   2.856  18.029  1.00  0.00     0.000 C 
HETATM    7  C7  UNL     1      13.822   3.702  17.069  1.00  0.00     0.002 C 
HETATM    8  C8  UNL     1      14.691   4.438  16.103  1.00  0.00     0.032 C 
ENDROOT
BRANCH   1   9
HETATM    9  O1  UNL     1      16.106   4.249  14.262  1.00  0.00    -0.396 OA
ATOM     10  H1  UNL     1      16.594   5.050  14.415  1.00  0.00     0.210 HD
ENDBRANCH   1   9
TORSDOF 1
ENDMDL
