MODEL 1
REMARK VINA RESULT: -5.383012809      0.000      0.000
REMARK  0 active torsions:
REMARK  status: ('A' for Active; 'I' for Inactive)
ROOT
HETATM    1  C1  UNL     1      13.955   3.836  17.795  1.00  0.00     0.004 C 
HETATM    2  C2  UNL     1      14.629   2.627  18.460  1.00  0.00     0.033 C 
HETATM    3  C3  UNL     1      14.133   1.425  17.724  1.00  0.00     0.186 C 
HETATM    4  C4  UNL     1      15.168   0.357  17.530  1.00  0.00     0.033 C 
HETATM    5  C5  UNL     1      16.102   0.618  16.400  1.00  0.00     0.004 C 
HETATM    6  C6  UNL     1      16.019   1.979  15.810  1.00  0.00     0.033 C 
HETATM    7  C7  UNL     1      14.657   2.572  15.762  1.00  0.00     0.186 C 
HETATM    8  C8  UNL     1      14.580   3.950  16.407  1.00  0.00     0.033 C 
HETATM    9  N1  UNL     1      13.635   1.764  16.384  1.00  0.00    -0.067 N 
ATOM     10  H11 UNL     1      12.718   2.210  16.395  1.00  0.00     0.278 HD
ATOM     11  H12 UNL     1      13.371   0.948  15.832  1.00  0.00     0.278 HD
ENDROOT
TORSDOF 0
ENDMDL
MODEL 2
REMARK VINA RESULT: -5.151312378      0.201      3.205
REMARK  0 active torsions:
REMARK  status: ('A' for Active; 'I' for Inactive)
ROOT
HETATM    1  C1  UNL     1      15.961   0.480  16.239  1.00  0.00     0.004 C 
HETATM    2  C2  UNL     1      16.092   1.994  16.013  1.00  0.00     0.033 C 
HETATM    3  C3  UNL     1      14.700   2.502  15.827  1.00  0.00     0.186 C 
HETATM    4  C4  UNL     1      14.451   3.845  16.448  1.00  0.00     0.033 C 
HETATM    5  C5  UNL     1      14.198   3.796  17.914  1.00  0.00     0.004 C 
HETATM    6  C6  UNL     1      14.466   2.485  18.561  1.00  0.00     0.033 C 
HETATM    7  C7  UNL     1      14.141   1.290  17.741  1.00  0.00     0.186 C 
HETATM    8  C8  UNL     1      15.306   0.318  17.608  1.00  0.00     0.033 C 
HETATM    9  N1  UNL     1      13.698   1.592  16.399  1.00  0.00    -0.067 N 
ATOM     10  H11 UNL     1      13.535   0.761  15.831  1.00  0.00     0.278 HD
ATOM     11  H12 UNL     1      12.747   1.960  16.360  1.00  0.00     0.278 HD
ENDROOT
TORSDOF 0
ENDMDL
MODEL 3
REMARK VINA RESULT: -4.355376299      5.940      6.774
REMARK  0 active torsions:
REMARK  status: ('A' for Active; 'I' for Inactive)
ROOT
HETATM    1  C1  UNL     1      15.769   1.588  10.922  1.00  0.00     0.004 C 
HETATM    2  C2  UNL     1      16.875   2.647  10.791  1.00  0.00     0.033 C 
HETATM    3  C3  UNL     1      17.730   2.499  12.007  1.00  0.00     0.186 C 
HETATM    4  C4  UNL     1      19.195   2.695  11.752  1.00  0.00     0.033 C 
HETATM    5  C5  UNL     1      19.873   1.502  11.175  1.00  0.00     0.004 C 
HETATM    6  C6  UNL     1      18.968   0.412  10.726  1.00  0.00     0.033 C 
HETATM    7  C7  UNL     1      17.752   0.210  11.554  1.00  0.00     0.186 C 
HETATM    8  C8  UNL     1      16.461   0.240  10.744  1.00  0.00     0.033 C 
HETATM    9  N1  UNL     1      17.592   1.171  12.621  1.00  0.00    -0.067 N 
ATOM     10  H11 UNL     1      16.725   1.055  13.144  1.00  0.00     0.278 HD
ATOM     11  H12 UNL     1      18.231   1.018  13.402  1.00  0.00     0.278 HD
ENDROOT
TORSDOF 0
ENDMDL
MODEL 4
REMARK VINA RESULT: -4.333269222      2.173      3.728
REMARK  0 active torsions:
REMARK  status: ('A' for Active; 'I' for Inactive)
ROOT
HETATM    1  C1  UNL     1      15.010   2.280  16.227  1.00  0.00     0.004 C 
HETATM    2  C2  UNL     1      16.231   2.483  15.317  1.00  0.00     0.033 C 
HETATM    3  C3  UNL     1      15.707   3.087  14.056  1.00  0.00     0.186 C 
HETATM    4  C4  UNL     1      16.609   4.122  13.452  1.00  0.00     0.033 C 
HETATM    5  C5  UNL     1      16.506   5.462  14.093  1.00  0.00     0.004 C 
HETATM    6  C6  UNL     1      15.724   5.503  15.356  1.00  0.00     0.033 C 
HETATM    7  C7  UNL     1      14.551   4.594  15.410  1.00  0.00     0.186 C 
HETATM    8  C8  UNL     1      14.555   3.680  16.630  1.00  0.00     0.033 C 
HETATM    9  N1  UNL     1      14.406   3.740  14.254  1.00  0.00    -0.067 N 
ATOM     10  H11 UNL     1      13.631   3.082  14.332  1.00  0.00     0.278 HD
ATOM     11  H12 UNL     1      14.070   4.233  13.426  1.00  0.00     0.278 HD
ENDROOT
TORSDOF 0
ENDMDL
MODEL 5
REMARK VINA RESULT: -4.283787282      2.188      3.384
REMARK  0 active torsions:
REMARK  status: ('A' for Active; 'I' for Inactive)
ROOT
HETATM    1  C1  UNL     1      16.382   5.453  13.928  1.00  0.00     0.004 C 
HETATM    2  C2  UNL     1      15.852   5.400  15.369  1.00  0.00     0.033 C 
HETATM    3  C3  UNL     1      14.588   4.607  15.312  1.00  0.00     0.186 C 
HETATM    4  C4  UNL     1      14.377   3.706  16.492  1.00  0.00     0.033 C 
HETATM    5  C5  UNL     1      15.138   2.428  16.420  1.00  0.00     0.004 C 
HETATM    6  C6  UNL     1      16.151   2.353  15.336  1.00  0.00     0.033 C 
HETATM    7  C7  UNL     1      15.782   3.035  14.069  1.00  0.00     0.186 C 
HETATM    8  C8  UNL     1      16.832   4.033  13.597  1.00  0.00     0.033 C 
HETATM    9  N1  UNL     1      14.527   3.748  14.121  1.00  0.00    -0.067 N 
ATOM     10  H11 UNL     1      14.316   4.259  13.264  1.00  0.00     0.278 HD
ATOM     11  H12 UNL     1      13.712   3.134  14.106  1.00  0.00     0.278 HD
ENDROOT
TORSDOF 0
ENDMDL
