MODEL 1
REMARK VINA RESULT: -5.280989974      0.000      0.000
REMARK  0 active torsions:
REMARK  status: ('A' for Active; 'I' for Inactive)
ROOT
HETATM    1  C1  UNL     1      14.208   3.657  17.158  1.00  0.00     0.001 C 
HETATM    2  C2  UNL     1      14.749   4.312  15.960  1.00  0.00     0.005 C 
HETATM    3  C3  UNL     1      14.884   3.509  14.725  1.00  0.00     0.044 C 
HETATM    4  C4  UNL     1      16.286   2.928  14.533  1.00  0.00     0.060 C 
HETATM    5  N1  UNL     1      16.703   2.060  15.541  1.00  0.00    -0.382 N 
ATOM      6  H1  UNL     1      17.625   2.165  15.964  1.00  0.00     0.163 HD
HETATM    7  C5  UNL     1      15.833   1.039  15.966  1.00  0.00     0.060 C 
HETATM    8  C6  UNL     1      15.239   1.393  17.294  1.00  0.00     0.044 C 
HETATM    9  C7  UNL     1      13.973   2.194  17.096  1.00  0.00     0.005 C 
ENDROOT
TORSDOF 0
ENDMDL
MODEL 2
REMARK VINA RESULT: -4.881253623      1.131      2.553
REMARK  0 active torsions:
REMARK  status: ('A' for Active; 'I' for Inactive)
ROOT
HETATM    1  C1  UNL     1      14.218   1.417  17.812  1.00  0.00     0.001 C 
HETATM    2  C2  UNL     1      15.041   0.754  16.793  1.00  0.00     0.005 C 
HETATM    3  C3  UNL     1      16.214   1.481  16.260  1.00  0.00     0.044 C 
HETATM    4  C4  UNL     1      15.924   2.218  14.951  1.00  0.00     0.060 C 
HETATM    5  N1  UNL     1      14.936   3.197  15.036  1.00  0.00    -0.382 N 
ATOM      6  H1  UNL     1      14.186   3.237  14.346  1.00  0.00     0.163 HD
HETATM    7  C5  UNL     1      14.987   4.129  16.090  1.00  0.00     0.060 C 
HETATM    8  C6  UNL     1      13.952   3.795  17.119  1.00  0.00     0.044 C 
HETATM    9  C7  UNL     1      14.525   2.832  18.133  1.00  0.00     0.005 C 
ENDROOT
TORSDOF 0
ENDMDL
MODEL 3
REMARK VINA RESULT: -4.821944260      1.437      3.374
REMARK  0 active torsions:
REMARK  status: ('A' for Active; 'I' for Inactive)
ROOT
HETATM    1  C1  UNL     1      16.073   2.273  15.268  1.00  0.00     0.001 C 
HETATM    2  C2  UNL     1      15.933   1.213  16.274  1.00  0.00     0.005 C 
HETATM    3  C3  UNL     1      14.609   1.018  16.904  1.00  0.00     0.044 C 
HETATM    4  C4  UNL     1      14.469   1.738  18.247  1.00  0.00     0.060 C 
HETATM    5  N1  UNL     1      14.608   3.123  18.186  1.00  0.00    -0.382 N 
ATOM      6  H1  UNL     1      15.214   3.611  18.845  1.00  0.00     0.163 HD
HETATM    7  C5  UNL     1      13.899   3.838  17.202  1.00  0.00     0.060 C 
HETATM    8  C6  UNL     1      14.831   4.262  16.109  1.00  0.00     0.044 C 
HETATM    9  C7  UNL     1      14.919   3.180  15.057  1.00  0.00     0.005 C 
ENDROOT
TORSDOF 0
ENDMDL
MODEL 4
REMARK VINA RESULT: -4.573581945      1.101      1.283
REMARK  0 active torsions:
REMARK  status: ('A' for Active; 'I' for Inactive)
ROOT
HETATM    1  C1  UNL     1      14.463   3.883  16.910  1.00  0.00     0.001 C 
HETATM    2  C2  UNL     1      14.741   4.989  15.985  1.00  0.00     0.005 C 
HETATM    3  C3  UNL     1      14.722   4.707  14.533  1.00  0.00     0.044 C 
HETATM    4  C4  UNL     1      16.110   4.424  13.955  1.00  0.00     0.060 C 
HETATM    5  N1  UNL     1      16.757   3.317  14.501  1.00  0.00    -0.382 N 
ATOM      6  H1  UNL     1      17.728   3.384  14.807  1.00  0.00     0.163 HD
HETATM    7  C5  UNL     1      16.051   2.105  14.623  1.00  0.00     0.060 C 
HETATM    8  C6  UNL     1      15.669   1.879  16.053  1.00  0.00     0.044 C 
HETATM    9  C7  UNL     1      14.331   2.522  16.337  1.00  0.00     0.005 C 
ENDROOT
TORSDOF 0
ENDMDL
MODEL 5
REMARK VINA RESULT: -4.554917541      0.773      2.568
REMARK  0 active torsions:
REMARK  status: ('A' for Active; 'I' for Inactive)
ROOT
HETATM    1  C1  UNL     1      13.521   2.262  16.816  1.00  0.00     0.001 C 
HETATM    2  C2  UNL     1      14.141   0.957  17.075  1.00  0.00     0.005 C 
HETATM    3  C3  UNL     1      15.611   0.901  17.235  1.00  0.00     0.044 C 
HETATM    4  C4  UNL     1      16.344   0.528  15.946  1.00  0.00     0.060 C 
HETATM    5  N1  UNL     1      16.159   1.416  14.888  1.00  0.00    -0.382 N 
ATOM      6  H1  UNL     1      15.919   1.071  13.959  1.00  0.00     0.163 HD
HETATM    7  C5  UNL     1      16.307   2.796  15.122  1.00  0.00     0.060 C 
HETATM    8  C6  UNL     1      14.962   3.453  15.169  1.00  0.00     0.044 C 
HETATM    9  C7  UNL     1      14.420   3.418  16.580  1.00  0.00     0.005 C 
ENDROOT
TORSDOF 0
ENDMDL
