MODEL 1
REMARK VINA RESULT: -5.216767759      0.000      0.000
REMARK  1 active torsions:
REMARK  status: ('A' for Active; 'I' for Inactive)
REMARK    1  A    between atoms: N1_1  and  C1_5 
ROOT
HETATM    1  C1  UNL     1      15.939   1.250  16.435  1.00  0.00     0.183 C 
HETATM    2  C2  UNL     1      14.785   0.662  17.173  1.00  0.00     0.033 C 
HETATM    3  C3  UNL     1      14.009   1.604  18.007  1.00  0.00     0.002 C 
HETATM    4  C4  UNL     1      14.502   3.013  18.018  1.00  0.00     0.000 C 
HETATM    5  C5  UNL     1      14.314   3.756  16.746  1.00  0.00     0.000 C 
HETATM    6  C6  UNL     1      15.381   3.503  15.716  1.00  0.00     0.002 C 
HETATM    7  C7  UNL     1      15.369   2.065  15.271  1.00  0.00     0.033 C 
ENDROOT
BRANCH   1   8
HETATM    8  N1  UNL     1      16.773   0.225  15.875  1.00  0.00    -0.075 N 
ATOM      9  H13 UNL     1      17.512  -0.052  16.521  1.00  0.00     0.274 HD
ATOM     10  H12 UNL     1      16.280  -0.666  15.810  1.00  0.00     0.274 HD
ATOM     11  H11 UNL     1      17.152   0.511  14.971  1.00  0.00     0.274 HD
ENDBRANCH   1   8
TORSDOF 1
ENDMDL
MODEL 2
REMARK VINA RESULT: -5.148342559      1.318      2.536
REMARK  1 active torsions:
REMARK  status: ('A' for Active; 'I' for Inactive)
REMARK    1  A    between atoms: N1_1  and  C1_5 
ROOT
HETATM    1  C1  UNL     1      14.617   1.626  16.738  1.00  0.00     0.183 C 
HETATM    2  C2  UNL     1      15.905   1.589  15.988  1.00  0.00     0.033 C 
HETATM    3  C3  UNL     1      16.102   2.669  14.998  1.00  0.00     0.002 C 
HETATM    4  C4  UNL     1      14.973   3.637  14.866  1.00  0.00     0.000 C 
HETATM    5  C5  UNL     1      14.777   4.539  16.030  1.00  0.00     0.000 C 
HETATM    6  C6  UNL     1      13.986   3.934  17.157  1.00  0.00     0.002 C 
HETATM    7  C7  UNL     1      14.716   2.763  17.758  1.00  0.00     0.033 C 
ENDROOT
BRANCH   1   8
HETATM    8  N1  UNL     1      14.409   0.408  17.470  1.00  0.00    -0.075 N 
ATOM      9  H13 UNL     1      14.086  -0.344  16.862  1.00  0.00     0.274 HD
ATOM     10  H12 UNL     1      15.292  -0.004  17.773  1.00  0.00     0.274 HD
ATOM     11  H11 UNL     1      13.775   0.555  18.256  1.00  0.00     0.274 HD
ENDBRANCH   1   8
TORSDOF 1
ENDMDL
MODEL 3
REMARK VINA RESULT: -5.011903381      1.112      1.371
REMARK  1 active torsions:
REMARK  status: ('A' for Active; 'I' for Inactive)
REMARK    1  A    between atoms: N1_1  and  C1_5 
ROOT
HETATM    1  C1  UNL     1      15.941   2.509  15.602  1.00  0.00     0.183 C 
HETATM    2  C2  UNL     1      15.213   1.305  16.095  1.00  0.00     0.033 C 
HETATM    3  C3  UNL     1      14.510   1.465  17.386  1.00  0.00     0.002 C 
HETATM    4  C4  UNL     1      14.645   2.804  18.033  1.00  0.00     0.000 C 
HETATM    5  C5  UNL     1      13.936   3.911  17.342  1.00  0.00     0.000 C 
HETATM    6  C6  UNL     1      14.695   4.510  16.189  1.00  0.00     0.002 C 
HETATM    7  C7  UNL     1      14.891   3.499  15.091  1.00  0.00     0.033 C 
ENDROOT
BRANCH   1   8
HETATM    8  N1  UNL     1      16.795   2.180  14.496  1.00  0.00    -0.075 N 
ATOM      9  H13 UNL     1      17.764   2.058  14.793  1.00  0.00     0.274 HD
ATOM     10  H12 UNL     1      16.618   1.236  14.152  1.00  0.00     0.274 HD
ATOM     11  H11 UNL     1      16.716   2.872  13.750  1.00  0.00     0.274 HD
ENDBRANCH   1   8
TORSDOF 1
ENDMDL
MODEL 4
REMARK VINA RESULT: -4.798235220      1.853      2.789
REMARK  1 active torsions:
REMARK  status: ('A' for Active; 'I' for Inactive)
REMARK    1  A    between atoms: N1_1  and  C1_5 
ROOT
HETATM    1  C1  UNL     1      14.692   3.298  15.336  1.00  0.00     0.183 C 
HETATM    2  C2  UNL     1      14.474   3.867  16.696  1.00  0.00     0.033 C 
HETATM    3  C3  UNL     1      14.271   2.881  17.779  1.00  0.00     0.002 C 
HETATM    4  C4  UNL     1      14.286   1.448  17.358  1.00  0.00     0.000 C 
HETATM    5  C5  UNL     1      15.613   0.930  16.936  1.00  0.00     0.000 C 
HETATM    6  C6  UNL     1      15.975   1.242  15.510  1.00  0.00     0.002 C 
HETATM    7  C7  UNL     1      16.112   2.727  15.302  1.00  0.00     0.033 C 
ENDROOT
BRANCH   1   8
HETATM    8  N1  UNL     1      14.615   4.319  14.329  1.00  0.00    -0.075 N 
ATOM      9  H13 UNL     1      15.479   4.858  14.275  1.00  0.00     0.274 HD
ATOM     10  H12 UNL     1      14.620   3.921  13.389  1.00  0.00     0.274 HD
ATOM     11  H11 UNL     1      13.805   4.922  14.477  1.00  0.00     0.274 HD
ENDBRANCH   1   8
TORSDOF 1
ENDMDL
MODEL 5
REMARK VINA RESULT: -4.741269612      1.073      2.433
REMARK  1 active torsions:
REMARK  status: ('A' for Active; 'I' for Inactive)
REMARK    1  A    between atoms: N1_1  and  C1_5 
ROOT
HETATM    1  C1  UNL     1      15.679   1.993  15.108  1.00  0.00     0.183 C 
HETATM    2  C2  UNL     1      15.559   3.437  15.460  1.00  0.00     0.033 C 
HETATM    3  C3  UNL     1      14.534   3.767  16.472  1.00  0.00     0.002 C 
HETATM    4  C4  UNL     1      13.740   2.613  16.987  1.00  0.00     0.000 C 
HETATM    5  C5  UNL     1      14.494   1.664  17.847  1.00  0.00     0.000 C 
HETATM    6  C6  UNL     1      15.291   0.639  17.087  1.00  0.00     0.002 C 
HETATM    7  C7  UNL     1      16.378   1.295  16.277  1.00  0.00     0.033 C 
ENDROOT
BRANCH   1   8
HETATM    8  N1  UNL     1      16.501   1.810  13.945  1.00  0.00    -0.075 N 
ATOM      9  H13 UNL     1      15.961   1.908  13.085  1.00  0.00     0.274 HD
ATOM     10  H12 UNL     1      17.145   2.590  13.813  1.00  0.00     0.274 HD
ATOM     11  H11 UNL     1      16.994   0.917  13.979  1.00  0.00     0.274 HD
ENDBRANCH   1   8
TORSDOF 1
ENDMDL
