MODEL 1
REMARK VINA RESULT: -7.279632819      0.000      0.000
REMARK  2 active torsions:
REMARK  status: ('A' for Active; 'I' for Inactive)
REMARK    1  A    between atoms: C1_2  and  C2_4 
REMARK    2  A    between atoms: C3_5  and  C4_6 
ROOT
HETATM    1  C2  UNL     1     -44.361 -45.960  29.150  1.00  0.00     0.105 C 
HETATM    2  C3  UNL     1     -45.056 -47.088  28.859  1.00  0.00     0.019 C 
HETATM    3  C8  UNL     1     -44.550 -48.163  28.121  1.00  0.00     0.101 C 
HETATM    4  N1  UNL     1     -43.320 -48.740  28.263  1.00  0.00    -0.373 N 
ATOM      5  H1  UNL     1     -43.245 -49.743  28.091  1.00  0.00     0.164 HD
HETATM    6  C9  UNL     1     -42.181 -48.070  28.618  1.00  0.00     0.115 C 
HETATM    7  C10 UNL     1     -41.979 -46.714  28.800  1.00  0.00     0.100 C 
HETATM    8 CL3  UNL     1     -40.319 -46.159  28.739  1.00  0.00    -0.079 Cl
HETATM    9  C11 UNL     1     -42.949 -45.764  29.022  1.00  0.00     0.212 C 
HETATM   10  O3  UNL     1     -42.561 -44.578  29.126  1.00  0.00    -0.285 OA
ENDROOT
BRANCH   2  11
HETATM   11  C4  UNL     1     -46.436 -47.202  29.285  1.00  0.00     0.041 A 
HETATM   12  S1  UNL     1     -47.890 -47.194  28.360  1.00  0.00    -0.075 SA
HETATM   13  C5  UNL     1     -49.041 -47.307  29.591  1.00  0.00     0.077 A 
HETATM   14 CL1  UNL     1     -50.785 -47.355  29.431  1.00  0.00    -0.076 Cl
HETATM   15  C6  UNL     1     -48.272 -47.348  30.708  1.00  0.00     0.056 A 
HETATM   16  C7  UNL     1     -46.940 -47.296  30.576  1.00  0.00     0.054 A 
HETATM   17 CL2  UNL     1     -45.816 -47.292  31.978  1.00  0.00    -0.083 Cl
ENDBRANCH   2  11
BRANCH   1  18
HETATM   18  C1  UNL     1     -45.056 -44.807  29.665  1.00  0.00     0.214 C 
HETATM   19  O1  UNL     1     -45.773 -44.019  28.983  1.00  0.00    -0.644 OA
HETATM   20  O2  UNL     1     -44.919 -44.530  31.040  1.00  0.00    -0.644 OA
ENDBRANCH   1  18
TORSDOF 2
ENDMDL
MODEL 2
REMARK VINA RESULT: -7.170402817      2.480      3.013
REMARK  2 active torsions:
REMARK  status: ('A' for Active; 'I' for Inactive)
REMARK    1  A    between atoms: C1_2  and  C2_4 
REMARK    2  A    between atoms: C3_5  and  C4_6 
ROOT
HETATM    1  C2  UNL     1     -43.209 -47.501  28.785  1.00  0.00     0.105 C 
HETATM    2  C3  UNL     1     -44.013 -46.576  29.367  1.00  0.00     0.019 C 
HETATM    3  C8  UNL     1     -43.573 -45.352  29.881  1.00  0.00     0.101 C 
HETATM    4  N1  UNL     1     -42.703 -44.484  29.283  1.00  0.00    -0.373 N 
ATOM      5  H1  UNL     1     -42.843 -43.487  29.446  1.00  0.00     0.164 HD
HETATM    6  C9  UNL     1     -41.658 -44.856  28.482  1.00  0.00     0.115 C 
HETATM    7  C10 UNL     1     -41.182 -46.121  28.188  1.00  0.00     0.100 C 
HETATM    8 CL3  UNL     1     -39.547 -46.214  27.567  1.00  0.00    -0.079 Cl
HETATM    9  C11 UNL     1     -41.864 -47.307  28.336  1.00  0.00     0.212 C 
HETATM   10  O3  UNL     1     -41.240 -48.354  28.045  1.00  0.00    -0.285 OA
ENDROOT
BRANCH   2  11
HETATM   11  C4  UNL     1     -45.425 -46.862  29.527  1.00  0.00     0.041 A 
HETATM   12  S1  UNL     1     -46.639 -47.172  28.345  1.00  0.00    -0.075 SA
HETATM   13  C5  UNL     1     -47.998 -47.342  29.333  1.00  0.00     0.077 A 
HETATM   14 CL1  UNL     1     -49.646 -47.678  28.844  1.00  0.00    -0.076 Cl
HETATM   15  C6  UNL     1     -47.483 -47.154  30.574  1.00  0.00     0.056 A 
HETATM   16  C7  UNL     1     -46.172 -46.908  30.697  1.00  0.00     0.054 A 
HETATM   17 CL2  UNL     1     -45.380 -46.592  32.279  1.00  0.00    -0.083 Cl
ENDBRANCH   2  11
BRANCH   1  18
HETATM   18  C1  UNL     1     -43.708 -48.831  28.548  1.00  0.00     0.214 C 
HETATM   19  O1  UNL     1     -43.756 -49.760  29.406  1.00  0.00    -0.644 OA
HETATM   20  O2  UNL     1     -44.173 -49.126  27.251  1.00  0.00    -0.644 OA
ENDBRANCH   1  18
TORSDOF 2
ENDMDL
MODEL 3
REMARK VINA RESULT: -6.837102141      3.435      5.052
REMARK  2 active torsions:
REMARK  status: ('A' for Active; 'I' for Inactive)
REMARK    1  A    between atoms: C1_2  and  C2_4 
REMARK    2  A    between atoms: C3_5  and  C4_6 
ROOT
HETATM    1  C2  UNL     1     -44.393 -46.961  28.860  1.00  0.00     0.105 C 
HETATM    2  C3  UNL     1     -43.199 -47.463  28.456  1.00  0.00     0.019 C 
HETATM    3  C8  UNL     1     -42.046 -46.699  28.248  1.00  0.00     0.101 C 
HETATM    4  N1  UNL     1     -41.561 -45.720  29.069  1.00  0.00    -0.373 N 
ATOM      5  H1  UNL     1     -40.548 -45.606  29.123  1.00  0.00     0.164 HD
HETATM    6  C9  UNL     1     -42.335 -44.880  29.823  1.00  0.00     0.115 C 
HETATM    7  C10 UNL     1     -43.711 -44.744  29.856  1.00  0.00     0.100 C 
HETATM    8 CL3  UNL     1     -44.331 -43.251  30.528  1.00  0.00    -0.079 Cl
HETATM    9  C11 UNL     1     -44.635 -45.663  29.413  1.00  0.00     0.212 C 
HETATM   10  O3  UNL     1     -45.841 -45.334  29.498  1.00  0.00    -0.285 OA
ENDROOT
BRANCH   2  11
HETATM   11  C4  UNL     1     -43.087 -48.877  28.160  1.00  0.00     0.041 A 
HETATM   12  S1  UNL     1     -42.737 -50.206  29.199  1.00  0.00    -0.075 SA
HETATM   13  C5  UNL     1     -42.727 -51.476  28.086  1.00  0.00     0.077 A 
HETATM   14 CL1  UNL     1     -42.437 -53.176  28.396  1.00  0.00    -0.076 Cl
HETATM   15  C6  UNL     1     -42.997 -50.843  26.917  1.00  0.00     0.056 A 
HETATM   16  C7  UNL     1     -43.184 -49.516  26.931  1.00  0.00     0.054 A 
HETATM   17 CL2  UNL     1     -43.499 -48.556  25.445  1.00  0.00    -0.083 Cl
ENDBRANCH   2  11
BRANCH   1  18
HETATM   18  C1  UNL     1     -45.577 -47.777  28.771  1.00  0.00     0.214 C 
HETATM   19  O1  UNL     1     -46.326 -47.873  27.756  1.00  0.00    -0.644 OA
HETATM   20  O2  UNL     1     -45.936 -48.524  29.911  1.00  0.00    -0.644 OA
ENDBRANCH   1  18
TORSDOF 2
ENDMDL
MODEL 4
REMARK VINA RESULT: -6.679796055      3.352      4.817
REMARK  2 active torsions:
REMARK  status: ('A' for Active; 'I' for Inactive)
REMARK    1  A    between atoms: C1_2  and  C2_4 
REMARK    2  A    between atoms: C3_5  and  C4_6 
ROOT
HETATM    1  C2  UNL     1     -44.518 -46.856  28.556  1.00  0.00     0.105 C 
HETATM    2  C3  UNL     1     -43.425 -47.177  27.819  1.00  0.00     0.019 C 
HETATM    3  C8  UNL     1     -42.405 -46.282  27.481  1.00  0.00     0.101 C 
HETATM    4  N1  UNL     1     -41.802 -45.382  28.314  1.00  0.00    -0.373 N 
ATOM      5  H1  UNL     1     -40.815 -45.178  28.156  1.00  0.00     0.164 HD
HETATM    6  C9  UNL     1     -42.428 -44.734  29.344  1.00  0.00     0.115 C 
HETATM    7  C10 UNL     1     -43.762 -44.740  29.706  1.00  0.00     0.100 C 
HETATM    8 CL3  UNL     1     -44.300 -43.421  30.725  1.00  0.00    -0.079 Cl
HETATM    9  C11 UNL     1     -44.705 -45.675  29.344  1.00  0.00     0.212 C 
HETATM   10  O3  UNL     1     -45.874 -45.481  29.749  1.00  0.00    -0.285 OA
ENDROOT
BRANCH   2  11
HETATM   11  C4  UNL     1     -43.295 -48.520  27.289  1.00  0.00     0.041 A 
HETATM   12  S1  UNL     1     -43.749 -49.158  25.755  1.00  0.00    -0.075 SA
HETATM   13  C5  UNL     1     -43.325 -50.780  25.957  1.00  0.00     0.077 A 
HETATM   14 CL1  UNL     1     -43.490 -52.086  24.800  1.00  0.00    -0.076 Cl
HETATM   15  C6  UNL     1     -42.834 -50.800  27.221  1.00  0.00     0.056 A 
HETATM   16  C7  UNL     1     -42.810 -49.657  27.920  1.00  0.00     0.054 A 
HETATM   17 CL2  UNL     1     -42.232 -49.562  29.619  1.00  0.00    -0.083 Cl
ENDBRANCH   2  11
BRANCH   1  18
HETATM   18  C1  UNL     1     -45.635 -47.764  28.608  1.00  0.00     0.214 C 
HETATM   19  O1  UNL     1     -46.575 -47.818  27.764  1.00  0.00    -0.644 OA
HETATM   20  O2  UNL     1     -45.689 -48.660  29.694  1.00  0.00    -0.644 OA
ENDBRANCH   1  18
TORSDOF 2
ENDMDL
MODEL 5
REMARK VINA RESULT: -6.658188832      3.321      5.154
REMARK  2 active torsions:
REMARK  status: ('A' for Active; 'I' for Inactive)
REMARK    1  A    between atoms: C1_2  and  C2_4 
REMARK    2  A    between atoms: C3_5  and  C4_6 
ROOT
HETATM    1  C2  UNL     1     -43.097 -46.953  28.514  1.00  0.00     0.105 C 
HETATM    2  C3  UNL     1     -43.940 -48.001  28.331  1.00  0.00     0.019 C 
HETATM    3  C8  UNL     1     -45.183 -48.137  28.956  1.00  0.00     0.101 C 
HETATM    4  N1  UNL     1     -46.133 -47.165  29.099  1.00  0.00    -0.373 N 
ATOM      5  H1  UNL     1     -47.112 -47.452  29.077  1.00  0.00     0.164 HD
HETATM    6  C9  UNL     1     -45.866 -45.834  29.270  1.00  0.00     0.115 C 
HETATM    7  C10 UNL     1     -44.651 -45.195  29.443  1.00  0.00     0.100 C 
HETATM    8 CL3  UNL     1     -44.707 -43.590  30.142  1.00  0.00    -0.079 Cl
HETATM    9  C11 UNL     1     -43.410 -45.696  29.122  1.00  0.00     0.212 C 
HETATM   10  O3  UNL     1     -42.425 -44.971  29.392  1.00  0.00    -0.285 OA
ENDROOT
BRANCH   2  11
HETATM   11  C4  UNL     1     -43.535 -49.097  27.473  1.00  0.00     0.041 A 
HETATM   12  S1  UNL     1     -43.725 -49.308  25.774  1.00  0.00    -0.075 SA
HETATM   13  C5  UNL     1     -43.054 -50.845  25.577  1.00  0.00     0.077 A 
HETATM   14 CL1  UNL     1     -42.884 -51.761  24.093  1.00  0.00    -0.076 Cl
HETATM   15  C6  UNL     1     -42.692 -51.172  26.842  1.00  0.00     0.056 A 
HETATM   16  C7  UNL     1     -42.928 -50.294  27.827  1.00  0.00     0.054 A 
HETATM   17 CL2  UNL     1     -42.541 -50.629  29.550  1.00  0.00    -0.083 Cl
ENDBRANCH   2  11
BRANCH   1  18
HETATM   18  C1  UNL     1     -41.736 -47.044  28.051  1.00  0.00     0.214 C 
HETATM   19  O1  UNL     1     -40.783 -47.587  28.680  1.00  0.00    -0.644 OA
HETATM   20  O2  UNL     1     -41.439 -46.472  26.798  1.00  0.00    -0.644 OA
ENDBRANCH   1  18
TORSDOF 2
ENDMDL
