MODEL 1
REMARK VINA RESULT: -8.508855315      0.000      0.000
REMARK  4 active torsions:
REMARK  status: ('A' for Active; 'I' for Inactive)
REMARK    1  A    between atoms: O1_2  and  C2_3 
REMARK    2  A    between atoms: C2_3  and  C3_5 
REMARK    3  A    between atoms: C5_9  and  N2_10 
REMARK    4  A    between atoms: N2_10  and  C6_12 
ROOT
HETATM    1  N2  UNL     1     -51.123 -48.295  30.151  1.00  0.00    -0.335 N 
ATOM      2  H2  UNL     1     -51.513 -49.159  29.775  1.00  0.00     0.168 HD
ENDROOT
BRANCH   1   3
HETATM    3  C5  UNL     1     -51.857 -47.538  30.942  1.00  0.00     0.149 A 
HETATM    4  N1  UNL     1     -51.862 -46.207  31.021  1.00  0.00    -0.345 N 
HETATM    5  C4  UNL     1     -52.662 -45.636  31.868  1.00  0.00     0.115 A 
ATOM      6  H1  UNL     1     -51.249 -45.649  30.427  1.00  0.00     0.167 HD
HETATM    7  C3  UNL     1     -53.464 -46.431  32.641  1.00  0.00     0.099 A 
HETATM    8  S1  UNL     1     -53.023 -47.989  32.105  1.00  0.00    -0.046 SA
BRANCH   7   9
HETATM    9  C2  UNL     1     -54.439 -46.037  33.658  1.00  0.00     0.301 C 
HETATM   10  O2  UNL     1     -55.020 -46.924  34.328  1.00  0.00    -0.259 OA
BRANCH   9  11
HETATM   11  O1  UNL     1     -54.752 -44.719  33.912  1.00  0.00    -0.322 OA
HETATM   12  C1  UNL     1     -56.031 -44.219  34.126  1.00  0.00     0.213 C 
ENDBRANCH   9  11
ENDBRANCH   7   9
ENDBRANCH   1   3
BRANCH   1  13
HETATM   13  C6  UNL     1     -49.803 -47.925  29.819  1.00  0.00     0.057 A 
HETATM   14  C7  UNL     1     -48.788 -48.000  30.743  1.00  0.00     0.057 A 
HETATM   15  C8  UNL     1     -47.518 -47.617  30.335  1.00  0.00     0.058 A 
HETATM   16 CL1  UNL     1     -46.214 -47.708  31.506  1.00  0.00    -0.082 Cl
HETATM   17  C9  UNL     1     -47.262 -47.175  29.051  1.00  0.00     0.057 A 
HETATM   18 CL2  UNL     1     -45.633 -46.695  28.564  1.00  0.00    -0.082 Cl
HETATM   19  C10 UNL     1     -48.284 -47.103  28.135  1.00  0.00     0.051 A 
HETATM   20  C11 UNL     1     -49.550 -47.483  28.538  1.00  0.00     0.062 A 
HETATM   21 CL3  UNL     1     -50.827 -47.381  27.346  1.00  0.00    -0.082 Cl
ENDBRANCH   1  13
TORSDOF 4
ENDMDL
MODEL 2
REMARK VINA RESULT: -8.314178415      0.581      1.096
REMARK  4 active torsions:
REMARK  status: ('A' for Active; 'I' for Inactive)
REMARK    1  A    between atoms: O1_2  and  C2_3 
REMARK    2  A    between atoms: C2_3  and  C3_5 
REMARK    3  A    between atoms: C5_9  and  N2_10 
REMARK    4  A    between atoms: N2_10  and  C6_12 
ROOT
HETATM    1  N2  UNL     1     -51.068 -48.299  30.128  1.00  0.00    -0.335 N 
ATOM      2  H2  UNL     1     -51.451 -49.165  29.749  1.00  0.00     0.168 HD
ENDROOT
BRANCH   1   3
HETATM    3  C5  UNL     1     -51.813 -47.546  30.914  1.00  0.00     0.149 A 
HETATM    4  N1  UNL     1     -51.854 -46.214  30.965  1.00  0.00    -0.345 N 
HETATM    5  C4  UNL     1     -52.658 -45.647  31.811  1.00  0.00     0.115 A 
ATOM      6  H1  UNL     1     -51.265 -45.652  30.351  1.00  0.00     0.167 HD
HETATM    7  C3  UNL     1     -53.426 -46.447  32.611  1.00  0.00     0.099 A 
HETATM    8  S1  UNL     1     -52.950 -48.004  32.102  1.00  0.00    -0.046 SA
BRANCH   7   9
HETATM    9  C2  UNL     1     -54.399 -46.059  33.633  1.00  0.00     0.301 C 
HETATM   10  O2  UNL     1     -54.659 -44.845  33.805  1.00  0.00    -0.259 OA
BRANCH   9  11
HETATM   11  O1  UNL     1     -55.047 -46.982  34.426  1.00  0.00    -0.322 OA
HETATM   12  C1  UNL     1     -56.133 -47.759  34.038  1.00  0.00     0.213 C 
ENDBRANCH   9  11
ENDBRANCH   7   9
ENDBRANCH   1   3
BRANCH   1  13
HETATM   13  C6  UNL     1     -49.748 -47.923  29.807  1.00  0.00     0.057 A 
HETATM   14  C7  UNL     1     -48.742 -47.979  30.742  1.00  0.00     0.057 A 
HETATM   15  C8  UNL     1     -47.471 -47.591  30.344  1.00  0.00     0.058 A 
HETATM   16 CL1  UNL     1     -46.179 -47.659  31.531  1.00  0.00    -0.082 Cl
HETATM   17  C9  UNL     1     -47.204 -47.160  29.059  1.00  0.00     0.057 A 
HETATM   18 CL2  UNL     1     -45.574 -46.672  28.585  1.00  0.00    -0.082 Cl
HETATM   19  C10 UNL     1     -48.216 -47.106  28.131  1.00  0.00     0.051 A 
HETATM   20  C11 UNL     1     -49.484 -47.492  28.524  1.00  0.00     0.062 A 
HETATM   21 CL3  UNL     1     -50.749 -47.412  27.317  1.00  0.00    -0.082 Cl
ENDBRANCH   1  13
TORSDOF 4
ENDMDL
MODEL 3
REMARK VINA RESULT: -7.842960382      1.465      1.561
REMARK  4 active torsions:
REMARK  status: ('A' for Active; 'I' for Inactive)
REMARK    1  A    between atoms: O1_2  and  C2_3 
REMARK    2  A    between atoms: C2_3  and  C3_5 
REMARK    3  A    between atoms: C5_9  and  N2_10 
REMARK    4  A    between atoms: N2_10  and  C6_12 
ROOT
HETATM    1  N2  UNL     1     -50.098 -48.669  30.356  1.00  0.00    -0.335 N 
ATOM      2  H2  UNL     1     -50.118 -49.661  30.118  1.00  0.00     0.168 HD
ENDROOT
BRANCH   1   3
HETATM    3  C5  UNL     1     -51.157 -48.111  30.909  1.00  0.00     0.149 A 
HETATM    4  N1  UNL     1     -52.071 -48.692  31.688  1.00  0.00    -0.345 N 
HETATM    5  C4  UNL     1     -53.051 -47.973  32.142  1.00  0.00     0.115 A 
ATOM      6  H1  UNL     1     -52.001 -49.683  31.921  1.00  0.00     0.167 HD
HETATM    7  C3  UNL     1     -53.098 -46.650  31.799  1.00  0.00     0.099 A 
HETATM    8  S1  UNL     1     -51.707 -46.497  30.821  1.00  0.00    -0.046 SA
BRANCH   7   9
HETATM    9  C2  UNL     1     -54.085 -45.639  32.175  1.00  0.00     0.301 C 
HETATM   10  O2  UNL     1     -55.305 -45.879  32.010  1.00  0.00    -0.259 OA
BRANCH   9  11
HETATM   11  O1  UNL     1     -53.729 -44.419  32.708  1.00  0.00    -0.322 OA
HETATM   12  C1  UNL     1     -54.525 -43.634  33.536  1.00  0.00     0.213 C 
ENDBRANCH   9  11
ENDBRANCH   7   9
ENDBRANCH   1   3
BRANCH   1  13
HETATM   13  C6  UNL     1     -48.939 -47.912  30.090  1.00  0.00     0.057 A 
HETATM   14  C7  UNL     1     -48.070 -47.561  31.096  1.00  0.00     0.057 A 
HETATM   15  C8  UNL     1     -46.953 -46.814  30.749  1.00  0.00     0.058 A 
HETATM   16 CL1  UNL     1     -45.837 -46.360  32.025  1.00  0.00    -0.082 Cl
HETATM   17  C9  UNL     1     -46.704 -46.428  29.446  1.00  0.00     0.057 A 
HETATM   18 CL2  UNL     1     -45.272 -45.478  29.038  1.00  0.00    -0.082 Cl
HETATM   19  C10 UNL     1     -47.579 -46.784  28.448  1.00  0.00     0.051 A 
HETATM   20  C11 UNL     1     -48.693 -47.527  28.789  1.00  0.00     0.062 A 
HETATM   21 CL3  UNL     1     -49.786 -47.963  27.494  1.00  0.00    -0.082 Cl
ENDBRANCH   1  13
TORSDOF 4
ENDMDL
MODEL 4
REMARK VINA RESULT: -7.696310492      6.834      9.604
REMARK  4 active torsions:
REMARK  status: ('A' for Active; 'I' for Inactive)
REMARK    1  A    between atoms: O1_2  and  C2_3 
REMARK    2  A    between atoms: C2_3  and  C3_5 
REMARK    3  A    between atoms: C5_9  and  N2_10 
REMARK    4  A    between atoms: N2_10  and  C6_12 
ROOT
HETATM    1  N2  UNL     1     -45.312 -46.415  28.822  1.00  0.00    -0.335 N 
ATOM      2  H2  UNL     1     -45.091 -45.425  28.712  1.00  0.00     0.168 HD
ENDROOT
BRANCH   1   3
HETATM    3  C5  UNL     1     -44.375 -47.318  28.607  1.00  0.00     0.149 A 
HETATM    4  N1  UNL     1     -44.326 -48.223  27.629  1.00  0.00    -0.345 N 
HETATM    5  C4  UNL     1     -43.314 -49.035  27.583  1.00  0.00     0.115 A 
ATOM      6  H1  UNL     1     -45.068 -48.276  26.932  1.00  0.00     0.167 HD
HETATM    7  C3  UNL     1     -42.346 -48.922  28.542  1.00  0.00     0.099 A 
HETATM    8  S1  UNL     1     -42.944 -47.631  29.484  1.00  0.00    -0.046 SA
BRANCH   7   9
HETATM    9  C2  UNL     1     -41.124 -49.707  28.709  1.00  0.00     0.301 C 
HETATM   10  O2  UNL     1     -41.126 -50.922  28.399  1.00  0.00    -0.259 OA
BRANCH   9  11
HETATM   11  O1  UNL     1     -39.956 -49.162  29.199  1.00  0.00    -0.322 OA
HETATM   12  C1  UNL     1     -39.226 -48.142  28.600  1.00  0.00     0.213 C 
ENDBRANCH   9  11
ENDBRANCH   7   9
ENDBRANCH   1   3
BRANCH   1  13
HETATM   13  C6  UNL     1     -46.614 -46.800  29.200  1.00  0.00     0.057 A 
HETATM   14  C7  UNL     1     -47.580 -47.069  28.260  1.00  0.00     0.057 A 
HETATM   15  C8  UNL     1     -48.836 -47.442  28.717  1.00  0.00     0.058 A 
HETATM   16 CL1  UNL     1     -50.077 -47.788  27.525  1.00  0.00    -0.082 Cl
HETATM   17  C9  UNL     1     -49.126 -47.545  30.064  1.00  0.00     0.057 A 
HETATM   18 CL2  UNL     1     -50.736 -48.022  30.612  1.00  0.00    -0.082 Cl
HETATM   19  C10 UNL     1     -48.154 -47.274  30.996  1.00  0.00     0.051 A 
HETATM   20  C11 UNL     1     -46.901 -46.901  30.545  1.00  0.00     0.062 A 
HETATM   21 CL3  UNL     1     -45.687 -46.564  31.759  1.00  0.00    -0.082 Cl
ENDBRANCH   1  13
TORSDOF 4
ENDMDL
MODEL 5
REMARK VINA RESULT: -7.470221014      6.891      9.688
REMARK  4 active torsions:
REMARK  status: ('A' for Active; 'I' for Inactive)
REMARK    1  A    between atoms: O1_2  and  C2_3 
REMARK    2  A    between atoms: C2_3  and  C3_5 
REMARK    3  A    between atoms: C5_9  and  N2_10 
REMARK    4  A    between atoms: N2_10  and  C6_12 
ROOT
HETATM    1  N2  UNL     1     -45.453 -46.109  28.932  1.00  0.00    -0.335 N 
ATOM      2  H2  UNL     1     -45.391 -45.095  28.844  1.00  0.00     0.168 HD
ENDROOT
BRANCH   1   3
HETATM    3  C5  UNL     1     -44.378 -46.846  28.732  1.00  0.00     0.149 A 
HETATM    4  N1  UNL     1     -44.255 -47.905  27.931  1.00  0.00    -0.345 N 
HETATM    5  C4  UNL     1     -43.106 -48.507  27.867  1.00  0.00     0.115 A 
ATOM      6  H1  UNL     1     -45.046 -48.236  27.380  1.00  0.00     0.167 HD
HETATM    7  C3  UNL     1     -42.077 -48.023  28.627  1.00  0.00     0.099 A 
HETATM    8  S1  UNL     1     -42.819 -46.703  29.413  1.00  0.00    -0.046 SA
BRANCH   7   9
HETATM    9  C2  UNL     1     -40.704 -48.516  28.731  1.00  0.00     0.301 C 
HETATM   10  O2  UNL     1     -39.750 -47.715  28.589  1.00  0.00    -0.259 OA
BRANCH   9  11
HETATM   11  O1  UNL     1     -40.410 -49.840  28.981  1.00  0.00    -0.322 OA
HETATM   12  C1  UNL     1     -40.033 -50.778  28.026  1.00  0.00     0.213 C 
ENDBRANCH   9  11
ENDBRANCH   7   9
ENDBRANCH   1   3
BRANCH   1  13
HETATM   13  C6  UNL     1     -46.686 -46.705  29.266  1.00  0.00     0.057 A 
HETATM   14  C7  UNL     1     -47.651 -46.931  28.313  1.00  0.00     0.057 A 
HETATM   15  C8  UNL     1     -48.837 -47.521  28.725  1.00  0.00     0.058 A 
HETATM   16 CL1  UNL     1     -50.076 -47.814  27.516  1.00  0.00    -0.082 Cl
HETATM   17  C9  UNL     1     -49.060 -47.878  30.041  1.00  0.00     0.057 A 
HETATM   18 CL2  UNL     1     -50.581 -48.629  30.533  1.00  0.00    -0.082 Cl
HETATM   19  C10 UNL     1     -48.090 -47.648  30.987  1.00  0.00     0.051 A 
HETATM   20  C11 UNL     1     -46.907 -47.059  30.580  1.00  0.00     0.062 A 
HETATM   21 CL3  UNL     1     -45.693 -46.782  31.809  1.00  0.00    -0.082 Cl
ENDBRANCH   1  13
TORSDOF 4
ENDMDL
