MODEL 1
REMARK VINA RESULT: -5.901446183      0.000      0.000
REMARK  3 active torsions:
REMARK  status: ('A' for Active; 'I' for Inactive)
REMARK    1  A    between atoms: C2_3  and  S1_4 
REMARK    2  A    between atoms: S1_4  and  C3_5 
REMARK    3  A    between atoms: C9_18  and  N5_19 
ROOT
HETATM    1  C1  UNL     1      -7.046  26.750   9.574  1.00  0.00     0.177 C 
HETATM    2  N1  UNL     1      -7.675  25.436   9.599  1.00  0.00    -0.164 N 
HETATM    3  C2  UNL     1      -7.054  24.264   9.371  1.00  0.00     0.176 A 
HETATM    4  N3  UNL     1      -8.006  23.314   9.496  1.00  0.00    -0.265 N 
ATOM      5  H3  UNL     1      -7.862  22.311   9.384  1.00  0.00     0.189 HD
HETATM    6  N4  UNL     1      -9.158  23.896   9.788  1.00  0.00    -0.130 N 
ATOM      7  H4  UNL     1     -10.043  23.412   9.937  1.00  0.00     0.205 HD
HETATM    8  C9  UNL     1      -8.978  25.238   9.860  1.00  0.00     0.694 A 
ENDROOT
BRANCH   3   9
HETATM    9  S1  UNL     1      -5.309  24.052   8.977  1.00  0.00    -0.085 SA
BRANCH   9  10
HETATM   10  C3  UNL     1      -5.148  24.304   7.180  1.00  0.00     0.083 C 
HETATM   11  C4  UNL     1      -4.546  23.037   6.607  1.00  0.00     0.248 C 
HETATM   12  N2  UNL     1      -3.141  23.231   6.844  1.00  0.00    -0.066 N 
HETATM   13  C5  UNL     1      -2.851  24.633   6.789  1.00  0.00     0.119 C 
ATOM     14  H22 UNL     1      -2.831  22.803   7.716  1.00  0.00     0.278 HD
ATOM     15  H21 UNL     1      -2.560  22.688   6.205  1.00  0.00     0.278 HD
HETATM   16  C6  UNL     1      -2.139  24.897   5.462  1.00  0.00     0.046 C 
HETATM   17  C7  UNL     1      -2.019  25.118   7.954  1.00  0.00     0.046 C 
HETATM   18  C8  UNL     1      -4.159  25.370   6.828  1.00  0.00     0.055 C 
ENDBRANCH   9  10
ENDBRANCH   3   9
BRANCH   8  19
HETATM   19  N5  UNL     1      -9.893  26.119  10.129  1.00  0.00    -0.233 N 
ATOM     20  H52 UNL     1      -9.732  27.073  10.454  1.00  0.00     0.174 HD
ATOM     21  H51 UNL     1     -10.907  26.024  10.065  1.00  0.00     0.174 HD
ENDBRANCH   8  19
TORSDOF 3
ENDMDL
MODEL 2
REMARK VINA RESULT: -5.857551479      3.246      4.275
REMARK  3 active torsions:
REMARK  status: ('A' for Active; 'I' for Inactive)
REMARK    1  A    between atoms: C2_3  and  S1_4 
REMARK    2  A    between atoms: S1_4  and  C3_5 
REMARK    3  A    between atoms: C9_18  and  N5_19 
ROOT
HETATM    1  C1  UNL     1      -3.231  23.893   7.988  1.00  0.00     0.177 C 
HETATM    2  N1  UNL     1      -4.358  24.397   7.213  1.00  0.00    -0.164 N 
HETATM    3  C2  UNL     1      -4.494  25.655   6.753  1.00  0.00     0.176 A 
HETATM    4  N3  UNL     1      -5.673  25.679   6.094  1.00  0.00    -0.265 N 
ATOM      5  H3  UNL     1      -6.073  26.491   5.624  1.00  0.00     0.189 HD
HETATM    6  N4  UNL     1      -6.224  24.478   6.157  1.00  0.00    -0.130 N 
ATOM      7  H4  UNL     1      -7.118  24.217   5.743  1.00  0.00     0.205 HD
HETATM    8  C9  UNL     1      -5.414  23.648   6.858  1.00  0.00     0.694 A 
ENDROOT
BRANCH   3   9
HETATM    9  S1  UNL     1      -3.322  27.002   6.997  1.00  0.00    -0.085 SA
BRANCH   9  10
HETATM   10  C3  UNL     1      -2.432  27.208   5.421  1.00  0.00     0.083 C 
HETATM   11  C4  UNL     1      -2.362  25.842   4.770  1.00  0.00     0.248 C 
HETATM   12  N2  UNL     1      -1.230  25.247   5.427  1.00  0.00    -0.066 N 
HETATM   13  C5  UNL     1      -0.298  26.280   5.771  1.00  0.00     0.119 C 
ATOM     14  H22 UNL     1      -1.500  24.682   6.232  1.00  0.00     0.278 HD
ATOM     15  H21 UNL     1      -0.801  24.507   4.871  1.00  0.00     0.278 HD
HETATM   16  C6  UNL     1       0.870  26.182   4.791  1.00  0.00     0.046 C 
HETATM   17  C7  UNL     1       0.187  26.196   7.200  1.00  0.00     0.046 C 
HETATM   18  C8  UNL     1      -1.001  27.598   5.607  1.00  0.00     0.055 C 
ENDBRANCH   9  10
ENDBRANCH   3   9
BRANCH   8  19
HETATM   19  N5  UNL     1      -5.640  22.394   7.113  1.00  0.00    -0.233 N 
ATOM     20  H52 UNL     1      -6.487  22.009   7.531  1.00  0.00     0.174 HD
ATOM     21  H51 UNL     1      -5.032  21.592   6.948  1.00  0.00     0.174 HD
ENDBRANCH   8  19
TORSDOF 3
ENDMDL
MODEL 3
REMARK VINA RESULT: -5.821188668      1.400      1.657
REMARK  3 active torsions:
REMARK  status: ('A' for Active; 'I' for Inactive)
REMARK    1  A    between atoms: C2_3  and  S1_4 
REMARK    2  A    between atoms: S1_4  and  C3_5 
REMARK    3  A    between atoms: C9_18  and  N5_19 
ROOT
HETATM    1  C1  UNL     1      -7.006  27.085  11.334  1.00  0.00     0.177 C 
HETATM    2  N1  UNL     1      -7.929  26.075  10.833  1.00  0.00    -0.164 N 
HETATM    3  C2  UNL     1      -7.585  24.961  10.161  1.00  0.00     0.176 A 
HETATM    4  N3  UNL     1      -8.743  24.319   9.895  1.00  0.00    -0.265 N 
ATOM      5  H3  UNL     1      -8.831  23.435   9.394  1.00  0.00     0.189 HD
HETATM    6  N4  UNL     1      -9.747  25.024  10.391  1.00  0.00    -0.130 N 
ATOM      7  H4  UNL     1     -10.733  24.769  10.332  1.00  0.00     0.205 HD
HETATM    8  C9  UNL     1      -9.262  26.139  10.990  1.00  0.00     0.694 A 
ENDROOT
BRANCH   3   9
HETATM    9  S1  UNL     1      -5.908  24.469   9.720  1.00  0.00    -0.085 SA
BRANCH   9  10
HETATM   10  C3  UNL     1      -6.040  23.484   8.193  1.00  0.00     0.083 C 
HETATM   11  C4  UNL     1      -5.416  22.134   8.480  1.00  0.00     0.248 C 
HETATM   12  N2  UNL     1      -4.015  22.398   8.288  1.00  0.00    -0.066 N 
HETATM   13  C5  UNL     1      -3.868  23.417   7.291  1.00  0.00     0.119 C 
ATOM     14  H22 UNL     1      -3.541  22.634   9.159  1.00  0.00     0.278 HD
ATOM     15  H21 UNL     1      -3.488  21.554   8.063  1.00  0.00     0.278 HD
HETATM   16  C6  UNL     1      -3.389  22.733   6.011  1.00  0.00     0.046 C 
HETATM   17  C7  UNL     1      -2.920  24.522   7.701  1.00  0.00     0.046 C 
HETATM   18  C8  UNL     1      -5.219  24.036   7.072  1.00  0.00     0.055 C 
ENDBRANCH   9  10
ENDBRANCH   3   9
BRANCH   8  19
HETATM   19  N5  UNL     1      -9.964  27.057  11.583  1.00  0.00    -0.233 N 
ATOM     20  H52 UNL     1      -9.855  27.366  12.549  1.00  0.00     0.174 HD
ATOM     21  H51 UNL     1     -10.727  27.619  11.205  1.00  0.00     0.174 HD
ENDBRANCH   8  19
TORSDOF 3
ENDMDL
MODEL 4
REMARK VINA RESULT: -5.754638635      2.182      5.954
REMARK  3 active torsions:
REMARK  status: ('A' for Active; 'I' for Inactive)
REMARK    1  A    between atoms: C2_3  and  S1_4 
REMARK    2  A    between atoms: S1_4  and  C3_5 
REMARK    3  A    between atoms: C9_18  and  N5_19 
ROOT
HETATM    1  C1  UNL     1      -4.506  23.687   9.260  1.00  0.00     0.177 C 
HETATM    2  N1  UNL     1      -5.278  24.168   8.121  1.00  0.00    -0.164 N 
HETATM    3  C2  UNL     1      -6.045  25.274   8.104  1.00  0.00     0.176 A 
HETATM    4  N3  UNL     1      -6.569  25.338   6.861  1.00  0.00    -0.265 N 
ATOM      5  H3  UNL     1      -7.199  26.064   6.520  1.00  0.00     0.189 HD
HETATM    6  N4  UNL     1      -6.131  24.307   6.157  1.00  0.00    -0.130 N 
ATOM      7  H4  UNL     1      -6.372  24.111   5.186  1.00  0.00     0.205 HD
HETATM    8  C9  UNL     1      -5.313  23.550   6.929  1.00  0.00     0.694 A 
ENDROOT
BRANCH   3   9
HETATM    9  S1  UNL     1      -6.299  26.405   9.484  1.00  0.00    -0.085 SA
BRANCH   9  10
HETATM   10  C3  UNL     1      -7.424  25.566  10.644  1.00  0.00     0.083 C 
HETATM   11  C4  UNL     1      -8.460  24.840   9.810  1.00  0.00     0.248 C 
HETATM   12  N2  UNL     1      -9.405  25.884   9.519  1.00  0.00    -0.066 N 
HETATM   13  C5  UNL     1      -9.418  26.814  10.609  1.00  0.00     0.119 C 
ATOM     14  H22 UNL     1      -9.221  26.336   8.623  1.00  0.00     0.278 HD
ATOM     15  H21 UNL     1     -10.334  25.521   9.307  1.00  0.00     0.278 HD
HETATM   16  C6  UNL     1     -10.706  26.574  11.395  1.00  0.00     0.046 C 
HETATM   17  C7  UNL     1      -9.317  28.257  10.166  1.00  0.00     0.046 C 
HETATM   18  C8  UNL     1      -8.224  26.520  11.472  1.00  0.00     0.055 C 
ENDBRANCH   9  10
ENDBRANCH   3   9
BRANCH   8  19
HETATM   19  N5  UNL     1      -4.704  22.463   6.562  1.00  0.00    -0.233 N 
ATOM     20  H52 UNL     1      -3.858  22.078   6.981  1.00  0.00     0.174 HD
ATOM     21  H51 UNL     1      -4.954  21.816   5.813  1.00  0.00     0.174 HD
ENDBRANCH   8  19
TORSDOF 3
ENDMDL
MODEL 5
REMARK VINA RESULT: -5.678624157      1.705      2.288
REMARK  3 active torsions:
REMARK  status: ('A' for Active; 'I' for Inactive)
REMARK    1  A    between atoms: C2_3  and  S1_4 
REMARK    2  A    between atoms: S1_4  and  C3_5 
REMARK    3  A    between atoms: C9_18  and  N5_19 
ROOT
HETATM    1  C1  UNL     1      -7.344  26.279  11.860  1.00  0.00     0.177 C 
HETATM    2  N1  UNL     1      -8.359  25.986  10.856  1.00  0.00    -0.164 N 
HETATM    3  C2  UNL     1      -8.234  25.103   9.848  1.00  0.00     0.176 A 
HETATM    4  N3  UNL     1      -9.401  25.151   9.171  1.00  0.00    -0.265 N 
ATOM      5  H3  UNL     1      -9.631  24.597   8.345  1.00  0.00     0.189 HD
HETATM    6  N4  UNL     1     -10.198  26.032   9.751  1.00  0.00    -0.130 N 
ATOM      7  H4  UNL     1     -11.141  26.267   9.444  1.00  0.00     0.205 HD
HETATM    8  C9  UNL     1      -9.565  26.576  10.819  1.00  0.00     0.694 A 
ENDROOT
BRANCH   3   9
HETATM    9  S1  UNL     1      -6.784  24.088   9.506  1.00  0.00    -0.085 SA
BRANCH   9  10
HETATM   10  C3  UNL     1      -5.614  25.145   8.593  1.00  0.00     0.083 C 
HETATM   11  C4  UNL     1      -6.261  25.476   7.264  1.00  0.00     0.248 C 
HETATM   12  N2  UNL     1      -5.956  24.314   6.475  1.00  0.00    -0.066 N 
HETATM   13  C5  UNL     1      -4.702  23.775   6.912  1.00  0.00     0.119 C 
ATOM     14  H22 UNL     1      -6.705  23.622   6.496  1.00  0.00     0.278 HD
ATOM     15  H21 UNL     1      -5.968  24.508   5.474  1.00  0.00     0.278 HD
HETATM   16  C6  UNL     1      -3.661  24.134   5.852  1.00  0.00     0.046 C 
HETATM   17  C7  UNL     1      -4.741  22.281   7.146  1.00  0.00     0.046 C 
HETATM   18  C8  UNL     1      -4.355  24.430   8.218  1.00  0.00     0.055 C 
ENDBRANCH   9  10
ENDBRANCH   3   9
BRANCH   8  19
HETATM   19  N5  UNL     1     -10.051  27.475  11.621  1.00  0.00    -0.233 N 
ATOM     20  H52 UNL     1     -10.512  28.342  11.344  1.00  0.00     0.174 HD
ATOM     21  H51 UNL     1     -10.062  27.478  12.642  1.00  0.00     0.174 HD
ENDBRANCH   8  19
TORSDOF 3
ENDMDL
