MODEL 1
REMARK VINA RESULT: -5.942740451      0.000      0.000
REMARK  2 active torsions:
REMARK  status: ('A' for Active; 'I' for Inactive)
REMARK    1  A    between atoms: S1_2  and  C2_3 
REMARK    2  A    between atoms: N4_12  and  C4_13 
ROOT
HETATM    1  C2  UNL     1      -3.657  23.678   6.338  1.00  0.00     0.177 A 
HETATM    2  N1  UNL     1      -3.544  22.371   6.071  1.00  0.00    -0.265 N 
ATOM      3  H1  UNL     1      -2.928  21.981   5.359  1.00  0.00     0.189 HD
HETATM    4  N2  UNL     1      -4.321  21.662   6.836  1.00  0.00    -0.130 N 
ATOM      5  H2  UNL     1      -4.413  20.646   6.825  1.00  0.00     0.205 HD
HETATM    6  C3  UNL     1      -5.002  22.539   7.673  1.00  0.00     0.695 A 
HETATM    7  N3  UNL     1      -5.814  22.106   8.535  1.00  0.00    -0.233 N 
ATOM      8  H31 UNL     1      -6.313  22.749   9.149  1.00  0.00     0.174 HD
ATOM      9  H32 UNL     1      -6.137  21.171   8.785  1.00  0.00     0.174 HD
HETATM   10  N4  UNL     1      -4.574  23.777   7.344  1.00  0.00    -0.153 N 
ENDROOT
BRANCH  10  11
HETATM   11  C4  UNL     1      -4.986  25.021   7.918  1.00  0.00     0.142 C 
HETATM   12  C5  UNL     1      -4.864  25.150   9.404  1.00  0.00     0.259 C 
HETATM   13  N5  UNL     1      -5.879  26.213   9.667  1.00  0.00    -0.069 N 
HETATM   14  C6  UNL     1      -6.999  25.455   9.071  1.00  0.00     0.192 C 
ATOM     15  H52 UNL     1      -5.983  26.551  10.624  1.00  0.00     0.277 HD
ATOM     16  H51 UNL     1      -5.693  27.151   9.313  1.00  0.00     0.277 HD
HETATM   17  C7  UNL     1      -8.231  26.264   8.927  1.00  0.00     0.033 C 
HETATM   18  C10 UNL     1      -6.435  25.402   7.630  1.00  0.00     0.042 C 
HETATM   19  C8  UNL     1      -7.833  27.340   7.951  1.00  0.00     0.002 C 
HETATM   20  C9  UNL     1      -6.567  26.846   7.271  1.00  0.00     0.009 C 
ENDBRANCH  10  11
BRANCH   1  21
HETATM   21  S1  UNL     1      -2.766  25.021   5.570  1.00  0.00    -0.096 SA
HETATM   22  C1  UNL     1      -1.468  25.606   6.659  1.00  0.00     0.099 C 
ENDBRANCH   1  21
TORSDOF 2
ENDMDL
MODEL 2
REMARK VINA RESULT: -5.792232248      2.397      4.063
REMARK  2 active torsions:
REMARK  status: ('A' for Active; 'I' for Inactive)
REMARK    1  A    between atoms: S1_2  and  C2_3 
REMARK    2  A    between atoms: N4_12  and  C4_13 
ROOT
HETATM    1  C2  UNL     1      -3.645  26.449   6.193  1.00  0.00     0.177 A 
HETATM    2  N1  UNL     1      -4.575  27.256   5.667  1.00  0.00    -0.265 N 
ATOM      3  H1  UNL     1      -4.368  28.068   5.086  1.00  0.00     0.189 HD
HETATM    4  N2  UNL     1      -5.775  26.872   5.990  1.00  0.00    -0.130 N 
ATOM      5  H2  UNL     1      -6.646  27.322   5.711  1.00  0.00     0.205 HD
HETATM    6  C3  UNL     1      -5.653  25.737   6.783  1.00  0.00     0.695 A 
HETATM    7  N3  UNL     1      -6.678  25.146   7.222  1.00  0.00    -0.233 N 
ATOM      8  H31 UNL     1      -6.589  24.313   7.804  1.00  0.00     0.174 HD
ATOM      9  H32 UNL     1      -7.678  25.325   7.137  1.00  0.00     0.174 HD
HETATM   10  N4  UNL     1      -4.329  25.499   6.895  1.00  0.00    -0.153 N 
ENDROOT
BRANCH  10  11
HETATM   11  C4  UNL     1      -3.693  24.441   7.619  1.00  0.00     0.142 C 
HETATM   12  C5  UNL     1      -4.279  23.073   7.469  1.00  0.00     0.259 C 
HETATM   13  N5  UNL     1      -3.806  22.436   8.733  1.00  0.00    -0.069 N 
HETATM   14  C6  UNL     1      -4.450  23.433   9.615  1.00  0.00     0.192 C 
ATOM     15  H52 UNL     1      -4.023  21.451   8.884  1.00  0.00     0.277 HD
ATOM     16  H51 UNL     1      -2.806  22.273   8.843  1.00  0.00     0.277 HD
HETATM   17  C7  UNL     1      -4.046  23.294  11.033  1.00  0.00     0.033 C 
HETATM   18  C10 UNL     1      -3.633  24.656   9.129  1.00  0.00     0.042 C 
HETATM   19  C8  UNL     1      -2.568  23.586  11.009  1.00  0.00     0.002 C 
HETATM   20  C9  UNL     1      -2.298  24.287   9.689  1.00  0.00     0.009 C 
ENDBRANCH  10  11
BRANCH   1  21
HETATM   21  S1  UNL     1      -1.875  26.562   5.995  1.00  0.00    -0.096 SA
HETATM   22  C1  UNL     1      -1.471  27.076   4.326  1.00  0.00     0.099 C 
ENDBRANCH   1  21
TORSDOF 2
ENDMDL
MODEL 3
REMARK VINA RESULT: -5.695589338      2.446      4.314
REMARK  2 active torsions:
REMARK  status: ('A' for Active; 'I' for Inactive)
REMARK    1  A    between atoms: S1_2  and  C2_3 
REMARK    2  A    between atoms: N4_12  and  C4_13 
ROOT
HETATM    1  C2  UNL     1      -2.258  26.787   6.511  1.00  0.00     0.177 A 
HETATM    2  N1  UNL     1      -2.709  27.990   6.134  1.00  0.00    -0.265 N 
ATOM      3  H1  UNL     1      -2.116  28.808   5.997  1.00  0.00     0.189 HD
HETATM    4  N2  UNL     1      -3.998  27.982   5.964  1.00  0.00    -0.130 N 
ATOM      5  H2  UNL     1      -4.573  28.775   5.678  1.00  0.00     0.205 HD
HETATM    6  C3  UNL     1      -4.451  26.698   6.243  1.00  0.00     0.695 A 
HETATM    7  N3  UNL     1      -5.674  26.410   6.137  1.00  0.00    -0.233 N 
ATOM      8  H31 UNL     1      -6.007  25.467   6.341  1.00  0.00     0.174 HD
ATOM      9  H32 UNL     1      -6.501  26.951   5.882  1.00  0.00     0.174 HD
HETATM   10  N4  UNL     1      -3.357  25.981   6.579  1.00  0.00    -0.153 N 
ENDROOT
BRANCH  10  11
HETATM   11  C4  UNL     1      -3.303  24.602   6.957  1.00  0.00     0.142 C 
HETATM   12  C5  UNL     1      -3.353  23.597   5.850  1.00  0.00     0.259 C 
HETATM   13  N5  UNL     1      -3.873  22.408   6.587  1.00  0.00    -0.069 N 
HETATM   14  C6  UNL     1      -5.107  23.082   7.042  1.00  0.00     0.192 C 
ATOM     15  H52 UNL     1      -3.966  21.529   6.077  1.00  0.00     0.277 HD
ATOM     16  H51 UNL     1      -3.273  21.980   7.292  1.00  0.00     0.277 HD
HETATM   17  C7  UNL     1      -5.867  22.286   8.033  1.00  0.00     0.033 C 
HETATM   18  C10 UNL     1      -4.414  24.163   7.907  1.00  0.00     0.042 C 
HETATM   19  C8  UNL     1      -4.930  22.200   9.209  1.00  0.00     0.002 C 
HETATM   20  C9  UNL     1      -3.893  23.290   9.003  1.00  0.00     0.009 C 
ENDBRANCH  10  11
BRANCH   1  21
HETATM   21  S1  UNL     1      -0.566  26.314   6.825  1.00  0.00    -0.096 SA
HETATM   22  C1  UNL     1       0.158  25.589   5.354  1.00  0.00     0.099 C 
ENDBRANCH   1  21
TORSDOF 2
ENDMDL
MODEL 4
REMARK VINA RESULT: -5.676054657      2.079      4.830
REMARK  2 active torsions:
REMARK  status: ('A' for Active; 'I' for Inactive)
REMARK    1  A    between atoms: S1_2  and  C2_3 
REMARK    2  A    between atoms: N4_12  and  C4_13 
ROOT
HETATM    1  C2  UNL     1      -5.544  24.863   6.977  1.00  0.00     0.177 A 
HETATM    2  N1  UNL     1      -6.097  23.651   7.105  1.00  0.00    -0.265 N 
ATOM      3  H1  UNL     1      -7.052  23.486   7.422  1.00  0.00     0.189 HD
HETATM    4  N2  UNL     1      -5.263  22.711   6.773  1.00  0.00    -0.130 N 
ATOM      5  H2  UNL     1      -5.448  21.708   6.786  1.00  0.00     0.205 HD
HETATM    6  C3  UNL     1      -4.071  23.320   6.397  1.00  0.00     0.695 A 
HETATM    7  N3  UNL     1      -3.089  22.630   6.009  1.00  0.00    -0.233 N 
ATOM      8  H31 UNL     1      -2.215  23.076   5.733  1.00  0.00     0.174 HD
ATOM      9  H32 UNL     1      -2.938  21.626   5.905  1.00  0.00     0.174 HD
HETATM   10  N4  UNL     1      -4.271  24.648   6.534  1.00  0.00    -0.153 N 
ENDROOT
BRANCH  10  11
HETATM   11  C4  UNL     1      -3.337  25.700   6.275  1.00  0.00     0.142 C 
HETATM   12  C5  UNL     1      -2.596  25.639   4.976  1.00  0.00     0.259 C 
HETATM   13  N5  UNL     1      -1.387  26.447   5.317  1.00  0.00    -0.069 N 
HETATM   14  C6  UNL     1      -0.985  25.586   6.449  1.00  0.00     0.192 C 
ATOM     15  H52 UNL     1      -0.703  26.621   4.580  1.00  0.00     0.277 HD
ATOM     16  H51 UNL     1      -1.510  27.443   5.493  1.00  0.00     0.277 HD
HETATM   17  C7  UNL     1       0.116  26.164   7.251  1.00  0.00     0.033 C 
HETATM   18  C10 UNL     1      -2.238  25.842   7.324  1.00  0.00     0.042 C 
HETATM   19  C8  UNL     1      -0.485  27.422   7.821  1.00  0.00     0.002 C 
HETATM   20  C9  UNL     1      -1.990  27.273   7.677  1.00  0.00     0.009 C 
ENDBRANCH  10  11
BRANCH   1  21
HETATM   21  S1  UNL     1      -6.316  26.444   7.282  1.00  0.00    -0.096 SA
HETATM   22  C1  UNL     1      -7.610  26.274   8.510  1.00  0.00     0.099 C 
ENDBRANCH   1  21
TORSDOF 2
ENDMDL
MODEL 5
REMARK VINA RESULT: -5.666426268      2.516      4.444
REMARK  2 active torsions:
REMARK  status: ('A' for Active; 'I' for Inactive)
REMARK    1  A    between atoms: S1_2  and  C2_3 
REMARK    2  A    between atoms: N4_12  and  C4_13 
ROOT
HETATM    1  C2  UNL     1      -4.682  27.203   6.682  1.00  0.00     0.177 A 
HETATM    2  N1  UNL     1      -4.299  27.829   5.563  1.00  0.00    -0.265 N 
ATOM      3  H1  UNL     1      -4.623  28.754   5.282  1.00  0.00     0.189 HD
HETATM    4  N2  UNL     1      -3.460  27.108   4.879  1.00  0.00    -0.130 N 
ATOM      5  H2  UNL     1      -3.027  27.366   3.993  1.00  0.00     0.205 HD
HETATM    6  C3  UNL     1      -3.262  25.921   5.575  1.00  0.00     0.695 A 
HETATM    7  N3  UNL     1      -2.471  25.042   5.136  1.00  0.00    -0.233 N 
ATOM      8  H31 UNL     1      -2.326  24.171   5.647  1.00  0.00     0.174 HD
ATOM      9  H32 UNL     1      -1.891  24.978   4.299  1.00  0.00     0.174 HD
HETATM   10  N4  UNL     1      -4.029  26.005   6.683  1.00  0.00    -0.153 N 
ENDROOT
BRANCH  10  11
HETATM   11  C4  UNL     1      -4.174  25.027   7.717  1.00  0.00     0.142 C 
HETATM   12  C5  UNL     1      -2.939  24.284   8.120  1.00  0.00     0.259 C 
HETATM   13  N5  UNL     1      -3.544  23.045   8.692  1.00  0.00    -0.069 N 
HETATM   14  C6  UNL     1      -4.263  22.683   7.453  1.00  0.00     0.192 C 
ATOM     15  H52 UNL     1      -2.919  22.352   9.104  1.00  0.00     0.277 HD
ATOM     16  H51 UNL     1      -4.083  23.128   9.553  1.00  0.00     0.277 HD
HETATM   17  C7  UNL     1      -5.211  21.561   7.643  1.00  0.00     0.033 C 
HETATM   18  C10 UNL     1      -5.186  23.927   7.410  1.00  0.00     0.042 C 
HETATM   19  C8  UNL     1      -6.219  22.113   8.617  1.00  0.00     0.002 C 
HETATM   20  C9  UNL     1      -6.048  23.622   8.592  1.00  0.00     0.009 C 
ENDBRANCH  10  11
BRANCH   1  21
HETATM   21  S1  UNL     1      -5.790  27.816   7.941  1.00  0.00    -0.096 SA
HETATM   22  C1  UNL     1      -7.405  27.059   7.766  1.00  0.00     0.099 C 
ENDBRANCH   1  21
TORSDOF 2
ENDMDL
