MODEL 1
REMARK VINA RESULT: -6.256168507      0.000      0.000
REMARK  3 active torsions:
REMARK  status: ('A' for Active; 'I' for Inactive)
REMARK    1  A    between atoms: N1_2  and  C2_4 
REMARK    2  A    between atoms: C6_13  and  N5_14 
REMARK    3  A    between atoms: N5_14  and  C7_16 
ROOT
HETATM    1  C2  UNL     1      -5.483  24.726   6.773  1.00  0.00     0.110 A 
HETATM    2  C3  UNL     1      -4.253  24.770   6.158  1.00  0.00     0.145 A 
HETATM    3  C4  UNL     1      -3.617  23.515   5.852  1.00  0.00     0.120 C 
HETATM    4  N2  UNL     1      -3.084  22.507   5.603  1.00  0.00    -0.190 NA
HETATM    5  N3  UNL     1      -3.631  25.918   5.838  1.00  0.00    -0.342 N 
ATOM      6  H3  UNL     1      -2.719  25.897   5.383  1.00  0.00     0.167 HD
HETATM    7  C5  UNL     1      -4.220  27.092   6.121  1.00  0.00     0.183 A 
HETATM    8  N4  UNL     1      -5.444  27.076   6.732  1.00  0.00    -0.337 N 
ATOM      9  H4  UNL     1      -5.887  27.969   6.945  1.00  0.00     0.168 HD
HETATM   10  C6  UNL     1      -6.088  25.959   7.063  1.00  0.00     0.132 A 
ENDROOT
BRANCH   1  11
HETATM   11  N1  UNL     1      -6.103  23.487   7.093  1.00  0.00    -0.389 N 
HETATM   12  C1  UNL     1      -5.960  22.839   8.370  1.00  0.00     0.146 C 
ATOM     13  H1  UNL     1      -6.677  23.035   6.382  1.00  0.00     0.159 HD
ENDBRANCH   1  11
BRANCH  10  14
HETATM   14  N5  UNL     1      -7.207  25.956   7.622  1.00  0.00    -0.370 N 
ATOM     15  H5  UNL     1      -7.935  25.520   7.056  1.00  0.00     0.161 HD
BRANCH  14  16
HETATM   16  C7  UNL     1      -7.680  26.425   8.863  1.00  0.00     0.086 C 
HETATM   17  C8  UNL     1      -8.403  25.441   9.723  1.00  0.00     0.052 C 
HETATM   18  C9  UNL     1      -9.611  26.089  10.377  1.00  0.00     0.234 C 
HETATM   19  N6  UNL     1      -9.248  27.319  11.025  1.00  0.00    -0.075 N 
HETATM   20  C10 UNL     1      -8.749  28.291  10.104  1.00  0.00     0.234 C 
ATOM     21  H62 UNL     1     -10.026  27.692  11.568  1.00  0.00     0.277 HD
ATOM     22  H61 UNL     1      -8.584  27.154  11.781  1.00  0.00     0.277 HD
HETATM   23  C11 UNL     1      -8.454  27.736   8.729  1.00  0.00     0.052 C 
ENDBRANCH  14  16
ENDBRANCH  10  14
TORSDOF 3
ENDMDL
MODEL 2
REMARK VINA RESULT: -6.102905359      1.186      2.604
REMARK  3 active torsions:
REMARK  status: ('A' for Active; 'I' for Inactive)
REMARK    1  A    between atoms: N1_2  and  C2_4 
REMARK    2  A    between atoms: C6_13  and  N5_14 
REMARK    3  A    between atoms: N5_14  and  C7_16 
ROOT
HETATM    1  C2  UNL     1      -5.517  24.168   7.115  1.00  0.00     0.110 A 
HETATM    2  C3  UNL     1      -4.710  23.053   7.103  1.00  0.00     0.145 A 
HETATM    3  C4  UNL     1      -3.636  23.021   6.145  1.00  0.00     0.120 C 
HETATM    4  N2  UNL     1      -2.764  22.974   5.371  1.00  0.00    -0.190 NA
HETATM    5  N3  UNL     1      -4.883  22.011   7.933  1.00  0.00    -0.342 N 
ATOM      6  H3  UNL     1      -4.258  21.206   7.884  1.00  0.00     0.167 HD
HETATM    7  C5  UNL     1      -5.884  22.036   8.829  1.00  0.00     0.183 A 
HETATM    8  N4  UNL     1      -6.700  23.132   8.863  1.00  0.00    -0.337 N 
ATOM      9  H4  UNL     1      -7.459  23.147   9.544  1.00  0.00     0.168 HD
HETATM   10  C6  UNL     1      -6.559  24.181   8.056  1.00  0.00     0.132 A 
ENDROOT
BRANCH   1  11
HETATM   11  N1  UNL     1      -5.296  25.247   6.217  1.00  0.00    -0.389 N 
HETATM   12  C1  UNL     1      -4.550  26.427   6.567  1.00  0.00     0.146 C 
ATOM     13  H1  UNL     1      -5.686  25.181   5.276  1.00  0.00     0.159 HD
ENDBRANCH   1  11
BRANCH  10  14
HETATM   14  N5  UNL     1      -7.312  25.180   8.095  1.00  0.00    -0.370 N 
ATOM     15  H5  UNL     1      -7.816  25.335   7.221  1.00  0.00     0.161 HD
BRANCH  14  16
HETATM   16  C7  UNL     1      -7.616  26.135   9.084  1.00  0.00     0.086 C 
HETATM   17  C8  UNL     1      -8.700  25.783  10.049  1.00  0.00     0.052 C 
HETATM   18  C9  UNL     1      -9.587  26.987  10.320  1.00  0.00     0.234 C 
HETATM   19  N6  UNL     1      -8.800  28.136  10.673  1.00  0.00    -0.075 N 
HETATM   20  C10 UNL     1      -7.924  28.540   9.618  1.00  0.00     0.234 C 
ATOM     21  H62 UNL     1      -9.394  28.909  10.975  1.00  0.00     0.277 HD
ATOM     22  H61 UNL     1      -8.285  27.978  11.538  1.00  0.00     0.277 HD
HETATM   23  C11 UNL     1      -7.812  27.533   8.497  1.00  0.00     0.052 C 
ENDBRANCH  14  16
ENDBRANCH  10  14
TORSDOF 3
ENDMDL
MODEL 3
REMARK VINA RESULT: -6.019933917      1.132      2.546
REMARK  3 active torsions:
REMARK  status: ('A' for Active; 'I' for Inactive)
REMARK    1  A    between atoms: N1_2  and  C2_4 
REMARK    2  A    between atoms: C6_13  and  N5_14 
REMARK    3  A    between atoms: N5_14  and  C7_16 
ROOT
HETATM    1  C2  UNL     1      -4.621  24.971   6.503  1.00  0.00     0.110 A 
HETATM    2  C3  UNL     1      -3.596  24.068   6.341  1.00  0.00     0.145 A 
HETATM    3  C4  UNL     1      -2.364  24.556   5.779  1.00  0.00     0.120 C 
HETATM    4  N2  UNL     1      -1.359  24.932   5.318  1.00  0.00    -0.190 NA
HETATM    5  N3  UNL     1      -3.697  22.771   6.679  1.00  0.00    -0.342 N 
ATOM      6  H3  UNL     1      -2.908  22.141   6.538  1.00  0.00     0.167 HD
HETATM    7  C5  UNL     1      -4.844  22.311   7.204  1.00  0.00     0.183 A 
HETATM    8  N4  UNL     1      -5.880  23.188   7.377  1.00  0.00    -0.337 N 
ATOM      9  H4  UNL     1      -6.749  22.835   7.775  1.00  0.00     0.168 HD
HETATM   10  C6  UNL     1      -5.815  24.477   7.053  1.00  0.00     0.132 A 
ENDROOT
BRANCH   1  11
HETATM   11  N1  UNL     1      -4.468  26.334   6.131  1.00  0.00    -0.389 N 
HETATM   12  C1  UNL     1      -3.991  27.351   7.031  1.00  0.00     0.146 C 
ATOM     13  H1  UNL     1      -4.708  26.606   5.177  1.00  0.00     0.159 HD
ENDBRANCH   1  11
BRANCH  10  14
HETATM   14  N5  UNL     1      -6.768  25.271   7.215  1.00  0.00    -0.370 N 
ATOM     15  H5  UNL     1      -7.341  25.385   6.377  1.00  0.00     0.161 HD
BRANCH  14  16
HETATM   16  C7  UNL     1      -7.223  26.043   8.302  1.00  0.00     0.086 C 
HETATM   17  C8  UNL     1      -8.025  25.332   9.343  1.00  0.00     0.052 C 
HETATM   18  C9  UNL     1      -9.193  26.191   9.796  1.00  0.00     0.234 C 
HETATM   19  N6  UNL     1      -8.751  27.510  10.157  1.00  0.00    -0.075 N 
HETATM   20  C10 UNL     1      -8.173  28.210   9.054  1.00  0.00     0.234 C 
ATOM     21  H62 UNL     1      -9.508  28.049  10.578  1.00  0.00     0.277 HD
ATOM     22  H61 UNL     1      -8.111  27.480  10.950  1.00  0.00     0.277 HD
HETATM   23  C11 UNL     1      -7.900  27.336   7.851  1.00  0.00     0.052 C 
ENDBRANCH  14  16
ENDBRANCH  10  14
TORSDOF 3
ENDMDL
MODEL 4
REMARK VINA RESULT: -5.988258071      1.317      2.750
REMARK  3 active torsions:
REMARK  status: ('A' for Active; 'I' for Inactive)
REMARK    1  A    between atoms: N1_2  and  C2_4 
REMARK    2  A    between atoms: C6_13  and  N5_14 
REMARK    3  A    between atoms: N5_14  and  C7_16 
ROOT
HETATM    1  C2  UNL     1      -5.515  24.209   7.108  1.00  0.00     0.110 A 
HETATM    2  C3  UNL     1      -4.744  23.070   7.106  1.00  0.00     0.145 A 
HETATM    3  C4  UNL     1      -3.667  22.998   6.154  1.00  0.00     0.120 C 
HETATM    4  N2  UNL     1      -2.793  22.920   5.384  1.00  0.00    -0.190 NA
HETATM    5  N3  UNL     1      -4.954  22.038   7.941  1.00  0.00    -0.342 N 
ATOM      6  H3  UNL     1      -4.355  21.214   7.899  1.00  0.00     0.167 HD
HETATM    7  C5  UNL     1      -5.958  22.099   8.831  1.00  0.00     0.183 A 
HETATM    8  N4  UNL     1      -6.739  23.222   8.855  1.00  0.00    -0.337 N 
ATOM      9  H4  UNL     1      -7.501  23.265   9.532  1.00  0.00     0.168 HD
HETATM   10  C6  UNL     1      -6.561  24.261   8.043  1.00  0.00     0.132 A 
ENDROOT
BRANCH   1  11
HETATM   11  N1  UNL     1      -5.256  25.276   6.205  1.00  0.00    -0.389 N 
HETATM   12  C1  UNL     1      -4.472  26.433   6.552  1.00  0.00     0.146 C 
ATOM     13  H1  UNL     1      -5.644  25.219   5.264  1.00  0.00     0.159 HD
ENDBRANCH   1  11
BRANCH  10  14
HETATM   14  N5  UNL     1      -7.282  25.283   8.073  1.00  0.00    -0.370 N 
ATOM     15  H5  UNL     1      -7.640  25.547   7.155  1.00  0.00     0.161 HD
BRANCH  14  16
HETATM   16  C7  UNL     1      -7.707  26.149   9.100  1.00  0.00     0.086 C 
HETATM   17  C8  UNL     1      -6.764  26.355  10.240  1.00  0.00     0.052 C 
HETATM   18  C9  UNL     1      -7.516  26.369  11.560  1.00  0.00     0.234 C 
HETATM   19  N6  UNL     1      -8.626  27.280  11.510  1.00  0.00    -0.075 N 
HETATM   20  C10 UNL     1      -9.593  26.905  10.527  1.00  0.00     0.234 C 
ATOM     21  H62 UNL     1      -9.057  27.385  12.428  1.00  0.00     0.277 HD
ATOM     22  H61 UNL     1      -8.309  28.238  11.366  1.00  0.00     0.277 HD
HETATM   23  C11 UNL     1      -9.119  25.822   9.585  1.00  0.00     0.052 C 
ENDBRANCH  14  16
ENDBRANCH  10  14
TORSDOF 3
ENDMDL
MODEL 5
REMARK VINA RESULT: -5.897713283      1.483      2.968
REMARK  3 active torsions:
REMARK  status: ('A' for Active; 'I' for Inactive)
REMARK    1  A    between atoms: N1_2  and  C2_4 
REMARK    2  A    between atoms: C6_13  and  N5_14 
REMARK    3  A    between atoms: N5_14  and  C7_16 
ROOT
HETATM    1  C2  UNL     1      -5.517  24.180   7.095  1.00  0.00     0.110 A 
HETATM    2  C3  UNL     1      -4.724  23.056   7.107  1.00  0.00     0.145 A 
HETATM    3  C4  UNL     1      -3.648  22.992   6.153  1.00  0.00     0.120 C 
HETATM    4  N2  UNL     1      -2.774  22.920   5.382  1.00  0.00    -0.190 NA
HETATM    5  N3  UNL     1      -4.911  22.032   7.957  1.00  0.00    -0.342 N 
ATOM      6  H3  UNL     1      -4.296  21.220   7.925  1.00  0.00     0.167 HD
HETATM    7  C5  UNL     1      -5.914  22.087   8.849  1.00  0.00     0.183 A 
HETATM    8  N4  UNL     1      -6.717  23.193   8.859  1.00  0.00    -0.337 N 
ATOM      9  H4  UNL     1      -7.478  23.231   9.537  1.00  0.00     0.168 HD
HETATM   10  C6  UNL     1      -6.561  24.225   8.032  1.00  0.00     0.132 A 
ENDROOT
BRANCH   1  11
HETATM   11  N1  UNL     1      -5.281  25.239   6.176  1.00  0.00    -0.389 N 
HETATM   12  C1  UNL     1      -4.527  26.420   6.508  1.00  0.00     0.146 C 
ATOM     13  H1  UNL     1      -5.665  25.158   5.235  1.00  0.00     0.159 HD
ENDBRANCH   1  11
BRANCH  10  14
HETATM   14  N5  UNL     1      -7.303  25.233   8.050  1.00  0.00    -0.370 N 
ATOM     15  H5  UNL     1      -7.888  25.313   7.218  1.00  0.00     0.161 HD
BRANCH  14  16
HETATM   16  C7  UNL     1      -7.504  26.281   8.969  1.00  0.00     0.086 C 
HETATM   17  C8  UNL     1      -8.078  27.549   8.428  1.00  0.00     0.052 C 
HETATM   18  C9  UNL     1      -7.385  28.754   9.043  1.00  0.00     0.234 C 
HETATM   19  N6  UNL     1      -7.357  28.655  10.476  1.00  0.00    -0.075 N 
HETATM   20  C10 UNL     1      -6.616  27.520  10.928  1.00  0.00     0.234 C 
ATOM     21  H62 UNL     1      -7.006  29.516  10.896  1.00  0.00     0.277 HD
ATOM     22  H61 UNL     1      -8.300  28.656  10.863  1.00  0.00     0.277 HD
HETATM   23  C11 UNL     1      -6.269  26.540   9.831  1.00  0.00     0.052 C 
ENDBRANCH  14  16
ENDBRANCH  10  14
TORSDOF 3
ENDMDL
