MODEL 1
REMARK VINA RESULT: -6.846103732      0.000      0.000
REMARK  5 active torsions:
REMARK  status: ('A' for Active; 'I' for Inactive)
REMARK    1  A    between atoms: C2_2  and  N1_4 
REMARK    2  A    between atoms: N1_4  and  C4_6 
REMARK    3  A    between atoms: N2_9  and  C7_10 
REMARK    4  A    between atoms: C7_10  and  C8_11 
REMARK       I    between atoms: C8_11  and  N3_13 
REMARK    5  A    between atoms: N3_13  and  C9_15 
ROOT
HETATM    1  C7  UNL     1      22.892  50.748  -1.303  1.00  0.00     0.220 C 
ENDROOT
BRANCH   1   2
HETATM    2  N2  UNL     1      23.586  50.467  -0.099  1.00  0.00    -0.404 N 
HETATM    3  C6  UNL     1      22.741  50.088   0.980  1.00  0.00     0.119 C 
HETATM    4  C5  UNL     1      22.556  48.588   1.121  1.00  0.00     0.044 C 
HETATM    5  C4  UNL     1      23.796  47.807   0.772  1.00  0.00     0.080 C 
HETATM    6  C17 UNL     1      24.961  48.777   0.926  1.00  0.00     0.044 C 
HETATM    7  C16 UNL     1      24.815  49.757  -0.233  1.00  0.00     0.119 C 
BRANCH   5   8
HETATM    8  N1  UNL     1      24.037  46.679   1.610  1.00  0.00    -0.414 N 
ATOM      9  H1  UNL     1      24.587  45.879   1.295  1.00  0.00     0.153 HD
BRANCH   8  10
HETATM   10  C2  UNL     1      23.463  46.732   2.915  1.00  0.00     0.068 C 
HETATM   11  C1  UNL     1      22.547  45.563   3.152  1.00  0.00     0.031 C 
HETATM   12  C3  UNL     1      24.594  46.662   3.945  1.00  0.00     0.031 C 
ENDBRANCH   8  10
ENDBRANCH   5   8
ENDBRANCH   1   2
BRANCH   1  13
HETATM   13  C8  UNL     1      23.788  51.195  -2.361  1.00  0.00     0.239 C 
HETATM   14  O1  UNL     1      24.280  52.391  -2.296  1.00  0.00    -0.271 OA
HETATM   15  N3  UNL     1      24.207  50.465  -3.498  1.00  0.00    -0.330 N 
ATOM     16  H3  UNL     1      23.861  49.515  -3.629  1.00  0.00     0.168 HD
BRANCH  15  17
HETATM   17  C9  UNL     1      25.129  51.035  -4.499  1.00  0.00     0.009 C 
HETATM   18  C10 UNL     1      26.509  50.468  -4.359  1.00  0.00     0.068 C 
HETATM   19  C11 UNL     1      26.873  49.379  -5.423  1.00  0.00     0.086 C 
HETATM   20  C12 UNL     1      25.852  49.438  -6.377  1.00  0.00    -0.182 C 
HETATM   21  C13 UNL     1      24.811  49.496  -7.318  1.00  0.00     0.083 C 
HETATM   22  C14 UNL     1      23.809  50.555  -6.726  1.00  0.00     0.040 C 
HETATM   23  C15 UNL     1      24.440  51.412  -5.683  1.00  0.00    -0.001 C 
ENDBRANCH  15  17
ENDBRANCH   1  13
TORSDOF 5
ENDMDL
MODEL 2
REMARK VINA RESULT: -6.804727599      1.068      1.464
REMARK  5 active torsions:
REMARK  status: ('A' for Active; 'I' for Inactive)
REMARK    1  A    between atoms: C2_2  and  N1_4 
REMARK    2  A    between atoms: N1_4  and  C4_6 
REMARK    3  A    between atoms: N2_9  and  C7_10 
REMARK    4  A    between atoms: C7_10  and  C8_11 
REMARK       I    between atoms: C8_11  and  N3_13 
REMARK    5  A    between atoms: N3_13  and  C9_15 
ROOT
HETATM    1  C7  UNL     1      23.490  50.525  -1.270  1.00  0.00     0.220 C 
ENDROOT
BRANCH   1   2
HETATM    2  N2  UNL     1      23.835  50.208   0.068  1.00  0.00    -0.404 N 
HETATM    3  C6  UNL     1      22.718  49.918   0.899  1.00  0.00     0.119 C 
HETATM    4  C5  UNL     1      22.378  48.441   0.982  1.00  0.00     0.044 C 
HETATM    5  C4  UNL     1      23.595  47.555   0.951  1.00  0.00     0.080 C 
HETATM    6  C17 UNL     1      24.762  48.427   1.397  1.00  0.00     0.044 C 
HETATM    7  C16 UNL     1      24.994  49.396   0.243  1.00  0.00     0.119 C 
BRANCH   5   8
HETATM    8  N1  UNL     1      23.522  46.424   1.817  1.00  0.00    -0.414 N 
ATOM      9  H1  UNL     1      23.732  45.480   1.492  1.00  0.00     0.153 HD
BRANCH   8  10
HETATM   10  C2  UNL     1      23.139  46.689   3.166  1.00  0.00     0.068 C 
HETATM   11  C1  UNL     1      21.944  45.866   3.560  1.00  0.00     0.031 C 
HETATM   12  C3  UNL     1      24.303  46.305   4.084  1.00  0.00     0.031 C 
ENDBRANCH   8  10
ENDBRANCH   5   8
ENDBRANCH   1   2
BRANCH   1  13
HETATM   13  C8  UNL     1      24.649  50.936  -2.052  1.00  0.00     0.239 C 
HETATM   14  O1  UNL     1      25.089  52.147  -1.924  1.00  0.00    -0.271 OA
HETATM   15  N3  UNL     1      25.385  50.154  -2.973  1.00  0.00    -0.330 N 
ATOM     16  H3  UNL     1      25.101  49.189  -3.138  1.00  0.00     0.168 HD
BRANCH  15  17
HETATM   17  C9  UNL     1      26.550  50.692  -3.700  1.00  0.00     0.009 C 
HETATM   18  C10 UNL     1      27.835  50.340  -3.014  1.00  0.00     0.068 C 
HETATM   19  C11 UNL     1      28.629  49.167  -3.682  1.00  0.00     0.086 C 
HETATM   20  C12 UNL     1      28.001  48.951  -4.913  1.00  0.00    -0.182 C 
HETATM   21  C13 UNL     1      27.349  48.733  -6.138  1.00  0.00     0.083 C 
HETATM   22  C14 UNL     1      26.127  49.722  -6.111  1.00  0.00     0.040 C 
HETATM   23  C15 UNL     1      26.289  50.798  -5.094  1.00  0.00    -0.001 C 
ENDBRANCH  15  17
ENDBRANCH   1  13
TORSDOF 5
ENDMDL
MODEL 3
REMARK VINA RESULT: -6.232217401      3.023      7.264
REMARK  5 active torsions:
REMARK  status: ('A' for Active; 'I' for Inactive)
REMARK    1  A    between atoms: C2_2  and  N1_4 
REMARK    2  A    between atoms: N1_4  and  C4_6 
REMARK    3  A    between atoms: N2_9  and  C7_10 
REMARK    4  A    between atoms: C7_10  and  C8_11 
REMARK       I    between atoms: C8_11  and  N3_13 
REMARK    5  A    between atoms: N3_13  and  C9_15 
ROOT
HETATM    1  C7  UNL     1      22.310  50.238   0.105  1.00  0.00     0.220 C 
ENDROOT
BRANCH   1   2
HETATM    2  N2  UNL     1      23.357  51.143  -0.203  1.00  0.00    -0.404 N 
HETATM    3  C6  UNL     1      24.415  51.145   0.748  1.00  0.00     0.119 C 
HETATM    4  C5  UNL     1      25.560  50.212   0.398  1.00  0.00     0.044 C 
HETATM    5  C4  UNL     1      25.824  50.133  -1.083  1.00  0.00     0.080 C 
HETATM    6  C17 UNL     1      25.239  51.406  -1.682  1.00  0.00     0.044 C 
HETATM    7  C16 UNL     1      23.727  51.233  -1.576  1.00  0.00     0.119 C 
BRANCH   5   8
HETATM    8  N1  UNL     1      27.205  50.066  -1.432  1.00  0.00    -0.414 N 
ATOM      9  H1  UNL     1      27.611  49.240  -1.873  1.00  0.00     0.153 HD
BRANCH   8  10
HETATM   10  C2  UNL     1      27.986  51.220  -1.131  1.00  0.00     0.068 C 
HETATM   11  C1  UNL     1      29.028  50.912  -0.091  1.00  0.00     0.031 C 
HETATM   12  C3  UNL     1      28.708  51.663  -2.406  1.00  0.00     0.031 C 
ENDBRANCH   8  10
ENDBRANCH   5   8
ENDBRANCH   1   2
BRANCH   1  13
HETATM   13  C8  UNL     1      22.811  48.911   0.435  1.00  0.00     0.239 C 
HETATM   14  O1  UNL     1      23.075  48.087  -0.528  1.00  0.00    -0.271 OA
HETATM   15  N3  UNL     1      23.057  48.381   1.724  1.00  0.00    -0.330 N 
ATOM     16  H3  UNL     1      22.871  48.963   2.540  1.00  0.00     0.168 HD
BRANCH  15  17
HETATM   17  C9  UNL     1      23.575  47.014   1.923  1.00  0.00     0.009 C 
HETATM   18  C10 UNL     1      24.947  47.030   2.525  1.00  0.00     0.068 C 
HETATM   19  C11 UNL     1      24.989  46.697   4.054  1.00  0.00     0.086 C 
HETATM   20  C12 UNL     1      23.710  46.223   4.364  1.00  0.00    -0.182 C 
HETATM   21  C13 UNL     1      22.417  45.766   4.665  1.00  0.00     0.083 C 
HETATM   22  C14 UNL     1      21.620  45.936   3.319  1.00  0.00     0.040 C 
HETATM   23  C15 UNL     1      22.521  46.086   2.141  1.00  0.00    -0.001 C 
ENDBRANCH  15  17
ENDBRANCH   1  13
TORSDOF 5
ENDMDL
MODEL 4
REMARK VINA RESULT: -6.218954285      2.184      7.051
REMARK  5 active torsions:
REMARK  status: ('A' for Active; 'I' for Inactive)
REMARK    1  A    between atoms: C2_2  and  N1_4 
REMARK    2  A    between atoms: N1_4  and  C4_6 
REMARK    3  A    between atoms: N2_9  and  C7_10 
REMARK    4  A    between atoms: C7_10  and  C8_11 
REMARK       I    between atoms: C8_11  and  N3_13 
REMARK    5  A    between atoms: N3_13  and  C9_15 
ROOT
HETATM    1  C7  UNL     1      27.737  50.438  -1.974  1.00  0.00     0.220 C 
ENDROOT
BRANCH   1   2
HETATM    2  N2  UNL     1      27.158  51.327  -2.914  1.00  0.00    -0.404 N 
HETATM    3  C6  UNL     1      26.847  50.723  -4.163  1.00  0.00     0.119 C 
HETATM    4  C5  UNL     1      25.422  50.210  -4.263  1.00  0.00     0.044 C 
HETATM    5  C4  UNL     1      24.432  51.078  -3.533  1.00  0.00     0.080 C 
HETATM    6  C17 UNL     1      25.085  52.449  -3.409  1.00  0.00     0.044 C 
HETATM    7  C16 UNL     1      26.210  52.259  -2.397  1.00  0.00     0.119 C 
BRANCH   5   8
HETATM    8  N1  UNL     1      23.181  51.235  -4.202  1.00  0.00    -0.414 N 
ATOM      9  H1  UNL     1      22.427  50.555  -4.104  1.00  0.00     0.153 HD
BRANCH   8  10
HETATM   10  C2  UNL     1      23.047  52.399  -5.017  1.00  0.00     0.068 C 
HETATM   11  C1  UNL     1      23.070  52.042  -6.477  1.00  0.00     0.031 C 
HETATM   12  C3  UNL     1      21.695  53.050  -4.710  1.00  0.00     0.031 C 
ENDBRANCH   8  10
ENDBRANCH   5   8
ENDBRANCH   1   2
BRANCH   1  13
HETATM   13  C8  UNL     1      26.959  50.356  -0.745  1.00  0.00     0.239 C 
HETATM   14  O1  UNL     1      27.481  50.796   0.354  1.00  0.00    -0.271 OA
HETATM   15  N3  UNL     1      25.653  49.835  -0.589  1.00  0.00    -0.330 N 
ATOM     16  H3  UNL     1      25.169  49.462  -1.406  1.00  0.00     0.168 HD
BRANCH  15  17
HETATM   17  C9  UNL     1      24.969  49.815   0.718  1.00  0.00     0.009 C 
HETATM   18  C10 UNL     1      23.777  50.723   0.727  1.00  0.00     0.068 C 
HETATM   19  C11 UNL     1      22.400  49.990   0.593  1.00  0.00     0.086 C 
HETATM   20  C12 UNL     1      22.688  48.631   0.759  1.00  0.00    -0.182 C 
HETATM   21  C13 UNL     1      22.995  47.269   0.910  1.00  0.00     0.083 C 
HETATM   22  C14 UNL     1      24.563  47.233   1.032  1.00  0.00     0.040 C 
HETATM   23  C15 UNL     1      25.137  48.565   1.373  1.00  0.00    -0.001 C 
ENDBRANCH  15  17
ENDBRANCH   1  13
TORSDOF 5
ENDMDL
MODEL 5
REMARK VINA RESULT: -6.134403079      1.998      8.103
REMARK  5 active torsions:
REMARK  status: ('A' for Active; 'I' for Inactive)
REMARK    1  A    between atoms: C2_2  and  N1_4 
REMARK    2  A    between atoms: N1_4  and  C4_6 
REMARK    3  A    between atoms: N2_9  and  C7_10 
REMARK    4  A    between atoms: C7_10  and  C8_11 
REMARK       I    between atoms: C8_11  and  N3_13 
REMARK    5  A    between atoms: N3_13  and  C9_15 
ROOT
HETATM    1  C7  UNL     1      25.237  51.853  -3.995  1.00  0.00     0.220 C 
ENDROOT
BRANCH   1   2
HETATM    2  N2  UNL     1      24.702  50.746  -4.701  1.00  0.00    -0.404 N 
HETATM    3  C6  UNL     1      23.403  50.974  -5.233  1.00  0.00     0.119 C 
HETATM    4  C5  UNL     1      23.402  51.470  -6.667  1.00  0.00     0.044 C 
HETATM    5  C4  UNL     1      24.506  50.870  -7.498  1.00  0.00     0.080 C 
HETATM    6  C17 UNL     1      24.905  49.577  -6.796  1.00  0.00     0.044 C 
HETATM    7  C16 UNL     1      25.615  50.023  -5.523  1.00  0.00     0.119 C 
BRANCH   5   8
HETATM    8  N1  UNL     1      24.131  50.557  -8.838  1.00  0.00    -0.414 N 
ATOM      9  H1  UNL     1      23.234  50.845  -9.229  1.00  0.00     0.153 HD
BRANCH   8  10
HETATM   10  C2  UNL     1      25.084  49.818  -9.600  1.00  0.00     0.068 C 
HETATM   11  C1  UNL     1      24.475  49.306 -10.877  1.00  0.00     0.031 C 
HETATM   12  C3  UNL     1      26.239  50.752  -9.969  1.00  0.00     0.031 C 
ENDBRANCH   8  10
ENDBRANCH   5   8
ENDBRANCH   1   2
BRANCH   1  13
HETATM   13  C8  UNL     1      24.829  51.860  -2.596  1.00  0.00     0.239 C 
HETATM   14  O1  UNL     1      24.821  52.985  -1.956  1.00  0.00    -0.271 OA
HETATM   15  N3  UNL     1      24.425  50.753  -1.813  1.00  0.00    -0.330 N 
ATOM     16  H3  UNL     1      24.407  49.827  -2.240  1.00  0.00     0.168 HD
BRANCH  15  17
HETATM   17  C9  UNL     1      24.028  50.898  -0.400  1.00  0.00     0.009 C 
HETATM   18  C10 UNL     1      22.572  50.598  -0.206  1.00  0.00     0.068 C 
HETATM   19  C11 UNL     1      22.275  49.188   0.406  1.00  0.00     0.086 C 
HETATM   20  C12 UNL     1      23.514  48.704   0.838  1.00  0.00    -0.182 C 
HETATM   21  C13 UNL     1      24.768  48.223   1.249  1.00  0.00     0.083 C 
HETATM   22  C14 UNL     1      25.784  49.328   0.777  1.00  0.00     0.040 C 
HETATM   23  C15 UNL     1      25.114  50.624   0.475  1.00  0.00    -0.001 C 
ENDBRANCH  15  17
ENDBRANCH   1  13
TORSDOF 5
ENDMDL
