MODEL 1
REMARK VINA RESULT: -7.458109711      0.000      0.000
REMARK  6 active torsions:
REMARK  status: ('A' for Active; 'I' for Inactive)
REMARK       I    between atoms: C1_2  and  N1_3 
REMARK    1  A    between atoms: C1_2  and  C7_12 
REMARK    2  A    between atoms: N1_3  and  C2_5 
REMARK    3  A    between atoms: C2_5  and  C3_6 
REMARK    4  A    between atoms: C3_6  and  O2_7 
REMARK    5  A    between atoms: C11_16  and  C12_17 
REMARK    6  A    between atoms: C12_17  and  N2_18 
ROOT
HETATM    1  C7  UNL     1      23.085  48.223   0.619  1.00  0.00     0.078 C 
HETATM    2  C8  UNL     1      22.081  49.296   0.515  1.00  0.00     0.014 C 
HETATM    3  C9  UNL     1      22.434  50.481  -0.309  1.00  0.00     0.002 C 
HETATM    4  C10 UNL     1      23.803  50.974   0.084  1.00  0.00     0.010 C 
HETATM    5  C11 UNL     1      24.758  49.860  -0.334  1.00  0.00     0.025 C 
HETATM    6  C17 UNL     1      24.510  48.598   0.436  1.00  0.00     0.024 C 
ENDROOT
BRANCH   1   7
HETATM    7  C1  UNL     1      22.860  47.501   1.906  1.00  0.00     0.222 C 
HETATM    8  O1  UNL     1      21.668  47.336   2.263  1.00  0.00    -0.273 OA
HETATM    9  N1  UNL     1      23.891  47.012   2.712  1.00  0.00    -0.349 N 
ATOM     10  H1  UNL     1      24.843  47.168   2.384  1.00  0.00     0.163 HD
BRANCH   9  11
HETATM   11  C2  UNL     1      23.744  46.309   3.961  1.00  0.00     0.054 C 
HETATM   12  C4  UNL     1      25.051  46.054   4.675  1.00  0.00     0.033 C 
HETATM   13  C5  UNL     1      24.749  47.100   5.714  1.00  0.00     0.005 C 
HETATM   14  C6  UNL     1      23.363  47.234   5.126  1.00  0.00     0.033 C 
BRANCH  11  15
HETATM   15  C3  UNL     1      22.883  45.080   3.884  1.00  0.00     0.195 C 
BRANCH  15  16
HETATM   16  O2  UNL     1      21.756  45.258   4.688  1.00  0.00    -0.398 OA
ATOM     17  H2  UNL     1      21.259  46.003   4.370  1.00  0.00     0.209 HD
ENDBRANCH  15  16
ENDBRANCH  11  15
ENDBRANCH   9  11
ENDBRANCH   1   7
BRANCH   5  18
HETATM   18  C12 UNL     1      26.159  50.337  -0.190  1.00  0.00     0.072 C 
BRANCH  18  19
HETATM   19  N2  UNL     1      26.845  50.687  -1.347  1.00  0.00    -0.354 N 
HETATM   20  C13 UNL     1      26.297  50.445  -2.605  1.00  0.00     0.068 C 
HETATM   21  C14 UNL     1      27.457  49.891  -3.410  1.00  0.00     0.050 C 
HETATM   22  C15 UNL     1      28.628  50.680  -2.827  1.00  0.00     0.050 C 
HETATM   23  C16 UNL     1      28.247  50.747  -1.349  1.00  0.00     0.068 C 
ENDBRANCH  18  19
ENDBRANCH   5  18
TORSDOF 6
ENDMDL
MODEL 2
REMARK VINA RESULT: -7.426366879      2.905      7.539
REMARK  6 active torsions:
REMARK  status: ('A' for Active; 'I' for Inactive)
REMARK       I    between atoms: C1_2  and  N1_3 
REMARK    1  A    between atoms: C1_2  and  C7_12 
REMARK    2  A    between atoms: N1_3  and  C2_5 
REMARK    3  A    between atoms: C2_5  and  C3_6 
REMARK    4  A    between atoms: C3_6  and  O2_7 
REMARK    5  A    between atoms: C11_16  and  C12_17 
REMARK    6  A    between atoms: C12_17  and  N2_18 
ROOT
HETATM    1  C7  UNL     1      25.555  50.314   0.376  1.00  0.00     0.078 C 
HETATM    2  C8  UNL     1      24.387  51.145   0.031  1.00  0.00     0.014 C 
HETATM    3  C9  UNL     1      23.067  50.716   0.561  1.00  0.00     0.002 C 
HETATM    4  C10 UNL     1      22.866  49.250   0.275  1.00  0.00     0.010 C 
HETATM    5  C11 UNL     1      23.919  48.537   1.119  1.00  0.00     0.025 C 
HETATM    6  C17 UNL     1      25.310  48.881   0.679  1.00  0.00     0.024 C 
ENDROOT
BRANCH   1   7
HETATM    7  C1  UNL     1      26.580  50.489  -0.695  1.00  0.00     0.222 C 
HETATM    8  O1  UNL     1      27.759  50.705  -0.322  1.00  0.00    -0.273 OA
HETATM    9  N1  UNL     1      26.294  50.426  -2.061  1.00  0.00    -0.349 N 
ATOM     10  H1  UNL     1      25.324  50.249  -2.319  1.00  0.00     0.163 HD
BRANCH   9  11
HETATM   11  C2  UNL     1      27.233  50.585  -3.143  1.00  0.00     0.054 C 
HETATM   12  C4  UNL     1      28.281  49.498  -3.204  1.00  0.00     0.033 C 
HETATM   13  C5  UNL     1      27.639  48.874  -4.414  1.00  0.00     0.005 C 
HETATM   14  C6  UNL     1      26.698  50.054  -4.480  1.00  0.00     0.033 C 
BRANCH  11  15
HETATM   15  C3  UNL     1      27.825  51.961  -3.254  1.00  0.00     0.195 C 
BRANCH  15  16
HETATM   16  O2  UNL     1      29.102  51.959  -2.691  1.00  0.00    -0.398 OA
ATOM     17  H2  UNL     1      29.716  51.584  -3.312  1.00  0.00     0.209 HD
ENDBRANCH  15  16
ENDBRANCH  11  15
ENDBRANCH   9  11
ENDBRANCH   1   7
BRANCH   5  18
HETATM   18  C12 UNL     1      23.667  47.072   1.080  1.00  0.00     0.072 C 
BRANCH  18  19
HETATM   19  N2  UNL     1      23.620  46.392   2.291  1.00  0.00    -0.354 N 
HETATM   20  C13 UNL     1      22.415  45.900   2.791  1.00  0.00     0.068 C 
HETATM   21  C14 UNL     1      22.452  46.266   4.263  1.00  0.00     0.050 C 
HETATM   22  C15 UNL     1      23.941  46.115   4.570  1.00  0.00     0.050 C 
HETATM   23  C16 UNL     1      24.574  46.652   3.287  1.00  0.00     0.068 C 
ENDBRANCH  18  19
ENDBRANCH   5  18
TORSDOF 6
ENDMDL
MODEL 3
REMARK VINA RESULT: -7.268111469      3.056      7.789
REMARK  6 active torsions:
REMARK  status: ('A' for Active; 'I' for Inactive)
REMARK       I    between atoms: C1_2  and  N1_3 
REMARK    1  A    between atoms: C1_2  and  C7_12 
REMARK    2  A    between atoms: N1_3  and  C2_5 
REMARK    3  A    between atoms: C2_5  and  C3_6 
REMARK    4  A    between atoms: C3_6  and  O2_7 
REMARK    5  A    between atoms: C11_16  and  C12_17 
REMARK    6  A    between atoms: C12_17  and  N2_18 
ROOT
HETATM    1  C7  UNL     1      25.471  50.592  -0.317  1.00  0.00     0.078 C 
HETATM    2  C8  UNL     1      24.197  51.009  -0.929  1.00  0.00     0.014 C 
HETATM    3  C9  UNL     1      22.946  50.488  -0.321  1.00  0.00     0.002 C 
HETATM    4  C10 UNL     1      23.064  48.996  -0.137  1.00  0.00     0.010 C 
HETATM    5  C11 UNL     1      24.160  48.814   0.911  1.00  0.00     0.025 C 
HETATM    6  C17 UNL     1      25.488  49.300   0.415  1.00  0.00     0.024 C 
ENDROOT
BRANCH   1   7
HETATM    7  C1  UNL     1      26.531  50.652  -1.366  1.00  0.00     0.222 C 
HETATM    8  O1  UNL     1      27.684  50.976  -0.990  1.00  0.00    -0.273 OA
HETATM    9  N1  UNL     1      26.304  50.370  -2.715  1.00  0.00    -0.349 N 
ATOM     10  H1  UNL     1      25.353  50.111  -2.976  1.00  0.00     0.163 HD
BRANCH   9  11
HETATM   11  C2  UNL     1      27.279  50.408  -3.776  1.00  0.00     0.054 C 
HETATM   12  C4  UNL     1      28.326  49.322  -3.680  1.00  0.00     0.033 C 
HETATM   13  C5  UNL     1      27.723  48.566  -4.834  1.00  0.00     0.005 C 
HETATM   14  C6  UNL     1      26.787  49.730  -5.063  1.00  0.00     0.033 C 
BRANCH  11  15
HETATM   15  C3  UNL     1      27.878  51.764  -4.020  1.00  0.00     0.195 C 
BRANCH  15  16
HETATM   16  O2  UNL     1      29.159  51.806  -3.469  1.00  0.00    -0.398 OA
ATOM     17  H2  UNL     1      29.233  52.570  -2.908  1.00  0.00     0.209 HD
ENDBRANCH  15  16
ENDBRANCH  11  15
ENDBRANCH   9  11
ENDBRANCH   1   7
BRANCH   5  18
HETATM   18  C12 UNL     1      24.205  47.387   1.327  1.00  0.00     0.072 C 
BRANCH  18  19
HETATM   19  N2  UNL     1      23.594  47.044   2.527  1.00  0.00    -0.354 N 
HETATM   20  C13 UNL     1      24.352  46.687   3.641  1.00  0.00     0.068 C 
HETATM   21  C14 UNL     1      23.628  45.478   4.204  1.00  0.00     0.050 C 
HETATM   22  C15 UNL     1      22.174  45.834   3.902  1.00  0.00     0.050 C 
HETATM   23  C16 UNL     1      22.299  46.501   2.533  1.00  0.00     0.068 C 
ENDBRANCH  18  19
ENDBRANCH   5  18
TORSDOF 6
ENDMDL
MODEL 4
REMARK VINA RESULT: -6.974623283      2.849      7.688
REMARK  6 active torsions:
REMARK  status: ('A' for Active; 'I' for Inactive)
REMARK       I    between atoms: C1_2  and  N1_3 
REMARK    1  A    between atoms: C1_2  and  C7_12 
REMARK    2  A    between atoms: N1_3  and  C2_5 
REMARK    3  A    between atoms: C2_5  and  C3_6 
REMARK    4  A    between atoms: C3_6  and  O2_7 
REMARK    5  A    between atoms: C11_16  and  C12_17 
REMARK    6  A    between atoms: C12_17  and  N2_18 
ROOT
HETATM    1  C7  UNL     1      24.608  50.503  -0.837  1.00  0.00     0.078 C 
HETATM    2  C8  UNL     1      23.161  50.760  -0.951  1.00  0.00     0.014 C 
HETATM    3  C9  UNL     1      22.288  50.223   0.124  1.00  0.00     0.002 C 
HETATM    4  C10 UNL     1      22.623  48.773   0.363  1.00  0.00     0.010 C 
HETATM    5  C11 UNL     1      24.041  48.785   0.928  1.00  0.00     0.025 C 
HETATM    6  C17 UNL     1      25.032  49.304  -0.071  1.00  0.00     0.024 C 
ENDROOT
BRANCH   1   7
HETATM    7  C1  UNL     1      25.190  50.520  -2.211  1.00  0.00     0.222 C 
HETATM    8  O1  UNL     1      24.385  50.421  -3.170  1.00  0.00    -0.273 OA
HETATM    9  N1  UNL     1      26.557  50.639  -2.474  1.00  0.00    -0.349 N 
ATOM     10  H1  UNL     1      27.174  50.718  -1.666  1.00  0.00     0.163 HD
BRANCH   9  11
HETATM   11  C2  UNL     1      27.184  50.663  -3.771  1.00  0.00     0.054 C 
HETATM   12  C4  UNL     1      28.660  50.342  -3.741  1.00  0.00     0.033 C 
HETATM   13  C5  UNL     1      28.431  48.983  -4.345  1.00  0.00     0.005 C 
HETATM   14  C6  UNL     1      26.983  49.359  -4.555  1.00  0.00     0.033 C 
BRANCH  11  15
HETATM   15  C3  UNL     1      26.878  51.889  -4.585  1.00  0.00     0.195 C 
BRANCH  15  16
HETATM   16  O2  UNL     1      25.886  51.585  -5.518  1.00  0.00    -0.398 OA
ATOM     17  H2  UNL     1      25.472  52.390  -5.808  1.00  0.00     0.209 HD
ENDBRANCH  15  16
ENDBRANCH  11  15
ENDBRANCH   9  11
ENDBRANCH   1   7
BRANCH   5  18
HETATM   18  C12 UNL     1      24.389  47.420   1.403  1.00  0.00     0.072 C 
BRANCH  18  19
HETATM   19  N2  UNL     1      23.864  47.006   2.622  1.00  0.00    -0.354 N 
HETATM   20  C13 UNL     1      24.654  46.972   3.768  1.00  0.00     0.068 C 
HETATM   21  C14 UNL     1      24.294  45.652   4.423  1.00  0.00     0.050 C 
HETATM   22  C15 UNL     1      22.810  45.543   4.078  1.00  0.00     0.050 C 
HETATM   23  C16 UNL     1      22.783  46.111   2.660  1.00  0.00     0.068 C 
ENDBRANCH  18  19
ENDBRANCH   5  18
TORSDOF 6
ENDMDL
MODEL 5
REMARK VINA RESULT: -6.918282768      2.832      7.526
REMARK  6 active torsions:
REMARK  status: ('A' for Active; 'I' for Inactive)
REMARK       I    between atoms: C1_2  and  N1_3 
REMARK    1  A    between atoms: C1_2  and  C7_12 
REMARK    2  A    between atoms: N1_3  and  C2_5 
REMARK    3  A    between atoms: C2_5  and  C3_6 
REMARK    4  A    between atoms: C3_6  and  O2_7 
REMARK    5  A    between atoms: C11_16  and  C12_17 
REMARK    6  A    between atoms: C12_17  and  N2_18 
ROOT
HETATM    1  C7  UNL     1      25.390  50.267   0.379  1.00  0.00     0.078 C 
HETATM    2  C8  UNL     1      24.214  51.101   0.072  1.00  0.00     0.014 C 
HETATM    3  C9  UNL     1      22.910  50.673   0.642  1.00  0.00     0.002 C 
HETATM    4  C10 UNL     1      22.698  49.207   0.361  1.00  0.00     0.010 C 
HETATM    5  C11 UNL     1      23.775  48.492   1.171  1.00  0.00     0.025 C 
HETATM    6  C17 UNL     1      25.153  48.834   0.687  1.00  0.00     0.024 C 
ENDROOT
BRANCH   1   7
HETATM    7  C1  UNL     1      26.381  50.442  -0.723  1.00  0.00     0.222 C 
HETATM    8  O1  UNL     1      27.539  50.800  -0.394  1.00  0.00    -0.273 OA
HETATM    9  N1  UNL     1      26.088  50.231  -2.073  1.00  0.00    -0.349 N 
ATOM     10  H1  UNL     1      25.135  49.941  -2.295  1.00  0.00     0.163 HD
BRANCH   9  11
HETATM   11  C2  UNL     1      26.994  50.381  -3.183  1.00  0.00     0.054 C 
HETATM   12  C4  UNL     1      26.349  50.156  -4.531  1.00  0.00     0.033 C 
HETATM   13  C5  UNL     1      26.384  51.626  -4.852  1.00  0.00     0.005 C 
HETATM   14  C6  UNL     1      27.195  51.846  -3.596  1.00  0.00     0.033 C 
BRANCH  11  15
HETATM   15  C3  UNL     1      28.288  49.632  -3.032  1.00  0.00     0.195 C 
BRANCH  15  16
HETATM   16  O2  UNL     1      28.430  48.742  -4.098  1.00  0.00    -0.398 OA
ATOM     17  H2  UNL     1      29.290  48.855  -4.487  1.00  0.00     0.209 HD
ENDBRANCH  15  16
ENDBRANCH  11  15
ENDBRANCH   9  11
ENDBRANCH   1   7
BRANCH   5  18
HETATM   18  C12 UNL     1      23.519  47.027   1.138  1.00  0.00     0.072 C 
BRANCH  18  19
HETATM   19  N2  UNL     1      23.531  46.342   2.347  1.00  0.00    -0.354 N 
HETATM   20  C13 UNL     1      22.360  45.805   2.877  1.00  0.00     0.068 C 
HETATM   21  C14 UNL     1      22.425  46.166   4.350  1.00  0.00     0.050 C 
HETATM   22  C15 UNL     1      23.926  46.069   4.614  1.00  0.00     0.050 C 
HETATM   23  C16 UNL     1      24.504  46.633   3.317  1.00  0.00     0.068 C 
ENDBRANCH  18  19
ENDBRANCH   5  18
TORSDOF 6
ENDMDL
