MODEL 1
REMARK VINA RESULT: -6.164096056      0.000      0.000
REMARK  14 active torsions:
REMARK  status: ('A' for Active; 'I' for Inactive)
REMARK    1  A    between atoms: C2_2  and  C3_4 
REMARK    2  A    between atoms: C3_4  and  O2_5 
REMARK    3  A    between atoms: C3_4  and  C4_7 
REMARK    4  A    between atoms: C4_7  and  O3_9 
REMARK    5  A    between atoms: C4_7  and  C6_11 
REMARK    6  A    between atoms: C10_17  and  O6_18 
REMARK    7  A    between atoms: O6_18  and  C11_19 
REMARK    8  A    between atoms: C13_21  and  C14_22 
REMARK    9  A    between atoms: C14_22  and  N2_25 
REMARK   10  A    between atoms: N2_25  and  N3_27 
REMARK   11  A    between atoms: N3_27  and  N4_28 
REMARK   12  A    between atoms: C16_31  and  O7_32 
REMARK   13  A    between atoms: C17_34  and  O8_35 
REMARK   14  A    between atoms: C18_37  and  O9_38 
ROOT
HETATM    1  C14 UNL     1      -9.523  12.737   8.274  1.00  0.00     0.227 C 
HETATM    2  C15 UNL     1     -10.103  11.661   9.079  1.00  0.00     0.087 C 
HETATM    3  N1  UNL     1     -10.563  10.807   9.733  1.00  0.00    -0.195 NA
ENDROOT
BRANCH   1   4
HETATM    4  C13 UNL     1      -8.024  12.590   8.166  1.00  0.00     0.059 C 
HETATM    5  C12 UNL     1      -7.395  12.247   9.502  1.00  0.00     0.045 C 
HETATM    6  C11 UNL     1      -5.951  11.945   9.242  1.00  0.00     0.156 C 
HETATM    7  C18 UNL     1      -5.274  13.240   8.849  1.00  0.00     0.178 C 
HETATM    8  C17 UNL     1      -6.269  14.308   8.448  1.00  0.00     0.178 C 
HETATM    9  C16 UNL     1      -7.357  13.764   7.542  1.00  0.00     0.156 C 
BRANCH   6  10
HETATM   10  O6  UNL     1      -5.260  11.319  10.198  1.00  0.00    -0.350 OA
BRANCH  10  11
HETATM   11  C10 UNL     1      -4.715  10.090  10.000  1.00  0.00     0.296 C 
HETATM   12  C6  UNL     1      -4.166   9.522  11.261  1.00  0.00     0.217 C 
HETATM   13  O4  UNL     1      -4.785   8.302  11.412  1.00  0.00    -0.343 OA
HETATM   14  C7  UNL     1      -5.963   8.404  10.724  1.00  0.00     0.160 C 
HETATM   15  C8  UNL     1      -6.997   9.042  11.602  1.00  0.00     0.078 C 
HETATM   16  C9  UNL     1      -6.479   7.066  10.228  1.00  0.00     0.078 C 
HETATM   17  O5  UNL     1      -5.665   9.163   9.590  1.00  0.00    -0.323 OA
BRANCH  12  18
HETATM   18  C4  UNL     1      -2.653   9.391  11.249  1.00  0.00     0.117 C 
HETATM   19  C5  UNL     1      -2.252   7.995  10.900  1.00  0.00     0.052 C 
BRANCH  18  20
HETATM   20  C3  UNL     1      -2.150   9.792  12.639  1.00  0.00     0.223 C 
BRANCH  20  21
HETATM   21  C2  UNL     1      -2.870  10.929  13.200  1.00  0.00     0.154 C 
HETATM   22  C1  UNL     1      -3.958  10.724  14.185  1.00  0.00     0.094 C 
HETATM   23  O1  UNL     1      -2.581  12.056  12.861  1.00  0.00    -0.295 OA
ENDBRANCH  20  21
BRANCH  20  24
HETATM   24  O2  UNL     1      -0.794  10.080  12.607  1.00  0.00    -0.385 OA
ATOM     25  H2  UNL     1      -0.458  10.106  13.495  1.00  0.00     0.210 HD
ENDBRANCH  20  24
ENDBRANCH  18  20
BRANCH  18  26
HETATM   26  O3  UNL     1      -2.042  10.260  10.358  1.00  0.00    -0.384 OA
ATOM     27  H3  UNL     1      -1.166   9.919  10.221  1.00  0.00     0.210 HD
ENDBRANCH  18  26
ENDBRANCH  12  18
ENDBRANCH  10  11
ENDBRANCH   6  10
BRANCH   7  28
HETATM   28  O9  UNL     1      -4.590  13.680  10.005  1.00  0.00    -0.390 OA
ATOM     29  H9  UNL     1      -4.557  14.627   9.939  1.00  0.00     0.210 HD
ENDBRANCH   7  28
BRANCH   8  30
HETATM   30  O8  UNL     1      -5.554  15.236   7.655  1.00  0.00    -0.390 OA
ATOM     31  H8  UNL     1      -4.791  15.470   8.172  1.00  0.00     0.210 HD
ENDBRANCH   8  30
BRANCH   9  32
HETATM   32  O7  UNL     1      -8.285  14.777   7.343  1.00  0.00    -0.392 OA
ATOM     33  H7  UNL     1      -8.189  15.435   8.022  1.00  0.00     0.210 HD
ENDBRANCH   9  32
ENDBRANCH   1   4
BRANCH   1  34
HETATM   34  N2  UNL     1     -10.128  12.649   6.960  1.00  0.00    -0.234 N 
ATOM     35  H2  UNL     1      -9.732  11.999   6.282  1.00  0.00     0.198 HD
BRANCH  34  36
HETATM   36  N3  UNL     1     -11.084  13.313   6.635  1.00  0.00    -0.247 NA
BRANCH  36  37
HETATM   37  N4  UNL     1     -12.073  13.898   6.212  1.00  0.00    -0.261 N 
ATOM     38  H42 UNL     1     -11.410  14.665   6.103  1.00  0.00     0.193 HD
ATOM     39  H41 UNL     1     -12.952  14.294   5.877  1.00  0.00     0.193 HD
ENDBRANCH  36  37
ENDBRANCH  34  36
ENDBRANCH   1  34
TORSDOF 14
ENDMDL
MODEL 2
REMARK VINA RESULT: -6.035814040      1.177      1.310
REMARK  14 active torsions:
REMARK  status: ('A' for Active; 'I' for Inactive)
REMARK    1  A    between atoms: C2_2  and  C3_4 
REMARK    2  A    between atoms: C3_4  and  O2_5 
REMARK    3  A    between atoms: C3_4  and  C4_7 
REMARK    4  A    between atoms: C4_7  and  O3_9 
REMARK    5  A    between atoms: C4_7  and  C6_11 
REMARK    6  A    between atoms: C10_17  and  O6_18 
REMARK    7  A    between atoms: O6_18  and  C11_19 
REMARK    8  A    between atoms: C13_21  and  C14_22 
REMARK    9  A    between atoms: C14_22  and  N2_25 
REMARK   10  A    between atoms: N2_25  and  N3_27 
REMARK   11  A    between atoms: N3_27  and  N4_28 
REMARK   12  A    between atoms: C16_31  and  O7_32 
REMARK   13  A    between atoms: C17_34  and  O8_35 
REMARK   14  A    between atoms: C18_37  and  O9_38 
ROOT
HETATM    1  C14 UNL     1      -8.862  12.676   8.530  1.00  0.00     0.227 C 
HETATM    2  C15 UNL     1      -9.522  11.566   9.217  1.00  0.00     0.087 C 
HETATM    3  N1  UNL     1     -10.047  10.685   9.779  1.00  0.00    -0.195 NA
ENDROOT
BRANCH   1   4
HETATM    4  C13 UNL     1      -7.359  12.538   8.586  1.00  0.00     0.059 C 
HETATM    5  C12 UNL     1      -6.885  12.116   9.964  1.00  0.00     0.045 C 
HETATM    6  C11 UNL     1      -5.419  11.832   9.854  1.00  0.00     0.156 C 
HETATM    7  C18 UNL     1      -4.711  13.148   9.619  1.00  0.00     0.178 C 
HETATM    8  C17 UNL     1      -5.661  14.237   9.170  1.00  0.00     0.178 C 
HETATM    9  C16 UNL     1      -6.634  13.748   8.114  1.00  0.00     0.156 C 
BRANCH   6  10
HETATM   10  O6  UNL     1      -4.838  11.150  10.844  1.00  0.00    -0.350 OA
BRANCH  10  11
HETATM   11  C10 UNL     1      -4.199   9.971  10.624  1.00  0.00     0.296 C 
HETATM   12  C6  UNL     1      -3.546   9.460  11.860  1.00  0.00     0.217 C 
HETATM   13  O4  UNL     1      -4.050   8.193  12.043  1.00  0.00    -0.343 OA
HETATM   14  C7  UNL     1      -5.263   8.190  11.409  1.00  0.00     0.160 C 
HETATM   15  C8  UNL     1      -6.306   8.742  12.333  1.00  0.00     0.078 C 
HETATM   16  C9  UNL     1      -5.684   6.809  10.941  1.00  0.00     0.078 C 
HETATM   17  O5  UNL     1      -5.083   8.964  10.261  1.00  0.00    -0.323 OA
BRANCH  12  18
HETATM   18  C4  UNL     1      -2.029   9.459  11.779  1.00  0.00     0.117 C 
HETATM   19  C5  UNL     1      -1.528   8.110  11.375  1.00  0.00     0.052 C 
BRANCH  18  20
HETATM   20  C3  UNL     1      -1.498   9.870  13.155  1.00  0.00     0.223 C 
BRANCH  20  21
HETATM   21  C2  UNL     1      -2.204   9.224  14.255  1.00  0.00     0.154 C 
HETATM   22  C1  UNL     1      -1.761   7.906  14.768  1.00  0.00     0.094 C 
HETATM   23  O1  UNL     1      -3.165   9.765  14.759  1.00  0.00    -0.295 OA
ENDBRANCH  20  21
BRANCH  20  24
HETATM   24  O2  UNL     1      -1.562  11.246  13.316  1.00  0.00    -0.385 OA
ATOM     25  H2  UNL     1      -2.100  11.617  12.627  1.00  0.00     0.210 HD
ENDBRANCH  20  24
ENDBRANCH  18  20
BRANCH  18  26
HETATM   26  O3  UNL     1      -1.535  10.397  10.884  1.00  0.00    -0.384 OA
ATOM     27  H3  UNL     1      -1.005   9.911  10.264  1.00  0.00     0.210 HD
ENDBRANCH  18  26
ENDBRANCH  12  18
ENDBRANCH  10  11
ENDBRANCH   6  10
BRANCH   7  28
HETATM   28  O9  UNL     1      -4.168  13.519  10.870  1.00  0.00    -0.390 OA
ATOM     29  H9  UNL     1      -4.779  13.196  11.521  1.00  0.00     0.210 HD
ENDBRANCH   7  28
BRANCH   8  30
HETATM   30  O8  UNL     1      -4.867  15.212   8.522  1.00  0.00    -0.390 OA
ATOM     31  H8  UNL     1      -4.026  14.794   8.379  1.00  0.00     0.210 HD
ENDBRANCH   8  30
BRANCH   9  32
HETATM   32  O7  UNL     1      -7.540  14.770   7.870  1.00  0.00    -0.392 OA
ATOM     33  H7  UNL     1      -7.097  15.609   7.922  1.00  0.00     0.210 HD
ENDBRANCH   9  32
ENDBRANCH   1   4
BRANCH   1  34
HETATM   34  N2  UNL     1      -9.313  12.643   7.153  1.00  0.00    -0.234 N 
ATOM     35  H2  UNL     1      -8.643  12.851   6.413  1.00  0.00     0.198 HD
BRANCH  34  36
HETATM   36  N3  UNL     1     -10.451  12.377   6.845  1.00  0.00    -0.247 NA
BRANCH  36  37
HETATM   37  N4  UNL     1     -11.563  12.105   6.409  1.00  0.00    -0.261 N 
ATOM     38  H42 UNL     1     -11.109  11.223   6.172  1.00  0.00     0.193 HD
ATOM     39  H41 UNL     1     -12.519  11.978   6.078  1.00  0.00     0.193 HD
ENDBRANCH  36  37
ENDBRANCH  34  36
ENDBRANCH   1  34
TORSDOF 14
ENDMDL
MODEL 3
REMARK VINA RESULT: -5.852771367      3.931      7.384
REMARK  14 active torsions:
REMARK  status: ('A' for Active; 'I' for Inactive)
REMARK    1  A    between atoms: C2_2  and  C3_4 
REMARK    2  A    between atoms: C3_4  and  O2_5 
REMARK    3  A    between atoms: C3_4  and  C4_7 
REMARK    4  A    between atoms: C4_7  and  O3_9 
REMARK    5  A    between atoms: C4_7  and  C6_11 
REMARK    6  A    between atoms: C10_17  and  O6_18 
REMARK    7  A    between atoms: O6_18  and  C11_19 
REMARK    8  A    between atoms: C13_21  and  C14_22 
REMARK    9  A    between atoms: C14_22  and  N2_25 
REMARK   10  A    between atoms: N2_25  and  N3_27 
REMARK   11  A    between atoms: N3_27  and  N4_28 
REMARK   12  A    between atoms: C16_31  and  O7_32 
REMARK   13  A    between atoms: C17_34  and  O8_35 
REMARK   14  A    between atoms: C18_37  and  O9_38 
ROOT
HETATM    1  C14 UNL     1      -3.431   6.979  11.612  1.00  0.00     0.227 C 
HETATM    2  C15 UNL     1      -4.649   6.222  11.319  1.00  0.00     0.087 C 
HETATM    3  N1  UNL     1      -5.619   5.619  11.071  1.00  0.00    -0.195 NA
ENDROOT
BRANCH   1   4
HETATM    4  C13 UNL     1      -3.700   8.465  11.612  1.00  0.00     0.059 C 
HETATM    5  C12 UNL     1      -4.654   8.863  10.503  1.00  0.00     0.045 C 
HETATM    6  C11 UNL     1      -4.990  10.308  10.712  1.00  0.00     0.156 C 
HETATM    7  C18 UNL     1      -3.745  11.117  10.421  1.00  0.00     0.178 C 
HETATM    8  C17 UNL     1      -2.495  10.263  10.417  1.00  0.00     0.178 C 
HETATM    9  C16 UNL     1      -2.463   9.291  11.581  1.00  0.00     0.156 C 
BRANCH   6  10
HETATM   10  O6  UNL     1      -6.043  10.806  10.060  1.00  0.00    -0.350 OA
BRANCH  10  11
HETATM   11  C10 UNL     1      -6.695  11.917  10.495  1.00  0.00     0.296 C 
HETATM   12  C6  UNL     1      -7.885  12.221   9.654  1.00  0.00     0.217 C 
HETATM   13  O4  UNL     1      -8.946  12.275  10.527  1.00  0.00    -0.343 OA
HETATM   14  C7  UNL     1      -8.577  11.505  11.596  1.00  0.00     0.160 C 
HETATM   15  C8  UNL     1      -8.887  10.068  11.303  1.00  0.00     0.078 C 
HETATM   16  C9  UNL     1      -9.261  11.915  12.888  1.00  0.00     0.078 C 
HETATM   17  O5  UNL     1      -7.212  11.746  11.772  1.00  0.00    -0.323 OA
BRANCH  12  18
HETATM   18  C4  UNL     1      -7.742  13.506   8.858  1.00  0.00     0.117 C 
HETATM   19  C5  UNL     1      -8.976  13.766   8.057  1.00  0.00     0.052 C 
BRANCH  18  20
HETATM   20  C3  UNL     1      -6.509  13.354   7.962  1.00  0.00     0.223 C 
BRANCH  20  21
HETATM   21  C2  UNL     1      -5.635  14.521   7.991  1.00  0.00     0.154 C 
HETATM   22  C1  UNL     1      -5.626  15.487   6.867  1.00  0.00     0.094 C 
HETATM   23  O1  UNL     1      -4.907  14.709   8.941  1.00  0.00    -0.295 OA
ENDBRANCH  20  21
BRANCH  20  24
HETATM   24  O2  UNL     1      -6.881  13.094   6.652  1.00  0.00    -0.385 OA
ATOM     25  H2  UNL     1      -7.795  12.835   6.631  1.00  0.00     0.210 HD
ENDBRANCH  20  24
ENDBRANCH  18  20
BRANCH  18  26
HETATM   26  O3  UNL     1      -7.496  14.613   9.657  1.00  0.00    -0.384 OA
ATOM     27  H3  UNL     1      -8.306  15.110   9.670  1.00  0.00     0.210 HD
ENDBRANCH  18  26
ENDBRANCH  12  18
ENDBRANCH  10  11
ENDBRANCH   6  10
BRANCH   7  28
HETATM   28  O9  UNL     1      -3.927  11.646   9.123  1.00  0.00    -0.390 OA
ATOM     29  H9  UNL     1      -3.890  12.589   9.223  1.00  0.00     0.210 HD
ENDBRANCH   7  28
BRANCH   8  30
HETATM   30  O8  UNL     1      -1.413  11.146  10.639  1.00  0.00    -0.390 OA
ATOM     31  H8  UNL     1      -1.772  11.855  11.160  1.00  0.00     0.210 HD
ENDBRANCH   8  30
BRANCH   9  32
HETATM   32  O7  UNL     1      -1.357   8.470  11.413  1.00  0.00    -0.392 OA
ATOM     33  H7  UNL     1      -0.563   8.990  11.461  1.00  0.00     0.210 HD
ENDBRANCH   9  32
ENDBRANCH   1   4
BRANCH   1  34
HETATM   34  N2  UNL     1      -2.981   6.555  12.923  1.00  0.00    -0.234 N 
ATOM     35  H2  UNL     1      -3.637   6.595  13.702  1.00  0.00     0.198 HD
BRANCH  34  36
HETATM   36  N3  UNL     1      -1.860   6.154  13.130  1.00  0.00    -0.247 NA
BRANCH  36  37
HETATM   37  N4  UNL     1      -0.687   5.874  13.347  1.00  0.00    -0.261 N 
ATOM     38  H42 UNL     1      -0.735   6.705  13.935  1.00  0.00     0.193 HD
ATOM     39  H41 UNL     1       0.275   5.556  13.460  1.00  0.00     0.193 HD
ENDBRANCH  36  37
ENDBRANCH  34  36
ENDBRANCH   1  34
TORSDOF 14
ENDMDL
MODEL 4
REMARK VINA RESULT: -5.809922776      1.667      2.049
REMARK  14 active torsions:
REMARK  status: ('A' for Active; 'I' for Inactive)
REMARK    1  A    between atoms: C2_2  and  C3_4 
REMARK    2  A    between atoms: C3_4  and  O2_5 
REMARK    3  A    between atoms: C3_4  and  C4_7 
REMARK    4  A    between atoms: C4_7  and  O3_9 
REMARK    5  A    between atoms: C4_7  and  C6_11 
REMARK    6  A    between atoms: C10_17  and  O6_18 
REMARK    7  A    between atoms: O6_18  and  C11_19 
REMARK    8  A    between atoms: C13_21  and  C14_22 
REMARK    9  A    between atoms: C14_22  and  N2_25 
REMARK   10  A    between atoms: N2_25  and  N3_27 
REMARK   11  A    between atoms: N3_27  and  N4_28 
REMARK   12  A    between atoms: C16_31  and  O7_32 
REMARK   13  A    between atoms: C17_34  and  O8_35 
REMARK   14  A    between atoms: C18_37  and  O9_38 
ROOT
HETATM    1  C14 UNL     1      -9.795  14.828   7.960  1.00  0.00     0.227 C 
HETATM    2  C15 UNL     1     -10.543  14.282   9.093  1.00  0.00     0.087 C 
HETATM    3  N1  UNL     1     -11.134  13.855  10.006  1.00  0.00    -0.195 NA
ENDROOT
BRANCH   1   4
HETATM    4  C13 UNL     1      -8.427  14.197   7.855  1.00  0.00     0.059 C 
HETATM    5  C12 UNL     1      -7.775  14.041   9.215  1.00  0.00     0.045 C 
HETATM    6  C11 UNL     1      -6.521  13.246   9.011  1.00  0.00     0.156 C 
HETATM    7  C18 UNL     1      -5.547  14.113   8.244  1.00  0.00     0.178 C 
HETATM    8  C17 UNL     1      -6.227  15.292   7.582  1.00  0.00     0.178 C 
HETATM    9  C16 UNL     1      -7.523  14.896   6.901  1.00  0.00     0.156 C 
BRANCH   6  10
HETATM   10  O6  UNL     1      -5.937  12.712  10.086  1.00  0.00    -0.350 OA
BRANCH  10  11
HETATM   11  C10 UNL     1      -5.689  11.379  10.178  1.00  0.00     0.296 C 
HETATM   12  C6  UNL     1      -5.201  11.003  11.533  1.00  0.00     0.217 C 
HETATM   13  O4  UNL     1      -6.062  10.024  11.973  1.00  0.00    -0.343 OA
HETATM   14  C7  UNL     1      -7.229  10.233  11.291  1.00  0.00     0.160 C 
HETATM   15  C8  UNL     1      -8.041  11.273  12.003  1.00  0.00     0.078 C 
HETATM   16  C9  UNL     1      -8.057   8.972  11.129  1.00  0.00     0.078 C 
HETATM   17  O5  UNL     1      -6.843  10.626  10.007  1.00  0.00    -0.323 OA
BRANCH  12  18
HETATM   18  C4  UNL     1      -3.758  10.530  11.539  1.00  0.00     0.117 C 
HETATM   19  C5  UNL     1      -3.604   9.307  10.695  1.00  0.00     0.052 C 
BRANCH  18  20
HETATM   20  C3  UNL     1      -3.371  10.262  12.997  1.00  0.00     0.223 C 
BRANCH  20  21
HETATM   21  C2  UNL     1      -1.932  10.133  13.190  1.00  0.00     0.154 C 
HETATM   22  C1  UNL     1      -1.296   8.797  13.276  1.00  0.00     0.094 C 
HETATM   23  O1  UNL     1      -1.242  11.126  13.282  1.00  0.00    -0.295 OA
ENDBRANCH  20  21
BRANCH  20  24
HETATM   24  O2  UNL     1      -4.000   9.121  13.471  1.00  0.00    -0.385 OA
ATOM     25  H2  UNL     1      -4.901   9.327  13.688  1.00  0.00     0.210 HD
ENDBRANCH  20  24
ENDBRANCH  18  20
BRANCH  18  26
HETATM   26  O3  UNL     1      -2.871  11.494  11.082  1.00  0.00    -0.384 OA
ATOM     27  H3  UNL     1      -2.330  11.062  10.431  1.00  0.00     0.210 HD
ENDBRANCH  18  26
ENDBRANCH  12  18
ENDBRANCH  10  11
ENDBRANCH   6  10
BRANCH   7  28
HETATM   28  O9  UNL     1      -4.635  14.607   9.205  1.00  0.00    -0.390 OA
ATOM     29  H9  UNL     1      -4.134  13.854   9.494  1.00  0.00     0.210 HD
ENDBRANCH   7  28
BRANCH   8  30
HETATM   30  O8  UNL     1      -5.369  15.707   6.537  1.00  0.00    -0.390 OA
ATOM     31  H8  UNL     1      -4.815  16.377   6.920  1.00  0.00     0.210 HD
ENDBRANCH   8  30
BRANCH   9  32
HETATM   32  O7  UNL     1      -8.132  16.058   6.447  1.00  0.00    -0.392 OA
ATOM     33  H7  UNL     1      -8.339  15.970   5.524  1.00  0.00     0.210 HD
ENDBRANCH   9  32
ENDBRANCH   1   4
BRANCH   1  34
HETATM   34  N2  UNL     1     -10.569  14.537   6.769  1.00  0.00    -0.234 N 
ATOM     35  H2  UNL     1     -10.826  13.569   6.577  1.00  0.00     0.198 HD
BRANCH  34  36
HETATM   36  N3  UNL     1     -10.923  15.395   5.995  1.00  0.00    -0.247 NA
BRANCH  36  37
HETATM   37  N4  UNL     1     -11.162  16.313   5.220  1.00  0.00    -0.261 N 
ATOM     38  H42 UNL     1     -11.597  15.567   4.678  1.00  0.00     0.193 HD
ATOM     39  H41 UNL     1     -11.310  17.143   4.647  1.00  0.00     0.193 HD
ENDBRANCH  36  37
ENDBRANCH  34  36
ENDBRANCH   1  34
TORSDOF 14
ENDMDL
MODEL 5
REMARK VINA RESULT: -5.741482086      1.628      2.184
REMARK  14 active torsions:
REMARK  status: ('A' for Active; 'I' for Inactive)
REMARK    1  A    between atoms: C2_2  and  C3_4 
REMARK    2  A    between atoms: C3_4  and  O2_5 
REMARK    3  A    between atoms: C3_4  and  C4_7 
REMARK    4  A    between atoms: C4_7  and  O3_9 
REMARK    5  A    between atoms: C4_7  and  C6_11 
REMARK    6  A    between atoms: C10_17  and  O6_18 
REMARK    7  A    between atoms: O6_18  and  C11_19 
REMARK    8  A    between atoms: C13_21  and  C14_22 
REMARK    9  A    between atoms: C14_22  and  N2_25 
REMARK   10  A    between atoms: N2_25  and  N3_27 
REMARK   11  A    between atoms: N3_27  and  N4_28 
REMARK   12  A    between atoms: C16_31  and  O7_32 
REMARK   13  A    between atoms: C17_34  and  O8_35 
REMARK   14  A    between atoms: C18_37  and  O9_38 
ROOT
HETATM    1  C14 UNL     1     -11.293  12.242   7.983  1.00  0.00     0.227 C 
HETATM    2  C15 UNL     1     -11.573  11.151   8.917  1.00  0.00     0.087 C 
HETATM    3  N1  UNL     1     -11.795  10.288   9.674  1.00  0.00    -0.195 NA
ENDROOT
BRANCH   1   4
HETATM    4  C13 UNL     1      -9.808  12.485   7.856  1.00  0.00     0.059 C 
HETATM    5  C12 UNL     1      -9.125  12.508   9.210  1.00  0.00     0.045 C 
HETATM    6  C11 UNL     1      -7.650  12.567   8.955  1.00  0.00     0.156 C 
HETATM    7  C18 UNL     1      -7.338  13.929   8.373  1.00  0.00     0.178 C 
HETATM    8  C17 UNL     1      -8.577  14.629   7.858  1.00  0.00     0.178 C 
HETATM    9  C16 UNL     1      -9.471  13.698   7.062  1.00  0.00     0.156 C 
BRANCH   6  10
HETATM   10  O6  UNL     1      -6.828  12.284   9.968  1.00  0.00    -0.350 OA
BRANCH  10  11
HETATM   11  C10 UNL     1      -5.875  11.320   9.869  1.00  0.00     0.296 C 
HETATM   12  C6  UNL     1      -5.168  11.112  11.162  1.00  0.00     0.217 C 
HETATM   13  O4  UNL     1      -5.306   9.772  11.443  1.00  0.00    -0.343 OA
HETATM   14  C7  UNL     1      -6.436   9.377  10.781  1.00  0.00     0.160 C 
HETATM   15  C8  UNL     1      -7.637   9.681  11.625  1.00  0.00     0.078 C 
HETATM   16  C9  UNL     1      -6.432   7.901  10.426  1.00  0.00     0.078 C 
HETATM   17  O5  UNL     1      -6.424  10.079   9.574  1.00  0.00    -0.323 OA
BRANCH  12  18
HETATM   18  C4  UNL     1      -3.709  11.533  11.120  1.00  0.00     0.117 C 
HETATM   19  C5  UNL     1      -2.853  10.407  10.638  1.00  0.00     0.052 C 
BRANCH  18  20
HETATM   20  C3  UNL     1      -3.320  11.972  12.535  1.00  0.00     0.223 C 
BRANCH  20  21
HETATM   21  C2  UNL     1      -2.476  11.001  13.222  1.00  0.00     0.154 C 
HETATM   22  C1  UNL     1      -3.078   9.897  14.006  1.00  0.00     0.094 C 
HETATM   23  O1  UNL     1      -1.270  11.093  13.155  1.00  0.00    -0.295 OA
ENDBRANCH  20  21
BRANCH  20  24
HETATM   24  O2  UNL     1      -4.449  12.220  13.301  1.00  0.00    -0.385 OA
ATOM     25  H2  UNL     1      -4.746  11.408  13.693  1.00  0.00     0.210 HD
ENDBRANCH  20  24
ENDBRANCH  18  20
BRANCH  18  26
HETATM   26  O3  UNL     1      -3.487  12.633  10.305  1.00  0.00    -0.384 OA
ATOM     27  H3  UNL     1      -4.205  13.232  10.475  1.00  0.00     0.210 HD
ENDBRANCH  18  26
ENDBRANCH  12  18
ENDBRANCH  10  11
ENDBRANCH   6  10
BRANCH   7  28
HETATM   28  O9  UNL     1      -6.809  14.688   9.441  1.00  0.00    -0.390 OA
ATOM     29  H9  UNL     1      -7.543  15.169   9.803  1.00  0.00     0.210 HD
ENDBRANCH   7  28
BRANCH   8  30
HETATM   30  O8  UNL     1      -8.127  15.596   6.930  1.00  0.00    -0.390 OA
ATOM     31  H8  UNL     1      -7.481  16.111   7.399  1.00  0.00     0.210 HD
ENDBRANCH   8  30
BRANCH   9  32
HETATM   32  O7  UNL     1     -10.633  14.391   6.753  1.00  0.00    -0.392 OA
ATOM     33  H7  UNL     1     -10.423  15.134   6.199  1.00  0.00     0.210 HD
ENDBRANCH   9  32
ENDBRANCH   1   4
BRANCH   1  34
HETATM   34  N2  UNL     1     -11.844  11.846   6.702  1.00  0.00    -0.234 N 
ATOM     35  H2  UNL     1     -12.080  12.573   6.026  1.00  0.00     0.198 HD
BRANCH  34  36
HETATM   36  N3  UNL     1     -12.035  10.692   6.401  1.00  0.00    -0.247 NA
BRANCH  36  37
HETATM   37  N4  UNL     1     -12.324   9.565   6.018  1.00  0.00    -0.261 N 
ATOM     38  H42 UNL     1     -12.274   9.356   7.015  1.00  0.00     0.193 HD
ATOM     39  H41 UNL     1     -12.565   8.667   5.598  1.00  0.00     0.193 HD
ENDBRANCH  36  37
ENDBRANCH  34  36
ENDBRANCH   1  34
TORSDOF 14
ENDMDL
