MODEL 1
REMARK VINA RESULT: -7.399469366      0.000      0.000
REMARK  9 active torsions:
REMARK  status: ('A' for Active; 'I' for Inactive)
REMARK    1  A    between atoms: C2_2  and  N1_3 
REMARK    2  A    between atoms: N1_3  and  C3_4 
REMARK    3  A    between atoms: N1_3  and  C14_26 
REMARK    4  A    between atoms: C3_4  and  C4_5 
REMARK    5  A    between atoms: C4_5  and  C5_6 
REMARK    6  A    between atoms: C5_6  and  N2_7 
REMARK    7  A    between atoms: N2_7  and  C6_9 
REMARK    8  A    between atoms: C9_14  and  N4_15 
REMARK    9  A    between atoms: C15_29  and  C16_30 
ROOT
HETATM    1  C4  UNL     1      -5.705  14.294   7.523  1.00  0.00     0.041 C 
ENDROOT
BRANCH   1   2
HETATM    2  C3  UNL     1      -5.262  15.712   7.206  1.00  0.00     0.143 C 
BRANCH   2   3
HETATM    3  N1  UNL     1      -5.945  16.188   5.998  1.00  0.00    -0.217 N 
BRANCH   3   4
HETATM    4  C2  UNL     1      -7.296  15.745   5.827  1.00  0.00     0.137 C 
HETATM    5  C1  UNL     1      -8.318  16.830   5.998  1.00  0.00     0.027 C 
ENDBRANCH   3   4
BRANCH   3   6
HETATM    6  C14 UNL     1      -5.231  17.036   5.109  1.00  0.00     0.697 A 
HETATM    7  N8  UNL     1      -5.450  18.305   5.147  1.00  0.00    -0.171 N 
HETATM    8  C15 UNL     1      -4.787  19.229   4.299  1.00  0.00     0.170 A 
ATOM      9  H8  UNL     1      -6.132  18.662   5.817  1.00  0.00     0.186 HD
HETATM   10  N9  UNL     1      -3.930  18.756   3.459  1.00  0.00    -0.268 N 
HETATM   11  N10 UNL     1      -3.632  17.383   3.355  1.00  0.00    -0.227 N 
ATOM     12  H9  UNL     1      -3.445  19.406   2.842  1.00  0.00     0.190 HD
HETATM   13  N11 UNL     1      -4.294  16.477   4.199  1.00  0.00    -0.117 N 
ATOM     14  H10 UNL     1      -2.945  17.053   2.677  1.00  0.00     0.209 HD
ATOM     15  H11 UNL     1      -4.113  15.473   4.160  1.00  0.00     0.207 HD
BRANCH   8  16
HETATM   16  C16 UNL     1      -5.075  20.666   4.382  1.00  0.00     0.120 A 
HETATM   17  C17 UNL     1      -4.183  21.626   4.817  1.00  0.00     0.043 A 
HETATM   18  C18 UNL     1      -4.819  22.849   4.750  1.00  0.00     0.027 A 
HETATM   19  C19 UNL     1      -6.088  22.580   4.273  1.00  0.00     0.142 A 
HETATM   20  O2  UNL     1      -6.186  21.287   4.074  1.00  0.00    -0.319 OA
ENDBRANCH   8  16
ENDBRANCH   3   6
ENDBRANCH   2   3
ENDBRANCH   1   2
BRANCH   1  21
HETATM   21  C5  UNL     1      -5.921  14.191   9.019  1.00  0.00     0.139 C 
BRANCH  21  22
HETATM   22  N2  UNL     1      -7.139  13.520   9.351  1.00  0.00    -0.226 N 
ATOM     23  H2  UNL     1      -7.133  12.532   9.605  1.00  0.00     0.177 HD
BRANCH  22  24
HETATM   24  C6  UNL     1      -8.243  14.182   9.325  1.00  0.00     0.682 A 
HETATM   25  N3  UNL     1      -8.612  15.191  10.135  1.00  0.00    -0.174 N 
HETATM   26  C7  UNL     1      -9.838  15.622   9.788  1.00  0.00     0.158 A 
ATOM     27  H3  UNL     1      -8.049  15.570  10.896  1.00  0.00     0.186 HD
HETATM   28  C8  UNL     1     -10.232  14.832   8.712  1.00  0.00     0.140 A 
HETATM   29  N6  UNL     1     -10.624  16.589  10.285  1.00  0.00    -0.287 N 
HETATM   30  C9  UNL     1     -11.480  15.092   8.173  1.00  0.00     0.136 A 
HETATM   31  N7  UNL     1      -9.252  13.958   8.438  1.00  0.00    -0.180 N 
HETATM   32  N5  UNL     1     -12.251  16.084   8.705  1.00  0.00    -0.288 N 
HETATM   33  C10 UNL     1     -13.564  16.311   8.093  1.00  0.00     0.163 C 
HETATM   34  C11 UNL     1     -11.826  16.812   9.738  1.00  0.00     0.331 A 
HETATM   35  O1  UNL     1     -12.595  17.727  10.190  1.00  0.00    -0.246 OA
HETATM   36  C13 UNL     1      -9.217  12.958   7.421  1.00  0.00     0.176 C 
HETATM   37  C12 UNL     1     -10.205  17.407  11.408  1.00  0.00     0.163 C 
BRANCH  30  38
HETATM   38  N4  UNL     1     -11.940  14.434   7.189  1.00  0.00    -0.383 N 
ATOM     39  H42 UNL     1     -12.508  13.610   7.384  1.00  0.00     0.157 HD
ATOM     40  H41 UNL     1     -11.759  14.706   6.224  1.00  0.00     0.157 HD
ENDBRANCH  30  38
ENDBRANCH  22  24
ENDBRANCH  21  22
ENDBRANCH   1  21
TORSDOF 9
ENDMDL
MODEL 2
REMARK VINA RESULT: -7.304138567      4.442      6.808
REMARK  9 active torsions:
REMARK  status: ('A' for Active; 'I' for Inactive)
REMARK    1  A    between atoms: C2_2  and  N1_3 
REMARK    2  A    between atoms: N1_3  and  C3_4 
REMARK    3  A    between atoms: N1_3  and  C14_26 
REMARK    4  A    between atoms: C3_4  and  C4_5 
REMARK    5  A    between atoms: C4_5  and  C5_6 
REMARK    6  A    between atoms: C5_6  and  N2_7 
REMARK    7  A    between atoms: N2_7  and  C6_9 
REMARK    8  A    between atoms: C9_14  and  N4_15 
REMARK    9  A    between atoms: C15_29  and  C16_30 
ROOT
HETATM    1  C4  UNL     1      -6.206  14.455   7.731  1.00  0.00     0.041 C 
ENDROOT
BRANCH   1   2
HETATM    2  C3  UNL     1      -5.300  15.488   7.086  1.00  0.00     0.143 C 
BRANCH   2   3
HETATM    3  N1  UNL     1      -6.021  16.182   6.013  1.00  0.00    -0.217 N 
BRANCH   3   4
HETATM    4  C2  UNL     1      -7.433  15.948   5.955  1.00  0.00     0.137 C 
HETATM    5  C1  UNL     1      -8.240  17.176   5.650  1.00  0.00     0.027 C 
ENDBRANCH   3   4
BRANCH   3   6
HETATM    6  C14 UNL     1      -5.282  17.015   5.132  1.00  0.00     0.697 A 
HETATM    7  N8  UNL     1      -5.469  18.288   5.174  1.00  0.00    -0.171 N 
HETATM    8  C15 UNL     1      -4.779  19.200   4.334  1.00  0.00     0.170 A 
ATOM      9  H8  UNL     1      -6.145  18.659   5.842  1.00  0.00     0.186 HD
HETATM   10  N9  UNL     1      -3.929  18.709   3.497  1.00  0.00    -0.268 N 
HETATM   11  N10 UNL     1      -3.664  17.330   3.387  1.00  0.00    -0.227 N 
ATOM     12  H9  UNL     1      -3.424  19.350   2.884  1.00  0.00     0.190 HD
HETATM   13  N11 UNL     1      -4.354  16.437   4.224  1.00  0.00    -0.117 N 
ATOM     14  H10 UNL     1      -2.983  16.985   2.712  1.00  0.00     0.209 HD
ATOM     15  H11 UNL     1      -4.197  15.429   4.182  1.00  0.00     0.207 HD
BRANCH   8  16
HETATM   16  C16 UNL     1      -5.031  20.643   4.422  1.00  0.00     0.120 A 
HETATM   17  C17 UNL     1      -4.099  21.586   4.807  1.00  0.00     0.043 A 
HETATM   18  C18 UNL     1      -4.711  22.822   4.763  1.00  0.00     0.027 A 
HETATM   19  C19 UNL     1      -6.007  22.578   4.350  1.00  0.00     0.142 A 
HETATM   20  O2  UNL     1      -6.143  21.287   4.164  1.00  0.00    -0.319 OA
ENDBRANCH   8  16
ENDBRANCH   3   6
ENDBRANCH   2   3
ENDBRANCH   1   2
BRANCH   1  21
HETATM   21  C5  UNL     1      -5.341  13.318   8.236  1.00  0.00     0.139 C 
BRANCH  21  22
HETATM   22  N2  UNL     1      -5.590  13.007   9.609  1.00  0.00    -0.226 N 
ATOM     23  H2  UNL     1      -6.174  13.617  10.180  1.00  0.00     0.177 HD
BRANCH  22  24
HETATM   24  C6  UNL     1      -5.064  11.945  10.112  1.00  0.00     0.682 A 
HETATM   25  N3  UNL     1      -5.565  10.696  10.098  1.00  0.00    -0.174 N 
HETATM   26  C7  UNL     1      -4.719   9.863  10.727  1.00  0.00     0.158 A 
ATOM     27  H3  UNL     1      -6.453  10.424   9.675  1.00  0.00     0.186 HD
HETATM   28  C8  UNL     1      -3.648  10.648  11.146  1.00  0.00     0.140 A 
HETATM   29  N6  UNL     1      -4.771   8.544  10.971  1.00  0.00    -0.287 N 
HETATM   30  C9  UNL     1      -2.632  10.002  11.828  1.00  0.00     0.136 A 
HETATM   31  N7  UNL     1      -3.869  11.914  10.765  1.00  0.00    -0.180 N 
HETATM   32  N5  UNL     1      -2.720   8.660  12.057  1.00  0.00    -0.288 N 
HETATM   33  C10 UNL     1      -1.614   8.032  12.787  1.00  0.00     0.163 C 
HETATM   34  C11 UNL     1      -3.769   7.953  11.635  1.00  0.00     0.331 A 
HETATM   35  O1  UNL     1      -3.793   6.699  11.880  1.00  0.00    -0.246 OA
HETATM   36  C13 UNL     1      -3.043  13.059  10.977  1.00  0.00     0.176 C 
HETATM   37  C12 UNL     1      -5.892   7.734  10.532  1.00  0.00     0.163 C 
BRANCH  30  38
HETATM   38  N4  UNL     1      -1.608  10.619  12.255  1.00  0.00    -0.383 N 
ATOM     39  H42 UNL     1      -1.119  10.240  13.066  1.00  0.00     0.157 HD
ATOM     40  H41 UNL     1      -1.266  11.472  11.813  1.00  0.00     0.157 HD
ENDBRANCH  30  38
ENDBRANCH  22  24
ENDBRANCH  21  22
ENDBRANCH   1  21
TORSDOF 9
ENDMDL
MODEL 3
REMARK VINA RESULT: -7.238529231      4.122      6.090
REMARK  9 active torsions:
REMARK  status: ('A' for Active; 'I' for Inactive)
REMARK    1  A    between atoms: C2_2  and  N1_3 
REMARK    2  A    between atoms: N1_3  and  C3_4 
REMARK    3  A    between atoms: N1_3  and  C14_26 
REMARK    4  A    between atoms: C3_4  and  C4_5 
REMARK    5  A    between atoms: C4_5  and  C5_6 
REMARK    6  A    between atoms: C5_6  and  N2_7 
REMARK    7  A    between atoms: N2_7  and  C6_9 
REMARK    8  A    between atoms: C9_14  and  N4_15 
REMARK    9  A    between atoms: C15_29  and  C16_30 
ROOT
HETATM    1  C4  UNL     1      -5.679  14.377   7.446  1.00  0.00     0.041 C 
ENDROOT
BRANCH   1   2
HETATM    2  C3  UNL     1      -5.068  15.720   7.088  1.00  0.00     0.143 C 
BRANCH   2   3
HETATM    3  N1  UNL     1      -5.843  16.348   6.013  1.00  0.00    -0.217 N 
BRANCH   3   4
HETATM    4  C2  UNL     1      -7.241  16.032   5.981  1.00  0.00     0.137 C 
HETATM    5  C1  UNL     1      -8.117  17.192   5.610  1.00  0.00     0.027 C 
ENDBRANCH   3   4
BRANCH   3   6
HETATM    6  C14 UNL     1      -5.166  17.205   5.104  1.00  0.00     0.697 A 
HETATM    7  N8  UNL     1      -5.399  18.471   5.149  1.00  0.00    -0.171 N 
HETATM    8  C15 UNL     1      -4.771  19.403   4.283  1.00  0.00     0.170 A 
ATOM      9  H8  UNL     1      -6.064  18.819   5.840  1.00  0.00     0.186 HD
HETATM   10  N9  UNL     1      -3.934  18.941   3.418  1.00  0.00    -0.268 N 
HETATM   11  N10 UNL     1      -3.623  17.572   3.303  1.00  0.00    -0.227 N 
ATOM     12  H9  UNL     1      -3.475  19.598   2.787  1.00  0.00     0.190 HD
HETATM   13  N11 UNL     1      -4.250  16.657   4.166  1.00  0.00    -0.117 N 
ATOM     14  H10 UNL     1      -2.954  17.250   2.605  1.00  0.00     0.209 HD
ATOM     15  H11 UNL     1      -4.058  15.656   4.121  1.00  0.00     0.207 HD
BRANCH   8  16
HETATM   16  C16 UNL     1      -5.073  20.837   4.377  1.00  0.00     0.120 A 
HETATM   17  C17 UNL     1      -4.198  21.800   4.839  1.00  0.00     0.043 A 
HETATM   18  C18 UNL     1      -4.844  23.018   4.774  1.00  0.00     0.027 A 
HETATM   19  C19 UNL     1      -6.100  22.743   4.270  1.00  0.00     0.142 A 
HETATM   20  O2  UNL     1      -6.184  21.452   4.054  1.00  0.00    -0.319 OA
ENDBRANCH   8  16
ENDBRANCH   3   6
ENDBRANCH   2   3
ENDBRANCH   1   2
BRANCH   1  21
HETATM   21  C5  UNL     1      -5.685  14.249   8.956  1.00  0.00     0.139 C 
BRANCH  21  22
HETATM   22  N2  UNL     1      -6.515  13.177   9.411  1.00  0.00    -0.226 N 
ATOM     23  H2  UNL     1      -7.530  13.266   9.396  1.00  0.00     0.177 HD
BRANCH  22  24
HETATM   24  C6  UNL     1      -5.959  12.098   9.842  1.00  0.00     0.682 A 
HETATM   25  N3  UNL     1      -4.664  11.912  10.155  1.00  0.00    -0.174 N 
HETATM   26  C7  UNL     1      -4.477  10.647  10.568  1.00  0.00     0.158 A 
ATOM     27  H3  UNL     1      -3.935  12.623  10.089  1.00  0.00     0.186 HD
HETATM   28  C8  UNL     1      -5.725  10.033  10.501  1.00  0.00     0.140 A 
HETATM   29  N6  UNL     1      -3.383   9.988  10.982  1.00  0.00    -0.287 N 
HETATM   30  C9  UNL     1      -5.786   8.704  10.883  1.00  0.00     0.136 A 
HETATM   31  N7  UNL     1      -6.620  10.927  10.058  1.00  0.00    -0.180 N 
HETATM   32  N5  UNL     1      -4.653   8.068  11.298  1.00  0.00    -0.288 N 
HETATM   33  C10 UNL     1      -4.780   6.661  11.689  1.00  0.00     0.163 C 
HETATM   34  C11 UNL     1      -3.480   8.703  11.344  1.00  0.00     0.331 A 
HETATM   35  O1  UNL     1      -2.455   8.052  11.741  1.00  0.00    -0.246 OA
HETATM   36  C13 UNL     1      -8.017  10.744   9.833  1.00  0.00     0.176 C 
HETATM   37  C12 UNL     1      -2.086  10.636  11.047  1.00  0.00     0.163 C 
BRANCH  30  38
HETATM   38  N4  UNL     1      -6.872   8.046  10.863  1.00  0.00    -0.383 N 
ATOM     39  H42 UNL     1      -7.461   8.114  10.034  1.00  0.00     0.157 HD
ATOM     40  H41 UNL     1      -7.164   7.460  11.644  1.00  0.00     0.157 HD
ENDBRANCH  30  38
ENDBRANCH  22  24
ENDBRANCH  21  22
ENDBRANCH   1  21
TORSDOF 9
ENDMDL
MODEL 4
REMARK VINA RESULT: -7.126397037      7.480     10.120
REMARK  9 active torsions:
REMARK  status: ('A' for Active; 'I' for Inactive)
REMARK    1  A    between atoms: C2_2  and  N1_3 
REMARK    2  A    between atoms: N1_3  and  C3_4 
REMARK    3  A    between atoms: N1_3  and  C14_26 
REMARK    4  A    between atoms: C3_4  and  C4_5 
REMARK    5  A    between atoms: C4_5  and  C5_6 
REMARK    6  A    between atoms: C5_6  and  N2_7 
REMARK    7  A    between atoms: N2_7  and  C6_9 
REMARK    8  A    between atoms: C9_14  and  N4_15 
REMARK    9  A    between atoms: C15_29  and  C16_30 
ROOT
HETATM    1  C4  UNL     1      -3.018  11.808  10.681  1.00  0.00     0.041 C 
ENDROOT
BRANCH   1   2
HETATM    2  C3  UNL     1      -4.282  12.628  10.491  1.00  0.00     0.143 C 
BRANCH   2   3
HETATM    3  N1  UNL     1      -4.861  12.350   9.172  1.00  0.00    -0.217 N 
BRANCH   3   4
HETATM    4  C2  UNL     1      -4.441  11.131   8.548  1.00  0.00     0.137 C 
HETATM    5  C1  UNL     1      -5.574  10.269   8.075  1.00  0.00     0.027 C 
ENDBRANCH   3   4
BRANCH   3   6
HETATM    6  C14 UNL     1      -5.776  13.289   8.626  1.00  0.00     0.697 A 
HETATM    7  N8  UNL     1      -5.356  14.128   7.743  1.00  0.00    -0.171 N 
HETATM    8  C15 UNL     1      -6.195  15.102   7.142  1.00  0.00     0.170 A 
ATOM      9  H8  UNL     1      -4.376  14.091   7.464  1.00  0.00     0.186 HD
HETATM   10  N9  UNL     1      -7.430  15.131   7.510  1.00  0.00    -0.268 N 
HETATM   11  N10 UNL     1      -7.970  14.249   8.467  1.00  0.00    -0.227 N 
ATOM     12  H9  UNL     1      -8.046  15.826   7.088  1.00  0.00     0.190 HD
HETATM   13  N11 UNL     1      -7.130  13.289   9.056  1.00  0.00    -0.117 N 
ATOM     14  H10 UNL     1      -8.954  14.307   8.728  1.00  0.00     0.209 HD
ATOM     15  H11 UNL     1      -7.474  12.629   9.755  1.00  0.00     0.207 HD
BRANCH   8  16
HETATM   16  C16 UNL     1      -5.664  16.035   6.141  1.00  0.00     0.120 A 
HETATM   17  C17 UNL     1      -4.736  15.711   5.171  1.00  0.00     0.043 A 
HETATM   18  C18 UNL     1      -4.492  16.848   4.428  1.00  0.00     0.027 A 
HETATM   19  C19 UNL     1      -5.290  17.830   4.983  1.00  0.00     0.142 A 
HETATM   20  O2  UNL     1      -5.956  17.303   5.982  1.00  0.00    -0.319 OA
ENDBRANCH   8  16
ENDBRANCH   3   6
ENDBRANCH   2   3
ENDBRANCH   1   2
BRANCH   1  21
HETATM   21  C5  UNL     1      -3.046  11.212  12.074  1.00  0.00     0.139 C 
BRANCH  21  22
HETATM   22  N2  UNL     1      -1.776  10.695  12.475  1.00  0.00    -0.226 N 
ATOM     23  H2  UNL     1      -0.914  11.091  12.100  1.00  0.00     0.177 HD
BRANCH  22  24
HETATM   24  C6  UNL     1      -1.736   9.721  13.317  1.00  0.00     0.682 A 
HETATM   25  N3  UNL     1      -2.026   9.762  14.630  1.00  0.00    -0.174 N 
HETATM   26  C7  UNL     1      -1.866   8.539  15.165  1.00  0.00     0.158 A 
ATOM     27  H3  UNL     1      -2.322  10.594  15.141  1.00  0.00     0.186 HD
HETATM   28  C8  UNL     1      -1.457   7.714  14.121  1.00  0.00     0.140 A 
HETATM   29  N6  UNL     1      -2.029   8.076  16.414  1.00  0.00    -0.287 N 
HETATM   30  C9  UNL     1      -1.225   6.385  14.432  1.00  0.00     0.136 A 
HETATM   31  N7  UNL     1      -1.382   8.445  13.000  1.00  0.00    -0.180 N 
HETATM   32  N5  UNL     1      -1.402   5.951  15.713  1.00  0.00    -0.288 N 
HETATM   33  C10 UNL     1      -1.140   4.534  15.982  1.00  0.00     0.163 C 
HETATM   34  C11 UNL     1      -1.796   6.784  16.678  1.00  0.00     0.331 A 
HETATM   35  O1  UNL     1      -1.943   6.316  17.858  1.00  0.00    -0.246 OA
HETATM   36  C13 UNL     1      -1.006   8.021  11.690  1.00  0.00     0.176 C 
HETATM   37  C12 UNL     1      -2.455   8.944  17.497  1.00  0.00     0.163 C 
BRANCH  30  38
HETATM   38  N4  UNL     1      -0.850   5.544  13.558  1.00  0.00    -0.383 N 
ATOM     39  H42 UNL     1      -1.401   5.457  12.704  1.00  0.00     0.157 HD
ATOM     40  H41 UNL     1      -0.023   4.962  13.687  1.00  0.00     0.157 HD
ENDBRANCH  30  38
ENDBRANCH  22  24
ENDBRANCH  21  22
ENDBRANCH   1  21
TORSDOF 9
ENDMDL
MODEL 5
REMARK VINA RESULT: -7.119663160      3.363      5.482
REMARK  9 active torsions:
REMARK  status: ('A' for Active; 'I' for Inactive)
REMARK    1  A    between atoms: C2_2  and  N1_3 
REMARK    2  A    between atoms: N1_3  and  C3_4 
REMARK    3  A    between atoms: N1_3  and  C14_26 
REMARK    4  A    between atoms: C3_4  and  C4_5 
REMARK    5  A    between atoms: C4_5  and  C5_6 
REMARK    6  A    between atoms: C5_6  and  N2_7 
REMARK    7  A    between atoms: N2_7  and  C6_9 
REMARK    8  A    between atoms: C9_14  and  N4_15 
REMARK    9  A    between atoms: C15_29  and  C16_30 
ROOT
HETATM    1  C4  UNL     1      -4.725  17.738   4.582  1.00  0.00     0.041 C 
ENDROOT
BRANCH   1   2
HETATM    2  C3  UNL     1      -5.771  18.775   4.953  1.00  0.00     0.143 C 
BRANCH   2   3
HETATM    3  N1  UNL     1      -5.619  19.961   4.102  1.00  0.00    -0.217 N 
BRANCH   3   4
HETATM    4  C2  UNL     1      -4.273  20.385   3.853  1.00  0.00     0.137 C 
HETATM    5  C1  UNL     1      -3.775  21.421   4.816  1.00  0.00     0.027 C 
ENDBRANCH   3   4
BRANCH   3   6
HETATM    6  C14 UNL     1      -6.792  20.585   3.600  1.00  0.00     0.697 A 
HETATM    7  N8  UNL     1      -7.867  19.887   3.477  1.00  0.00    -0.171 N 
HETATM    8  C15 UNL     1      -9.085  20.423   2.985  1.00  0.00     0.170 A 
ATOM      9  H8  UNL     1      -7.842  18.903   3.747  1.00  0.00     0.186 HD
HETATM   10  N9  UNL     1      -9.094  21.668   2.651  1.00  0.00    -0.268 N 
HETATM   11  N10 UNL     1      -7.963  22.501   2.754  1.00  0.00    -0.227 N 
ATOM     12  H9  UNL     1      -9.961  22.069   2.294  1.00  0.00     0.190 HD
HETATM   13  N11 UNL     1      -6.762  21.960   3.243  1.00  0.00    -0.117 N 
ATOM     14  H10 UNL     1      -8.016  23.482   2.479  1.00  0.00     0.209 HD
ATOM     15  H11 UNL     1      -5.916  22.524   3.335  1.00  0.00     0.207 HD
BRANCH   8  16
HETATM   16  C16 UNL     1     -10.282  19.581   2.865  1.00  0.00     0.120 A 
HETATM   17  C17 UNL     1     -10.433  18.335   3.441  1.00  0.00     0.043 A 
HETATM   18  C18 UNL     1     -11.686  17.867   3.102  1.00  0.00     0.027 A 
HETATM   19  C19 UNL     1     -12.253  18.857   2.324  1.00  0.00     0.142 A 
HETATM   20  O2  UNL     1     -11.390  19.839   2.215  1.00  0.00    -0.319 OA
ENDBRANCH   8  16
ENDBRANCH   3   6
ENDBRANCH   2   3
ENDBRANCH   1   2
BRANCH   1  21
HETATM   21  C5  UNL     1      -5.038  16.462   5.336  1.00  0.00     0.139 C 
BRANCH  21  22
HETATM   22  N2  UNL     1      -6.296  16.518   6.012  1.00  0.00    -0.226 N 
ATOM     23  H2  UNL     1      -6.853  17.372   5.998  1.00  0.00     0.177 HD
BRANCH  22  24
HETATM   24  C6  UNL     1      -6.714  15.474   6.639  1.00  0.00     0.682 A 
HETATM   25  N3  UNL     1      -5.977  14.459   7.123  1.00  0.00    -0.174 N 
HETATM   26  C7  UNL     1      -6.782  13.558   7.713  1.00  0.00     0.158 A 
ATOM     27  H3  UNL     1      -4.962  14.384   7.053  1.00  0.00     0.186 HD
HETATM   28  C8  UNL     1      -8.076  14.054   7.579  1.00  0.00     0.140 A 
HETATM   29  N6  UNL     1      -6.527  12.394   8.332  1.00  0.00    -0.287 N 
HETATM   30  C9  UNL     1      -9.095  13.288   8.117  1.00  0.00     0.136 A 
HETATM   31  N7  UNL     1      -8.022  15.221   6.923  1.00  0.00    -0.180 N 
HETATM   32  N5  UNL     1      -8.798  12.110   8.740  1.00  0.00    -0.288 N 
HETATM   33  C10 UNL     1      -9.919  11.342   9.289  1.00  0.00     0.163 C 
HETATM   34  C11 UNL     1      -7.539  11.680   8.842  1.00  0.00     0.331 A 
HETATM   35  O1  UNL     1      -7.326  10.569   9.436  1.00  0.00    -0.246 OA
HETATM   36  C13 UNL     1      -9.101  16.083   6.561  1.00  0.00     0.176 C 
HETATM   37  C12 UNL     1      -5.175  11.885   8.467  1.00  0.00     0.163 C 
BRANCH  30  38
HETATM   38  N4  UNL     1     -10.312  13.643   8.053  1.00  0.00    -0.383 N 
ATOM     39  H42 UNL     1     -11.017  12.924   7.894  1.00  0.00     0.157 HD
ATOM     40  H41 UNL     1     -10.598  14.617   8.156  1.00  0.00     0.157 HD
ENDBRANCH  30  38
ENDBRANCH  22  24
ENDBRANCH  21  22
ENDBRANCH   1  21
TORSDOF 9
ENDMDL
