MODEL 1
REMARK VINA RESULT: -6.754811486      0.000      0.000
REMARK  12 active torsions:
REMARK  status: ('A' for Active; 'I' for Inactive)
REMARK    1  A    between atoms: C2_2  and  C3_3 
REMARK    2  A    between atoms: C3_3  and  C4_4 
REMARK    3  A    between atoms: C4_4  and  O2_6 
REMARK    4  A    between atoms: O2_6  and  C5_7 
REMARK    5  A    between atoms: C8_10  and  C9_11 
REMARK    6  A    between atoms: C9_11  and  C10_12 
REMARK    7  A    between atoms: C10_12  and  C11_13 
REMARK    8  A    between atoms: C11_13  and  O3_16 
REMARK    9  A    between atoms: C14_18  and  O4_20 
REMARK   10  A    between atoms: C18_24  and  O5_25 
REMARK   11  A    between atoms: C20_28  and  C21_29 
REMARK   12  A    between atoms: C24_32  and  O6_33 
ROOT
HETATM    1  C5  UNL     1       0.836  21.666  14.765  1.00  0.00     0.147 C 
HETATM    2  C6  UNL     1      -0.173  21.241  13.753  1.00  0.00     0.070 C 
HETATM    3  C7  UNL     1      -1.441  20.691  14.235  1.00  0.00    -0.047 C 
HETATM    4  C8  UNL     1      -2.167  20.085  13.332  1.00  0.00    -0.021 C 
HETATM    5  C14 UNL     1      -1.876  20.754  15.689  1.00  0.00     0.086 C 
HETATM    6  C15 UNL     1      -3.007  21.674  15.859  1.00  0.00     0.051 C 
HETATM    7  C16 UNL     1      -0.743  21.080  16.616  1.00  0.00     0.075 C 
HETATM    8  C17 UNL     1      -1.097  21.516  18.000  1.00  0.00     0.019 A 
HETATM    9  C18 UNL     1      -2.100  20.928  18.734  1.00  0.00     0.076 A 
HETATM   10  C19 UNL     1      -2.428  21.454  19.969  1.00  0.00     0.051 A 
HETATM   11  C20 UNL     1      -1.816  22.554  20.557  1.00  0.00     0.004 A 
HETATM   12  C24 UNL     1      -0.805  23.146  19.849  1.00  0.00     0.110 A 
HETATM   13  C25 UNL     1      -0.475  22.614  18.595  1.00  0.00     0.112 A 
HETATM   14  O7  UNL     1       0.590  23.287  17.944  1.00  0.00    -0.347 OA
HETATM   15  C26 UNL     1       1.281  22.397  17.026  1.00  0.00     0.188 C 
HETATM   16  C27 UNL     1       0.161  22.121  16.006  1.00  0.00     0.016 C 
HETATM   17  C28 UNL     1      -0.492  23.430  15.695  1.00  0.00     0.021 C 
ENDROOT
BRANCH   4  18
HETATM   18  C9  UNL     1      -3.436  19.412  13.274  1.00  0.00     0.030 C 
BRANCH  18  19
HETATM   19  C10 UNL     1      -3.670  18.572  12.042  1.00  0.00     0.040 C 
BRANCH  19  20
HETATM   20  C11 UNL     1      -5.151  18.346  11.895  1.00  0.00     0.051 C 
HETATM   21  C12 UNL     1      -6.015  19.331  12.615  1.00  0.00     0.045 C 
HETATM   22  C13 UNL     1      -5.574  18.238  10.453  1.00  0.00     0.045 C 
BRANCH  20  23
HETATM   23  O3  UNL     1      -5.504  17.084  12.479  1.00  0.00    -0.391 OA
ATOM     24  H3  UNL     1      -6.349  17.158  12.908  1.00  0.00     0.210 HD
ENDBRANCH  20  23
ENDBRANCH  19  20
ENDBRANCH  18  19
ENDBRANCH   4  18
BRANCH   5  25
HETATM   25  O4  UNL     1      -2.208  19.384  15.870  1.00  0.00    -0.385 OA
ATOM     26  H4  UNL     1      -2.905  19.322  15.228  1.00  0.00     0.211 HD
ENDBRANCH   5  25
BRANCH   1  27
HETATM   27  O2  UNL     1       1.513  22.826  14.241  1.00  0.00    -0.315 OA
BRANCH  27  28
HETATM   28  C4  UNL     1       2.838  22.737  13.751  1.00  0.00     0.259 C 
HETATM   29  O1  UNL     1       2.943  22.078  12.720  1.00  0.00    -0.265 OA
BRANCH  28  30
HETATM   30  C3  UNL     1       3.907  23.428  14.508  1.00  0.00     0.111 C 
BRANCH  30  31
HETATM   31  C2  UNL     1       4.567  22.550  15.525  1.00  0.00     0.005 C 
HETATM   32  C1  UNL     1       6.043  22.414  15.317  1.00  0.00     0.005 C 
ENDBRANCH  30  31
ENDBRANCH  28  30
ENDBRANCH  27  28
ENDBRANCH   1  27
BRANCH   9  33
HETATM   33  O5  UNL     1      -2.810  19.807  18.274  1.00  0.00    -0.360 OA
ATOM     34  H5  UNL     1      -3.031  19.078  18.842  1.00  0.00     0.217 HD
ENDBRANCH   9  33
BRANCH  12  35
HETATM   35  O6  UNL     1      -0.082  24.235  20.318  1.00  0.00    -0.357 OA
ATOM     36  H6  UNL     1      -0.057  25.074  19.874  1.00  0.00     0.217 HD
ENDBRANCH  12  35
BRANCH  11  37
HETATM   37  C21 UNL     1      -2.522  23.175  21.694  1.00  0.00    -0.074 C 
HETATM   38  C22 UNL     1      -3.672  24.068  21.362  1.00  0.00     0.044 C 
HETATM   39  C23 UNL     1      -2.506  22.614  23.040  1.00  0.00     0.044 C 
ENDBRANCH  11  37
TORSDOF 12
ENDMDL
MODEL 2
REMARK VINA RESULT: -6.726952272      2.900      9.193
REMARK  12 active torsions:
REMARK  status: ('A' for Active; 'I' for Inactive)
REMARK    1  A    between atoms: C2_2  and  C3_3 
REMARK    2  A    between atoms: C3_3  and  C4_4 
REMARK    3  A    between atoms: C4_4  and  O2_6 
REMARK    4  A    between atoms: O2_6  and  C5_7 
REMARK    5  A    between atoms: C8_10  and  C9_11 
REMARK    6  A    between atoms: C9_11  and  C10_12 
REMARK    7  A    between atoms: C10_12  and  C11_13 
REMARK    8  A    between atoms: C11_13  and  O3_16 
REMARK    9  A    between atoms: C14_18  and  O4_20 
REMARK   10  A    between atoms: C18_24  and  O5_25 
REMARK   11  A    between atoms: C20_28  and  C21_29 
REMARK   12  A    between atoms: C24_32  and  O6_33 
ROOT
HETATM    1  C5  UNL     1      -0.360  23.133  20.640  1.00  0.00     0.147 C 
HETATM    2  C6  UNL     1       0.636  24.232  20.777  1.00  0.00     0.070 C 
HETATM    3  C7  UNL     1       1.622  24.405  19.708  1.00  0.00    -0.047 C 
HETATM    4  C8  UNL     1       2.629  25.187  19.998  1.00  0.00    -0.021 C 
HETATM    5  C14 UNL     1       1.533  23.690  18.371  1.00  0.00     0.086 C 
HETATM    6  C15 UNL     1       1.220  24.633  17.291  1.00  0.00     0.051 C 
HETATM    7  C16 UNL     1       0.579  22.533  18.399  1.00  0.00     0.075 C 
HETATM    8  C17 UNL     1       0.139  21.979  17.084  1.00  0.00     0.019 A 
HETATM    9  C18 UNL     1       0.994  21.808  16.022  1.00  0.00     0.076 A 
HETATM   10  C19 UNL     1       0.487  21.381  14.810  1.00  0.00     0.051 A 
HETATM   11  C20 UNL     1      -0.849  21.096  14.559  1.00  0.00     0.004 A 
HETATM   12  C24 UNL     1      -1.716  21.247  15.607  1.00  0.00     0.110 A 
HETATM   13  C25 UNL     1      -1.202  21.684  16.835  1.00  0.00     0.112 A 
HETATM   14  O7  UNL     1      -2.174  21.798  17.860  1.00  0.00    -0.347 OA
HETATM   15  C26 UNL     1      -1.566  21.639  19.171  1.00  0.00     0.188 C 
HETATM   16  C27 UNL     1      -0.647  22.873  19.207  1.00  0.00     0.016 C 
HETATM   17  C28 UNL     1      -1.442  24.035  18.702  1.00  0.00     0.021 C 
ENDROOT
BRANCH   4  18
HETATM   18  C9  UNL     1       3.809  25.677  19.339  1.00  0.00     0.030 C 
BRANCH  18  19
HETATM   19  C10 UNL     1       4.877  26.236  20.248  1.00  0.00     0.040 C 
BRANCH  19  20
HETATM   20  C11 UNL     1       6.069  25.319  20.200  1.00  0.00     0.051 C 
HETATM   21  C12 UNL     1       6.275  24.616  18.897  1.00  0.00     0.045 C 
HETATM   22  C13 UNL     1       7.339  26.008  20.626  1.00  0.00     0.045 C 
BRANCH  20  23
HETATM   23  O3  UNL     1       5.893  24.253  21.144  1.00  0.00    -0.391 OA
ATOM     24  H3  UNL     1       5.757  23.436  20.678  1.00  0.00     0.210 HD
ENDBRANCH  20  23
ENDBRANCH  19  20
ENDBRANCH  18  19
ENDBRANCH   4  18
BRANCH   5  25
HETATM   25  O4  UNL     1       2.853  23.167  18.323  1.00  0.00    -0.385 OA
ATOM     26  H4  UNL     1       2.678  22.307  18.687  1.00  0.00     0.211 HD
ENDBRANCH   5  25
BRANCH   1  27
HETATM   27  O2  UNL     1      -1.600  23.598  21.209  1.00  0.00    -0.315 OA
BRANCH  27  28
HETATM   28  C4  UNL     1      -2.239  22.882  22.249  1.00  0.00     0.259 C 
HETATM   29  O1  UNL     1      -1.519  22.672  23.221  1.00  0.00    -0.265 OA
BRANCH  28  30
HETATM   30  C3  UNL     1      -3.653  22.486  22.055  1.00  0.00     0.111 C 
BRANCH  30  31
HETATM   31  C2  UNL     1      -3.853  21.004  22.055  1.00  0.00     0.005 C 
HETATM   32  C1  UNL     1      -5.240  20.595  21.670  1.00  0.00     0.005 C 
ENDBRANCH  30  31
ENDBRANCH  28  30
ENDBRANCH  27  28
ENDBRANCH   1  27
BRANCH   9  33
HETATM   33  O5  UNL     1       2.374  22.053  16.121  1.00  0.00    -0.360 OA
ATOM     34  H5  UNL     1       2.912  22.243  15.361  1.00  0.00     0.217 HD
ENDBRANCH   9  33
BRANCH  12  35
HETATM   35  O6  UNL     1      -3.075  20.974  15.517  1.00  0.00    -0.357 OA
ATOM     36  H6  UNL     1      -3.704  21.576  15.137  1.00  0.00     0.217 HD
ENDBRANCH  12  35
BRANCH  11  37
HETATM   37  C21 UNL     1      -1.250  20.999  13.142  1.00  0.00    -0.074 C 
HETATM   38  C22 UNL     1      -1.519  19.629  12.613  1.00  0.00     0.044 C 
HETATM   39  C23 UNL     1      -1.860  22.106  12.414  1.00  0.00     0.044 C 
ENDBRANCH  11  37
TORSDOF 12
ENDMDL
MODEL 3
REMARK VINA RESULT: -6.713907043      0.966      1.546
REMARK  12 active torsions:
REMARK  status: ('A' for Active; 'I' for Inactive)
REMARK    1  A    between atoms: C2_2  and  C3_3 
REMARK    2  A    between atoms: C3_3  and  C4_4 
REMARK    3  A    between atoms: C4_4  and  O2_6 
REMARK    4  A    between atoms: O2_6  and  C5_7 
REMARK    5  A    between atoms: C8_10  and  C9_11 
REMARK    6  A    between atoms: C9_11  and  C10_12 
REMARK    7  A    between atoms: C10_12  and  C11_13 
REMARK    8  A    between atoms: C11_13  and  O3_16 
REMARK    9  A    between atoms: C14_18  and  O4_20 
REMARK   10  A    between atoms: C18_24  and  O5_25 
REMARK   11  A    between atoms: C20_28  and  C21_29 
REMARK   12  A    between atoms: C24_32  and  O6_33 
ROOT
HETATM    1  C5  UNL     1       0.808  21.580  14.540  1.00  0.00     0.147 C 
HETATM    2  C6  UNL     1      -0.177  21.076  13.542  1.00  0.00     0.070 C 
HETATM    3  C7  UNL     1      -1.412  20.467  14.040  1.00  0.00    -0.047 C 
HETATM    4  C8  UNL     1      -2.103  19.801  13.153  1.00  0.00    -0.021 C 
HETATM    5  C14 UNL     1      -1.848  20.540  15.494  1.00  0.00     0.086 C 
HETATM    6  C15 UNL     1      -3.028  21.399  15.645  1.00  0.00     0.051 C 
HETATM    7  C16 UNL     1      -0.733  20.951  16.409  1.00  0.00     0.075 C 
HETATM    8  C17 UNL     1      -1.108  21.398  17.783  1.00  0.00     0.019 A 
HETATM    9  C18 UNL     1      -2.076  20.773  18.534  1.00  0.00     0.076 A 
HETATM   10  C19 UNL     1      -2.431  21.308  19.757  1.00  0.00     0.051 A 
HETATM   11  C20 UNL     1      -1.881  22.454  20.317  1.00  0.00     0.004 A 
HETATM   12  C24 UNL     1      -0.906  23.085  19.593  1.00  0.00     0.110 A 
HETATM   13  C25 UNL     1      -0.549  22.544  18.350  1.00  0.00     0.112 A 
HETATM   14  O7  UNL     1       0.476  23.260  17.681  1.00  0.00    -0.347 OA
HETATM   15  C26 UNL     1       1.214  22.389  16.782  1.00  0.00     0.188 C 
HETATM   16  C27 UNL     1       0.110  22.026  15.772  1.00  0.00     0.016 C 
HETATM   17  C28 UNL     1      -0.615  23.289  15.432  1.00  0.00     0.021 C 
ENDROOT
BRANCH   4  18
HETATM   18  C9  UNL     1      -3.333  19.056  13.114  1.00  0.00     0.030 C 
BRANCH  18  19
HETATM   19  C10 UNL     1      -3.823  18.682  11.737  1.00  0.00     0.040 C 
BRANCH  19  20
HETATM   20  C11 UNL     1      -5.286  18.342  11.829  1.00  0.00     0.051 C 
HETATM   21  C12 UNL     1      -6.082  19.215  12.745  1.00  0.00     0.045 C 
HETATM   22  C13 UNL     1      -5.944  18.270  10.476  1.00  0.00     0.045 C 
BRANCH  20  23
HETATM   23  O3  UNL     1      -5.439  17.028  12.384  1.00  0.00    -0.391 OA
ATOM     24  H3  UNL     1      -5.709  17.096  13.293  1.00  0.00     0.210 HD
ENDBRANCH  20  23
ENDBRANCH  19  20
ENDBRANCH  18  19
ENDBRANCH   4  18
BRANCH   5  25
HETATM   25  O4  UNL     1      -2.102  19.158  15.707  1.00  0.00    -0.385 OA
ATOM     26  H4  UNL     1      -1.837  19.105  16.618  1.00  0.00     0.211 HD
ENDBRANCH   5  25
BRANCH   1  27
HETATM   27  O2  UNL     1       1.418  22.763  13.988  1.00  0.00    -0.315 OA
BRANCH  27  28
HETATM   28  C4  UNL     1       2.676  22.701  13.340  1.00  0.00     0.259 C 
HETATM   29  O1  UNL     1       3.630  22.681  14.112  1.00  0.00    -0.265 OA
BRANCH  28  30
HETATM   30  C3  UNL     1       2.694  22.662  11.860  1.00  0.00     0.111 C 
BRANCH  30  31
HETATM   31  C2  UNL     1       2.729  21.271  11.310  1.00  0.00     0.005 C 
HETATM   32  C1  UNL     1       1.674  21.017  10.280  1.00  0.00     0.005 C 
ENDBRANCH  30  31
ENDBRANCH  28  30
ENDBRANCH  27  28
ENDBRANCH   1  27
BRANCH   9  33
HETATM   33  O5  UNL     1      -2.723  19.603  18.102  1.00  0.00    -0.360 OA
ATOM     34  H5  UNL     1      -3.631  19.598  17.824  1.00  0.00     0.217 HD
ENDBRANCH   9  33
BRANCH  12  35
HETATM   35  O6  UNL     1      -0.245  24.224  20.034  1.00  0.00    -0.357 OA
ATOM     36  H6  UNL     1      -0.610  25.098  19.968  1.00  0.00     0.217 HD
ENDBRANCH  12  35
BRANCH  11  37
HETATM   37  C21 UNL     1      -2.620  23.062  21.441  1.00  0.00    -0.074 C 
HETATM   38  C22 UNL     1      -3.782  23.930  21.089  1.00  0.00     0.044 C 
HETATM   39  C23 UNL     1      -2.614  22.502  22.788  1.00  0.00     0.044 C 
ENDBRANCH  11  37
TORSDOF 12
ENDMDL
MODEL 4
REMARK VINA RESULT: -6.704579529      5.168      8.548
REMARK  12 active torsions:
REMARK  status: ('A' for Active; 'I' for Inactive)
REMARK    1  A    between atoms: C2_2  and  C3_3 
REMARK    2  A    between atoms: C3_3  and  C4_4 
REMARK    3  A    between atoms: C4_4  and  O2_6 
REMARK    4  A    between atoms: O2_6  and  C5_7 
REMARK    5  A    between atoms: C8_10  and  C9_11 
REMARK    6  A    between atoms: C9_11  and  C10_12 
REMARK    7  A    between atoms: C10_12  and  C11_13 
REMARK    8  A    between atoms: C11_13  and  O3_16 
REMARK    9  A    between atoms: C14_18  and  O4_20 
REMARK   10  A    between atoms: C18_24  and  O5_25 
REMARK   11  A    between atoms: C20_28  and  C21_29 
REMARK   12  A    between atoms: C24_32  and  O6_33 
ROOT
HETATM    1  C5  UNL     1      -1.897  23.673  20.141  1.00  0.00     0.147 C 
HETATM    2  C6  UNL     1      -2.896  24.446  19.351  1.00  0.00     0.070 C 
HETATM    3  C7  UNL     1      -2.630  25.865  19.105  1.00  0.00    -0.047 C 
HETATM    4  C8  UNL     1      -3.647  26.555  18.658  1.00  0.00    -0.021 C 
HETATM    5  C14 UNL     1      -1.293  26.524  19.399  1.00  0.00     0.086 C 
HETATM    6  C15 UNL     1      -0.604  26.891  18.157  1.00  0.00     0.051 C 
HETATM    7  C16 UNL     1      -0.426  25.692  20.297  1.00  0.00     0.075 C 
HETATM    8  C17 UNL     1       1.021  26.051  20.372  1.00  0.00     0.019 A 
HETATM    9  C18 UNL     1       1.467  27.350  20.424  1.00  0.00     0.076 A 
HETATM   10  C19 UNL     1       2.825  27.599  20.395  1.00  0.00     0.051 A 
HETATM   11  C20 UNL     1       3.814  26.627  20.317  1.00  0.00     0.004 A 
HETATM   12  C24 UNL     1       3.393  25.325  20.277  1.00  0.00     0.110 A 
HETATM   13  C25 UNL     1       2.015  25.073  20.304  1.00  0.00     0.112 A 
HETATM   14  O7  UNL     1       1.678  23.696  20.270  1.00  0.00    -0.347 OA
HETATM   15  C26 UNL     1       0.389  23.462  20.899  1.00  0.00     0.188 C 
HETATM   16  C27 UNL     1      -0.537  24.231  19.939  1.00  0.00     0.016 C 
HETATM   17  C28 UNL     1      -0.122  23.882  18.545  1.00  0.00     0.021 C 
ENDROOT
BRANCH   4  18
HETATM   18  C9  UNL     1      -3.911  27.912  18.264  1.00  0.00     0.030 C 
BRANCH  18  19
HETATM   19  C10 UNL     1      -4.793  28.078  17.051  1.00  0.00     0.040 C 
BRANCH  19  20
HETATM   20  C11 UNL     1      -4.895  29.545  16.734  1.00  0.00     0.051 C 
HETATM   21  C12 UNL     1      -3.721  30.118  16.007  1.00  0.00     0.045 C 
HETATM   22  C13 UNL     1      -6.172  29.888  16.013  1.00  0.00     0.045 C 
BRANCH  20  23
HETATM   23  O3  UNL     1      -4.946  30.298  17.954  1.00  0.00    -0.391 OA
ATOM     24  H3  UNL     1      -4.696  31.198  17.783  1.00  0.00     0.210 HD
ENDBRANCH  20  23
ENDBRANCH  19  20
ENDBRANCH  18  19
ENDBRANCH   4  18
BRANCH   5  25
HETATM   25  O4  UNL     1      -1.765  27.632  20.153  1.00  0.00    -0.385 OA
ATOM     26  H4  UNL     1      -1.119  28.273  19.882  1.00  0.00     0.211 HD
ENDBRANCH   5  25
BRANCH   1  27
HETATM   27  O2  UNL     1      -1.855  22.338  19.598  1.00  0.00    -0.315 OA
BRANCH  27  28
HETATM   28  C4  UNL     1      -2.652  21.304  20.145  1.00  0.00     0.259 C 
HETATM   29  O1  UNL     1      -2.882  20.388  19.360  1.00  0.00    -0.265 OA
BRANCH  28  30
HETATM   30  C3  UNL     1      -3.097  21.438  21.551  1.00  0.00     0.111 C 
BRANCH  30  31
HETATM   31  C2  UNL     1      -4.575  21.276  21.717  1.00  0.00     0.005 C 
HETATM   32  C1  UNL     1      -5.368  22.287  20.951  1.00  0.00     0.005 C 
ENDBRANCH  30  31
ENDBRANCH  28  30
ENDBRANCH  27  28
ENDBRANCH   1  27
BRANCH   9  33
HETATM   33  O5  UNL     1       0.588  28.443  20.508  1.00  0.00    -0.360 OA
ATOM     34  H5  UNL     1       0.036  28.707  19.781  1.00  0.00     0.217 HD
ENDBRANCH   9  33
BRANCH  12  35
HETATM   35  O6  UNL     1       4.263  24.243  20.227  1.00  0.00    -0.357 OA
ATOM     36  H6  UNL     1       4.060  23.393  20.596  1.00  0.00     0.217 HD
ENDBRANCH  12  35
BRANCH  11  37
HETATM   37  C21 UNL     1       5.166  27.085  19.943  1.00  0.00    -0.074 C 
HETATM   38  C22 UNL     1       5.519  27.024  18.494  1.00  0.00     0.044 C 
HETATM   39  C23 UNL     1       5.943  28.010  20.761  1.00  0.00     0.044 C 
ENDBRANCH  11  37
TORSDOF 12
ENDMDL
MODEL 5
REMARK VINA RESULT: -6.635196843      5.459      9.564
REMARK  12 active torsions:
REMARK  status: ('A' for Active; 'I' for Inactive)
REMARK    1  A    between atoms: C2_2  and  C3_3 
REMARK    2  A    between atoms: C3_3  and  C4_4 
REMARK    3  A    between atoms: C4_4  and  O2_6 
REMARK    4  A    between atoms: O2_6  and  C5_7 
REMARK    5  A    between atoms: C8_10  and  C9_11 
REMARK    6  A    between atoms: C9_11  and  C10_12 
REMARK    7  A    between atoms: C10_12  and  C11_13 
REMARK    8  A    between atoms: C11_13  and  O3_16 
REMARK    9  A    between atoms: C14_18  and  O4_20 
REMARK   10  A    between atoms: C18_24  and  O5_25 
REMARK   11  A    between atoms: C20_28  and  C21_29 
REMARK   12  A    between atoms: C24_32  and  O6_33 
ROOT
HETATM    1  C5  UNL     1      -2.394  24.412  19.353  1.00  0.00     0.147 C 
HETATM    2  C6  UNL     1      -1.209  24.100  20.200  1.00  0.00     0.070 C 
HETATM    3  C7  UNL     1      -0.060  25.005  20.137  1.00  0.00    -0.047 C 
HETATM    4  C8  UNL     1       1.042  24.549  20.673  1.00  0.00    -0.021 C 
HETATM    5  C14 UNL     1      -0.105  26.359  19.448  1.00  0.00     0.086 C 
HETATM    6  C15 UNL     1      -0.031  27.449  20.428  1.00  0.00     0.051 C 
HETATM    7  C16 UNL     1      -1.287  26.503  18.537  1.00  0.00     0.075 C 
HETATM    8  C17 UNL     1      -1.637  27.882  18.086  1.00  0.00     0.019 A 
HETATM    9  C18 UNL     1      -0.692  28.810  17.716  1.00  0.00     0.076 A 
HETATM   10  C19 UNL     1      -1.094  30.094  17.404  1.00  0.00     0.051 A 
HETATM   11  C20 UNL     1      -2.406  30.549  17.427  1.00  0.00     0.004 A 
HETATM   12  C24 UNL     1      -3.365  29.638  17.779  1.00  0.00     0.110 A 
HETATM   13  C25 UNL     1      -2.957  28.336  18.099  1.00  0.00     0.112 A 
HETATM   14  O7  UNL     1      -4.022  27.464  18.439  1.00  0.00    -0.347 OA
HETATM   15  C26 UNL     1      -3.670  26.082  18.157  1.00  0.00     0.188 C 
HETATM   16  C27 UNL     1      -2.513  25.878  19.153  1.00  0.00     0.016 C 
HETATM   17  C28 UNL     1      -2.941  26.465  20.460  1.00  0.00     0.021 C 
ENDROOT
BRANCH   4  18
HETATM   18  C9  UNL     1       2.387  25.012  20.878  1.00  0.00     0.030 C 
BRANCH  18  19
HETATM   19  C10 UNL     1       3.473  24.006  20.584  1.00  0.00     0.040 C 
BRANCH  19  20
HETATM   20  C11 UNL     1       4.719  24.753  20.190  1.00  0.00     0.051 C 
HETATM   21  C12 UNL     1       5.208  24.482  18.804  1.00  0.00     0.045 C 
HETATM   22  C13 UNL     1       4.593  26.237  20.418  1.00  0.00     0.045 C 
BRANCH  20  23
HETATM   23  O3  UNL     1       5.809  24.342  21.028  1.00  0.00    -0.391 OA
ATOM     24  H3  UNL     1       6.620  24.713  20.699  1.00  0.00     0.210 HD
ENDBRANCH  20  23
ENDBRANCH  19  20
ENDBRANCH  18  19
ENDBRANCH   4  18
BRANCH   5  25
HETATM   25  O4  UNL     1       1.056  26.223  18.640  1.00  0.00    -0.385 OA
ATOM     26  H4  UNL     1       1.676  26.664  19.208  1.00  0.00     0.211 HD
ENDBRANCH   5  25
BRANCH   1  27
HETATM   27  O2  UNL     1      -3.569  24.022  20.091  1.00  0.00    -0.315 OA
BRANCH  27  28
HETATM   28  C4  UNL     1      -4.096  22.713  19.985  1.00  0.00     0.259 C 
HETATM   29  O1  UNL     1      -4.054  22.252  18.848  1.00  0.00    -0.265 OA
BRANCH  28  30
HETATM   30  C3  UNL     1      -4.615  22.070  21.214  1.00  0.00     0.111 C 
BRANCH  30  31
HETATM   31  C2  UNL     1      -3.586  21.250  21.927  1.00  0.00     0.005 C 
HETATM   32  C1  UNL     1      -2.688  22.065  22.803  1.00  0.00     0.005 C 
ENDBRANCH  30  31
ENDBRANCH  28  30
ENDBRANCH  27  28
ENDBRANCH   1  27
BRANCH   9  33
HETATM   33  O5  UNL     1       0.676  28.500  17.644  1.00  0.00    -0.360 OA
ATOM     34  H5  UNL     1       1.352  29.163  17.728  1.00  0.00     0.217 HD
ENDBRANCH   9  33
BRANCH  12  35
HETATM   35  O6  UNL     1      -4.721  29.936  17.820  1.00  0.00    -0.357 OA
ATOM     36  H6  UNL     1      -5.399  29.273  17.873  1.00  0.00     0.217 HD
ENDBRANCH  12  35
BRANCH  11  37
HETATM   37  C21 UNL     1      -2.601  32.011  17.411  1.00  0.00    -0.074 C 
HETATM   38  C22 UNL     1      -3.097  32.608  16.136  1.00  0.00     0.044 C 
HETATM   39  C23 UNL     1      -2.821  32.794  18.621  1.00  0.00     0.044 C 
ENDBRANCH  11  37
TORSDOF 12
ENDMDL
