MODEL 1
REMARK VINA RESULT: -6.838693728      0.000      0.000
REMARK  13 active torsions:
REMARK  status: ('A' for Active; 'I' for Inactive)
REMARK    1  A    between atoms: C4_4  and  C5_5 
REMARK    2  A    between atoms: C8_8  and  O1_9 
REMARK    3  A    between atoms: C13_15  and  O2_16 
REMARK    4  A    between atoms: O2_16  and  C14_17 
REMARK    5  A    between atoms: C14_17  and  O4_19 
REMARK    6  A    between atoms: O4_19  and  C15_20 
REMARK    7  A    between atoms: C15_20  and  O5_21 
REMARK    8  A    between atoms: C22_29  and  C23_30 
REMARK    9  A    between atoms: C23_30  and  C24_31 
REMARK   10  A    between atoms: C24_31  and  C25_32 
REMARK   11  A    between atoms: C25_32  and  O6_33 
REMARK   12  A    between atoms: C26_35  and  C27_36 
REMARK   13  A    between atoms: C27_36  and  O7_37 
ROOT
HETATM    1  C1  UNL     1       0.116  22.576  18.237  1.00  0.00     0.020 C 
HETATM    2  C2  UNL     1      -1.043  22.300  18.786  1.00  0.00    -0.056 C 
HETATM    3  C3  UNL     1      -1.622  23.194  19.799  1.00  0.00    -0.044 C 
HETATM    4  C4  UNL     1      -0.938  23.648  20.796  1.00  0.00     0.009 C 
HETATM    5  C17 UNL     1      -3.080  23.514  19.689  1.00  0.00    -0.020 C 
HETATM    6  C18 UNL     1      -3.612  24.128  20.963  1.00  0.00     0.020 C 
HETATM    7  C19 UNL     1      -3.345  24.477  18.569  1.00  0.00     0.020 C 
HETATM    8  C20 UNL     1      -3.856  22.236  19.418  1.00  0.00     0.014 C 
HETATM    9  C21 UNL     1      -2.949  21.021  19.476  1.00  0.00     0.010 C 
HETATM   10  C22 UNL     1      -1.823  21.127  18.419  1.00  0.00     0.019 C 
ENDROOT
BRANCH   4  11
HETATM   11  C5  UNL     1       0.424  23.422  21.160  1.00  0.00     0.004 C 
HETATM   12  C6  UNL     1       1.357  24.375  21.154  1.00  0.00    -0.075 C 
HETATM   13  C7  UNL     1       2.690  23.913  21.564  1.00  0.00     0.066 C 
HETATM   14  C16 UNL     1       0.831  25.683  20.735  1.00  0.00     0.067 C 
HETATM   15  C8  UNL     1       3.780  24.195  20.597  1.00  0.00     0.126 C 
HETATM   16  C9  UNL     1       3.509  25.289  19.606  1.00  0.00     0.017 C 
HETATM   17  C10 UNL     1       2.690  24.866  18.416  1.00  0.00     0.013 C 
HETATM   18  C11 UNL     1       3.130  26.605  20.188  1.00  0.00     0.017 C 
HETATM   19  C12 UNL     1       3.208  27.635  19.063  1.00  0.00     0.013 C 
HETATM   20  C13 UNL     1       1.904  26.711  20.984  1.00  0.00     0.142 C 
BRANCH  15  21
HETATM   21  O1  UNL     1       4.992  24.479  21.226  1.00  0.00    -0.395 OA
ATOM     22  H1  UNL     1       5.278  25.373  21.078  1.00  0.00     0.210 HD
ENDBRANCH  15  21
BRANCH  20  23
HETATM   23  O2  UNL     1       1.308  27.978  20.710  1.00  0.00    -0.292 OA
BRANCH  23  24
HETATM   24  C14 UNL     1       0.943  28.864  21.709  1.00  0.00     0.408 C 
HETATM   25  O3  UNL     1       1.711  29.045  22.706  1.00  0.00    -0.229 OA
BRANCH  24  26
HETATM   26  O4  UNL     1      -0.235  29.558  21.652  1.00  0.00    -0.273 OA
BRANCH  26  27
HETATM   27  C15 UNL     1      -0.422  30.854  22.181  1.00  0.00     0.347 C 
BRANCH  27  28
HETATM   28  O5  UNL     1      -0.448  30.804  23.562  1.00  0.00    -0.377 OA
ATOM     29  H5  UNL     1      -1.305  31.060  23.881  1.00  0.00     0.212 HD
ENDBRANCH  27  28
ENDBRANCH  26  27
ENDBRANCH  24  26
ENDBRANCH  23  24
ENDBRANCH  20  23
ENDBRANCH   4  11
BRANCH  10  30
HETATM   30  C23 UNL     1      -2.426  21.057  17.068  1.00  0.00     0.016 C 
BRANCH  30  31
HETATM   31  C24 UNL     1      -2.032  19.859  16.265  1.00  0.00     0.065 C 
BRANCH  31  32
HETATM   32  C25 UNL     1      -2.526  20.030  14.854  1.00  0.00     0.041 C 
HETATM   33  C26 UNL     1      -1.746  20.379  13.881  1.00  0.00     0.031 C 
BRANCH  32  34
HETATM   34  O6  UNL     1      -3.902  19.793  14.612  1.00  0.00    -0.365 OA
ATOM     35  H6  UNL     1      -4.459  20.551  14.479  1.00  0.00     0.217 HD
ENDBRANCH  32  34
BRANCH  33  36
HETATM   36  C27 UNL     1      -0.313  20.663  13.933  1.00  0.00     0.196 C 
BRANCH  36  37
HETATM   37  O7  UNL     1      -0.086  21.983  14.237  1.00  0.00    -0.392 OA
HETATM   38  C28 UNL     1       1.198  22.183  14.703  1.00  0.00     0.201 C 
ENDBRANCH  36  37
ENDBRANCH  33  36
ENDBRANCH  31  32
ENDBRANCH  30  31
ENDBRANCH  10  30
TORSDOF 13
ENDMDL
MODEL 2
REMARK VINA RESULT: -6.551757524      3.307      6.626
REMARK  13 active torsions:
REMARK  status: ('A' for Active; 'I' for Inactive)
REMARK    1  A    between atoms: C4_4  and  C5_5 
REMARK    2  A    between atoms: C8_8  and  O1_9 
REMARK    3  A    between atoms: C13_15  and  O2_16 
REMARK    4  A    between atoms: O2_16  and  C14_17 
REMARK    5  A    between atoms: C14_17  and  O4_19 
REMARK    6  A    between atoms: O4_19  and  C15_20 
REMARK    7  A    between atoms: C15_20  and  O5_21 
REMARK    8  A    between atoms: C22_29  and  C23_30 
REMARK    9  A    between atoms: C23_30  and  C24_31 
REMARK   10  A    between atoms: C24_31  and  C25_32 
REMARK   11  A    between atoms: C25_32  and  O6_33 
REMARK   12  A    between atoms: C26_35  and  C27_36 
REMARK   13  A    between atoms: C27_36  and  O7_37 
ROOT
HETATM    1  C1  UNL     1      -0.422  25.298  16.411  1.00  0.00     0.020 C 
HETATM    2  C2  UNL     1      -0.025  24.064  16.612  1.00  0.00    -0.056 C 
HETATM    3  C3  UNL     1      -0.983  22.950  16.540  1.00  0.00    -0.044 C 
HETATM    4  C4  UNL     1      -2.127  22.980  17.136  1.00  0.00     0.009 C 
HETATM    5  C17 UNL     1      -0.558  21.718  15.804  1.00  0.00    -0.020 C 
HETATM    6  C18 UNL     1      -1.463  20.548  16.110  1.00  0.00     0.020 C 
HETATM    7  C19 UNL     1      -0.574  21.936  14.319  1.00  0.00     0.020 C 
HETATM    8  C20 UNL     1       0.856  21.346  16.220  1.00  0.00     0.014 C 
HETATM    9  C21 UNL     1       1.352  22.241  17.339  1.00  0.00     0.010 C 
HETATM   10  C22 UNL     1       1.363  23.723  16.892  1.00  0.00     0.019 C 
ENDROOT
BRANCH   4  11
HETATM   11  C5  UNL     1      -2.715  23.991  17.956  1.00  0.00     0.004 C 
HETATM   12  C6  UNL     1      -2.472  24.116  19.262  1.00  0.00    -0.075 C 
HETATM   13  C7  UNL     1      -3.188  25.228  19.901  1.00  0.00     0.066 C 
HETATM   14  C16 UNL     1      -1.530  23.104  19.764  1.00  0.00     0.067 C 
HETATM   15  C8  UNL     1      -4.009  24.852  21.081  1.00  0.00     0.126 C 
HETATM   16  C9  UNL     1      -3.644  23.558  21.747  1.00  0.00     0.017 C 
HETATM   17  C10 UNL     1      -4.208  22.331  21.081  1.00  0.00     0.013 C 
HETATM   18  C11 UNL     1      -2.226  23.435  22.181  1.00  0.00     0.017 C 
HETATM   19  C12 UNL     1      -2.138  22.215  23.096  1.00  0.00     0.013 C 
HETATM   20  C13 UNL     1      -1.161  23.481  21.175  1.00  0.00     0.142 C 
BRANCH  15  21
HETATM   21  O1  UNL     1      -4.025  25.846  22.059  1.00  0.00    -0.395 OA
ATOM     22  H1  UNL     1      -4.850  26.316  22.088  1.00  0.00     0.210 HD
ENDBRANCH  15  21
BRANCH  20  23
HETATM   23  O2  UNL     1      -0.139  22.568  21.573  1.00  0.00    -0.292 OA
BRANCH  23  24
HETATM   24  C14 UNL     1       1.179  22.954  21.751  1.00  0.00     0.408 C 
HETATM   25  O3  UNL     1       1.556  23.419  22.872  1.00  0.00    -0.229 OA
BRANCH  24  26
HETATM   26  O4  UNL     1       2.096  22.846  20.741  1.00  0.00    -0.273 OA
BRANCH  26  27
HETATM   27  C15 UNL     1       2.945  23.894  20.322  1.00  0.00     0.347 C 
BRANCH  27  28
HETATM   28  O5  UNL     1       4.048  23.971  21.152  1.00  0.00    -0.377 OA
ATOM     29  H5  UNL     1       4.486  24.805  21.033  1.00  0.00     0.212 HD
ENDBRANCH  27  28
ENDBRANCH  26  27
ENDBRANCH  24  26
ENDBRANCH  23  24
ENDBRANCH  20  23
ENDBRANCH   4  11
BRANCH  10  30
HETATM   30  C23 UNL     1       2.375  23.893  15.824  1.00  0.00     0.016 C 
BRANCH  30  31
HETATM   31  C24 UNL     1       3.601  24.646  16.235  1.00  0.00     0.065 C 
BRANCH  31  32
HETATM   32  C25 UNL     1       4.649  23.665  16.687  1.00  0.00     0.041 C 
HETATM   33  C26 UNL     1       5.558  23.971  17.557  1.00  0.00     0.031 C 
BRANCH  32  34
HETATM   34  O6  UNL     1       4.614  22.367  16.123  1.00  0.00    -0.365 OA
ATOM     35  H6  UNL     1       5.370  21.808  16.263  1.00  0.00     0.217 HD
ENDBRANCH  32  34
BRANCH  33  36
HETATM   36  C27 UNL     1       5.754  25.246  18.245  1.00  0.00     0.196 C 
BRANCH  36  37
HETATM   37  O7  UNL     1       6.246  25.049  19.512  1.00  0.00    -0.392 OA
HETATM   38  C28 UNL     1       7.434  24.346  19.491  1.00  0.00     0.201 C 
ENDBRANCH  36  37
ENDBRANCH  33  36
ENDBRANCH  31  32
ENDBRANCH  30  31
ENDBRANCH  10  30
TORSDOF 13
ENDMDL
MODEL 3
REMARK VINA RESULT: -6.501540260      3.220      6.352
REMARK  13 active torsions:
REMARK  status: ('A' for Active; 'I' for Inactive)
REMARK    1  A    between atoms: C4_4  and  C5_5 
REMARK    2  A    between atoms: C8_8  and  O1_9 
REMARK    3  A    between atoms: C13_15  and  O2_16 
REMARK    4  A    between atoms: O2_16  and  C14_17 
REMARK    5  A    between atoms: C14_17  and  O4_19 
REMARK    6  A    between atoms: O4_19  and  C15_20 
REMARK    7  A    between atoms: C15_20  and  O5_21 
REMARK    8  A    between atoms: C22_29  and  C23_30 
REMARK    9  A    between atoms: C23_30  and  C24_31 
REMARK   10  A    between atoms: C24_31  and  C25_32 
REMARK   11  A    between atoms: C25_32  and  O6_33 
REMARK   12  A    between atoms: C26_35  and  C27_36 
REMARK   13  A    between atoms: C27_36  and  O7_37 
ROOT
HETATM    1  C1  UNL     1      -0.678  25.270  16.246  1.00  0.00     0.020 C 
HETATM    2  C2  UNL     1      -0.178  24.080  16.481  1.00  0.00    -0.056 C 
HETATM    3  C3  UNL     1      -1.054  22.900  16.536  1.00  0.00    -0.044 C 
HETATM    4  C4  UNL     1      -2.154  22.883  17.211  1.00  0.00     0.009 C 
HETATM    5  C17 UNL     1      -0.591  21.660  15.836  1.00  0.00    -0.020 C 
HETATM    6  C18 UNL     1      -1.384  20.450  16.267  1.00  0.00     0.020 C 
HETATM    7  C19 UNL     1      -0.724  21.792  14.347  1.00  0.00     0.020 C 
HETATM    8  C20 UNL     1       0.871  21.412  16.169  1.00  0.00     0.014 C 
HETATM    9  C21 UNL     1       1.375  22.402  17.201  1.00  0.00     0.010 C 
HETATM   10  C22 UNL     1       1.246  23.854  16.677  1.00  0.00     0.019 C 
ENDROOT
BRANCH   4  11
HETATM   11  C5  UNL     1      -2.758  23.896  18.017  1.00  0.00     0.004 C 
HETATM   12  C6  UNL     1      -2.493  24.062  19.314  1.00  0.00    -0.075 C 
HETATM   13  C7  UNL     1      -3.232  25.166  19.941  1.00  0.00     0.066 C 
HETATM   14  C16 UNL     1      -1.511  23.092  19.822  1.00  0.00     0.067 C 
HETATM   15  C8  UNL     1      -4.018  24.795  21.145  1.00  0.00     0.126 C 
HETATM   16  C9  UNL     1      -3.599  23.530  21.836  1.00  0.00     0.017 C 
HETATM   17  C10 UNL     1      -4.137  22.270  21.212  1.00  0.00     0.013 C 
HETATM   18  C11 UNL     1      -2.170  23.462  22.244  1.00  0.00     0.017 C 
HETATM   19  C12 UNL     1      -2.026  22.269  23.186  1.00  0.00     0.013 C 
HETATM   20  C13 UNL     1      -1.126  23.516  21.216  1.00  0.00     0.142 C 
BRANCH  15  21
HETATM   21  O1  UNL     1      -4.046  25.812  22.099  1.00  0.00    -0.395 OA
ATOM     22  H1  UNL     1      -4.144  26.673  21.711  1.00  0.00     0.210 HD
ENDBRANCH  15  21
BRANCH  20  23
HETATM   23  O2  UNL     1      -0.068  22.645  21.615  1.00  0.00    -0.292 OA
BRANCH  23  24
HETATM   24  C14 UNL     1       1.246  23.067  21.722  1.00  0.00     0.408 C 
HETATM   25  O3  UNL     1       1.681  23.512  22.830  1.00  0.00    -0.229 OA
BRANCH  24  26
HETATM   26  O4  UNL     1       2.099  23.018  20.653  1.00  0.00    -0.273 OA
BRANCH  26  27
HETATM   27  C15 UNL     1       2.997  24.051  20.303  1.00  0.00     0.347 C 
BRANCH  27  28
HETATM   28  O5  UNL     1       4.066  24.066  21.179  1.00  0.00    -0.377 OA
ATOM     29  H5  UNL     1       4.830  24.436  20.754  1.00  0.00     0.212 HD
ENDBRANCH  27  28
ENDBRANCH  26  27
ENDBRANCH  24  26
ENDBRANCH  23  24
ENDBRANCH  20  23
ENDBRANCH   4  11
BRANCH  10  30
HETATM   30  C23 UNL     1       2.168  24.033  15.532  1.00  0.00     0.016 C 
BRANCH  30  31
HETATM   31  C24 UNL     1       3.620  23.908  15.868  1.00  0.00     0.065 C 
BRANCH  31  32
HETATM   32  C25 UNL     1       4.280  23.002  14.864  1.00  0.00     0.041 C 
HETATM   33  C26 UNL     1       5.440  22.464  15.068  1.00  0.00     0.031 C 
BRANCH  32  34
HETATM   34  O6  UNL     1       3.580  22.746  13.659  1.00  0.00    -0.365 OA
ATOM     35  H6  UNL     1       3.162  21.898  13.568  1.00  0.00     0.217 HD
ENDBRANCH  32  34
BRANCH  33  36
HETATM   36  C27 UNL     1       6.305  22.607  16.237  1.00  0.00     0.196 C 
BRANCH  36  37
HETATM   37  O7  UNL     1       6.985  21.441  16.489  1.00  0.00    -0.392 OA
HETATM   38  C28 UNL     1       8.310  21.534  16.111  1.00  0.00     0.201 C 
ENDBRANCH  36  37
ENDBRANCH  33  36
ENDBRANCH  31  32
ENDBRANCH  30  31
ENDBRANCH  10  30
TORSDOF 13
ENDMDL
MODEL 4
REMARK VINA RESULT: -6.447083278      3.701      7.496
REMARK  13 active torsions:
REMARK  status: ('A' for Active; 'I' for Inactive)
REMARK    1  A    between atoms: C4_4  and  C5_5 
REMARK    2  A    between atoms: C8_8  and  O1_9 
REMARK    3  A    between atoms: C13_15  and  O2_16 
REMARK    4  A    between atoms: O2_16  and  C14_17 
REMARK    5  A    between atoms: C14_17  and  O4_19 
REMARK    6  A    between atoms: O4_19  and  C15_20 
REMARK    7  A    between atoms: C15_20  and  O5_21 
REMARK    8  A    between atoms: C22_29  and  C23_30 
REMARK    9  A    between atoms: C23_30  and  C24_31 
REMARK   10  A    between atoms: C24_31  and  C25_32 
REMARK   11  A    between atoms: C25_32  and  O6_33 
REMARK   12  A    between atoms: C26_35  and  C27_36 
REMARK   13  A    between atoms: C27_36  and  O7_37 
ROOT
HETATM    1  C1  UNL     1       2.976  23.493  19.144  1.00  0.00     0.020 C 
HETATM    2  C2  UNL     1       2.175  23.391  18.110  1.00  0.00    -0.056 C 
HETATM    3  C3  UNL     1       1.026  24.296  17.963  1.00  0.00    -0.044 C 
HETATM    4  C4  UNL     1       0.208  24.541  18.931  1.00  0.00     0.009 C 
HETATM    5  C17 UNL     1       0.774  24.883  16.609  1.00  0.00    -0.020 C 
HETATM    6  C18 UNL     1      -0.608  25.484  16.512  1.00  0.00     0.020 C 
HETATM    7  C19 UNL     1       1.769  25.960  16.288  1.00  0.00     0.020 C 
HETATM    8  C20 UNL     1       0.892  23.791  15.559  1.00  0.00     0.014 C 
HETATM    9  C21 UNL     1       1.090  22.431  16.200  1.00  0.00     0.010 C 
HETATM   10  C22 UNL     1       2.382  22.410  17.054  1.00  0.00     0.019 C 
ENDROOT
BRANCH   4  11
HETATM   11  C5  UNL     1       0.187  24.044  20.270  1.00  0.00     0.004 C 
HETATM   12  C6  UNL     1      -0.712  23.164  20.716  1.00  0.00    -0.075 C 
HETATM   13  C7  UNL     1      -0.541  22.797  22.128  1.00  0.00     0.066 C 
HETATM   14  C16 UNL     1      -1.674  22.760  19.680  1.00  0.00     0.067 C 
HETATM   15  C8  UNL     1      -1.744  22.987  22.979  1.00  0.00     0.126 C 
HETATM   16  C9  UNL     1      -3.056  23.052  22.252  1.00  0.00     0.017 C 
HETATM   17  C10 UNL     1      -3.376  24.399  21.660  1.00  0.00     0.013 C 
HETATM   18  C11 UNL     1      -3.359  21.895  21.368  1.00  0.00     0.017 C 
HETATM   19  C12 UNL     1      -4.834  21.997  20.982  1.00  0.00     0.013 C 
HETATM   20  C13 UNL     1      -2.483  21.612  20.228  1.00  0.00     0.142 C 
BRANCH  15  21
HETATM   21  O1  UNL     1      -1.855  22.014  23.972  1.00  0.00    -0.395 OA
ATOM     22  H1  UNL     1      -2.455  22.267  24.664  1.00  0.00     0.210 HD
ENDBRANCH  15  21
BRANCH  20  23
HETATM   23  O2  UNL     1      -3.296  21.152  19.149  1.00  0.00    -0.292 OA
BRANCH  23  24
HETATM   24  C14 UNL     1      -3.103  21.563  17.841  1.00  0.00     0.408 C 
HETATM   25  O3  UNL     1      -3.834  22.479  17.350  1.00  0.00    -0.229 OA
BRANCH  24  26
HETATM   26  O4  UNL     1      -2.134  21.001  17.053  1.00  0.00    -0.273 OA
BRANCH  26  27
HETATM   27  C15 UNL     1      -1.540  19.743  17.297  1.00  0.00     0.347 C 
BRANCH  27  28
HETATM   28  O5  UNL     1      -2.512  18.817  17.629  1.00  0.00    -0.377 OA
ATOM     29  H5  UNL     1      -2.142  18.145  18.189  1.00  0.00     0.212 HD
ENDBRANCH  27  28
ENDBRANCH  26  27
ENDBRANCH  24  26
ENDBRANCH  23  24
ENDBRANCH  20  23
ENDBRANCH   4  11
BRANCH  10  30
HETATM   30  C23 UNL     1       3.551  22.555  16.156  1.00  0.00     0.016 C 
BRANCH  30  31
HETATM   31  C24 UNL     1       4.585  23.528  16.623  1.00  0.00     0.065 C 
BRANCH  31  32
HETATM   32  C25 UNL     1       5.936  22.866  16.583  1.00  0.00     0.041 C 
HETATM   33  C26 UNL     1       6.949  23.308  17.258  1.00  0.00     0.031 C 
BRANCH  32  34
HETATM   34  O6  UNL     1       6.073  21.715  15.768  1.00  0.00    -0.365 OA
ATOM     35  H6  UNL     1       6.954  21.455  15.524  1.00  0.00     0.217 HD
ENDBRANCH  32  34
BRANCH  33  36
HETATM   36  C27 UNL     1       7.001  24.468  18.146  1.00  0.00     0.196 C 
BRANCH  36  37
HETATM   37  O7  UNL     1       7.127  24.076  19.456  1.00  0.00    -0.392 OA
HETATM   38  C28 UNL     1       6.292  24.799  20.285  1.00  0.00     0.201 C 
ENDBRANCH  36  37
ENDBRANCH  33  36
ENDBRANCH  31  32
ENDBRANCH  30  31
ENDBRANCH  10  30
TORSDOF 13
ENDMDL
MODEL 5
REMARK VINA RESULT: -6.438781512      3.701      7.696
REMARK  13 active torsions:
REMARK  status: ('A' for Active; 'I' for Inactive)
REMARK    1  A    between atoms: C4_4  and  C5_5 
REMARK    2  A    between atoms: C8_8  and  O1_9 
REMARK    3  A    between atoms: C13_15  and  O2_16 
REMARK    4  A    between atoms: O2_16  and  C14_17 
REMARK    5  A    between atoms: C14_17  and  O4_19 
REMARK    6  A    between atoms: O4_19  and  C15_20 
REMARK    7  A    between atoms: C15_20  and  O5_21 
REMARK    8  A    between atoms: C22_29  and  C23_30 
REMARK    9  A    between atoms: C23_30  and  C24_31 
REMARK   10  A    between atoms: C24_31  and  C25_32 
REMARK   11  A    between atoms: C25_32  and  O6_33 
REMARK   12  A    between atoms: C26_35  and  C27_36 
REMARK   13  A    between atoms: C27_36  and  O7_37 
ROOT
HETATM    1  C1  UNL     1       3.203  24.544  19.558  1.00  0.00     0.020 C 
HETATM    2  C2  UNL     1       2.571  24.252  18.446  1.00  0.00    -0.056 C 
HETATM    3  C3  UNL     1       1.223  24.784  18.192  1.00  0.00    -0.044 C 
HETATM    4  C4  UNL     1       0.281  24.737  19.073  1.00  0.00     0.009 C 
HETATM    5  C17 UNL     1       0.938  25.325  16.825  1.00  0.00    -0.020 C 
HETATM    6  C18 UNL     1      -0.544  25.495  16.593  1.00  0.00     0.020 C 
HETATM    7  C19 UNL     1       1.593  26.660  16.620  1.00  0.00     0.020 C 
HETATM    8  C20 UNL     1       1.475  24.360  15.781  1.00  0.00     0.014 C 
HETATM    9  C21 UNL     1       2.007  23.094  16.425  1.00  0.00     0.010 C 
HETATM   10  C22 UNL     1       3.159  23.420  17.407  1.00  0.00     0.019 C 
ENDROOT
BRANCH   4  11
HETATM   11  C5  UNL     1       0.282  24.202  20.397  1.00  0.00     0.004 C 
HETATM   12  C6  UNL     1      -0.534  23.224  20.798  1.00  0.00    -0.075 C 
HETATM   13  C7  UNL     1      -0.357  22.835  22.203  1.00  0.00     0.066 C 
HETATM   14  C16 UNL     1      -1.429  22.757  19.729  1.00  0.00     0.067 C 
HETATM   15  C8  UNL     1      -1.590  22.880  23.030  1.00  0.00     0.126 C 
HETATM   16  C9  UNL     1      -2.886  22.835  22.274  1.00  0.00     0.017 C 
HETATM   17  C10 UNL     1      -3.327  24.161  21.712  1.00  0.00     0.013 C 
HETATM   18  C11 UNL     1      -3.054  21.680  21.352  1.00  0.00     0.017 C 
HETATM   19  C12 UNL     1      -4.523  21.646  20.934  1.00  0.00     0.013 C 
HETATM   20  C13 UNL     1      -2.130  21.519  20.226  1.00  0.00     0.142 C 
BRANCH  15  21
HETATM   21  O1  UNL     1      -1.624  21.872  23.994  1.00  0.00    -0.395 OA
ATOM     22  H1  UNL     1      -2.383  21.308  23.905  1.00  0.00     0.210 HD
ENDBRANCH  15  21
BRANCH  20  23
HETATM   23  O2  UNL     1      -2.870  21.012  19.116  1.00  0.00    -0.292 OA
BRANCH  23  24
HETATM   24  C14 UNL     1      -2.264  20.397  18.034  1.00  0.00     0.408 C 
HETATM   25  O3  UNL     1      -1.751  19.242  18.167  1.00  0.00    -0.229 OA
BRANCH  24  26
HETATM   26  O4  UNL     1      -2.204  21.006  16.810  1.00  0.00    -0.273 OA
BRANCH  26  27
HETATM   27  C15 UNL     1      -1.960  20.329  15.595  1.00  0.00     0.347 C 
BRANCH  27  28
HETATM   28  O5  UNL     1      -2.660  19.137  15.567  1.00  0.00    -0.377 OA
ATOM     29  H5  UNL     1      -2.088  18.418  15.807  1.00  0.00     0.212 HD
ENDBRANCH  27  28
ENDBRANCH  26  27
ENDBRANCH  24  26
ENDBRANCH  23  24
ENDBRANCH  20  23
ENDBRANCH   4  11
BRANCH  10  30
HETATM   30  C23 UNL     1       4.312  23.940  16.635  1.00  0.00     0.016 C 
BRANCH  30  31
HETATM   31  C24 UNL     1       5.589  23.187  16.832  1.00  0.00     0.065 C 
BRANCH  31  32
HETATM   32  C25 UNL     1       5.969  22.519  15.538  1.00  0.00     0.041 C 
HETATM   33  C26 UNL     1       7.122  21.958  15.357  1.00  0.00     0.031 C 
BRANCH  32  34
HETATM   34  O6  UNL     1       5.008  22.521  14.497  1.00  0.00    -0.365 OA
ATOM     35  H6  UNL     1       5.271  22.161  13.658  1.00  0.00     0.217 HD
ENDBRANCH  32  34
BRANCH  33  36
HETATM   36  C27 UNL     1       8.231  21.854  16.302  1.00  0.00     0.196 C 
BRANCH  36  37
HETATM   37  O7  UNL     1       9.356  21.362  15.687  1.00  0.00    -0.392 OA
HETATM   38  C28 UNL     1       9.905  20.313  16.396  1.00  0.00     0.201 C 
ENDBRANCH  36  37
ENDBRANCH  33  36
ENDBRANCH  31  32
ENDBRANCH  30  31
ENDBRANCH  10  30
TORSDOF 13
ENDMDL
