MODEL 1
REMARK VINA RESULT: -5.703281910      0.000      0.000
REMARK  14 active torsions:
REMARK  status: ('A' for Active; 'I' for Inactive)
REMARK    1  A    between atoms: C2_2  and  O1_3 
REMARK    2  A    between atoms: C2_2  and  C4_7 
REMARK    3  A    between atoms: O1_3  and  C3_4 
REMARK    4  A    between atoms: C4_7  and  O3_8 
REMARK    5  A    between atoms: C4_7  and  C5_10 
REMARK    6  A    between atoms: C5_10  and  C7_12 
REMARK    7  A    between atoms: C7_12  and  C8_13 
REMARK    8  A    between atoms: C8_13  and  C9_14 
REMARK    9  A    between atoms: C9_14  and  O4_15 
REMARK   10  A    between atoms: C9_14  and  C10_17 
REMARK   11  A    between atoms: C10_17  and  C13_20 
REMARK   12  A    between atoms: C14_21  and  C15_22 
REMARK   13  A    between atoms: C15_22  and  O5_23 
REMARK   14  A    between atoms: C18_27  and  O6_28 
ROOT
HETATM    1  C13 UNL     1      -3.543  22.405  19.531  1.00  0.00    -0.016 C 
HETATM    2  C14 UNL     1      -3.336  23.374  18.651  1.00  0.00     0.008 C 
ENDROOT
BRANCH   1   3
HETATM    3  C10 UNL     1      -3.718  22.644  20.999  1.00  0.00    -0.004 C 
HETATM    4  C11 UNL     1      -4.782  21.738  21.555  1.00  0.00     0.021 C 
HETATM    5  C12 UNL     1      -4.078  24.106  21.240  1.00  0.00     0.021 C 
BRANCH   3   6
HETATM    6  C9  UNL     1      -2.409  22.409  21.653  1.00  0.00     0.133 C 
BRANCH   6   7
HETATM    7  C8  UNL     1      -1.345  23.445  21.556  1.00  0.00     0.060 C 
BRANCH   7   8
HETATM    8  C7  UNL     1      -0.125  23.090  20.859  1.00  0.00    -0.015 C 
BRANCH   8   9
HETATM    9  C5  UNL     1       1.039  23.764  20.969  1.00  0.00    -0.030 C 
HETATM   10  C6  UNL     1       2.147  23.278  21.782  1.00  0.00     0.050 C 
BRANCH   9  11
HETATM   11  C4  UNL     1       1.168  24.991  20.198  1.00  0.00     0.104 C 
BRANCH  11  12
HETATM   12  C2  UNL     1       0.717  26.301  20.530  1.00  0.00     0.104 C 
HETATM   13  C1  UNL     1       1.455  27.105  21.345  1.00  0.00     0.054 C 
BRANCH  12  14
HETATM   14  O1  UNL     1      -0.448  26.870  20.086  1.00  0.00    -0.262 OA
BRANCH  14  15
HETATM   15  C3  UNL     1      -0.400  27.908  19.141  1.00  0.00     0.378 C 
HETATM   16  N1  UNL     1       0.356  27.745  17.967  1.00  0.00    -0.032 NA
HETATM   17  O2  UNL     1      -1.044  28.947  19.393  1.00  0.00    -0.242 OA
ENDBRANCH  14  15
ENDBRANCH  12  14
ENDBRANCH  11  12
BRANCH  11  18
HETATM   18  O3  UNL     1       1.775  24.903  19.048  1.00  0.00    -0.357 OA
ATOM     19  H3  UNL     1       1.436  24.226  18.474  1.00  0.00     0.217 HD
ENDBRANCH  11  18
ENDBRANCH   9  11
ENDBRANCH   8   9
ENDBRANCH   7   8
ENDBRANCH   6   7
BRANCH   6  20
HETATM   20  O4  UNL     1      -2.509  22.027  23.007  1.00  0.00    -0.394 OA
ATOM     21  H4  UNL     1      -2.796  22.788  23.499  1.00  0.00     0.210 HD
ENDBRANCH   6  20
ENDBRANCH   3   6
ENDBRANCH   1   3
BRANCH   2  22
HETATM   22  C15 UNL     1      -3.176  23.041  17.239  1.00  0.00     0.082 C 
HETATM   23  C16 UNL     1      -3.668  24.163  16.333  1.00  0.00     0.045 C 
HETATM   24  C17 UNL     1      -2.466  24.820  15.741  1.00  0.00     0.042 C 
HETATM   25  C18 UNL     1      -1.254  24.203  16.394  1.00  0.00     0.071 C 
HETATM   26  C19 UNL     1      -1.796  22.827  16.761  1.00  0.00     0.059 C 
HETATM   27  C24 UNL     1      -0.109  23.986  15.464  1.00  0.00     0.055 C 
HETATM   28  C20 UNL     1      -0.876  22.067  17.626  1.00  0.00     0.012 C 
HETATM   29  C21 UNL     1       0.549  22.299  17.209  1.00  0.00     0.013 C 
HETATM   30  C22 UNL     1       0.720  22.764  15.806  1.00  0.00    -0.005 C 
HETATM   31  C23 UNL     1       0.550  21.663  14.788  1.00  0.00     0.019 C 
HETATM   32  C26 UNL     1       2.116  23.325  15.627  1.00  0.00     0.061 C 
HETATM   33  O7  UNL     1       2.006  24.550  16.275  1.00  0.00    -0.380 OA
HETATM   34  C27 UNL     1       3.187  22.450  16.147  1.00  0.00     0.046 C 
HETATM   35  C28 UNL     1       2.396  23.629  14.165  1.00  0.00     0.046 C 
HETATM   36  C25 UNL     1       0.890  25.106  15.651  1.00  0.00     0.177 C 
BRANCH  22  37
HETATM   37  O5  UNL     1      -3.951  21.914  16.951  1.00  0.00    -0.385 OA
ATOM     38  H5  UNL     1      -3.434  21.135  17.124  1.00  0.00     0.211 HD
ENDBRANCH  22  37
BRANCH  25  39
HETATM   39  O6  UNL     1      -0.868  24.943  17.472  1.00  0.00    -0.389 OA
ATOM     40  H6  UNL     1      -0.282  24.441  18.025  1.00  0.00     0.210 HD
ENDBRANCH  25  39
ENDBRANCH   2  22
TORSDOF 14
ENDMDL
MODEL 2
REMARK VINA RESULT: -5.680797224      2.694      5.948
REMARK  14 active torsions:
REMARK  status: ('A' for Active; 'I' for Inactive)
REMARK    1  A    between atoms: C2_2  and  O1_3 
REMARK    2  A    between atoms: C2_2  and  C4_7 
REMARK    3  A    between atoms: O1_3  and  C3_4 
REMARK    4  A    between atoms: C4_7  and  O3_8 
REMARK    5  A    between atoms: C4_7  and  C5_10 
REMARK    6  A    between atoms: C5_10  and  C7_12 
REMARK    7  A    between atoms: C7_12  and  C8_13 
REMARK    8  A    between atoms: C8_13  and  C9_14 
REMARK    9  A    between atoms: C9_14  and  O4_15 
REMARK   10  A    between atoms: C9_14  and  C10_17 
REMARK   11  A    between atoms: C10_17  and  C13_20 
REMARK   12  A    between atoms: C14_21  and  C15_22 
REMARK   13  A    between atoms: C15_22  and  O5_23 
REMARK   14  A    between atoms: C18_27  and  O6_28 
ROOT
HETATM    1  C13 UNL     1       0.163  25.523  20.462  1.00  0.00    -0.016 C 
HETATM    2  C14 UNL     1      -0.964  25.765  19.809  1.00  0.00     0.008 C 
ENDROOT
BRANCH   1   3
HETATM    3  C10 UNL     1       0.674  24.145  20.748  1.00  0.00    -0.004 C 
HETATM    4  C11 UNL     1       2.161  24.172  20.968  1.00  0.00     0.021 C 
HETATM    5  C12 UNL     1       0.320  23.217  19.590  1.00  0.00     0.021 C 
BRANCH   3   6
HETATM    6  C9  UNL     1      -0.043  23.637  21.941  1.00  0.00     0.133 C 
BRANCH   6   7
HETATM    7  C8  UNL     1      -1.114  22.618  21.774  1.00  0.00     0.060 C 
BRANCH   7   8
HETATM    8  C7  UNL     1      -2.434  22.943  22.278  1.00  0.00    -0.015 C 
BRANCH   8   9
HETATM    9  C5  UNL     1      -3.455  23.381  21.514  1.00  0.00    -0.030 C 
HETATM   10  C6  UNL     1      -3.908  24.767  21.539  1.00  0.00     0.050 C 
BRANCH   9  11
HETATM   11  C4  UNL     1      -4.071  22.417  20.616  1.00  0.00     0.104 C 
BRANCH  11  12
HETATM   12  C2  UNL     1      -3.676  22.053  19.296  1.00  0.00     0.104 C 
HETATM   13  C1  UNL     1      -2.850  20.991  19.085  1.00  0.00     0.054 C 
BRANCH  12  14
HETATM   14  O1  UNL     1      -4.066  22.697  18.150  1.00  0.00    -0.262 OA
BRANCH  14  15
HETATM   15  C3  UNL     1      -3.214  22.707  17.034  1.00  0.00     0.378 C 
HETATM   16  N1  UNL     1      -2.054  23.501  17.051  1.00  0.00    -0.032 NA
HETATM   17  O2  UNL     1      -3.534  21.995  16.059  1.00  0.00    -0.242 OA
ENDBRANCH  14  15
ENDBRANCH  12  14
ENDBRANCH  11  12
BRANCH  11  18
HETATM   18  O3  UNL     1      -5.126  21.791  21.056  1.00  0.00    -0.357 OA
ATOM     19  H3  UNL     1      -5.341  21.972  21.963  1.00  0.00     0.217 HD
ENDBRANCH  11  18
ENDBRANCH   9  11
ENDBRANCH   8   9
ENDBRANCH   7   8
ENDBRANCH   6   7
BRANCH   6  20
HETATM   20  O4  UNL     1       0.810  23.192  22.972  1.00  0.00    -0.394 OA
ATOM     21  H4  UNL     1       0.262  22.901  23.692  1.00  0.00     0.210 HD
ENDBRANCH   6  20
ENDBRANCH   3   6
ENDBRANCH   1   3
BRANCH   2  22
HETATM   22  C15 UNL     1      -1.381  27.145  19.579  1.00  0.00     0.082 C 
HETATM   23  C16 UNL     1      -0.228  28.011  19.092  1.00  0.00     0.045 C 
HETATM   24  C17 UNL     1      -0.455  28.288  17.643  1.00  0.00     0.042 C 
HETATM   25  C18 UNL     1      -1.652  27.476  17.217  1.00  0.00     0.071 C 
HETATM   26  C19 UNL     1      -2.406  27.362  18.538  1.00  0.00     0.059 C 
HETATM   27  C24 UNL     1      -2.554  28.181  16.262  1.00  0.00     0.055 C 
HETATM   28  C20 UNL     1      -3.532  26.415  18.469  1.00  0.00     0.012 C 
HETATM   29  C21 UNL     1      -4.225  26.519  17.140  1.00  0.00     0.013 C 
HETATM   30  C22 UNL     1      -4.014  27.808  16.426  1.00  0.00    -0.005 C 
HETATM   31  C23 UNL     1      -4.828  28.945  16.995  1.00  0.00     0.019 C 
HETATM   32  C26 UNL     1      -4.419  27.653  14.975  1.00  0.00     0.061 C 
HETATM   33  O7  UNL     1      -3.353  26.919  14.468  1.00  0.00    -0.380 OA
HETATM   34  C27 UNL     1      -5.743  27.024  14.783  1.00  0.00     0.046 C 
HETATM   35  C28 UNL     1      -4.404  28.994  14.260  1.00  0.00     0.046 C 
HETATM   36  C25 UNL     1      -2.261  27.690  14.862  1.00  0.00     0.177 C 
BRANCH  22  37
HETATM   37  O5  UNL     1      -1.821  27.690  20.788  1.00  0.00    -0.385 OA
ATOM     38  H5  UNL     1      -1.105  27.668  21.413  1.00  0.00     0.211 HD
ENDBRANCH  22  37
BRANCH  25  39
HETATM   39  O6  UNL     1      -1.255  26.274  16.710  1.00  0.00    -0.389 OA
ATOM     40  H6  UNL     1      -0.483  26.383  16.167  1.00  0.00     0.210 HD
ENDBRANCH  25  39
ENDBRANCH   2  22
TORSDOF 14
ENDMDL
MODEL 3
REMARK VINA RESULT: -5.610075200      2.418      5.590
REMARK  14 active torsions:
REMARK  status: ('A' for Active; 'I' for Inactive)
REMARK    1  A    between atoms: C2_2  and  O1_3 
REMARK    2  A    between atoms: C2_2  and  C4_7 
REMARK    3  A    between atoms: O1_3  and  C3_4 
REMARK    4  A    between atoms: C4_7  and  O3_8 
REMARK    5  A    between atoms: C4_7  and  C5_10 
REMARK    6  A    between atoms: C5_10  and  C7_12 
REMARK    7  A    between atoms: C7_12  and  C8_13 
REMARK    8  A    between atoms: C8_13  and  C9_14 
REMARK    9  A    between atoms: C9_14  and  O4_15 
REMARK   10  A    between atoms: C9_14  and  C10_17 
REMARK   11  A    between atoms: C10_17  and  C13_20 
REMARK   12  A    between atoms: C14_21  and  C15_22 
REMARK   13  A    between atoms: C15_22  and  O5_23 
REMARK   14  A    between atoms: C18_27  and  O6_28 
ROOT
HETATM    1  C13 UNL     1       3.551  24.561  18.670  1.00  0.00    -0.016 C 
HETATM    2  C14 UNL     1       2.658  25.119  17.864  1.00  0.00     0.008 C 
ENDROOT
BRANCH   1   3
HETATM    3  C10 UNL     1       3.801  25.021  20.072  1.00  0.00    -0.004 C 
HETATM    4  C11 UNL     1       3.210  26.387  20.289  1.00  0.00     0.021 C 
HETATM    5  C12 UNL     1       5.301  25.035  20.346  1.00  0.00     0.021 C 
BRANCH   3   6
HETATM    6  C9  UNL     1       3.205  24.020  20.988  1.00  0.00     0.133 C 
BRANCH   6   7
HETATM    7  C8  UNL     1       2.033  24.396  21.823  1.00  0.00     0.060 C 
BRANCH   7   8
HETATM    8  C7  UNL     1       0.826  23.606  21.681  1.00  0.00    -0.015 C 
BRANCH   8   9
HETATM    9  C5  UNL     1      -0.241  23.969  20.940  1.00  0.00    -0.030 C 
HETATM   10  C6  UNL     1      -0.278  25.218  20.188  1.00  0.00     0.050 C 
BRANCH   9  11
HETATM   11  C4  UNL     1      -1.353  23.034  20.879  1.00  0.00     0.104 C 
BRANCH  11  12
HETATM   12  C2  UNL     1      -2.389  22.821  21.835  1.00  0.00     0.104 C 
HETATM   13  C1  UNL     1      -2.108  22.296  23.060  1.00  0.00     0.054 C 
BRANCH  12  14
HETATM   14  O1  UNL     1      -3.715  23.109  21.639  1.00  0.00    -0.262 OA
BRANCH  14  15
HETATM   15  C3  UNL     1      -4.522  22.213  20.921  1.00  0.00     0.378 C 
HETATM   16  N1  UNL     1      -4.497  22.227  19.515  1.00  0.00    -0.032 NA
HETATM   17  O2  UNL     1      -5.239  21.430  21.578  1.00  0.00    -0.242 OA
ENDBRANCH  14  15
ENDBRANCH  12  14
ENDBRANCH  11  12
BRANCH  11  18
HETATM   18  O3  UNL     1      -1.435  22.282  19.818  1.00  0.00    -0.357 OA
ATOM     19  H3  UNL     1      -1.982  22.635  19.127  1.00  0.00     0.217 HD
ENDBRANCH  11  18
ENDBRANCH   9  11
ENDBRANCH   8   9
ENDBRANCH   7   8
ENDBRANCH   6   7
BRANCH   6  20
HETATM   20  O4  UNL     1       2.910  22.786  20.371  1.00  0.00    -0.394 OA
ATOM     21  H4  UNL     1       2.653  22.969  19.474  1.00  0.00     0.210 HD
ENDBRANCH   6  20
ENDBRANCH   3   6
ENDBRANCH   1   3
BRANCH   2  22
HETATM   22  C15 UNL     1       2.486  24.600  16.511  1.00  0.00     0.082 C 
HETATM   23  C16 UNL     1       3.370  23.388  16.252  1.00  0.00     0.045 C 
HETATM   24  C17 UNL     1       2.487  22.185  16.227  1.00  0.00     0.042 C 
HETATM   25  C18 UNL     1       1.103  22.641  16.615  1.00  0.00     0.071 C 
HETATM   26  C19 UNL     1       1.143  24.096  16.161  1.00  0.00     0.059 C 
HETATM   27  C24 UNL     1       0.009  21.977  15.850  1.00  0.00     0.055 C 
HETATM   28  C20 UNL     1      -0.025  24.867  16.622  1.00  0.00     0.012 C 
HETATM   29  C21 UNL     1      -1.268  24.025  16.557  1.00  0.00     0.013 C 
HETATM   30  C22 UNL     1      -1.192  22.872  15.618  1.00  0.00    -0.005 C 
HETATM   31  C23 UNL     1      -1.329  23.272  14.169  1.00  0.00     0.019 C 
HETATM   32  C26 UNL     1      -2.315  21.901  15.920  1.00  0.00     0.061 C 
HETATM   33  O7  UNL     1      -1.852  21.297  17.083  1.00  0.00    -0.380 OA
HETATM   34  C27 UNL     1      -3.643  22.537  16.046  1.00  0.00     0.046 C 
HETATM   35  C28 UNL     1      -2.390  20.812  14.863  1.00  0.00     0.046 C 
HETATM   36  C25 UNL     1      -0.581  20.874  16.700  1.00  0.00     0.177 C 
BRANCH  22  37
HETATM   37  O5  UNL     1       2.867  25.587  15.598  1.00  0.00    -0.385 OA
ATOM     38  H5  UNL     1       2.102  26.101  15.364  1.00  0.00     0.211 HD
ENDBRANCH  22  37
BRANCH  25  39
HETATM   39  O6  UNL     1       0.913  22.493  17.957  1.00  0.00    -0.389 OA
ATOM     40  H6  UNL     1       1.157  21.617  18.231  1.00  0.00     0.210 HD
ENDBRANCH  25  39
ENDBRANCH   2  22
TORSDOF 14
ENDMDL
MODEL 4
REMARK VINA RESULT: -5.554555828      2.885      5.665
REMARK  14 active torsions:
REMARK  status: ('A' for Active; 'I' for Inactive)
REMARK    1  A    between atoms: C2_2  and  O1_3 
REMARK    2  A    between atoms: C2_2  and  C4_7 
REMARK    3  A    between atoms: O1_3  and  C3_4 
REMARK    4  A    between atoms: C4_7  and  O3_8 
REMARK    5  A    between atoms: C4_7  and  C5_10 
REMARK    6  A    between atoms: C5_10  and  C7_12 
REMARK    7  A    between atoms: C7_12  and  C8_13 
REMARK    8  A    between atoms: C8_13  and  C9_14 
REMARK    9  A    between atoms: C9_14  and  O4_15 
REMARK   10  A    between atoms: C9_14  and  C10_17 
REMARK   11  A    between atoms: C10_17  and  C13_20 
REMARK   12  A    between atoms: C14_21  and  C15_22 
REMARK   13  A    between atoms: C15_22  and  O5_23 
REMARK   14  A    between atoms: C18_27  and  O6_28 
ROOT
HETATM    1  C13 UNL     1      -2.949  23.718  20.654  1.00  0.00    -0.016 C 
HETATM    2  C14 UNL     1      -3.494  24.767  20.056  1.00  0.00     0.008 C 
ENDROOT
BRANCH   1   3
HETATM    3  C10 UNL     1      -3.656  22.412  20.841  1.00  0.00    -0.004 C 
HETATM    4  C11 UNL     1      -5.137  22.633  20.980  1.00  0.00     0.021 C 
HETATM    5  C12 UNL     1      -3.103  21.701  22.071  1.00  0.00     0.021 C 
BRANCH   3   6
HETATM    6  C9  UNL     1      -3.343  21.558  19.672  1.00  0.00     0.133 C 
BRANCH   6   7
HETATM    7  C8  UNL     1      -1.976  21.592  19.084  1.00  0.00     0.060 C 
BRANCH   7   8
HETATM    8  C7  UNL     1      -1.597  20.507  18.201  1.00  0.00    -0.015 C 
BRANCH   8   9
HETATM    9  C5  UNL     1      -1.182  20.670  16.928  1.00  0.00    -0.030 C 
HETATM   10  C6  UNL     1       0.106  21.269  16.599  1.00  0.00     0.050 C 
BRANCH   9  11
HETATM   11  C4  UNL     1      -2.060  20.177  15.878  1.00  0.00     0.104 C 
BRANCH  11  12
HETATM   12  C2  UNL     1      -2.471  20.834  14.682  1.00  0.00     0.104 C 
HETATM   13  C1  UNL     1      -2.369  20.210  13.476  1.00  0.00     0.054 C 
BRANCH  12  14
HETATM   14  O1  UNL     1      -2.990  22.101  14.616  1.00  0.00    -0.262 OA
BRANCH  14  15
HETATM   15  C3  UNL     1      -4.143  22.419  15.351  1.00  0.00     0.378 C 
HETATM   16  N1  UNL     1      -5.404  22.023  14.872  1.00  0.00    -0.032 NA
HETATM   17  O2  UNL     1      -3.991  23.050  16.418  1.00  0.00    -0.242 OA
ENDBRANCH  14  15
ENDBRANCH  12  14
ENDBRANCH  11  12
BRANCH  11  18
HETATM   18  O3  UNL     1      -2.546  18.977  16.030  1.00  0.00    -0.357 OA
ATOM     19  H3  UNL     1      -2.982  18.629  15.262  1.00  0.00     0.217 HD
ENDBRANCH  11  18
ENDBRANCH   9  11
ENDBRANCH   8   9
ENDBRANCH   7   8
ENDBRANCH   6   7
BRANCH   6  20
HETATM   20  O4  UNL     1      -3.699  20.204  19.842  1.00  0.00    -0.394 OA
ATOM     21  H4  UNL     1      -4.607  20.179  20.119  1.00  0.00     0.210 HD
ENDBRANCH   6  20
ENDBRANCH   3   6
ENDBRANCH   1   3
BRANCH   2  22
HETATM   22  C15 UNL     1      -2.724  26.000  19.921  1.00  0.00     0.082 C 
HETATM   23  C16 UNL     1      -1.243  25.776  20.196  1.00  0.00     0.045 C 
HETATM   24  C17 UNL     1      -0.529  25.845  18.887  1.00  0.00     0.042 C 
HETATM   25  C18 UNL     1      -1.580  25.959  17.812  1.00  0.00     0.071 C 
HETATM   26  C19 UNL     1      -2.710  26.629  18.585  1.00  0.00     0.059 C 
HETATM   27  C24 UNL     1      -1.211  26.879  16.698  1.00  0.00     0.055 C 
HETATM   28  C20 UNL     1      -3.973  26.668  17.827  1.00  0.00     0.012 C 
HETATM   29  C21 UNL     1      -3.704  26.941  16.374  1.00  0.00     0.013 C 
HETATM   30  C22 UNL     1      -2.399  27.601  16.094  1.00  0.00    -0.005 C 
HETATM   31  C23 UNL     1      -2.393  29.074  16.423  1.00  0.00     0.019 C 
HETATM   32  C26 UNL     1      -2.074  27.471  14.621  1.00  0.00     0.061 C 
HETATM   33  O7  UNL     1      -1.693  26.137  14.538  1.00  0.00    -0.380 OA
HETATM   34  C27 UNL     1      -3.187  27.848  13.724  1.00  0.00     0.046 C 
HETATM   35  C28 UNL     1      -0.851  28.297  14.260  1.00  0.00     0.046 C 
HETATM   36  C25 UNL     1      -0.717  26.056  15.530  1.00  0.00     0.177 C 
BRANCH  22  37
HETATM   37  O5  UNL     1      -3.181  26.922  20.867  1.00  0.00    -0.385 OA
ATOM     38  H5  UNL     1      -4.056  27.204  20.623  1.00  0.00     0.211 HD
ENDBRANCH  22  37
BRANCH  25  39
HETATM   39  O6  UNL     1      -1.905  24.725  17.332  1.00  0.00    -0.389 OA
ATOM     40  H6  UNL     1      -2.138  24.143  18.045  1.00  0.00     0.210 HD
ENDBRANCH  25  39
ENDBRANCH   2  22
TORSDOF 14
ENDMDL
MODEL 5
REMARK VINA RESULT: -5.553813077      2.555      5.747
REMARK  14 active torsions:
REMARK  status: ('A' for Active; 'I' for Inactive)
REMARK    1  A    between atoms: C2_2  and  O1_3 
REMARK    2  A    between atoms: C2_2  and  C4_7 
REMARK    3  A    between atoms: O1_3  and  C3_4 
REMARK    4  A    between atoms: C4_7  and  O3_8 
REMARK    5  A    between atoms: C4_7  and  C5_10 
REMARK    6  A    between atoms: C5_10  and  C7_12 
REMARK    7  A    between atoms: C7_12  and  C8_13 
REMARK    8  A    between atoms: C8_13  and  C9_14 
REMARK    9  A    between atoms: C9_14  and  O4_15 
REMARK   10  A    between atoms: C9_14  and  C10_17 
REMARK   11  A    between atoms: C10_17  and  C13_20 
REMARK   12  A    between atoms: C14_21  and  C15_22 
REMARK   13  A    between atoms: C15_22  and  O5_23 
REMARK   14  A    between atoms: C18_27  and  O6_28 
ROOT
HETATM    1  C13 UNL     1      -1.204  22.692  19.741  1.00  0.00    -0.016 C 
HETATM    2  C14 UNL     1       0.061  23.084  19.678  1.00  0.00     0.008 C 
ENDROOT
BRANCH   1   3
HETATM    3  C10 UNL     1      -1.938  22.080  18.588  1.00  0.00    -0.004 C 
HETATM    4  C11 UNL     1      -2.198  20.621  18.846  1.00  0.00     0.021 C 
HETATM    5  C12 UNL     1      -1.126  22.262  17.310  1.00  0.00     0.021 C 
BRANCH   3   6
HETATM    6  C9  UNL     1      -3.200  22.833  18.407  1.00  0.00     0.133 C 
BRANCH   6   7
HETATM    7  C8  UNL     1      -3.331  23.784  17.270  1.00  0.00     0.060 C 
BRANCH   7   8
HETATM    8  C7  UNL     1      -3.498  25.188  17.585  1.00  0.00    -0.015 C 
BRANCH   8   9
HETATM    9  C5  UNL     1      -2.521  26.113  17.487  1.00  0.00    -0.030 C 
HETATM   10  C6  UNL     1      -1.277  25.859  16.769  1.00  0.00     0.050 C 
BRANCH   9  11
HETATM   11  C4  UNL     1      -2.775  27.411  18.092  1.00  0.00     0.104 C 
BRANCH  11  12
HETATM   12  C2  UNL     1      -2.665  28.704  17.503  1.00  0.00     0.104 C 
HETATM   13  C1  UNL     1      -1.580  29.489  17.746  1.00  0.00     0.054 C 
BRANCH  12  14
HETATM   14  O1  UNL     1      -3.592  29.270  16.666  1.00  0.00    -0.262 OA
BRANCH  14  15
HETATM   15  C3  UNL     1      -4.835  29.674  17.178  1.00  0.00     0.378 C 
HETATM   16  N1  UNL     1      -5.990  28.936  16.864  1.00  0.00    -0.032 NA
HETATM   17  O2  UNL     1      -4.858  30.690  17.903  1.00  0.00    -0.242 OA
ENDBRANCH  14  15
ENDBRANCH  12  14
ENDBRANCH  11  12
BRANCH  11  18
HETATM   18  O3  UNL     1      -3.154  27.416  19.339  1.00  0.00    -0.357 OA
ATOM     19  H3  UNL     1      -2.860  28.169  19.837  1.00  0.00     0.217 HD
ENDBRANCH  11  18
ENDBRANCH   9  11
ENDBRANCH   8   9
ENDBRANCH   7   8
ENDBRANCH   6   7
BRANCH   6  20
HETATM   20  O4  UNL     1      -4.355  22.022  18.418  1.00  0.00    -0.394 OA
ATOM     21  H4  UNL     1      -4.630  21.928  19.322  1.00  0.00     0.210 HD
ENDBRANCH   6  20
ENDBRANCH   3   6
ENDBRANCH   1   3
BRANCH   2  22
HETATM   22  C15 UNL     1       0.691  23.671  20.856  1.00  0.00     0.082 C 
HETATM   23  C16 UNL     1       2.059  23.060  21.132  1.00  0.00     0.045 C 
HETATM   24  C17 UNL     1       3.087  24.076  20.762  1.00  0.00     0.042 C 
HETATM   25  C18 UNL     1       2.360  25.235  20.129  1.00  0.00     0.071 C 
HETATM   26  C19 UNL     1       0.994  25.115  20.795  1.00  0.00     0.059 C 
HETATM   27  C24 UNL     1       2.909  26.571  20.501  1.00  0.00     0.055 C 
HETATM   28  C20 UNL     1      -0.013  26.006  20.192  1.00  0.00     0.012 C 
HETATM   29  C21 UNL     1       0.606  27.327  19.830  1.00  0.00     0.013 C 
HETATM   30  C22 UNL     1       1.853  27.657  20.573  1.00  0.00    -0.005 C 
HETATM   31  C23 UNL     1       1.601  28.108  21.991  1.00  0.00     0.019 C 
HETATM   32  C26 UNL     1       2.577  28.785  19.868  1.00  0.00     0.061 C 
HETATM   33  O7  UNL     1       3.117  28.124  18.771  1.00  0.00    -0.380 OA
HETATM   34  C27 UNL     1       1.712  29.934  19.527  1.00  0.00     0.046 C 
HETATM   35  C28 UNL     1       3.748  29.281  20.698  1.00  0.00     0.046 C 
HETATM   36  C25 UNL     1       3.791  27.066  19.377  1.00  0.00     0.177 C 
BRANCH  22  37
HETATM   37  O5  UNL     1      -0.107  23.408  21.973  1.00  0.00    -0.385 OA
ATOM     38  H5  UNL     1      -0.544  24.211  22.234  1.00  0.00     0.211 HD
ENDBRANCH  22  37
BRANCH  25  39
HETATM   39  O6  UNL     1       2.322  25.089  18.774  1.00  0.00    -0.389 OA
ATOM     40  H6  UNL     1       1.920  25.849  18.370  1.00  0.00     0.210 HD
ENDBRANCH  25  39
ENDBRANCH   2  22
TORSDOF 14
ENDMDL
