MODEL 1
REMARK VINA RESULT: -3.867424319      0.000      0.000
REMARK  9 active torsions:
REMARK  status: ('A' for Active; 'I' for Inactive)
REMARK    1  A    between atoms: O1_2  and  C2_3 
REMARK    2  A    between atoms: C5_9  and  N2_10 
REMARK    3  A    between atoms: N2_10  and  N3_12 
REMARK    4  A    between atoms: C6_14  and  C7_15 
REMARK    5  A    between atoms: C7_15  and  N4_16 
REMARK    6  A    between atoms: N6_23  and  N7_25 
REMARK    7  A    between atoms: N7_25  and  C9_27 
REMARK    8  A    between atoms: C9_27  and  C10_28 
REMARK    9  A    between atoms: C10_28  and  N8_29 
ROOT
HETATM    1  C2  UNL     1      17.162  11.600  13.443  1.00  0.00     0.182 A 
HETATM    2  C3  UNL     1      17.651  10.571  14.219  1.00  0.00     0.103 A 
HETATM    3  C4  UNL     1      18.858   9.919  14.039  1.00  0.00     0.275 C 
HETATM    4  O2  UNL     1      19.474  10.190  12.996  1.00  0.00    -0.267 OA
HETATM    5  N1  UNL     1      19.477   9.013  14.849  1.00  0.00    -0.154 N 
ATOM      6  H1  UNL     1      20.477   8.871  14.707  1.00  0.00     0.187 HD
HETATM    7  C5  UNL     1      18.890   8.291  15.818  1.00  0.00     0.701 C 
HETATM    8  N5  UNL     1      17.774   8.607  16.532  1.00  0.00    -0.173 N 
ATOM      9  H5  UNL     1      17.705   8.180  17.455  1.00  0.00     0.186 HD
HETATM   10  C8  UNL     1      16.753   9.407  16.182  1.00  0.00     0.150 C 
HETATM   11  N6  UNL     1      15.671   9.268  16.887  1.00  0.00    -0.289 N 
ATOM     12  H6  UNL     1      14.865   9.851  16.664  1.00  0.00     0.188 HD
HETATM   13  C13 UNL     1      16.692  10.347  15.185  1.00  0.00     0.076 A 
HETATM   14  C14 UNL     1      15.672  11.236  14.961  1.00  0.00     0.145 A 
HETATM   15  N9  UNL     1      14.475  11.640  15.410  1.00  0.00    -0.335 N 
ATOM     16  H9  UNL     1      13.989  11.244  16.214  1.00  0.00     0.168 HD
HETATM   17  C15 UNL     1      14.002  12.656  14.638  1.00  0.00     0.199 A 
HETATM   18  N10 UNL     1      14.950  12.857  13.704  1.00  0.00    -0.286 N 
ATOM     19  H10 UNL     1      14.899  13.558  12.965  1.00  0.00     0.188 HD
HETATM   20  N11 UNL     1      15.957  12.017  13.882  1.00  0.00    -0.214 N 
ENDROOT
BRANCH   7  21
HETATM   21  N2  UNL     1      19.446   7.177  16.098  1.00  0.00    -0.132 N 
ATOM     22  H2  UNL     1      19.311   6.756  17.017  1.00  0.00     0.205 HD
BRANCH  21  23
HETATM   23  N3  UNL     1      20.239   6.530  15.148  1.00  0.00    -0.300 N 
HETATM   24  C6  UNL     1      20.945   5.485  15.383  1.00  0.00     0.107 C 
ATOM     25  H3  UNL     1      20.258   6.914  14.203  1.00  0.00     0.186 HD
BRANCH  24  26
HETATM   26  C7  UNL     1      21.732   4.930  14.243  1.00  0.00     0.275 C 
BRANCH  26  27
HETATM   27  N4  UNL     1      22.084   6.011  13.374  1.00  0.00    -0.075 N 
ATOM     28  H43 UNL     1      22.188   6.897  13.869  1.00  0.00     0.274 HD
ATOM     29  H42 UNL     1      23.039   5.937  13.021  1.00  0.00     0.274 HD
ATOM     30  H41 UNL     1      21.392   6.058  12.626  1.00  0.00     0.274 HD
ENDBRANCH  26  27
ENDBRANCH  24  26
ENDBRANCH  21  23
ENDBRANCH   7  21
BRANCH  11  31
HETATM   31  N7  UNL     1      15.565   8.360  17.934  1.00  0.00    -0.333 N 
ATOM     32  H7  UNL     1      16.219   7.577  17.970  1.00  0.00     0.180 HD
BRANCH  31  33
HETATM   33  C9  UNL     1      14.573   8.475  18.971  1.00  0.00     0.169 C 
BRANCH  33  34
HETATM   34  C10 UNL     1      14.780   9.811  19.647  1.00  0.00     0.292 C 
BRANCH  34  35
HETATM   35  N8  UNL     1      14.166  10.899  18.940  1.00  0.00     0.081 N 
HETATM   36  C11 UNL     1      14.839  12.149  19.085  1.00  0.00     0.309 C 
HETATM   37  C12 UNL     1      12.738  10.970  19.117  1.00  0.00     0.309 C 
ENDBRANCH  34  35
ENDBRANCH  33  34
ENDBRANCH  31  33
ENDBRANCH  11  31
BRANCH   1  38
HETATM   38  O1  UNL     1      17.854  12.119  12.348  1.00  0.00    -0.339 OA
HETATM   39  C1  UNL     1      17.230  12.855  11.323  1.00  0.00     0.211 C 
ENDBRANCH   1  38
TORSDOF 9
ENDMDL
MODEL 2
REMARK VINA RESULT: -3.193873186      4.154      6.918
REMARK  9 active torsions:
REMARK  status: ('A' for Active; 'I' for Inactive)
REMARK    1  A    between atoms: O1_2  and  C2_3 
REMARK    2  A    between atoms: C5_9  and  N2_10 
REMARK    3  A    between atoms: N2_10  and  N3_12 
REMARK    4  A    between atoms: C6_14  and  C7_15 
REMARK    5  A    between atoms: C7_15  and  N4_16 
REMARK    6  A    between atoms: N6_23  and  N7_25 
REMARK    7  A    between atoms: N7_25  and  C9_27 
REMARK    8  A    between atoms: C9_27  and  C10_28 
REMARK    9  A    between atoms: C10_28  and  N8_29 
ROOT
HETATM    1  C2  UNL     1      21.029   5.652   8.708  1.00  0.00     0.182 A 
HETATM    2  C3  UNL     1      21.572   6.039   9.914  1.00  0.00     0.103 A 
HETATM    3  C4  UNL     1      22.898   6.364  10.141  1.00  0.00     0.275 C 
HETATM    4  O2  UNL     1      23.683   6.136   9.208  1.00  0.00    -0.267 OA
HETATM    5  N1  UNL     1      23.474   6.905  11.253  1.00  0.00    -0.154 N 
ATOM      6  H1  UNL     1      24.386   7.346  11.135  1.00  0.00     0.187 HD
HETATM    7  C5  UNL     1      22.949   6.909  12.490  1.00  0.00     0.701 C 
HETATM    8  N5  UNL     1      21.633   6.861  12.836  1.00  0.00    -0.173 N 
ATOM      9  H5  UNL     1      21.399   7.269  13.741  1.00  0.00     0.186 HD
HETATM   10  C8  UNL     1      20.601   6.349  12.145  1.00  0.00     0.150 C 
HETATM   11  N6  UNL     1      19.525   6.124  12.836  1.00  0.00    -0.289 N 
ATOM     12  H6  UNL     1      18.712   5.735  12.360  1.00  0.00     0.188 HD
HETATM   13  C13 UNL     1      20.526   6.030  10.812  1.00  0.00     0.076 A 
HETATM   14  C14 UNL     1      19.403   5.642  10.127  1.00  0.00     0.145 A 
HETATM   15  N9  UNL     1      18.090   5.401  10.255  1.00  0.00    -0.335 N 
ATOM     16  H9  UNL     1      17.562   5.491  11.123  1.00  0.00     0.168 HD
HETATM   17  C15 UNL     1      17.564   5.021   9.060  1.00  0.00     0.199 A 
HETATM   18  N10 UNL     1      18.598   5.037   8.200  1.00  0.00    -0.286 N 
ATOM     19  H10 UNL     1      18.536   4.798   7.211  1.00  0.00     0.188 HD
HETATM   20  N11 UNL     1      19.707   5.406   8.821  1.00  0.00    -0.214 N 
ENDROOT
BRANCH   7  21
HETATM   21  N2  UNL     1      23.788   6.962  13.451  1.00  0.00    -0.132 N 
ATOM     22  H2  UNL     1      24.392   7.777  13.555  1.00  0.00     0.205 HD
BRANCH  21  23
HETATM   23  N3  UNL     1      23.880   5.908  14.361  1.00  0.00    -0.300 N 
HETATM   24  C6  UNL     1      22.876   5.364  14.945  1.00  0.00     0.107 C 
ATOM     25  H3  UNL     1      24.809   5.545  14.576  1.00  0.00     0.186 HD
BRANCH  24  26
HETATM   26  C7  UNL     1      23.167   4.246  15.890  1.00  0.00     0.275 C 
BRANCH  26  27
HETATM   27  N4  UNL     1      22.142   3.257  15.741  1.00  0.00    -0.075 N 
ATOM     28  H43 UNL     1      21.253   3.547  16.151  1.00  0.00     0.274 HD
ATOM     29  H42 UNL     1      21.825   3.161  14.777  1.00  0.00     0.274 HD
ATOM     30  H41 UNL     1      22.486   2.380  16.131  1.00  0.00     0.274 HD
ENDBRANCH  26  27
ENDBRANCH  24  26
ENDBRANCH  21  23
ENDBRANCH   7  21
BRANCH  11  31
HETATM   31  N7  UNL     1      19.434   6.391  14.197  1.00  0.00    -0.333 N 
ATOM     32  H7  UNL     1      19.065   5.667  14.813  1.00  0.00     0.180 HD
BRANCH  31  33
HETATM   33  C9  UNL     1      19.837   7.646  14.776  1.00  0.00     0.169 C 
BRANCH  33  34
HETATM   34  C10 UNL     1      18.872   8.700  14.286  1.00  0.00     0.292 C 
BRANCH  34  35
HETATM   35  N8  UNL     1      17.835   8.997  15.234  1.00  0.00     0.081 N 
HETATM   36  C11 UNL     1      17.011  10.105  14.877  1.00  0.00     0.309 C 
HETATM   37  C12 UNL     1      18.292   9.014  16.601  1.00  0.00     0.309 C 
ENDBRANCH  34  35
ENDBRANCH  33  34
ENDBRANCH  31  33
ENDBRANCH  11  31
BRANCH   1  38
HETATM   38  O1  UNL     1      21.781   5.539   7.538  1.00  0.00    -0.339 OA
HETATM   39  C1  UNL     1      21.519   6.297   6.380  1.00  0.00     0.211 C 
ENDBRANCH   1  38
TORSDOF 9
ENDMDL
MODEL 3
REMARK VINA RESULT: -2.909129241      2.600      5.202
REMARK  9 active torsions:
REMARK  status: ('A' for Active; 'I' for Inactive)
REMARK    1  A    between atoms: O1_2  and  C2_3 
REMARK    2  A    between atoms: C5_9  and  N2_10 
REMARK    3  A    between atoms: N2_10  and  N3_12 
REMARK    4  A    between atoms: C6_14  and  C7_15 
REMARK    5  A    between atoms: C7_15  and  N4_16 
REMARK    6  A    between atoms: N6_23  and  N7_25 
REMARK    7  A    between atoms: N7_25  and  C9_27 
REMARK    8  A    between atoms: C9_27  and  C10_28 
REMARK    9  A    between atoms: C10_28  and  N8_29 
ROOT
HETATM    1  C2  UNL     1      15.144  10.049  18.639  1.00  0.00     0.182 A 
HETATM    2  C3  UNL     1      16.083   9.879  17.645  1.00  0.00     0.103 A 
HETATM    3  C4  UNL     1      17.042   8.882  17.595  1.00  0.00     0.275 C 
HETATM    4  O2  UNL     1      17.154   8.180  18.612  1.00  0.00    -0.267 OA
HETATM    5  N1  UNL     1      17.892   8.554  16.579  1.00  0.00    -0.154 N 
ATOM      6  H1  UNL     1      18.308   7.624  16.605  1.00  0.00     0.187 HD
HETATM    7  C5  UNL     1      18.229   9.345  15.547  1.00  0.00     0.701 C 
HETATM    8  N5  UNL     1      17.503  10.362  15.005  1.00  0.00    -0.173 N 
ATOM      9  H5  UNL     1      17.703  10.574  14.028  1.00  0.00     0.186 HD
HETATM   10  C8  UNL     1      16.559  11.122  15.585  1.00  0.00     0.150 C 
HETATM   11  N6  UNL     1      16.274  12.225  14.963  1.00  0.00    -0.289 N 
ATOM     12  H6  UNL     1      15.564  12.840  15.360  1.00  0.00     0.188 HD
HETATM   13  C13 UNL     1      15.856  10.895  16.742  1.00  0.00     0.076 A 
HETATM   14  C14 UNL     1      14.802  11.634  17.215  1.00  0.00     0.145 A 
HETATM   15  N9  UNL     1      14.026  12.696  16.955  1.00  0.00    -0.335 N 
ATOM     16  H9  UNL     1      14.115  13.298  16.137  1.00  0.00     0.168 HD
HETATM   17  C15 UNL     1      13.103  12.855  17.941  1.00  0.00     0.199 A 
HETATM   18  N10 UNL     1      13.342  11.856  18.810  1.00  0.00    -0.286 N 
ATOM     19  H10 UNL     1      12.816  11.693  19.668  1.00  0.00     0.188 HD
HETATM   20  N11 UNL     1      14.355  11.115  18.392  1.00  0.00    -0.214 N 
ENDROOT
BRANCH   7  21
HETATM   21  N2  UNL     1      19.368   9.116  15.018  1.00  0.00    -0.132 N 
ATOM     22  H2  UNL     1      20.008   9.888  14.831  1.00  0.00     0.205 HD
BRANCH  21  23
HETATM   23  N3  UNL     1      19.741   7.810  14.694  1.00  0.00    -0.300 N 
HETATM   24  C6  UNL     1      20.270   7.463  13.579  1.00  0.00     0.107 C 
ATOM     25  H3  UNL     1      19.582   7.083  15.392  1.00  0.00     0.186 HD
BRANCH  24  26
HETATM   26  C7  UNL     1      20.604   6.018  13.408  1.00  0.00     0.275 C 
BRANCH  26  27
HETATM   27  N4  UNL     1      21.466   5.628  14.483  1.00  0.00    -0.075 N 
ATOM     28  H43 UNL     1      21.940   6.422  14.914  1.00  0.00     0.274 HD
ATOM     29  H42 UNL     1      20.951   5.311  15.304  1.00  0.00     0.274 HD
ATOM     30  H41 UNL     1      22.116   4.926  14.131  1.00  0.00     0.274 HD
ENDBRANCH  26  27
ENDBRANCH  24  26
ENDBRANCH  21  23
ENDBRANCH   7  21
BRANCH  11  31
HETATM   31  N7  UNL     1      16.894  12.605  13.778  1.00  0.00    -0.333 N 
ATOM     32  H7  UNL     1      17.908  12.713  13.771  1.00  0.00     0.180 HD
BRANCH  31  33
HETATM   33  C9  UNL     1      16.167  12.852  12.560  1.00  0.00     0.169 C 
BRANCH  33  34
HETATM   34  C10 UNL     1      14.710  12.562  12.838  1.00  0.00     0.292 C 
BRANCH  34  35
HETATM   35  N8  UNL     1      13.951  12.306  11.646  1.00  0.00     0.081 N 
HETATM   36  C11 UNL     1      13.505  10.958  11.510  1.00  0.00     0.309 C 
HETATM   37  C12 UNL     1      14.545  12.857  10.454  1.00  0.00     0.309 C 
ENDBRANCH  34  35
ENDBRANCH  33  34
ENDBRANCH  31  33
ENDBRANCH  11  31
BRANCH   1  38
HETATM   38  O1  UNL     1      15.050   9.206  19.747  1.00  0.00    -0.339 OA
HETATM   39  C1  UNL     1      14.423   7.946  19.702  1.00  0.00     0.211 C 
ENDBRANCH   1  38
TORSDOF 9
ENDMDL
MODEL 4
REMARK VINA RESULT: -2.823380226      3.893      8.723
REMARK  9 active torsions:
REMARK  status: ('A' for Active; 'I' for Inactive)
REMARK    1  A    between atoms: O1_2  and  C2_3 
REMARK    2  A    between atoms: C5_9  and  N2_10 
REMARK    3  A    between atoms: N2_10  and  N3_12 
REMARK    4  A    between atoms: C6_14  and  C7_15 
REMARK    5  A    between atoms: C7_15  and  N4_16 
REMARK    6  A    between atoms: N6_23  and  N7_25 
REMARK    7  A    between atoms: N7_25  and  C9_27 
REMARK    8  A    between atoms: C9_27  and  C10_28 
REMARK    9  A    between atoms: C10_28  and  N8_29 
ROOT
HETATM    1  C2  UNL     1      20.012   5.539   9.276  1.00  0.00     0.182 A 
HETATM    2  C3  UNL     1      20.156   5.791  10.623  1.00  0.00     0.103 A 
HETATM    3  C4  UNL     1      19.162   5.690  11.580  1.00  0.00     0.275 C 
HETATM    4  O2  UNL     1      18.012   5.504  11.154  1.00  0.00    -0.267 OA
HETATM    5  N1  UNL     1      19.263   5.765  12.938  1.00  0.00    -0.154 N 
ATOM      6  H1  UNL     1      18.494   5.375  13.482  1.00  0.00     0.187 HD
HETATM    7  C5  UNL     1      20.284   6.306  13.624  1.00  0.00     0.701 C 
HETATM    8  N5  UNL     1      21.580   6.431  13.227  1.00  0.00    -0.173 N 
ATOM      9  H5  UNL     1      22.269   6.478  13.977  1.00  0.00     0.186 HD
HETATM   10  C8  UNL     1      22.073   6.499  11.979  1.00  0.00     0.150 C 
HETATM   11  N6  UNL     1      23.285   6.955  11.884  1.00  0.00    -0.289 N 
ATOM     12  H6  UNL     1      23.708   7.028  10.959  1.00  0.00     0.188 HD
HETATM   13  C13 UNL     1      21.475   6.156  10.793  1.00  0.00     0.076 A 
HETATM   14  C14 UNL     1      22.074   6.112   9.559  1.00  0.00     0.145 A 
HETATM   15  N9  UNL     1      23.233   6.305   8.915  1.00  0.00    -0.335 N 
ATOM     16  H9  UNL     1      24.104   6.598   9.356  1.00  0.00     0.168 HD
HETATM   17  C15 UNL     1      23.080   6.052   7.587  1.00  0.00     0.199 A 
HETATM   18  N10 UNL     1      21.790   5.700   7.443  1.00  0.00    -0.286 N 
ATOM     19  H10 UNL     1      21.351   5.446   6.558  1.00  0.00     0.188 HD
HETATM   20  N11 UNL     1      21.171   5.729   8.613  1.00  0.00    -0.214 N 
ENDROOT
BRANCH   7  21
HETATM   21  N2  UNL     1      19.999   6.757  14.784  1.00  0.00    -0.132 N 
ATOM     22  H2  UNL     1      20.395   6.315  15.613  1.00  0.00     0.205 HD
BRANCH  21  23
HETATM   23  N3  UNL     1      19.148   7.855  14.921  1.00  0.00    -0.300 N 
HETATM   24  C6  UNL     1      19.202   8.909  14.192  1.00  0.00     0.107 C 
ATOM     25  H3  UNL     1      18.435   7.816  15.649  1.00  0.00     0.186 HD
BRANCH  24  26
HETATM   26  C7  UNL     1      18.210   9.985  14.484  1.00  0.00     0.275 C 
BRANCH  26  27
HETATM   27  N4  UNL     1      17.211   9.447  15.357  1.00  0.00    -0.075 N 
ATOM     28  H43 UNL     1      16.379   9.132  14.858  1.00  0.00     0.274 HD
ATOM     29  H42 UNL     1      17.481   8.548  15.757  1.00  0.00     0.274 HD
ATOM     30  H41 UNL     1      17.001  10.146  16.069  1.00  0.00     0.274 HD
ENDBRANCH  26  27
ENDBRANCH  24  26
ENDBRANCH  21  23
ENDBRANCH   7  21
BRANCH  11  31
HETATM   31  N7  UNL     1      24.032   7.348  12.989  1.00  0.00    -0.333 N 
ATOM     32  H7  UNL     1      24.160   8.345  13.162  1.00  0.00     0.180 HD
BRANCH  31  33
HETATM   33  C9  UNL     1      24.634   6.409  13.899  1.00  0.00     0.169 C 
BRANCH  33  34
HETATM   34  C10 UNL     1      23.579   6.018  14.906  1.00  0.00     0.292 C 
BRANCH  34  35
HETATM   35  N8  UNL     1      23.848   4.759  15.543  1.00  0.00     0.081 N 
HETATM   36  C11 UNL     1      22.707   3.914  15.682  1.00  0.00     0.309 C 
HETATM   37  C12 UNL     1      24.650   4.875  16.734  1.00  0.00     0.309 C 
ENDBRANCH  34  35
ENDBRANCH  33  34
ENDBRANCH  31  33
ENDBRANCH  11  31
BRANCH   1  38
HETATM   38  O1  UNL     1      18.804   5.138   8.704  1.00  0.00    -0.339 OA
HETATM   39  C1  UNL     1      18.678   3.989   7.900  1.00  0.00     0.211 C 
ENDBRANCH   1  38
TORSDOF 9
ENDMDL
MODEL 5
REMARK VINA RESULT: -2.587346959      5.018     10.023
REMARK  9 active torsions:
REMARK  status: ('A' for Active; 'I' for Inactive)
REMARK    1  A    between atoms: O1_2  and  C2_3 
REMARK    2  A    between atoms: C5_9  and  N2_10 
REMARK    3  A    between atoms: N2_10  and  N3_12 
REMARK    4  A    between atoms: C6_14  and  C7_15 
REMARK    5  A    between atoms: C7_15  and  N4_16 
REMARK    6  A    between atoms: N6_23  and  N7_25 
REMARK    7  A    between atoms: N7_25  and  C9_27 
REMARK    8  A    between atoms: C9_27  and  C10_28 
REMARK    9  A    between atoms: C10_28  and  N8_29 
ROOT
HETATM    1  C2  UNL     1      23.208   2.969  16.766  1.00  0.00     0.182 A 
HETATM    2  C3  UNL     1      23.043   3.991  15.856  1.00  0.00     0.103 A 
HETATM    3  C4  UNL     1      23.706   5.205  15.868  1.00  0.00     0.275 C 
HETATM    4  O2  UNL     1      24.393   5.443  16.874  1.00  0.00    -0.267 OA
HETATM    5  N1  UNL     1      23.716   6.190  14.924  1.00  0.00    -0.154 N 
ATOM      6  H1  UNL     1      24.481   6.864  14.965  1.00  0.00     0.187 HD
HETATM    7  C5  UNL     1      22.809   6.355  13.946  1.00  0.00     0.701 C 
HETATM    8  N5  UNL     1      22.029   5.402  13.367  1.00  0.00    -0.173 N 
ATOM      9  H5  UNL     1      21.718   5.604  12.417  1.00  0.00     0.186 HD
HETATM   10  C8  UNL     1      21.613   4.231  13.878  1.00  0.00     0.150 C 
HETATM   11  N6  UNL     1      20.615   3.677  13.260  1.00  0.00    -0.289 N 
ATOM     12  H6  UNL     1      20.259   2.787  13.607  1.00  0.00     0.188 HD
HETATM   13  C13 UNL     1      22.095   3.541  14.961  1.00  0.00     0.076 A 
HETATM   14  C14 UNL     1      21.727   2.280  15.356  1.00  0.00     0.145 A 
HETATM   15  N9  UNL     1      20.932   1.244  15.054  1.00  0.00    -0.335 N 
ATOM     16  H9  UNL     1      20.290   1.211  14.262  1.00  0.00     0.168 HD
HETATM   17  C15 UNL     1      21.104   0.241  15.957  1.00  0.00     0.199 A 
HETATM   18  N10 UNL     1      22.029   0.700  16.819  1.00  0.00    -0.286 N 
ATOM     19  H10 UNL     1      22.383   0.182  17.623  1.00  0.00     0.188 HD
HETATM   20  N11 UNL     1      22.414   1.919  16.476  1.00  0.00    -0.214 N 
ENDROOT
BRANCH   7  21
HETATM   21  N2  UNL     1      22.664   7.548  13.515  1.00  0.00    -0.132 N 
ATOM     22  H2  UNL     1      23.390   7.972  12.939  1.00  0.00     0.205 HD
BRANCH  21  23
HETATM   23  N3  UNL     1      21.514   8.273  13.831  1.00  0.00    -0.300 N 
HETATM   24  C6  UNL     1      20.318   7.831  13.695  1.00  0.00     0.107 C 
ATOM     25  H3  UNL     1      21.633   9.219  14.194  1.00  0.00     0.186 HD
BRANCH  24  26
HETATM   26  C7  UNL     1      19.208   8.750  14.083  1.00  0.00     0.275 C 
BRANCH  26  27
HETATM   27  N4  UNL     1      18.758   8.380  15.390  1.00  0.00    -0.075 N 
ATOM     28  H43 UNL     1      19.132   7.481  15.696  1.00  0.00     0.274 HD
ATOM     29  H42 UNL     1      19.166   8.957  16.125  1.00  0.00     0.274 HD
ATOM     30  H41 UNL     1      17.738   8.402  15.395  1.00  0.00     0.274 HD
ENDBRANCH  26  27
ENDBRANCH  24  26
ENDBRANCH  21  23
ENDBRANCH   7  21
BRANCH  11  31
HETATM   31  N7  UNL     1      20.009   4.245  12.145  1.00  0.00    -0.333 N 
ATOM     32  H7  UNL     1      19.082   4.658  12.250  1.00  0.00     0.180 HD
BRANCH  31  33
HETATM   33  C9  UNL     1      20.633   4.275  10.848  1.00  0.00     0.169 C 
BRANCH  33  34
HETATM   34  C10 UNL     1      19.614   4.815   9.871  1.00  0.00     0.292 C 
BRANCH  34  35
HETATM   35  N8  UNL     1      19.706   4.210   8.571  1.00  0.00     0.081 N 
HETATM   36  C11 UNL     1      18.472   4.156   7.859  1.00  0.00     0.309 C 
HETATM   37  C12 UNL     1      20.453   2.977   8.561  1.00  0.00     0.309 C 
ENDBRANCH  34  35
ENDBRANCH  33  34
ENDBRANCH  31  33
ENDBRANCH  11  31
BRANCH   1  38
HETATM   38  O1  UNL     1      24.096   3.046  17.840  1.00  0.00    -0.339 OA
HETATM   39  C1  UNL     1      23.724   2.754  19.167  1.00  0.00     0.211 C 
ENDBRANCH   1  38
TORSDOF 9
ENDMDL
