MODEL 1
REMARK VINA RESULT: -3.659754360      0.000      0.000
REMARK  11 active torsions:
REMARK  status: ('A' for Active; 'I' for Inactive)
REMARK    1  A    between atoms: N1_2  and  C2_4 
REMARK    2  A    between atoms: C5_7  and  O1_8 
REMARK    3  A    between atoms: C8_12  and  N2_13 
REMARK    4  A    between atoms: N2_13  and  O2_14 
REMARK    5  A    between atoms: N2_13  and  C9_16 
REMARK    6  A    between atoms: N3_20  and  O4_22 
REMARK    7  A    between atoms: O4_22  and  C12_23 
REMARK    8  A    between atoms: C12_23  and  C13_24 
REMARK    9  A    between atoms: C13_24  and  O5_25 
REMARK   10  A    between atoms: C13_24  and  C14_27 
REMARK   11  A    between atoms: C14_27  and  O6_28 
ROOT
HETATM    1  C2  UNL     1      19.158   4.557   9.654  1.00  0.00     0.089 A 
HETATM    2  C3  UNL     1      20.321   3.937   9.726  1.00  0.00     0.002 A 
HETATM    3  C4  UNL     1      20.630   2.906   8.699  1.00  0.00     0.054 C 
HETATM    4  C5  UNL     1      21.274   4.256  10.785  1.00  0.00     0.082 A 
HETATM    5  C6  UNL     1      21.051   5.163  11.723  1.00  0.00     0.009 A 
HETATM    6  C7  UNL     1      22.199   5.266  12.660  1.00  0.00     0.072 C 
HETATM    7  C8  UNL     1      21.631   5.605  14.029  1.00  0.00     0.128 C 
HETATM    8  C10 UNL     1      21.415   7.106  14.073  1.00  0.00     0.106 C 
HETATM    9  C11 UNL     1      20.009   7.360  13.637  1.00  0.00     0.104 C 
HETATM   10  N3  UNL     1      19.388   8.162  14.399  1.00  0.00    -0.254 N 
ATOM     11  H3  UNL     1      19.899   8.535  15.199  1.00  0.00     0.195 HD
HETATM   12  N4  UNL     1      19.349   6.825  12.528  1.00  0.00    -0.341 N 
ATOM     13  H4  UNL     1      18.421   7.199  12.324  1.00  0.00     0.167 HD
HETATM   14  C15 UNL     1      19.795   5.898  11.726  1.00  0.00     0.095 A 
HETATM   15  C16 UNL     1      18.840   5.582  10.669  1.00  0.00     0.226 A 
HETATM   16  O7  UNL     1      17.742   6.145  10.573  1.00  0.00    -0.283 OA
ENDROOT
BRANCH  10  17
HETATM   17  O4  UNL     1      18.125   8.560  14.243  1.00  0.00    -0.276 OA
BRANCH  17  18
HETATM   18  C12 UNL     1      17.397   9.541  14.904  1.00  0.00     0.235 C 
BRANCH  18  19
HETATM   19  C13 UNL     1      16.893   8.967  16.216  1.00  0.00     0.167 C 
BRANCH  19  20
HETATM   20  O5  UNL     1      15.648   9.564  16.515  1.00  0.00    -0.391 OA
ATOM     21  H5  UNL     1      15.258   9.094  17.242  1.00  0.00     0.210 HD
ENDBRANCH  19  20
BRANCH  19  22
HETATM   22  C14 UNL     1      17.848   9.373  17.309  1.00  0.00     0.198 C 
BRANCH  22  23
HETATM   23  O6  UNL     1      18.983   8.585  17.266  1.00  0.00    -0.398 OA
ATOM     24  H6  UNL     1      19.064   8.173  16.414  1.00  0.00     0.209 HD
ENDBRANCH  22  23
ENDBRANCH  19  22
ENDBRANCH  18  19
ENDBRANCH  17  18
ENDBRANCH  10  17
BRANCH   7  25
HETATM   25  N2  UNL     1      22.493   5.198  15.091  1.00  0.00    -0.231 N 
BRANCH  25  26
HETATM   26  O2  UNL     1      23.830   5.212  14.909  1.00  0.00    -0.285 OA
ATOM     27  H2  UNL     1      24.347   5.922  15.271  1.00  0.00     0.245 HD
ENDBRANCH  25  26
BRANCH  25  28
HETATM   28  C9  UNL     1      21.997   4.771  16.357  1.00  0.00     0.377 C 
HETATM   29  O3  UNL     1      21.243   5.507  17.041  1.00  0.00    -0.281 OA
ENDBRANCH  25  28
ENDBRANCH   7  25
BRANCH   4  30
HETATM   30  O1  UNL     1      22.481   3.527  10.756  1.00  0.00    -0.359 OA
ATOM     31  H1  UNL     1      22.405   2.602  10.960  1.00  0.00     0.217 HD
ENDBRANCH   4  30
BRANCH   1  32
HETATM   32  N1  UNL     1      18.204   4.265   8.628  1.00  0.00    -0.391 N 
HETATM   33  C1  UNL     1      18.416   4.622   7.249  1.00  0.00     0.146 C 
ATOM     34  H1  UNL     1      17.341   3.785   8.883  1.00  0.00     0.159 HD
ENDBRANCH   1  32
TORSDOF 11
ENDMDL
MODEL 2
REMARK VINA RESULT: -3.468530445      2.415      7.286
REMARK  11 active torsions:
REMARK  status: ('A' for Active; 'I' for Inactive)
REMARK    1  A    between atoms: N1_2  and  C2_4 
REMARK    2  A    between atoms: C5_7  and  O1_8 
REMARK    3  A    between atoms: C8_12  and  N2_13 
REMARK    4  A    between atoms: N2_13  and  O2_14 
REMARK    5  A    between atoms: N2_13  and  C9_16 
REMARK    6  A    between atoms: N3_20  and  O4_22 
REMARK    7  A    between atoms: O4_22  and  C12_23 
REMARK    8  A    between atoms: C12_23  and  C13_24 
REMARK    9  A    between atoms: C13_24  and  O5_25 
REMARK   10  A    between atoms: C13_24  and  C14_27 
REMARK   11  A    between atoms: C14_27  and  O6_28 
ROOT
HETATM    1  C2  UNL     1      17.402   9.891  16.532  1.00  0.00     0.089 A 
HETATM    2  C3  UNL     1      17.391  10.407  15.317  1.00  0.00     0.002 A 
HETATM    3  C4  UNL     1      16.502  11.571  15.058  1.00  0.00     0.054 C 
HETATM    4  C5  UNL     1      18.229   9.849  14.260  1.00  0.00     0.082 A 
HETATM    5  C6  UNL     1      19.037   8.815  14.436  1.00  0.00     0.009 A 
HETATM    6  C7  UNL     1      19.759   8.475  13.183  1.00  0.00     0.072 C 
HETATM    7  C8  UNL     1      19.960   6.967  13.177  1.00  0.00     0.128 C 
HETATM    8  C10 UNL     1      21.192   6.669  14.010  1.00  0.00     0.106 C 
HETATM    9  C11 UNL     1      20.726   6.410  15.405  1.00  0.00     0.104 C 
HETATM   10  N3  UNL     1      21.242   5.370  15.917  1.00  0.00    -0.254 N 
ATOM     11  H3  UNL     1      21.896   4.841  15.341  1.00  0.00     0.195 HD
HETATM   12  N4  UNL     1      19.825   7.166  16.159  1.00  0.00    -0.341 N 
ATOM     13  H4  UNL     1      19.710   6.899  17.137  1.00  0.00     0.167 HD
HETATM   14  C15 UNL     1      19.116   8.179  15.742  1.00  0.00     0.095 A 
HETATM   15  C16 UNL     1      18.280   8.734  16.801  1.00  0.00     0.226 A 
HETATM   16  O7  UNL     1      18.267   8.275  17.949  1.00  0.00    -0.283 OA
ENDROOT
BRANCH  10  17
HETATM   17  O4  UNL     1      21.000   4.909  17.146  1.00  0.00    -0.276 OA
BRANCH  17  18
HETATM   18  C12 UNL     1      21.403   3.734  17.766  1.00  0.00     0.235 C 
BRANCH  18  19
HETATM   19  C13 UNL     1      22.361   3.004  16.840  1.00  0.00     0.167 C 
BRANCH  19  20
HETATM   20  O5  UNL     1      21.636   2.553  15.715  1.00  0.00    -0.391 OA
ATOM     21  H5  UNL     1      22.177   1.934  15.239  1.00  0.00     0.210 HD
ENDBRANCH  19  20
BRANCH  19  22
HETATM   22  C14 UNL     1      22.870   1.779  17.554  1.00  0.00     0.198 C 
BRANCH  22  23
HETATM   23  O6  UNL     1      23.811   1.131  16.776  1.00  0.00    -0.398 OA
ATOM     24  H6  UNL     1      24.638   1.598  16.805  1.00  0.00     0.209 HD
ENDBRANCH  22  23
ENDBRANCH  19  22
ENDBRANCH  18  19
ENDBRANCH  17  18
ENDBRANCH  10  17
BRANCH   7  25
HETATM   25  N2  UNL     1      20.116   6.445  11.858  1.00  0.00    -0.231 N 
BRANCH  25  26
HETATM   26  O2  UNL     1      19.025   6.221  11.095  1.00  0.00    -0.285 OA
ATOM     27  H2  UNL     1      19.130   5.905  10.205  1.00  0.00     0.245 HD
ENDBRANCH  25  26
BRANCH  25  28
HETATM   28  C9  UNL     1      21.392   6.146  11.300  1.00  0.00     0.377 C 
HETATM   29  O3  UNL     1      21.575   6.148  10.058  1.00  0.00    -0.281 OA
ENDBRANCH  25  28
ENDBRANCH   7  25
BRANCH   4  30
HETATM   30  O1  UNL     1      18.131  10.485  13.006  1.00  0.00    -0.359 OA
ATOM     31  H1  UNL     1      17.986   9.909  12.264  1.00  0.00     0.217 HD
ENDBRANCH   4  30
BRANCH   1  32
HETATM   32  N1  UNL     1      16.591  10.418  17.587  1.00  0.00    -0.391 N 
HETATM   33  C1  UNL     1      15.407   9.751  18.062  1.00  0.00     0.146 C 
ATOM     34  H1  UNL     1      16.863  11.301  18.020  1.00  0.00     0.159 HD
ENDBRANCH   1  32
TORSDOF 11
ENDMDL
MODEL 3
REMARK VINA RESULT: -3.393964552      2.291      7.215
REMARK  11 active torsions:
REMARK  status: ('A' for Active; 'I' for Inactive)
REMARK    1  A    between atoms: N1_2  and  C2_4 
REMARK    2  A    between atoms: C5_7  and  O1_8 
REMARK    3  A    between atoms: C8_12  and  N2_13 
REMARK    4  A    between atoms: N2_13  and  O2_14 
REMARK    5  A    between atoms: N2_13  and  C9_16 
REMARK    6  A    between atoms: N3_20  and  O4_22 
REMARK    7  A    between atoms: O4_22  and  C12_23 
REMARK    8  A    between atoms: C12_23  and  C13_24 
REMARK    9  A    between atoms: C13_24  and  O5_25 
REMARK   10  A    between atoms: C13_24  and  C14_27 
REMARK   11  A    between atoms: C14_27  and  O6_28 
ROOT
HETATM    1  C2  UNL     1      18.888   8.498  16.338  1.00  0.00     0.089 A 
HETATM    2  C3  UNL     1      18.633   9.001  15.145  1.00  0.00     0.002 A 
HETATM    3  C4  UNL     1      17.713  10.167  15.057  1.00  0.00     0.054 C 
HETATM    4  C5  UNL     1      19.240   8.428  13.947  1.00  0.00     0.082 A 
HETATM    5  C6  UNL     1      20.064   7.393  13.967  1.00  0.00     0.009 A 
HETATM    6  C7  UNL     1      20.517   7.036  12.598  1.00  0.00     0.072 C 
HETATM    7  C8  UNL     1      20.710   5.528  12.569  1.00  0.00     0.128 C 
HETATM    8  C10 UNL     1      22.084   5.233  13.138  1.00  0.00     0.106 C 
HETATM    9  C11 UNL     1      21.909   4.991  14.602  1.00  0.00     0.104 C 
HETATM   10  N3  UNL     1      22.515   3.954  15.011  1.00  0.00    -0.254 N 
ATOM     11  H3  UNL     1      23.039   3.416  14.320  1.00  0.00     0.195 HD
HETATM   12  N4  UNL     1      21.180   5.759  15.513  1.00  0.00    -0.341 N 
ATOM     13  H4  UNL     1      21.264   5.502  16.497  1.00  0.00     0.167 HD
HETATM   14  C15 UNL     1      20.404   6.770  15.238  1.00  0.00     0.095 A 
HETATM   15  C16 UNL     1      19.800   7.340  16.437  1.00  0.00     0.226 A 
HETATM   16  O7  UNL     1      20.018   6.893  17.570  1.00  0.00    -0.283 OA
ENDROOT
BRANCH  10  17
HETATM   17  O4  UNL     1      22.525   3.507  16.268  1.00  0.00    -0.276 OA
BRANCH  17  18
HETATM   18  C12 UNL     1      23.573   3.362  17.168  1.00  0.00     0.235 C 
BRANCH  18  19
HETATM   19  C13 UNL     1      23.632   1.910  17.610  1.00  0.00     0.167 C 
BRANCH  19  20
HETATM   20  O5  UNL     1      24.718   1.289  16.955  1.00  0.00    -0.391 OA
ATOM     21  H5  UNL     1      24.423   0.990  16.103  1.00  0.00     0.210 HD
ENDBRANCH  19  20
BRANCH  19  22
HETATM   22  C14 UNL     1      22.380   1.219  17.136  1.00  0.00     0.198 C 
BRANCH  22  23
HETATM   23  O6  UNL     1      22.519   0.834  15.816  1.00  0.00    -0.398 OA
ATOM     24  H6  UNL     1      21.924   1.329  15.266  1.00  0.00     0.209 HD
ENDBRANCH  22  23
ENDBRANCH  19  22
ENDBRANCH  18  19
ENDBRANCH  17  18
ENDBRANCH  10  17
BRANCH   7  25
HETATM   25  N2  UNL     1      20.594   4.992  11.251  1.00  0.00    -0.231 N 
BRANCH  25  26
HETATM   26  O2  UNL     1      21.249   3.854  10.933  1.00  0.00    -0.285 OA
ATOM     27  H2  UNL     1      21.568   3.727  10.048  1.00  0.00     0.245 HD
ENDBRANCH  25  26
BRANCH  25  28
HETATM   28  C9  UNL     1      19.805   5.611  10.240  1.00  0.00     0.377 C 
HETATM   29  O3  UNL     1      20.214   5.693   9.055  1.00  0.00    -0.281 OA
ENDBRANCH  25  28
ENDBRANCH   7  25
BRANCH   4  30
HETATM   30  O1  UNL     1      18.891   9.052  12.731  1.00  0.00    -0.359 OA
ATOM     31  H1  UNL     1      19.120   9.972  12.662  1.00  0.00     0.217 HD
ENDBRANCH   4  30
BRANCH   1  32
HETATM   32  N1  UNL     1      18.308   9.039  17.529  1.00  0.00    -0.391 N 
HETATM   33  C1  UNL     1      16.893   8.999  17.790  1.00  0.00     0.146 C 
ATOM     34  H1  UNL     1      18.922   9.471  18.221  1.00  0.00     0.159 HD
ENDBRANCH   1  32
TORSDOF 11
ENDMDL
MODEL 4
REMARK VINA RESULT: -3.306398267      2.080      6.301
REMARK  11 active torsions:
REMARK  status: ('A' for Active; 'I' for Inactive)
REMARK    1  A    between atoms: N1_2  and  C2_4 
REMARK    2  A    between atoms: C5_7  and  O1_8 
REMARK    3  A    between atoms: C8_12  and  N2_13 
REMARK    4  A    between atoms: N2_13  and  O2_14 
REMARK    5  A    between atoms: N2_13  and  C9_16 
REMARK    6  A    between atoms: N3_20  and  O4_22 
REMARK    7  A    between atoms: O4_22  and  C12_23 
REMARK    8  A    between atoms: C12_23  and  C13_24 
REMARK    9  A    between atoms: C13_24  and  O5_25 
REMARK   10  A    between atoms: C13_24  and  C14_27 
REMARK   11  A    between atoms: C14_27  and  O6_28 
ROOT
HETATM    1  C2  UNL     1      18.800   8.958  15.046  1.00  0.00     0.089 A 
HETATM    2  C3  UNL     1      19.011   8.440  16.241  1.00  0.00     0.002 A 
HETATM    3  C4  UNL     1      18.380   9.103  17.413  1.00  0.00     0.054 C 
HETATM    4  C5  UNL     1      19.841   7.250  16.404  1.00  0.00     0.082 A 
HETATM    5  C6  UNL     1      20.426   6.621  15.397  1.00  0.00     0.009 A 
HETATM    6  C7  UNL     1      21.203   5.447  15.871  1.00  0.00     0.072 C 
HETATM    7  C8  UNL     1      22.406   5.306  14.951  1.00  0.00     0.128 C 
HETATM    8  C10 UNL     1      21.949   4.550  13.718  1.00  0.00     0.106 C 
HETATM    9  C11 UNL     1      21.536   5.568  12.707  1.00  0.00     0.104 C 
HETATM   10  N3  UNL     1      22.014   5.348  11.553  1.00  0.00    -0.254 N 
ATOM     11  H3  UNL     1      22.608   4.526  11.443  1.00  0.00     0.195 HD
HETATM   12  N4  UNL     1      20.715   6.682  12.903  1.00  0.00    -0.341 N 
ATOM     13  H4  UNL     1      20.451   7.207  12.069  1.00  0.00     0.167 HD
HETATM   14  C15 UNL     1      20.252   7.120  14.040  1.00  0.00     0.095 A 
HETATM   15  C16 UNL     1      19.423   8.308  13.874  1.00  0.00     0.226 A 
HETATM   16  O7  UNL     1      19.205   8.819  12.768  1.00  0.00    -0.283 OA
ENDROOT
BRANCH  10  17
HETATM   17  O4  UNL     1      21.806   6.099  10.470  1.00  0.00    -0.276 OA
BRANCH  17  18
HETATM   18  C12 UNL     1      21.474   5.739   9.170  1.00  0.00     0.235 C 
BRANCH  18  19
HETATM   19  C13 UNL     1      19.976   5.493   9.106  1.00  0.00     0.167 C 
BRANCH  19  20
HETATM   20  O5  UNL     1      19.393   5.983  10.296  1.00  0.00    -0.391 OA
ATOM     21  H5  UNL     1      19.760   6.841  10.478  1.00  0.00     0.210 HD
ENDBRANCH  19  20
BRANCH  19  22
HETATM   22  C14 UNL     1      19.741   4.005   9.083  1.00  0.00     0.198 C 
BRANCH  22  23
HETATM   23  O6  UNL     1      20.836   3.342   9.606  1.00  0.00    -0.398 OA
ATOM     24  H6  UNL     1      20.776   3.306  10.553  1.00  0.00     0.209 HD
ENDBRANCH  22  23
ENDBRANCH  19  22
ENDBRANCH  18  19
ENDBRANCH  17  18
ENDBRANCH  10  17
BRANCH   7  25
HETATM   25  N2  UNL     1      23.491   4.622  15.577  1.00  0.00    -0.231 N 
BRANCH  25  26
HETATM   26  O2  UNL     1      23.419   3.288  15.769  1.00  0.00    -0.285 OA
ATOM     27  H2  UNL     1      24.160   2.825  16.142  1.00  0.00     0.245 HD
ENDBRANCH  25  26
BRANCH  25  28
HETATM   28  C9  UNL     1      24.668   5.295  16.014  1.00  0.00     0.377 C 
HETATM   29  O3  UNL     1      25.699   4.657  16.340  1.00  0.00    -0.281 OA
ENDBRANCH  25  28
ENDBRANCH   7  25
BRANCH   4  30
HETATM   30  O1  UNL     1      19.992   6.791  17.729  1.00  0.00    -0.359 OA
ATOM     31  H1  UNL     1      19.210   6.424  18.127  1.00  0.00     0.217 HD
ENDBRANCH   4  30
BRANCH   1  32
HETATM   32  N1  UNL     1      17.992  10.124  14.855  1.00  0.00    -0.391 N 
HETATM   33  C1  UNL     1      16.554  10.086  14.907  1.00  0.00     0.146 C 
ATOM     34  H1  UNL     1      18.453  11.016  14.676  1.00  0.00     0.159 HD
ENDBRANCH   1  32
TORSDOF 11
ENDMDL
MODEL 5
REMARK VINA RESULT: -3.179947338      2.181      7.021
REMARK  11 active torsions:
REMARK  status: ('A' for Active; 'I' for Inactive)
REMARK    1  A    between atoms: N1_2  and  C2_4 
REMARK    2  A    between atoms: C5_7  and  O1_8 
REMARK    3  A    between atoms: C8_12  and  N2_13 
REMARK    4  A    between atoms: N2_13  and  O2_14 
REMARK    5  A    between atoms: N2_13  and  C9_16 
REMARK    6  A    between atoms: N3_20  and  O4_22 
REMARK    7  A    between atoms: O4_22  and  C12_23 
REMARK    8  A    between atoms: C12_23  and  C13_24 
REMARK    9  A    between atoms: C13_24  and  O5_25 
REMARK   10  A    between atoms: C13_24  and  C14_27 
REMARK   11  A    between atoms: C14_27  and  O6_28 
ROOT
HETATM    1  C2  UNL     1      18.904   8.531  16.337  1.00  0.00     0.089 A 
HETATM    2  C3  UNL     1      18.625   9.040  15.152  1.00  0.00     0.002 A 
HETATM    3  C4  UNL     1      17.701  10.203  15.088  1.00  0.00     0.054 C 
HETATM    4  C5  UNL     1      19.210   8.474  13.939  1.00  0.00     0.082 A 
HETATM    5  C6  UNL     1      20.037   7.440  13.938  1.00  0.00     0.009 A 
HETATM    6  C7  UNL     1      20.466   7.092  12.559  1.00  0.00     0.072 C 
HETATM    7  C8  UNL     1      20.660   5.585  12.518  1.00  0.00     0.128 C 
HETATM    8  C10 UNL     1      22.046   5.290  13.060  1.00  0.00     0.106 C 
HETATM    9  C11 UNL     1      21.899   5.039  14.526  1.00  0.00     0.104 C 
HETATM   10  N3  UNL     1      22.514   4.002  14.918  1.00  0.00    -0.254 N 
ATOM     11  H3  UNL     1      23.026   3.469  14.215  1.00  0.00     0.195 HD
HETATM   12  N4  UNL     1      21.186   5.801  15.455  1.00  0.00    -0.341 N 
ATOM     13  H4  UNL     1      21.289   5.539  16.436  1.00  0.00     0.167 HD
HETATM   14  C15 UNL     1      20.402   6.812  15.199  1.00  0.00     0.095 A 
HETATM   15  C16 UNL     1      19.820   7.374  16.412  1.00  0.00     0.226 A 
HETATM   16  O7  UNL     1      20.061   6.922  17.539  1.00  0.00    -0.283 OA
ENDROOT
BRANCH  10  17
HETATM   17  O4  UNL     1      22.549   3.548  16.172  1.00  0.00    -0.276 OA
BRANCH  17  18
HETATM   18  C12 UNL     1      22.299   2.280  16.682  1.00  0.00     0.235 C 
BRANCH  18  19
HETATM   19  C13 UNL     1      22.762   2.242  18.128  1.00  0.00     0.167 C 
BRANCH  19  20
HETATM   20  O5  UNL     1      21.909   3.070  18.891  1.00  0.00    -0.391 OA
ATOM     21  H5  UNL     1      21.144   2.565  19.139  1.00  0.00     0.210 HD
ENDBRANCH  19  20
BRANCH  19  22
HETATM   22  C14 UNL     1      24.140   2.847  18.201  1.00  0.00     0.198 C 
BRANCH  22  23
HETATM   23  O6  UNL     1      24.996   2.186  17.339  1.00  0.00    -0.398 OA
ATOM     24  H6  UNL     1      25.134   1.294  17.635  1.00  0.00     0.209 HD
ENDBRANCH  22  23
ENDBRANCH  19  22
ENDBRANCH  18  19
ENDBRANCH  17  18
ENDBRANCH  10  17
BRANCH   7  25
HETATM   25  N2  UNL     1      20.521   5.055  11.201  1.00  0.00    -0.231 N 
BRANCH  25  26
HETATM   26  O2  UNL     1      21.171   3.920  10.864  1.00  0.00    -0.285 OA
ATOM     27  H2  UNL     1      21.380   3.281  11.535  1.00  0.00     0.245 HD
ENDBRANCH  25  26
BRANCH  25  28
HETATM   28  C9  UNL     1      19.713   5.679  10.207  1.00  0.00     0.377 C 
HETATM   29  O3  UNL     1      20.056   5.684   8.999  1.00  0.00    -0.281 OA
ENDBRANCH  25  28
ENDBRANCH   7  25
BRANCH   4  30
HETATM   30  O1  UNL     1      18.838   9.103  12.734  1.00  0.00    -0.359 OA
ATOM     31  H1  UNL     1      18.472   9.976  12.823  1.00  0.00     0.217 HD
ENDBRANCH   4  30
BRANCH   1  32
HETATM   32  N1  UNL     1      18.345   9.065  17.542  1.00  0.00    -0.391 N 
HETATM   33  C1  UNL     1      16.933   9.037  17.821  1.00  0.00     0.146 C 
ATOM     34  H1  UNL     1      18.973   9.481  18.231  1.00  0.00     0.159 HD
ENDBRANCH   1  32
TORSDOF 11
ENDMDL
