MODEL 1
REMARK VINA RESULT: -4.987916530      0.000      0.000
REMARK  2 active torsions:
REMARK  status: ('A' for Active; 'I' for Inactive)
REMARK    1  A    between atoms: C2_2  and  N1_3 
REMARK    2  A    between atoms: N1_3  and  C3_5 
ROOT
HETATM    1  C3  UNL     1      -5.116 -24.527 -11.413  1.00  0.00     0.059 C 
HETATM    2  C4  UNL     1      -5.669 -25.644 -12.215  1.00  0.00     0.041 C 
HETATM    3  C5  UNL     1      -6.226 -23.499 -11.236  1.00  0.00     0.060 C 
HETATM    4  C6  UNL     1      -7.080 -24.115 -10.172  1.00  0.00     0.236 C 
HETATM    5  N2  UNL     1      -6.356 -25.264  -9.646  1.00  0.00    -0.065 N 
ATOM      6  H21 UNL     1      -6.673 -26.164 -10.006  1.00  0.00     0.278 HD
ATOM      7  H22 UNL     1      -6.545 -25.469  -8.665  1.00  0.00     0.278 HD
HETATM    8  C7  UNL     1      -4.997 -24.960  -9.933  1.00  0.00     0.143 C 
HETATM    9  C8  UNL     1      -4.022 -26.082  -9.780  1.00  0.00     0.048 C 
HETATM   10  C9  UNL     1      -4.488 -23.741  -9.189  1.00  0.00     0.048 C 
ENDROOT
BRANCH   1  11
HETATM   11  N1  UNL     1      -3.873 -23.990 -11.746  1.00  0.00    -0.391 N 
ATOM     12  H1  UNL     1      -3.436 -23.333 -11.099  1.00  0.00     0.159 HD
BRANCH  11  13
HETATM   13  C2  UNL     1      -3.200 -24.309 -12.922  1.00  0.00     0.052 C 
HETATM   14  C1  UNL     1      -1.709 -24.339 -12.743  1.00  0.00     0.054 C 
ENDBRANCH  11  13
ENDBRANCH   1  11
TORSDOF 2
ENDMDL
MODEL 2
REMARK VINA RESULT: -4.910033102     10.667     12.072
REMARK  2 active torsions:
REMARK  status: ('A' for Active; 'I' for Inactive)
REMARK    1  A    between atoms: C2_2  and  N1_3 
REMARK    2  A    between atoms: N1_3  and  C3_5 
ROOT
HETATM    1  C3  UNL     1       4.194 -20.636  -5.387  1.00  0.00     0.059 C 
HETATM    2  C4  UNL     1       3.314 -21.304  -6.376  1.00  0.00     0.041 C 
HETATM    3  C5  UNL     1       3.817 -21.167  -4.010  1.00  0.00     0.060 C 
HETATM    4  C6  UNL     1       4.465 -22.516  -3.987  1.00  0.00     0.236 C 
HETATM    5  N2  UNL     1       5.325 -22.604  -5.158  1.00  0.00    -0.065 N 
ATOM      6  H21 UNL     1       4.930 -23.135  -5.934  1.00  0.00     0.278 HD
ATOM      7  H22 UNL     1       6.148 -23.193  -5.034  1.00  0.00     0.278 HD
HETATM    8  C7  UNL     1       5.614 -21.244  -5.462  1.00  0.00     0.143 C 
HETATM    9  C8  UNL     1       6.240 -20.983  -6.792  1.00  0.00     0.048 C 
HETATM   10  C9  UNL     1       6.415 -20.549  -4.379  1.00  0.00     0.048 C 
ENDROOT
BRANCH   1  11
HETATM   11  N1  UNL     1       4.376 -19.255  -5.449  1.00  0.00    -0.391 N 
ATOM     12  H1  UNL     1       5.318 -18.881  -5.332  1.00  0.00     0.159 HD
BRANCH  11  13
HETATM   13  C2  UNL     1       3.329 -18.362  -5.663  1.00  0.00     0.052 C 
HETATM   14  C1  UNL     1       3.781 -16.930  -5.646  1.00  0.00     0.054 C 
ENDBRANCH  11  13
ENDBRANCH   1  11
TORSDOF 2
ENDMDL
MODEL 3
REMARK VINA RESULT: -4.746593509     10.647     12.297
REMARK  2 active torsions:
REMARK  status: ('A' for Active; 'I' for Inactive)
REMARK    1  A    between atoms: C2_2  and  N1_3 
REMARK    2  A    between atoms: N1_3  and  C3_5 
ROOT
HETATM    1  C3  UNL     1       4.123 -21.337  -4.772  1.00  0.00     0.059 C 
HETATM    2  C4  UNL     1       3.291 -21.422  -5.995  1.00  0.00     0.041 C 
HETATM    3  C5  UNL     1       4.604 -22.746  -4.448  1.00  0.00     0.060 C 
HETATM    4  C6  UNL     1       5.709 -22.952  -5.436  1.00  0.00     0.236 C 
HETATM    5  N2  UNL     1       5.965 -21.669  -6.076  1.00  0.00    -0.065 N 
ATOM      6  H21 UNL     1       5.554 -21.570  -7.004  1.00  0.00     0.278 HD
ATOM      7  H22 UNL     1       6.930 -21.530  -6.372  1.00  0.00     0.278 HD
HETATM    8  C7  UNL     1       5.498 -20.723  -5.121  1.00  0.00     0.143 C 
HETATM    9  C8  UNL     1       5.351 -19.317  -5.602  1.00  0.00     0.048 C 
HETATM   10  C9  UNL     1       6.293 -20.737  -3.831  1.00  0.00     0.048 C 
ENDROOT
BRANCH   1  11
HETATM   11  N1  UNL     1       3.659 -20.613  -3.673  1.00  0.00    -0.391 N 
ATOM     12  H1  UNL     1       4.070 -19.699  -3.483  1.00  0.00     0.159 HD
BRANCH  11  13
HETATM   13  C2  UNL     1       2.661 -21.082  -2.823  1.00  0.00     0.052 C 
HETATM   14  C1  UNL     1       1.386 -20.299  -2.944  1.00  0.00     0.054 C 
ENDBRANCH  11  13
ENDBRANCH   1  11
TORSDOF 2
ENDMDL
MODEL 4
REMARK VINA RESULT: -4.703688845     10.358     12.083
REMARK  2 active torsions:
REMARK  status: ('A' for Active; 'I' for Inactive)
REMARK    1  A    between atoms: C2_2  and  N1_3 
REMARK    2  A    between atoms: N1_3  and  C3_5 
ROOT
HETATM    1  C3  UNL     1       4.437 -21.491  -4.812  1.00  0.00     0.059 C 
HETATM    2  C4  UNL     1       5.013 -22.846  -4.980  1.00  0.00     0.041 C 
HETATM    3  C5  UNL     1       5.482 -20.635  -4.107  1.00  0.00     0.060 C 
HETATM    4  C6  UNL     1       6.444 -20.316  -5.209  1.00  0.00     0.236 C 
HETATM    5  N2  UNL     1       5.837 -20.759  -6.456  1.00  0.00    -0.065 N 
ATOM      6  H21 UNL     1       6.192 -21.649  -6.807  1.00  0.00     0.278 HD
ATOM      7  H22 UNL     1       6.103 -20.209  -7.274  1.00  0.00     0.278 HD
HETATM    8  C7  UNL     1       4.444 -20.751  -6.169  1.00  0.00     0.143 C 
HETATM    9  C8  UNL     1       3.562 -21.439  -7.159  1.00  0.00     0.048 C 
HETATM   10  C9  UNL     1       3.901 -19.365  -5.884  1.00  0.00     0.048 C 
ENDROOT
BRANCH   1  11
HETATM   11  N1  UNL     1       3.140 -21.351  -4.316  1.00  0.00    -0.391 N 
ATOM     12  H1  UNL     1       2.360 -21.412  -4.971  1.00  0.00     0.159 HD
BRANCH  11  13
HETATM   13  C2  UNL     1       2.863 -21.130  -2.970  1.00  0.00     0.052 C 
HETATM   14  C1  UNL     1       1.555 -20.424  -2.760  1.00  0.00     0.054 C 
ENDBRANCH  11  13
ENDBRANCH   1  11
TORSDOF 2
ENDMDL
MODEL 5
REMARK VINA RESULT: -4.659054490     10.568     12.078
REMARK  2 active torsions:
REMARK  status: ('A' for Active; 'I' for Inactive)
REMARK    1  A    between atoms: C2_2  and  N1_3 
REMARK    2  A    between atoms: N1_3  and  C3_5 
ROOT
HETATM    1  C3  UNL     1       4.236 -20.740  -5.613  1.00  0.00     0.059 C 
HETATM    2  C4  UNL     1       4.352 -19.266  -5.711  1.00  0.00     0.041 C 
HETATM    3  C5  UNL     1       4.126 -21.285  -7.032  1.00  0.00     0.060 C 
HETATM    4  C6  UNL     1       5.539 -21.221  -7.521  1.00  0.00     0.236 C 
HETATM    5  N2  UNL     1       6.380 -20.899  -6.376  1.00  0.00    -0.065 N 
ATOM      6  H21 UNL     1       6.667 -19.921  -6.324  1.00  0.00     0.278 HD
ATOM      7  H22 UNL     1       7.323 -21.284  -6.423  1.00  0.00     0.278 HD
HETATM    8  C7  UNL     1       5.614 -21.348  -5.265  1.00  0.00     0.143 C 
HETATM    9  C8  UNL     1       6.075 -20.895  -3.918  1.00  0.00     0.048 C 
HETATM   10  C9  UNL     1       5.408 -22.850  -5.251  1.00  0.00     0.048 C 
ENDROOT
BRANCH   1  11
HETATM   11  N1  UNL     1       3.339 -21.301  -4.704  1.00  0.00    -0.391 N 
ATOM     12  H1  UNL     1       3.398 -22.303  -4.517  1.00  0.00     0.159 HD
BRANCH  11  13
HETATM   13  C2  UNL     1       2.368 -20.557  -4.040  1.00  0.00     0.052 C 
HETATM   14  C1  UNL     1       2.318 -20.857  -2.569  1.00  0.00     0.054 C 
ENDBRANCH  11  13
ENDBRANCH   1  11
TORSDOF 2
ENDMDL
