MODEL 1
REMARK VINA RESULT: -5.671731708      0.000      0.000
REMARK  4 active torsions:
REMARK  status: ('A' for Active; 'I' for Inactive)
REMARK    1  A    between atoms: N1_2  and  C2_3 
REMARK    2  A    between atoms: N1_2  and  C5_9 
REMARK    3  A    between atoms: C2_3  and  C3_4 
REMARK    4  A    between atoms: C4_5  and  N2_6 
ROOT
HETATM    1  C1  UNL     1       2.851 -19.678  -6.277  1.00  0.00     0.150 C 
HETATM    2  N1  UNL     1       3.206 -19.908  -4.933  1.00  0.00    -0.383 N 
ENDROOT
BRANCH   2   3
HETATM    3  C2  UNL     1       2.161 -20.341  -4.063  1.00  0.00     0.152 C 
BRANCH   3   4
HETATM    4  C3  UNL     1       0.998 -19.505  -4.037  1.00  0.00    -0.039 C 
HETATM    5  C4  UNL     1       0.017 -18.814  -4.032  1.00  0.00     0.009 C 
BRANCH   5   6
HETATM    6  N2  UNL     1      -1.128 -18.021  -4.027  1.00  0.00    -0.359 N 
ATOM      7  H22 UNL     1      -0.437 -18.702  -3.715  1.00  0.00     0.166 HD
ATOM      8  H21 UNL     1      -1.964 -17.437  -4.031  1.00  0.00     0.166 HD
ENDBRANCH   5   6
ENDBRANCH   3   4
ENDBRANCH   2   3
BRANCH   2   9
HETATM    9  C5  UNL     1       4.405 -20.636  -4.686  1.00  0.00     0.083 C 
HETATM   10  C6  UNL     1       4.186 -22.026  -5.234  1.00  0.00     0.025 C 
HETATM   11  C7  UNL     1       5.382 -22.914  -5.097  1.00  0.00     0.002 C 
HETATM   12  C8  UNL     1       6.678 -22.220  -5.423  1.00  0.00     0.000 C 
HETATM   13  C9  UNL     1       6.834 -20.889  -4.758  1.00  0.00     0.002 C 
HETATM   14  C10 UNL     1       5.670 -20.008  -5.172  1.00  0.00     0.025 C 
ENDBRANCH   2   9
TORSDOF 4
ENDMDL
MODEL 2
REMARK VINA RESULT: -5.651035547      0.860      1.858
REMARK  4 active torsions:
REMARK  status: ('A' for Active; 'I' for Inactive)
REMARK    1  A    between atoms: N1_2  and  C2_3 
REMARK    2  A    between atoms: N1_2  and  C5_9 
REMARK    3  A    between atoms: C2_3  and  C3_4 
REMARK    4  A    between atoms: C4_5  and  N2_6 
ROOT
HETATM    1  C1  UNL     1       2.680 -20.938  -3.054  1.00  0.00     0.150 C 
HETATM    2  N1  UNL     1       2.834 -20.719  -4.437  1.00  0.00    -0.383 N 
ENDROOT
BRANCH   2   3
HETATM    3  C2  UNL     1       2.526 -19.409  -4.914  1.00  0.00     0.152 C 
BRANCH   3   4
HETATM    4  C3  UNL     1       1.211 -18.936  -4.600  1.00  0.00    -0.039 C 
HETATM    5  C4  UNL     1       0.103 -18.544  -4.357  1.00  0.00     0.009 C 
BRANCH   5   6
HETATM    6  N2  UNL     1      -1.187 -18.097  -4.078  1.00  0.00    -0.359 N 
ATOM      7  H22 UNL     1      -0.397 -18.735  -4.177  1.00  0.00     0.166 HD
ATOM      8  H21 UNL     1      -2.129 -17.763  -3.877  1.00  0.00     0.166 HD
ENDBRANCH   5   6
ENDBRANCH   3   4
ENDBRANCH   2   3
BRANCH   2   9
HETATM    9  C5  UNL     1       4.018 -21.216  -5.054  1.00  0.00     0.083 C 
HETATM   10  C6  UNL     1       5.008 -20.075  -5.068  1.00  0.00     0.025 C 
HETATM   11  C7  UNL     1       6.337 -20.449  -5.643  1.00  0.00     0.002 C 
HETATM   12  C8  UNL     1       6.821 -21.802  -5.193  1.00  0.00     0.000 C 
HETATM   13  C9  UNL     1       5.790 -22.880  -5.304  1.00  0.00     0.002 C 
HETATM   14  C10 UNL     1       4.583 -22.474  -4.479  1.00  0.00     0.025 C 
ENDBRANCH   2   9
TORSDOF 4
ENDMDL
MODEL 3
REMARK VINA RESULT: -5.591137586      1.245      1.475
REMARK  4 active torsions:
REMARK  status: ('A' for Active; 'I' for Inactive)
REMARK    1  A    between atoms: N1_2  and  C2_3 
REMARK    2  A    between atoms: N1_2  and  C5_9 
REMARK    3  A    between atoms: C2_3  and  C3_4 
REMARK    4  A    between atoms: C4_5  and  N2_6 
ROOT
HETATM    1  C1  UNL     1       2.839 -19.458  -7.281  1.00  0.00     0.150 C 
HETATM    2  N1  UNL     1       3.564 -18.843  -6.241  1.00  0.00    -0.383 N 
ENDROOT
BRANCH   2   3
HETATM    3  C2  UNL     1       2.913 -17.772  -5.558  1.00  0.00     0.152 C 
BRANCH   3   4
HETATM    4  C3  UNL     1       1.556 -18.024  -5.173  1.00  0.00    -0.039 C 
HETATM    5  C4  UNL     1       0.422 -18.222  -4.835  1.00  0.00     0.009 C 
BRANCH   5   6
HETATM    6  N2  UNL     1      -0.896 -18.441  -4.442  1.00  0.00    -0.359 N 
ATOM      7  H22 UNL     1       0.022 -18.001  -4.502  1.00  0.00     0.166 HD
ATOM      8  H21 UNL     1      -1.862 -18.608  -4.159  1.00  0.00     0.166 HD
ENDBRANCH   5   6
ENDBRANCH   3   4
ENDBRANCH   2   3
BRANCH   2   9
HETATM    9  C5  UNL     1       4.241 -19.693  -5.320  1.00  0.00     0.083 C 
HETATM   10  C6  UNL     1       3.603 -21.057  -5.442  1.00  0.00     0.025 C 
HETATM   11  C7  UNL     1       4.238 -22.091  -4.568  1.00  0.00     0.002 C 
HETATM   12  C8  UNL     1       5.742 -22.010  -4.549  1.00  0.00     0.000 C 
HETATM   13  C9  UNL     1       6.271 -20.628  -4.332  1.00  0.00     0.002 C 
HETATM   14  C10 UNL     1       5.730 -19.732  -5.430  1.00  0.00     0.025 C 
ENDBRANCH   2   9
TORSDOF 4
ENDMDL
MODEL 4
REMARK VINA RESULT: -5.589526983      2.070      2.760
REMARK  4 active torsions:
REMARK  status: ('A' for Active; 'I' for Inactive)
REMARK    1  A    between atoms: N1_2  and  C2_3 
REMARK    2  A    between atoms: N1_2  and  C5_9 
REMARK    3  A    between atoms: C2_3  and  C3_4 
REMARK    4  A    between atoms: C4_5  and  N2_6 
ROOT
HETATM    1  C1  UNL     1       1.497 -19.304  -4.480  1.00  0.00     0.150 C 
HETATM    2  N1  UNL     1       2.584 -19.156  -5.363  1.00  0.00    -0.383 N 
ENDROOT
BRANCH   2   3
HETATM    3  C2  UNL     1       3.044 -17.824  -5.590  1.00  0.00     0.152 C 
BRANCH   3   4
HETATM    4  C3  UNL     1       2.031 -16.877  -5.950  1.00  0.00    -0.039 C 
HETATM    5  C4  UNL     1       1.186 -16.089  -6.271  1.00  0.00     0.009 C 
BRANCH   5   6
HETATM    6  N2  UNL     1       0.199 -15.181  -6.650  1.00  0.00    -0.359 N 
ATOM      7  H22 UNL     1       0.781 -16.019  -6.660  1.00  0.00     0.166 HD
ATOM      8  H21 UNL     1      -0.521 -14.512  -6.922  1.00  0.00     0.166 HD
ENDBRANCH   5   6
ENDBRANCH   3   4
ENDBRANCH   2   3
BRANCH   2   9
HETATM    9  C5  UNL     1       3.681 -20.051  -5.210  1.00  0.00     0.083 C 
HETATM   10  C6  UNL     1       4.936 -19.234  -5.416  1.00  0.00     0.025 C 
HETATM   11  C7  UNL     1       6.194 -20.023  -5.238  1.00  0.00     0.002 C 
HETATM   12  C8  UNL     1       6.145 -20.964  -4.063  1.00  0.00     0.000 C 
HETATM   13  C9  UNL     1       4.900 -21.790  -4.002  1.00  0.00     0.002 C 
HETATM   14  C10 UNL     1       3.707 -20.855  -3.951  1.00  0.00     0.025 C 
ENDBRANCH   2   9
TORSDOF 4
ENDMDL
MODEL 5
REMARK VINA RESULT: -5.521250009      0.615      1.523
REMARK  4 active torsions:
REMARK  status: ('A' for Active; 'I' for Inactive)
REMARK    1  A    between atoms: N1_2  and  C2_3 
REMARK    2  A    between atoms: N1_2  and  C5_9 
REMARK    3  A    between atoms: C2_3  and  C3_4 
REMARK    4  A    between atoms: C4_5  and  N2_6 
ROOT
HETATM    1  C1  UNL     1       3.141 -18.494  -5.682  1.00  0.00     0.150 C 
HETATM    2  N1  UNL     1       3.393 -19.612  -4.863  1.00  0.00    -0.383 N 
ENDROOT
BRANCH   2   3
HETATM    3  C2  UNL     1       2.252 -20.256  -4.296  1.00  0.00     0.152 C 
BRANCH   3   4
HETATM    4  C3  UNL     1       1.076 -19.445  -4.197  1.00  0.00    -0.039 C 
HETATM    5  C4  UNL     1       0.080 -18.780  -4.125  1.00  0.00     0.009 C 
BRANCH   5   6
HETATM    6  N2  UNL     1      -1.082 -18.016  -4.037  1.00  0.00    -0.359 N 
ATOM      7  H22 UNL     1      -0.469 -18.830  -3.997  1.00  0.00     0.166 HD
ATOM      8  H21 UNL     1      -1.929 -17.450  -3.975  1.00  0.00     0.166 HD
ENDBRANCH   5   6
ENDBRANCH   3   4
ENDBRANCH   2   3
BRANCH   2   9
HETATM    9  C5  UNL     1       4.334 -20.573  -5.333  1.00  0.00     0.083 C 
HETATM   10  C6  UNL     1       5.661 -19.859  -5.441  1.00  0.00     0.025 C 
HETATM   11  C7  UNL     1       6.781 -20.749  -5.879  1.00  0.00     0.002 C 
HETATM   12  C8  UNL     1       6.755 -22.104  -5.221  1.00  0.00     0.000 C 
HETATM   13  C9  UNL     1       5.413 -22.763  -5.248  1.00  0.00     0.002 C 
HETATM   14  C10 UNL     1       4.417 -21.849  -4.560  1.00  0.00     0.025 C 
ENDBRANCH   2   9
TORSDOF 4
ENDMDL
