MODEL 1
REMARK VINA RESULT: -4.844762854      0.000      0.000
REMARK  2 active torsions:
REMARK  status: ('A' for Active; 'I' for Inactive)
REMARK    1  A    between atoms: C2_2  and  C3_3 
REMARK    2  A    between atoms: C3_3  and  C4_4 
ROOT
HETATM    1  C3  UNL     1       4.037 -19.715  -5.873  1.00  0.00     0.151 C 
HETATM    2  C6  UNL     1       2.648 -20.305  -5.977  1.00  0.00     0.274 C 
HETATM    3  N1  UNL     1       2.836 -21.615  -5.403  1.00  0.00    -0.039 N 
ATOM      4  H11 UNL     1       3.208 -22.314  -6.047  1.00  0.00     0.280 HD
ATOM      5  H12 UNL     1       1.973 -22.118  -5.195  1.00  0.00     0.280 HD
HETATM    6  C7  UNL     1       3.675 -21.344  -4.249  1.00  0.00     0.280 C 
HETATM    7  C8  UNL     1       2.852 -20.797  -3.116  1.00  0.00     0.078 C 
HETATM    8  C9  UNL     1       4.438 -22.554  -3.794  1.00  0.00     0.078 C 
HETATM    9  N2  UNL     1       4.585 -20.292  -4.673  1.00  0.00    -0.031 N 
ATOM     10  H21 UNL     1       4.766 -19.602  -3.944  1.00  0.00     0.281 HD
ATOM     11  H22 UNL     1       5.545 -20.615  -4.787  1.00  0.00     0.281 HD
ENDROOT
BRANCH   1  12
HETATM   12  C2  UNL     1       3.974 -18.220  -5.757  1.00  0.00     0.036 C 
HETATM   13  C1  UNL     1       2.587 -17.729  -5.401  1.00  0.00     0.007 C 
ENDBRANCH   1  12
BRANCH   1  14
HETATM   14  C4  UNL     1       4.828 -20.194  -7.054  1.00  0.00     0.036 C 
HETATM   15  C5  UNL     1       6.204 -20.669  -6.733  1.00  0.00     0.007 C 
ENDBRANCH   1  14
TORSDOF 2
ENDMDL
MODEL 2
REMARK VINA RESULT: -4.745833082      2.003      3.884
REMARK  2 active torsions:
REMARK  status: ('A' for Active; 'I' for Inactive)
REMARK    1  A    between atoms: C2_2  and  C3_3 
REMARK    2  A    between atoms: C3_3  and  C4_4 
ROOT
HETATM    1  C3  UNL     1       5.019 -21.540  -5.422  1.00  0.00     0.151 C 
HETATM    2  C6  UNL     1       5.578 -20.150  -5.210  1.00  0.00     0.274 C 
HETATM    3  N1  UNL     1       6.930 -20.431  -4.790  1.00  0.00    -0.039 N 
ATOM      4  H11 UNL     1       7.032 -20.651  -3.799  1.00  0.00     0.280 HD
ATOM      5  H12 UNL     1       7.551 -19.623  -4.781  1.00  0.00     0.280 HD
HETATM    6  C7  UNL     1       7.332 -21.496  -5.693  1.00  0.00     0.280 C 
HETATM    7  C8  UNL     1       7.702 -20.936  -7.038  1.00  0.00     0.078 C 
HETATM    8  C9  UNL     1       8.464 -22.317  -5.147  1.00  0.00     0.078 C 
HETATM    9  N2  UNL     1       6.144 -22.316  -5.876  1.00  0.00    -0.031 N 
ATOM     10  H21 UNL     1       6.037 -22.655  -6.832  1.00  0.00     0.281 HD
ATOM     11  H22 UNL     1       6.212 -23.226  -5.421  1.00  0.00     0.281 HD
ENDROOT
BRANCH   1  12
HETATM   12  C2  UNL     1       3.936 -21.527  -6.460  1.00  0.00     0.036 C 
HETATM   13  C1  UNL     1       3.850 -20.201  -7.184  1.00  0.00     0.007 C 
ENDBRANCH   1  12
BRANCH   1  14
HETATM   14  C4  UNL     1       4.571 -22.061  -4.088  1.00  0.00     0.036 C 
HETATM   15  C5  UNL     1       3.490 -21.265  -3.438  1.00  0.00     0.007 C 
ENDBRANCH   1  14
TORSDOF 2
ENDMDL
MODEL 3
REMARK VINA RESULT: -4.712074958      1.342      2.793
REMARK  2 active torsions:
REMARK  status: ('A' for Active; 'I' for Inactive)
REMARK    1  A    between atoms: C2_2  and  C3_3 
REMARK    2  A    between atoms: C3_3  and  C4_4 
ROOT
HETATM    1  C3  UNL     1       3.004 -20.111  -5.011  1.00  0.00     0.151 C 
HETATM    2  C6  UNL     1       3.051 -21.125  -6.133  1.00  0.00     0.274 C 
HETATM    3  N1  UNL     1       4.470 -21.323  -6.298  1.00  0.00    -0.039 N 
ATOM      4  H11 UNL     1       4.935 -20.623  -6.877  1.00  0.00     0.280 HD
ATOM      5  H12 UNL     1       4.725 -22.122  -6.878  1.00  0.00     0.280 HD
HETATM    6  C7  UNL     1       4.947 -21.391  -4.927  1.00  0.00     0.280 C 
HETATM    7  C8  UNL     1       4.670 -22.746  -4.339  1.00  0.00     0.078 C 
HETATM    8  C9  UNL     1       6.408 -21.066  -4.809  1.00  0.00     0.078 C 
HETATM    9  N2  UNL     1       4.145 -20.426  -4.192  1.00  0.00    -0.031 N 
ATOM     10  H21 UNL     1       3.891 -20.747  -3.258  1.00  0.00     0.281 HD
ATOM     11  H22 UNL     1       4.673 -19.601  -3.907  1.00  0.00     0.281 HD
ENDROOT
BRANCH   1  12
HETATM   12  C2  UNL     1       1.735 -20.248  -4.222  1.00  0.00     0.036 C 
HETATM   13  C1  UNL     1       1.992 -20.649  -2.786  1.00  0.00     0.007 C 
ENDBRANCH   1  12
BRANCH   1  14
HETATM   14  C4  UNL     1       3.193 -18.751  -5.615  1.00  0.00     0.036 C 
HETATM   15  C5  UNL     1       2.145 -17.754  -5.253  1.00  0.00     0.007 C 
ENDBRANCH   1  14
TORSDOF 2
ENDMDL
MODEL 4
REMARK VINA RESULT: -4.684100925      0.690      1.056
REMARK  2 active torsions:
REMARK  status: ('A' for Active; 'I' for Inactive)
REMARK    1  A    between atoms: C2_2  and  C3_3 
REMARK    2  A    between atoms: C3_3  and  C4_4 
ROOT
HETATM    1  C3  UNL     1       3.750 -19.562  -5.924  1.00  0.00     0.151 C 
HETATM    2  C6  UNL     1       2.368 -20.174  -5.857  1.00  0.00     0.274 C 
HETATM    3  N1  UNL     1       2.656 -21.517  -5.416  1.00  0.00    -0.039 N 
ATOM      4  H11 UNL     1       2.932 -22.160  -6.158  1.00  0.00     0.280 HD
ATOM      5  H12 UNL     1       1.842 -22.051  -5.115  1.00  0.00     0.280 HD
HETATM    6  C7  UNL     1       3.661 -21.310  -4.387  1.00  0.00     0.280 C 
HETATM    7  C8  UNL     1       3.017 -20.861  -3.105  1.00  0.00     0.078 C 
HETATM    8  C9  UNL     1       4.498 -22.532  -4.144  1.00  0.00     0.078 C 
HETATM    9  N2  UNL     1       4.483 -20.211  -4.867  1.00  0.00    -0.031 N 
ATOM     10  H21 UNL     1       4.767 -19.570  -4.126  1.00  0.00     0.281 HD
ATOM     11  H22 UNL     1       5.418 -20.505  -5.151  1.00  0.00     0.281 HD
ENDROOT
BRANCH   1  12
HETATM   12  C2  UNL     1       3.690 -18.081  -5.691  1.00  0.00     0.036 C 
HETATM   13  C1  UNL     1       2.283 -17.600  -5.414  1.00  0.00     0.007 C 
ENDBRANCH   1  12
BRANCH   1  14
HETATM   14  C4  UNL     1       4.354 -19.941  -7.244  1.00  0.00     0.036 C 
HETATM   15  C5  UNL     1       3.500 -19.644  -8.430  1.00  0.00     0.007 C 
ENDBRANCH   1  14
TORSDOF 2
ENDMDL
MODEL 5
REMARK VINA RESULT: -4.654452018      1.262      3.153
REMARK  2 active torsions:
REMARK  status: ('A' for Active; 'I' for Inactive)
REMARK    1  A    between atoms: C2_2  and  C3_3 
REMARK    2  A    between atoms: C3_3  and  C4_4 
ROOT
HETATM    1  C3  UNL     1       5.036 -20.659  -5.848  1.00  0.00     0.151 C 
HETATM    2  C6  UNL     1       4.403 -20.242  -7.157  1.00  0.00     0.274 C 
HETATM    3  N1  UNL     1       3.014 -20.114  -6.791  1.00  0.00    -0.039 N 
ATOM      4  H11 UNL     1       2.491 -20.990  -6.789  1.00  0.00     0.280 HD
ATOM      5  H12 UNL     1       2.430 -19.649  -7.486  1.00  0.00     0.280 HD
HETATM    6  C7  UNL     1       3.080 -19.443  -5.505  1.00  0.00     0.280 C 
HETATM    7  C8  UNL     1       3.326 -17.971  -5.690  1.00  0.00     0.078 C 
HETATM    8  C9  UNL     1       1.846 -19.659  -4.677  1.00  0.00     0.078 C 
HETATM    9  N2  UNL     1       4.248 -19.997  -4.839  1.00  0.00    -0.031 N 
ATOM     10  H21 UNL     1       4.776 -19.302  -4.312  1.00  0.00     0.281 HD
ATOM     11  H22 UNL     1       4.011 -20.604  -4.055  1.00  0.00     0.281 HD
ENDROOT
BRANCH   1  12
HETATM   12  C2  UNL     1       6.466 -20.208  -5.778  1.00  0.00     0.036 C 
HETATM   13  C1  UNL     1       7.324 -20.853  -6.844  1.00  0.00     0.007 C 
ENDBRANCH   1  12
BRANCH   1  14
HETATM   14  C4  UNL     1       4.864 -22.143  -5.709  1.00  0.00     0.036 C 
HETATM   15  C5  UNL     1       4.589 -22.613  -4.321  1.00  0.00     0.007 C 
ENDBRANCH   1  14
TORSDOF 2
ENDMDL
