MODEL 1
REMARK VINA RESULT: -5.305645613      0.000      0.000
REMARK  3 active torsions:
REMARK  status: ('A' for Active; 'I' for Inactive)
REMARK    1  A    between atoms: C2_2  and  N1_3 
REMARK    2  A    between atoms: C2_2  and  C3_7 
REMARK    3  A    between atoms: C3_7  and  C4_8 
ROOT
HETATM    1  C4  UNL     1       2.115 -19.729  -5.642  1.00  0.00     0.188 C 
HETATM    2  C5  UNL     1       3.321 -19.056  -6.312  1.00  0.00     0.033 C 
HETATM    3  C6  UNL     1       4.571 -19.253  -5.495  1.00  0.00     0.008 C 
HETATM    4  C7  UNL     1       4.892 -20.739  -5.406  1.00  0.00     0.007 C 
HETATM    5  C8  UNL     1       5.277 -21.044  -3.981  1.00  0.00     0.011 C 
HETATM    6  C9  UNL     1       3.640 -21.491  -5.812  1.00  0.00     0.237 C 
HETATM    7  N2  UNL     1       2.464 -21.006  -5.120  1.00  0.00    -0.070 N 
ATOM      8  H21 UNL     1       1.689 -21.667  -5.161  1.00  0.00     0.277 HD
ATOM      9  H22 UNL     1       2.587 -20.992  -4.108  1.00  0.00     0.277 HD
ENDROOT
BRANCH   1  10
HETATM   10  C3  UNL     1       1.573 -18.739  -4.677  1.00  0.00     0.065 C 
BRANCH  10  11
HETATM   11  C2  UNL     1       0.426 -19.167  -3.835  1.00  0.00     0.181 C 
HETATM   12  C1  UNL     1       0.515 -18.786  -2.383  1.00  0.00     0.039 C 
BRANCH  11  13
HETATM   13  N1  UNL     1      -0.747 -18.439  -4.357  1.00  0.00    -0.075 N 
ATOM     14  H13 UNL     1      -1.290 -18.968  -5.040  1.00  0.00     0.274 HD
ATOM     15  H12 UNL     1      -1.496 -18.323  -3.675  1.00  0.00     0.274 HD
ATOM     16  H11 UNL     1      -0.378 -17.558  -4.718  1.00  0.00     0.274 HD
ENDBRANCH  11  13
ENDBRANCH  10  11
ENDBRANCH   1  10
TORSDOF 3
ENDMDL
MODEL 2
REMARK VINA RESULT: -5.089895760     10.315     11.201
REMARK  3 active torsions:
REMARK  status: ('A' for Active; 'I' for Inactive)
REMARK    1  A    between atoms: C2_2  and  N1_3 
REMARK    2  A    between atoms: C2_2  and  C3_7 
REMARK    3  A    between atoms: C3_7  and  C4_8 
ROOT
HETATM    1  C4  UNL     1      -5.936 -24.589 -11.033  1.00  0.00     0.188 C 
HETATM    2  C5  UNL     1      -5.700 -23.726 -12.279  1.00  0.00     0.033 C 
HETATM    3  C6  UNL     1      -4.390 -24.074 -12.936  1.00  0.00     0.008 C 
HETATM    4  C7  UNL     1      -4.426 -25.522 -13.406  1.00  0.00     0.007 C 
HETATM    5  C8  UNL     1      -3.111 -26.160 -13.040  1.00  0.00     0.011 C 
HETATM    6  C9  UNL     1      -5.582 -26.195 -12.692  1.00  0.00     0.237 C 
HETATM    7  N2  UNL     1      -5.564 -25.942 -11.267  1.00  0.00    -0.070 N 
ATOM      8  H21 UNL     1      -6.145 -26.600 -10.748  1.00  0.00     0.277 HD
ATOM      9  H22 UNL     1      -4.667 -26.177 -10.842  1.00  0.00     0.277 HD
ENDROOT
BRANCH   1  10
HETATM   10  C3  UNL     1      -5.254 -23.893  -9.912  1.00  0.00     0.065 C 
BRANCH  10  11
HETATM   11  C2  UNL     1      -4.148 -24.616  -9.235  1.00  0.00     0.181 C 
HETATM   12  C1  UNL     1      -2.762 -24.227  -9.670  1.00  0.00     0.039 C 
BRANCH  11  13
HETATM   13  N1  UNL     1      -4.231 -24.232  -7.812  1.00  0.00    -0.075 N 
ATOM     14  H13 UNL     1      -3.485 -24.621  -7.236  1.00  0.00     0.274 HD
ATOM     15  H12 UNL     1      -4.015 -23.251  -7.637  1.00  0.00     0.274 HD
ATOM     16  H11 UNL     1      -5.167 -24.507  -7.513  1.00  0.00     0.274 HD
ENDBRANCH  11  13
ENDBRANCH  10  11
ENDBRANCH   1  10
TORSDOF 3
ENDMDL
MODEL 3
REMARK VINA RESULT: -5.070936927      1.061      1.163
REMARK  3 active torsions:
REMARK  status: ('A' for Active; 'I' for Inactive)
REMARK    1  A    between atoms: C2_2  and  N1_3 
REMARK    2  A    between atoms: C2_2  and  C3_7 
REMARK    3  A    between atoms: C3_7  and  C4_8 
ROOT
HETATM    1  C4  UNL     1       2.809 -19.837  -5.861  1.00  0.00     0.188 C 
HETATM    2  C5  UNL     1       4.282 -19.444  -5.681  1.00  0.00     0.033 C 
HETATM    3  C6  UNL     1       4.943 -20.298  -4.632  1.00  0.00     0.008 C 
HETATM    4  C7  UNL     1       4.929 -21.755  -5.078  1.00  0.00     0.007 C 
HETATM    5  C8  UNL     1       4.536 -22.598  -3.892  1.00  0.00     0.011 C 
HETATM    6  C9  UNL     1       3.912 -21.869  -6.197  1.00  0.00     0.237 C 
HETATM    7  N2  UNL     1       2.650 -21.251  -5.851  1.00  0.00    -0.070 N 
ATOM      8  H21 UNL     1       1.887 -21.560  -6.454  1.00  0.00     0.277 HD
ATOM      9  H22 UNL     1       2.279 -21.594  -4.965  1.00  0.00     0.277 HD
ENDROOT
BRANCH   1  10
HETATM   10  C3  UNL     1       2.049 -19.072  -4.841  1.00  0.00     0.065 C 
BRANCH  10  11
HETATM   11  C2  UNL     1       1.036 -19.815  -4.048  1.00  0.00     0.181 C 
HETATM   12  C1  UNL     1       1.512 -20.335  -2.719  1.00  0.00     0.039 C 
BRANCH  11  13
HETATM   13  N1  UNL     1      -0.018 -18.833  -3.725  1.00  0.00    -0.075 N 
ATOM     14  H13 UNL     1      -0.802 -19.227  -3.205  1.00  0.00     0.274 HD
ATOM     15  H12 UNL     1       0.258 -18.149  -3.021  1.00  0.00     0.274 HD
ATOM     16  H11 UNL     1      -0.283 -18.420  -4.619  1.00  0.00     0.274 HD
ENDBRANCH  11  13
ENDBRANCH  10  11
ENDBRANCH   1  10
TORSDOF 3
ENDMDL
MODEL 4
REMARK VINA RESULT: -5.061267630      3.047      3.930
REMARK  3 active torsions:
REMARK  status: ('A' for Active; 'I' for Inactive)
REMARK    1  A    between atoms: C2_2  and  N1_3 
REMARK    2  A    between atoms: C2_2  and  C3_7 
REMARK    3  A    between atoms: C3_7  and  C4_8 
ROOT
HETATM    1  C4  UNL     1       0.732 -17.346  -5.747  1.00  0.00     0.188 C 
HETATM    2  C5  UNL     1       2.101 -16.677  -5.931  1.00  0.00     0.033 C 
HETATM    3  C6  UNL     1       2.781 -17.175  -7.179  1.00  0.00     0.008 C 
HETATM    4  C7  UNL     1       1.945 -16.804  -8.397  1.00  0.00     0.007 C 
HETATM    5  C8  UNL     1       1.900 -18.003  -9.309  1.00  0.00     0.011 C 
HETATM    6  C9  UNL     1       0.561 -16.442  -7.894  1.00  0.00     0.237 C 
HETATM    7  N2  UNL     1       0.034 -17.436  -6.984  1.00  0.00    -0.070 N 
ATOM      8  H21 UNL     1      -0.976 -17.359  -6.866  1.00  0.00     0.277 HD
ATOM      9  H22 UNL     1       0.061 -18.377  -7.377  1.00  0.00     0.277 HD
ENDROOT
BRANCH   1  10
HETATM   10  C3  UNL     1       0.988 -18.622  -5.031  1.00  0.00     0.065 C 
BRANCH  10  11
HETATM   11  C2  UNL     1       0.062 -18.981  -3.927  1.00  0.00     0.181 C 
HETATM   12  C1  UNL     1       0.621 -18.826  -2.540  1.00  0.00     0.039 C 
BRANCH  11  13
HETATM   13  N1  UNL     1      -1.051 -18.013  -4.008  1.00  0.00    -0.075 N 
ATOM     14  H13 UNL     1      -1.708 -18.076  -3.230  1.00  0.00     0.274 HD
ATOM     15  H12 UNL     1      -0.768 -17.047  -3.846  1.00  0.00     0.274 HD
ATOM     16  H11 UNL     1      -1.478 -18.171  -4.921  1.00  0.00     0.274 HD
ENDBRANCH  11  13
ENDBRANCH  10  11
ENDBRANCH   1  10
TORSDOF 3
ENDMDL
MODEL 5
REMARK VINA RESULT: -5.031145467      1.995      2.981
REMARK  3 active torsions:
REMARK  status: ('A' for Active; 'I' for Inactive)
REMARK    1  A    between atoms: C2_2  and  N1_3 
REMARK    2  A    between atoms: C2_2  and  C3_7 
REMARK    3  A    between atoms: C3_7  and  C4_8 
ROOT
HETATM    1  C4  UNL     1       4.205 -20.966  -4.222  1.00  0.00     0.188 C 
HETATM    2  C5  UNL     1       4.543 -22.459  -4.110  1.00  0.00     0.033 C 
HETATM    3  C6  UNL     1       5.384 -22.910  -5.275  1.00  0.00     0.008 C 
HETATM    4  C7  UNL     1       6.710 -22.160  -5.265  1.00  0.00     0.007 C 
HETATM    5  C8  UNL     1       7.008 -21.732  -6.680  1.00  0.00     0.011 C 
HETATM    6  C9  UNL     1       6.538 -20.962  -4.352  1.00  0.00     0.237 C 
HETATM    7  N2  UNL     1       5.335 -20.215  -4.653  1.00  0.00    -0.070 N 
ATOM      8  H21 UNL     1       5.351 -19.276  -4.256  1.00  0.00     0.277 HD
ATOM      9  H22 UNL     1       5.275 -19.953  -5.637  1.00  0.00     0.277 HD
ENDROOT
BRANCH   1  10
HETATM   10  C3  UNL     1       2.986 -20.879  -5.064  1.00  0.00     0.065 C 
BRANCH  10  11
HETATM   11  C2  UNL     1       1.789 -20.233  -4.466  1.00  0.00     0.181 C 
HETATM   12  C1  UNL     1       1.655 -20.379  -2.975  1.00  0.00     0.039 C 
BRANCH  11  13
HETATM   13  N1  UNL     1       1.956 -18.785  -4.702  1.00  0.00    -0.075 N 
ATOM     14  H13 UNL     1       1.102 -18.316  -5.003  1.00  0.00     0.274 HD
ATOM     15  H12 UNL     1       2.094 -18.243  -3.849  1.00  0.00     0.274 HD
ATOM     16  H11 UNL     1       2.725 -18.708  -5.368  1.00  0.00     0.274 HD
ENDBRANCH  11  13
ENDBRANCH  10  11
ENDBRANCH   1  10
TORSDOF 3
ENDMDL
