MODEL 1
REMARK VINA RESULT: -5.321386701      0.000      0.000
REMARK  2 active torsions:
REMARK  status: ('A' for Active; 'I' for Inactive)
REMARK    1  A    between atoms: C5_5  and  N1_6 
REMARK    2  A    between atoms: N1_6  and  C6_8 
ROOT
HETATM    1  N1  UNL     1       3.940 -20.193  -5.962  1.00  0.00    -0.391 N 
ATOM      2  H1  UNL     1       4.137 -20.812  -6.748  1.00  0.00     0.155 HD
ENDROOT
BRANCH   1   3
HETATM    3  C5  UNL     1       4.856 -20.025  -4.900  1.00  0.00     0.078 C 
HETATM    4  C4  UNL     1       4.684 -21.164  -3.923  1.00  0.00     0.024 C 
HETATM    5  C3  UNL     1       4.665 -22.517  -4.533  1.00  0.00     0.002 C 
HETATM    6  C2  UNL     1       5.467 -22.726  -5.760  1.00  0.00     0.000 C 
HETATM    7  C1  UNL     1       6.835 -22.133  -5.766  1.00  0.00     0.000 C 
HETATM    8  C10 UNL     1       6.882 -20.703  -6.247  1.00  0.00     0.002 C 
HETATM    9  C9  UNL     1       6.267 -19.744  -5.289  1.00  0.00     0.024 C 
ENDBRANCH   1   3
BRANCH   1  10
HETATM   10  C6  UNL     1       2.720 -19.448  -5.878  1.00  0.00     0.281 C 
HETATM   11  C7  UNL     1       2.948 -17.997  -5.564  1.00  0.00     0.081 C 
HETATM   12  C8  UNL     1       2.982 -17.877  -7.092  1.00  0.00     0.238 C 
HETATM   13  N2  UNL     1       2.146 -19.060  -7.127  1.00  0.00    -0.054 N 
ATOM     14  H22 UNL     1       2.167 -19.690  -7.929  1.00  0.00     0.279 HD
ATOM     15  H21 UNL     1       1.135 -18.983  -7.235  1.00  0.00     0.279 HD
ENDBRANCH   1  10
TORSDOF 2
ENDMDL
MODEL 2
REMARK VINA RESULT: -5.080424637      1.089      2.301
REMARK  2 active torsions:
REMARK  status: ('A' for Active; 'I' for Inactive)
REMARK    1  A    between atoms: C5_5  and  N1_6 
REMARK    2  A    between atoms: N1_6  and  C6_8 
ROOT
HETATM    1  N1  UNL     1       3.663 -19.730  -6.385  1.00  0.00    -0.391 N 
ATOM      2  H1  UNL     1       4.374 -19.038  -6.622  1.00  0.00     0.155 HD
ENDROOT
BRANCH   1   3
HETATM    3  C5  UNL     1       3.965 -21.107  -6.303  1.00  0.00     0.078 C 
HETATM    4  C4  UNL     1       5.305 -21.351  -6.957  1.00  0.00     0.024 C 
HETATM    5  C3  UNL     1       6.392 -20.439  -6.522  1.00  0.00     0.002 C 
HETATM    6  C2  UNL     1       6.343 -19.929  -5.132  1.00  0.00     0.000 C 
HETATM    7  C1  UNL     1       5.993 -20.921  -4.076  1.00  0.00     0.000 C 
HETATM    8  C10 UNL     1       4.510 -21.068  -3.837  1.00  0.00     0.002 C 
HETATM    9  C9  UNL     1       3.800 -21.737  -4.962  1.00  0.00     0.024 C 
ENDBRANCH   1   3
BRANCH   1  10
HETATM   10  C6  UNL     1       2.307 -19.355  -6.118  1.00  0.00     0.281 C 
HETATM   11  C7  UNL     1       2.205 -18.152  -5.224  1.00  0.00     0.081 C 
HETATM   12  C8  UNL     1       2.206 -17.405  -6.563  1.00  0.00     0.238 C 
HETATM   13  N2  UNL     1       1.657 -18.611  -7.149  1.00  0.00    -0.054 N 
ATOM     14  H22 UNL     1       1.816 -18.833  -8.132  1.00  0.00     0.279 HD
ATOM     15  H21 UNL     1       0.653 -18.705  -7.307  1.00  0.00     0.279 HD
ENDBRANCH   1  10
TORSDOF 2
ENDMDL
MODEL 3
REMARK VINA RESULT: -5.076424211      3.524      5.101
REMARK  2 active torsions:
REMARK  status: ('A' for Active; 'I' for Inactive)
REMARK    1  A    between atoms: C5_5  and  N1_6 
REMARK    2  A    between atoms: N1_6  and  C6_8 
ROOT
HETATM    1  N1  UNL     1       1.231 -17.862  -5.305  1.00  0.00    -0.391 N 
ATOM      2  H1  UNL     1       1.194 -16.850  -5.182  1.00  0.00     0.155 HD
ENDROOT
BRANCH   1   3
HETATM    3  C5  UNL     1       2.303 -18.490  -5.977  1.00  0.00     0.078 C 
HETATM    4  C4  UNL     1       1.951 -18.620  -7.440  1.00  0.00     0.024 C 
HETATM    5  C3  UNL     1       1.446 -17.379  -8.078  1.00  0.00     0.002 C 
HETATM    6  C2  UNL     1       1.961 -16.088  -7.565  1.00  0.00     0.000 C 
HETATM    7  C1  UNL     1       3.426 -16.020  -7.298  1.00  0.00     0.000 C 
HETATM    8  C10 UNL     1       3.819 -16.471  -5.912  1.00  0.00     0.002 C 
HETATM    9  C9  UNL     1       3.661 -17.938  -5.709  1.00  0.00     0.024 C 
ENDBRANCH   1   3
BRANCH   1  10
HETATM   10  C6  UNL     1       0.200 -18.719  -4.804  1.00  0.00     0.281 C 
HETATM   11  C7  UNL     1       0.703 -19.688  -3.773  1.00  0.00     0.081 C 
HETATM   12  C8  UNL     1       0.311 -18.562  -2.811  1.00  0.00     0.238 C 
HETATM   13  N2  UNL     1      -0.652 -18.145  -3.811  1.00  0.00    -0.054 N 
ATOM     14  H22 UNL     1      -0.948 -17.171  -3.876  1.00  0.00     0.279 HD
ATOM     15  H21 UNL     1      -1.631 -18.422  -3.740  1.00  0.00     0.279 HD
ENDBRANCH   1  10
TORSDOF 2
ENDMDL
MODEL 4
REMARK VINA RESULT: -5.074115779      2.103      2.734
REMARK  2 active torsions:
REMARK  status: ('A' for Active; 'I' for Inactive)
REMARK    1  A    between atoms: C5_5  and  N1_6 
REMARK    2  A    between atoms: N1_6  and  C6_8 
ROOT
HETATM    1  N1  UNL     1       3.881 -21.436  -6.532  1.00  0.00    -0.391 N 
ATOM      2  H1  UNL     1       4.255 -22.346  -6.261  1.00  0.00     0.155 HD
ENDROOT
BRANCH   1   3
HETATM    3  C5  UNL     1       3.677 -20.406  -5.588  1.00  0.00     0.078 C 
HETATM    4  C4  UNL     1       3.386 -21.028  -4.242  1.00  0.00     0.024 C 
HETATM    5  C3  UNL     1       4.335 -22.090  -3.823  1.00  0.00     0.002 C 
HETATM    6  C2  UNL     1       5.738 -21.975  -4.284  1.00  0.00     0.000 C 
HETATM    7  C1  UNL     1       6.351 -20.619  -4.205  1.00  0.00     0.000 C 
HETATM    8  C10 UNL     1       6.114 -19.765  -5.428  1.00  0.00     0.002 C 
HETATM    9  C9  UNL     1       4.700 -19.322  -5.567  1.00  0.00     0.024 C 
ENDBRANCH   1   3
BRANCH   1  10
HETATM   10  C6  UNL     1       3.535 -21.139  -7.889  1.00  0.00     0.281 C 
HETATM   11  C7  UNL     1       4.740 -20.958  -8.767  1.00  0.00     0.081 C 
HETATM   12  C8  UNL     1       4.556 -22.463  -8.991  1.00  0.00     0.238 C 
HETATM   13  N2  UNL     1       3.153 -22.259  -8.689  1.00  0.00    -0.054 N 
ATOM     14  H22 UNL     1       2.589 -23.013  -8.296  1.00  0.00     0.279 HD
ATOM     15  H21 UNL     1       2.467 -22.157  -9.437  1.00  0.00     0.279 HD
ENDBRANCH   1  10
TORSDOF 2
ENDMDL
MODEL 5
REMARK VINA RESULT: -5.014827769      2.719      4.567
REMARK  2 active torsions:
REMARK  status: ('A' for Active; 'I' for Inactive)
REMARK    1  A    between atoms: C5_5  and  N1_6 
REMARK    2  A    between atoms: N1_6  and  C6_8 
ROOT
HETATM    1  N1  UNL     1       1.066 -18.090  -5.709  1.00  0.00    -0.391 N 
ATOM      2  H1  UNL     1       1.187 -17.125  -5.401  1.00  0.00     0.155 HD
ENDROOT
BRANCH   1   3
HETATM    3  C5  UNL     1       1.780 -18.612  -6.810  1.00  0.00     0.078 C 
HETATM    4  C4  UNL     1       2.342 -17.465  -7.616  1.00  0.00     0.024 C 
HETATM    5  C3  UNL     1       3.064 -16.437  -6.825  1.00  0.00     0.002 C 
HETATM    6  C2  UNL     1       3.774 -16.886  -5.604  1.00  0.00     0.000 C 
HETATM    7  C1  UNL     1       4.556 -18.149  -5.721  1.00  0.00     0.000 C 
HETATM    8  C10 UNL     1       3.753 -19.397  -5.443  1.00  0.00     0.002 C 
HETATM    9  C9  UNL     1       2.755 -19.698  -6.506  1.00  0.00     0.024 C 
ENDBRANCH   1   3
BRANCH   1  10
HETATM   10  C6  UNL     1       0.164 -18.984  -5.049  1.00  0.00     0.281 C 
HETATM   11  C7  UNL     1       0.544 -19.237  -3.618  1.00  0.00     0.081 C 
HETATM   12  C8  UNL     1      -0.377 -18.036  -3.370  1.00  0.00     0.238 C 
HETATM   13  N2  UNL     1      -1.059 -18.403  -4.594  1.00  0.00    -0.054 N 
ATOM     14  H22 UNL     1      -1.543 -17.700  -5.154  1.00  0.00     0.279 HD
ATOM     15  H21 UNL     1      -1.920 -18.951  -4.569  1.00  0.00     0.279 HD
ENDBRANCH   1  10
TORSDOF 2
ENDMDL
