MODEL 1
REMARK VINA RESULT: -5.976260763      0.000      0.000
REMARK  2 active torsions:
REMARK  status: ('A' for Active; 'I' for Inactive)
REMARK       I    between atoms: C1_4  and  N2_5 
REMARK       I    between atoms: C1_4  and  N3_12 
REMARK    1  A    between atoms: N2_5  and  C2_7 
REMARK    2  A    between atoms: N3_12  and  C6_14 
ROOT
HETATM    1  N1  UNL     1      -9.262  26.232   8.799  1.00  0.00    -0.235 N 
ATOM      2  H11 UNL     1      -9.921  26.433   9.551  1.00  0.00     0.174 HD
ATOM      3  H12 UNL     1      -8.296  25.991   9.021  1.00  0.00     0.174 HD
HETATM    4  C1  UNL     1      -9.638  26.280   7.589  1.00  0.00     0.672 C 
HETATM    5  N2  UNL     1      -8.729  26.002   6.552  1.00  0.00    -0.192 N 
ATOM      6  H2  UNL     1      -8.261  26.779   6.086  1.00  0.00     0.184 HD
HETATM    7  N3  UNL     1     -10.973  26.612   7.282  1.00  0.00    -0.222 N 
ATOM      8  H3  UNL     1     -11.177  26.936   6.337  1.00  0.00     0.178 HD
ENDROOT
BRANCH   5   9
HETATM    9  C2  UNL     1      -8.436  24.647   6.123  1.00  0.00     0.056 A 
HETATM   10  C3  UNL     1      -9.382  23.761   5.750  1.00  0.00     0.037 A 
HETATM   11  C4  UNL     1      -8.965  22.519   5.370  1.00  0.00     0.052 A 
HETATM   12  S1  UNL     1      -7.278  22.607   5.539  1.00  0.00    -0.111 SA
HETATM   13  C5  UNL     1      -7.134  24.214   6.086  1.00  0.00     0.079 A 
ENDBRANCH   5   9
BRANCH   7  14
HETATM   14  C6  UNL     1     -12.067  26.525   8.214  1.00  0.00     0.099 C 
HETATM   15  C7  UNL     1     -12.448  25.116   8.566  1.00  0.00     0.026 C 
HETATM   16  C8  UNL     1     -13.612  25.221   9.560  1.00  0.00     0.002 C 
HETATM   17  C9  UNL     1     -14.787  25.750   8.756  1.00  0.00     0.000 C 
HETATM   18  C10 UNL     1     -14.488  27.181   8.411  1.00  0.00     0.002 C 
HETATM   19  C11 UNL     1     -13.183  27.368   7.717  1.00  0.00     0.026 C 
ENDBRANCH   7  14
TORSDOF 2
ENDMDL
MODEL 2
REMARK VINA RESULT: -5.956162279      2.785      6.791
REMARK  2 active torsions:
REMARK  status: ('A' for Active; 'I' for Inactive)
REMARK       I    between atoms: C1_4  and  N2_5 
REMARK       I    between atoms: C1_4  and  N3_12 
REMARK    1  A    between atoms: N2_5  and  C2_7 
REMARK    2  A    between atoms: N3_12  and  C6_14 
ROOT
HETATM    1  N1  UNL     1      -8.436  25.471   4.504  1.00  0.00    -0.235 N 
ATOM      2  H11 UNL     1      -8.094  24.864   3.758  1.00  0.00     0.174 HD
ATOM      3  H12 UNL     1      -9.135  26.185   4.298  1.00  0.00     0.174 HD
HETATM    4  C1  UNL     1      -7.995  25.342   5.686  1.00  0.00     0.672 C 
HETATM    5  N2  UNL     1      -8.467  26.179   6.714  1.00  0.00    -0.192 N 
ATOM      6  H2  UNL     1      -7.926  27.007   6.962  1.00  0.00     0.184 HD
HETATM    7  N3  UNL     1      -7.030  24.357   5.971  1.00  0.00    -0.222 N 
ATOM      8  H3  UNL     1      -6.479  24.462   6.823  1.00  0.00     0.178 HD
ENDROOT
BRANCH   5   9
HETATM    9  C2  UNL     1      -9.697  25.903   7.433  1.00  0.00     0.056 A 
HETATM   10  C3  UNL     1     -10.346  24.720   7.375  1.00  0.00     0.037 A 
HETATM   11  C4  UNL     1     -11.493  24.598   8.102  1.00  0.00     0.052 A 
HETATM   12  S1  UNL     1     -11.647  26.117   8.845  1.00  0.00    -0.111 SA
HETATM   13  C5  UNL     1     -10.256  26.876   8.221  1.00  0.00     0.079 A 
ENDBRANCH   5   9
BRANCH   7  14
HETATM   14  C6  UNL     1      -6.768  23.210   5.140  1.00  0.00     0.099 C 
HETATM   15  C7  UNL     1      -6.624  21.929   5.909  1.00  0.00     0.026 C 
HETATM   16  C8  UNL     1      -6.358  20.831   4.870  1.00  0.00     0.002 C 
HETATM   17  C9  UNL     1      -4.969  21.115   4.325  1.00  0.00     0.000 C 
HETATM   18  C10 UNL     1      -5.056  22.367   3.501  1.00  0.00     0.002 C 
HETATM   19  C11 UNL     1      -5.636  23.526   4.235  1.00  0.00     0.026 C 
ENDBRANCH   7  14
TORSDOF 2
ENDMDL
MODEL 3
REMARK VINA RESULT: -5.924236207      3.317      7.395
REMARK  2 active torsions:
REMARK  status: ('A' for Active; 'I' for Inactive)
REMARK       I    between atoms: C1_4  and  N2_5 
REMARK       I    between atoms: C1_4  and  N3_12 
REMARK    1  A    between atoms: N2_5  and  C2_7 
REMARK    2  A    between atoms: N3_12  and  C6_14 
ROOT
HETATM    1  N1  UNL     1      -8.954  22.670   5.198  1.00  0.00    -0.235 N 
ATOM      2  H11 UNL     1      -8.564  21.840   4.751  1.00  0.00     0.174 HD
ATOM      3  H12 UNL     1      -9.917  22.661   5.534  1.00  0.00     0.174 HD
HETATM    4  C1  UNL     1      -8.247  23.713   5.338  1.00  0.00     0.672 C 
HETATM    5  N2  UNL     1      -8.785  24.857   5.955  1.00  0.00    -0.192 N 
ATOM      6  H2  UNL     1      -9.165  25.600   5.370  1.00  0.00     0.184 HD
HETATM    7  N3  UNL     1      -6.917  23.725   4.875  1.00  0.00    -0.222 N 
ATOM      8  H3  UNL     1      -6.476  24.632   4.721  1.00  0.00     0.178 HD
ENDROOT
BRANCH   5   9
HETATM    9  C2  UNL     1      -8.818  25.014   7.398  1.00  0.00     0.056 A 
HETATM   10  C3  UNL     1      -8.075  24.274   8.246  1.00  0.00     0.037 A 
HETATM   11  C4  UNL     1      -8.205  24.527   9.580  1.00  0.00     0.052 A 
HETATM   12  S1  UNL     1      -9.349  25.781   9.628  1.00  0.00    -0.111 SA
HETATM   13  C5  UNL     1      -9.639  25.959   7.959  1.00  0.00     0.079 A 
ENDBRANCH   5   9
BRANCH   7  14
HETATM   14  C6  UNL     1      -6.138  22.545   4.603  1.00  0.00     0.099 C 
HETATM   15  C7  UNL     1      -5.613  21.873   5.839  1.00  0.00     0.026 C 
HETATM   16  C8  UNL     1      -4.824  20.647   5.359  1.00  0.00     0.002 C 
HETATM   17  C9  UNL     1      -3.592  21.203   4.666  1.00  0.00     0.000 C 
HETATM   18  C10 UNL     1      -4.047  21.851   3.391  1.00  0.00     0.002 C 
HETATM   19  C11 UNL     1      -5.110  22.876   3.587  1.00  0.00     0.026 C 
ENDBRANCH   7  14
TORSDOF 2
ENDMDL
MODEL 4
REMARK VINA RESULT: -5.879469151      1.689      2.237
REMARK  2 active torsions:
REMARK  status: ('A' for Active; 'I' for Inactive)
REMARK       I    between atoms: C1_4  and  N2_5 
REMARK       I    between atoms: C1_4  and  N3_12 
REMARK    1  A    between atoms: N2_5  and  C2_7 
REMARK    2  A    between atoms: N3_12  and  C6_14 
ROOT
HETATM    1  N1  UNL     1      -8.104  26.685   5.935  1.00  0.00    -0.235 N 
ATOM      2  H11 UNL     1      -8.605  27.249   6.622  1.00  0.00     0.174 HD
ATOM      3  H12 UNL     1      -7.145  26.925   5.682  1.00  0.00     0.174 HD
HETATM    4  C1  UNL     1      -8.667  25.686   5.395  1.00  0.00     0.672 C 
HETATM    5  N2  UNL     1      -7.976  24.908   4.449  1.00  0.00    -0.192 N 
ATOM      6  H2  UNL     1      -8.116  25.098   3.457  1.00  0.00     0.184 HD
HETATM    7  N3  UNL     1      -9.991  25.354   5.744  1.00  0.00    -0.222 N 
ATOM      8  H3  UNL     1     -10.517  24.760   5.103  1.00  0.00     0.178 HD
ENDROOT
BRANCH   5   9
HETATM    9  C2  UNL     1      -7.069  23.842   4.838  1.00  0.00     0.056 A 
HETATM   10  C3  UNL     1      -7.459  22.739   5.509  1.00  0.00     0.037 A 
HETATM   11  C4  UNL     1      -6.501  21.817   5.812  1.00  0.00     0.052 A 
HETATM   12  S1  UNL     1      -5.088  22.497   5.162  1.00  0.00    -0.111 SA
HETATM   13  C5  UNL     1      -5.738  23.935   4.520  1.00  0.00     0.079 A 
ENDBRANCH   5   9
BRANCH   7  14
HETATM   14  C6  UNL     1     -10.651  25.796   6.945  1.00  0.00     0.099 C 
HETATM   15  C7  UNL     1     -10.745  24.738   8.006  1.00  0.00     0.026 C 
HETATM   16  C8  UNL     1     -11.463  25.386   9.197  1.00  0.00     0.002 C 
HETATM   17  C9  UNL     1     -12.895  25.603   8.738  1.00  0.00     0.000 C 
HETATM   18  C10 UNL     1     -12.876  26.691   7.704  1.00  0.00     0.002 C 
HETATM   19  C11 UNL     1     -11.943  26.425   6.574  1.00  0.00     0.026 C 
ENDBRANCH   7  14
TORSDOF 2
ENDMDL
MODEL 5
REMARK VINA RESULT: -5.861193577      3.329      7.452
REMARK  2 active torsions:
REMARK  status: ('A' for Active; 'I' for Inactive)
REMARK       I    between atoms: C1_4  and  N2_5 
REMARK       I    between atoms: C1_4  and  N3_12 
REMARK    1  A    between atoms: N2_5  and  C2_7 
REMARK    2  A    between atoms: N3_12  and  C6_14 
ROOT
HETATM    1  N1  UNL     1      -7.287  24.428   4.187  1.00  0.00    -0.235 N 
ATOM      2  H11 UNL     1      -6.834  23.844   3.484  1.00  0.00     0.174 HD
ATOM      3  H12 UNL     1      -7.974  25.127   3.903  1.00  0.00     0.174 HD
HETATM    4  C1  UNL     1      -7.000  24.289   5.414  1.00  0.00     0.672 C 
HETATM    5  N2  UNL     1      -7.625  25.093   6.385  1.00  0.00    -0.192 N 
ATOM      6  H2  UNL     1      -7.145  25.930   6.714  1.00  0.00     0.184 HD
HETATM    7  N3  UNL     1      -6.052  23.323   5.808  1.00  0.00    -0.222 N 
ATOM      8  H3  UNL     1      -5.620  23.428   6.726  1.00  0.00     0.178 HD
ENDROOT
BRANCH   5   9
HETATM    9  C2  UNL     1      -8.930  24.771   6.933  1.00  0.00     0.056 A 
HETATM   10  C3  UNL     1      -9.402  23.512   7.044  1.00  0.00     0.037 A 
HETATM   11  C4  UNL     1     -10.647  23.353   7.578  1.00  0.00     0.052 A 
HETATM   12  S1  UNL     1     -11.133  24.945   7.912  1.00  0.00    -0.111 SA
HETATM   13  C5  UNL     1      -9.750  25.780   7.370  1.00  0.00     0.079 A 
ENDBRANCH   5   9
BRANCH   7  14
HETATM   14  C6  UNL     1      -5.652  22.200   5.001  1.00  0.00     0.099 C 
HETATM   15  C7  UNL     1      -6.398  20.935   5.316  1.00  0.00     0.026 C 
HETATM   16  C8  UNL     1      -5.849  19.864   4.365  1.00  0.00     0.002 C 
HETATM   17  C9  UNL     1      -4.426  19.601   4.829  1.00  0.00     0.000 C 
HETATM   18  C10 UNL     1      -3.612  20.818   4.496  1.00  0.00     0.002 C 
HETATM   19  C11 UNL     1      -4.174  22.082   5.048  1.00  0.00     0.026 C 
ENDBRANCH   7  14
TORSDOF 2
ENDMDL
