MODEL 1
REMARK VINA RESULT: -6.642309101      0.000      0.000
REMARK  3 active torsions:
REMARK  status: ('A' for Active; 'I' for Inactive)
REMARK    1  A    between atoms: O1_1  and  N1_3 
REMARK       I    between atoms: C1_5  and  N2_6 
REMARK       I    between atoms: C1_5  and  N3_13 
REMARK    2  A    between atoms: N2_6  and  C2_8 
REMARK    3  A    between atoms: N3_13  and  C6_15 
ROOT
HETATM    1  N1  UNL     1      -7.846  26.898   5.642  1.00  0.00    -0.099 N 
ATOM      2  H1  UNL     1      -7.745  27.547   6.423  1.00  0.00     0.213 HD
HETATM    3  C1  UNL     1      -8.217  25.675   5.894  1.00  0.00     0.699 C 
HETATM    4  N2  UNL     1      -8.350  24.801   4.797  1.00  0.00    -0.184 N 
ATOM      5  H2  UNL     1      -9.265  24.578   4.406  1.00  0.00     0.185 HD
HETATM    6  N3  UNL     1      -8.461  25.307   7.242  1.00  0.00    -0.220 N 
ATOM      7  H3  UNL     1      -7.801  24.718   7.751  1.00  0.00     0.178 HD
ENDROOT
BRANCH   1   8
HETATM    8  O1  UNL     1      -7.589  27.348   4.387  1.00  0.00    -0.276 OA
ATOM      9  H1  UNL     1      -7.125  28.159   4.214  1.00  0.00     0.245 HD
ENDBRANCH   1   8
BRANCH   4  10
HETATM   10  C2  UNL     1      -7.139  24.230   4.246  1.00  0.00     0.090 A 
HETATM   11  C3  UNL     1      -6.448  24.618   3.131  1.00  0.00     0.038 A 
HETATM   12  C4  UNL     1      -5.340  23.925   2.820  1.00  0.00     0.010 A 
HETATM   13  C5  UNL     1      -4.997  22.888   3.646  1.00  0.00     0.052 A 
HETATM   14  S1  UNL     1      -6.224  22.912   4.826  1.00  0.00    -0.084 SA
ENDBRANCH   4  10
BRANCH   6  15
HETATM   15  C6  UNL     1      -9.657  25.781   7.869  1.00  0.00     0.099 C 
HETATM   16  C7  UNL     1     -10.876  24.966   7.517  1.00  0.00     0.026 C 
HETATM   17  C8  UNL     1     -11.872  25.352   8.581  1.00  0.00     0.002 C 
HETATM   18  C9  UNL     1     -11.080  25.976   9.708  1.00  0.00     0.002 C 
HETATM   19  C10 UNL     1      -9.623  25.621   9.386  1.00  0.00     0.026 C 
ENDBRANCH   6  15
TORSDOF 3
ENDMDL
MODEL 2
REMARK VINA RESULT: -6.508590935      2.304      5.959
REMARK  3 active torsions:
REMARK  status: ('A' for Active; 'I' for Inactive)
REMARK    1  A    between atoms: O1_1  and  N1_3 
REMARK       I    between atoms: C1_5  and  N2_6 
REMARK       I    between atoms: C1_5  and  N3_13 
REMARK    2  A    between atoms: N2_6  and  C2_8 
REMARK    3  A    between atoms: N3_13  and  C6_15 
ROOT
HETATM    1  N1  UNL     1      -7.743  25.879   5.224  1.00  0.00    -0.099 N 
ATOM      2  H1  UNL     1      -7.505  25.596   4.273  1.00  0.00     0.213 HD
HETATM    3  C1  UNL     1      -8.078  24.957   6.082  1.00  0.00     0.699 C 
HETATM    4  N2  UNL     1      -8.401  25.375   7.388  1.00  0.00    -0.184 N 
ATOM      5  H2  UNL     1      -7.733  25.286   8.153  1.00  0.00     0.185 HD
HETATM    6  N3  UNL     1      -8.094  23.606   5.649  1.00  0.00    -0.220 N 
ATOM      7  H3  UNL     1      -8.976  23.120   5.485  1.00  0.00     0.178 HD
ENDROOT
BRANCH   1   8
HETATM    8  O1  UNL     1      -7.697  27.199   5.540  1.00  0.00    -0.276 OA
ATOM      9  H1  UNL     1      -6.920  27.732   5.420  1.00  0.00     0.245 HD
ENDBRANCH   1   8
BRANCH   4  10
HETATM   10  C2  UNL     1      -9.719  25.934   7.603  1.00  0.00     0.090 A 
HETATM   11  C3  UNL     1     -10.910  25.535   7.061  1.00  0.00     0.038 A 
HETATM   12  C4  UNL     1     -12.010  26.219   7.419  1.00  0.00     0.010 A 
HETATM   13  C5  UNL     1     -11.845  27.258   8.296  1.00  0.00     0.052 A 
HETATM   14  S1  UNL     1     -10.168  27.249   8.594  1.00  0.00    -0.084 SA
ENDBRANCH   4  10
BRANCH   6  15
HETATM   15  C6  UNL     1      -6.842  22.942   5.449  1.00  0.00     0.099 C 
HETATM   16  C7  UNL     1      -6.979  21.448   5.294  1.00  0.00     0.026 C 
HETATM   17  C8  UNL     1      -5.663  21.039   4.682  1.00  0.00     0.002 C 
HETATM   18  C9  UNL     1      -5.046  22.295   4.107  1.00  0.00     0.002 C 
HETATM   19  C10 UNL     1      -6.189  23.317   4.122  1.00  0.00     0.026 C 
ENDBRANCH   6  15
TORSDOF 3
ENDMDL
MODEL 3
REMARK VINA RESULT: -6.493321567      2.760      5.828
REMARK  3 active torsions:
REMARK  status: ('A' for Active; 'I' for Inactive)
REMARK    1  A    between atoms: O1_1  and  N1_3 
REMARK       I    between atoms: C1_5  and  N2_6 
REMARK       I    between atoms: C1_5  and  N3_13 
REMARK    2  A    between atoms: N2_6  and  C2_8 
REMARK    3  A    between atoms: N3_13  and  C6_15 
ROOT
HETATM    1  N1  UNL     1      -7.855  25.784   5.395  1.00  0.00    -0.099 N 
ATOM      2  H1  UNL     1      -7.620  25.425   4.470  1.00  0.00     0.213 HD
HETATM    3  C1  UNL     1      -8.262  24.944   6.305  1.00  0.00     0.699 C 
HETATM    4  N2  UNL     1      -8.580  25.469   7.574  1.00  0.00    -0.184 N 
ATOM      5  H2  UNL     1      -7.930  25.390   8.356  1.00  0.00     0.185 HD
HETATM    6  N3  UNL     1      -8.358  23.571   5.962  1.00  0.00    -0.220 N 
ATOM      7  H3  UNL     1      -9.266  23.132   5.812  1.00  0.00     0.178 HD
ENDROOT
BRANCH   1   8
HETATM    8  O1  UNL     1      -7.731  27.117   5.624  1.00  0.00    -0.276 OA
ATOM      9  H1  UNL     1      -7.587  27.749   4.930  1.00  0.00     0.245 HD
ENDBRANCH   1   8
BRANCH   4  10
HETATM   10  C2  UNL     1      -9.862  26.122   7.725  1.00  0.00     0.090 A 
HETATM   11  C3  UNL     1     -11.060  25.785   7.157  1.00  0.00     0.038 A 
HETATM   12  C4  UNL     1     -12.122  26.554   7.453  1.00  0.00     0.010 A 
HETATM   13  C5  UNL     1     -11.914  27.611   8.299  1.00  0.00     0.052 A 
HETATM   14  S1  UNL     1     -10.252  27.500   8.654  1.00  0.00    -0.084 SA
ENDBRANCH   4  10
BRANCH   6  15
HETATM   15  C6  UNL     1      -7.147  22.819   5.831  1.00  0.00     0.099 C 
HETATM   16  C7  UNL     1      -6.486  22.523   7.155  1.00  0.00     0.026 C 
HETATM   17  C8  UNL     1      -5.530  21.405   6.824  1.00  0.00     0.002 C 
HETATM   18  C9  UNL     1      -5.991  20.818   5.508  1.00  0.00     0.002 C 
HETATM   19  C10 UNL     1      -7.391  21.409   5.302  1.00  0.00     0.026 C 
ENDBRANCH   6  15
TORSDOF 3
ENDMDL
MODEL 4
REMARK VINA RESULT: -6.454373895      1.885      6.099
REMARK  3 active torsions:
REMARK  status: ('A' for Active; 'I' for Inactive)
REMARK    1  A    between atoms: O1_1  and  N1_3 
REMARK       I    between atoms: C1_5  and  N2_6 
REMARK       I    between atoms: C1_5  and  N3_13 
REMARK    2  A    between atoms: N2_6  and  C2_8 
REMARK    3  A    between atoms: N3_13  and  C6_15 
ROOT
HETATM    1  N1  UNL     1      -7.937  26.606   5.486  1.00  0.00    -0.099 N 
ATOM      2  H1  UNL     1      -7.840  26.806   4.490  1.00  0.00     0.213 HD
HETATM    3  C1  UNL     1      -7.922  25.363   5.876  1.00  0.00     0.699 C 
HETATM    4  N2  UNL     1      -8.058  25.116   7.256  1.00  0.00    -0.184 N 
ATOM      5  H2  UNL     1      -7.249  24.895   7.836  1.00  0.00     0.185 HD
HETATM    6  N3  UNL     1      -7.771  24.350   4.895  1.00  0.00    -0.220 N 
ATOM      7  H3  UNL     1      -8.562  23.768   4.617  1.00  0.00     0.178 HD
ENDROOT
BRANCH   1   8
HETATM    8  O1  UNL     1      -8.077  27.648   6.347  1.00  0.00    -0.276 OA
ATOM      9  H1  UNL     1      -8.842  28.210   6.357  1.00  0.00     0.245 HD
ENDBRANCH   1   8
BRANCH   4  10
HETATM   10  C2  UNL     1      -9.389  25.188   7.820  1.00  0.00     0.090 A 
HETATM   11  C3  UNL     1     -10.534  24.587   7.374  1.00  0.00     0.038 A 
HETATM   12  C4  UNL     1     -11.659  24.807   8.075  1.00  0.00     0.010 A 
HETATM   13  C5  UNL     1     -11.564  25.614   9.177  1.00  0.00     0.052 A 
HETATM   14  S1  UNL     1      -9.915  26.040   9.202  1.00  0.00    -0.084 SA
ENDBRANCH   4  10
BRANCH   6  15
HETATM   15  C6  UNL     1      -6.480  24.164   4.305  1.00  0.00     0.099 C 
HETATM   16  C7  UNL     1      -6.069  22.715   4.220  1.00  0.00     0.026 C 
HETATM   17  C8  UNL     1      -4.944  22.730   3.217  1.00  0.00     0.002 C 
HETATM   18  C9  UNL     1      -5.059  24.034   2.458  1.00  0.00     0.002 C 
HETATM   19  C10 UNL     1      -6.449  24.565   2.834  1.00  0.00     0.026 C 
ENDBRANCH   6  15
TORSDOF 3
ENDMDL
MODEL 5
REMARK VINA RESULT: -6.420012474      0.795      1.013
REMARK  3 active torsions:
REMARK  status: ('A' for Active; 'I' for Inactive)
REMARK    1  A    between atoms: O1_1  and  N1_3 
REMARK       I    between atoms: C1_5  and  N2_6 
REMARK       I    between atoms: C1_5  and  N3_13 
REMARK    2  A    between atoms: N2_6  and  C2_8 
REMARK    3  A    between atoms: N3_13  and  C6_15 
ROOT
HETATM    1  N1  UNL     1      -7.847  26.900   5.661  1.00  0.00    -0.099 N 
ATOM      2  H1  UNL     1      -7.737  27.554   6.437  1.00  0.00     0.213 HD
HETATM    3  C1  UNL     1      -8.223  25.681   5.924  1.00  0.00     0.699 C 
HETATM    4  N2  UNL     1      -8.368  24.800   4.835  1.00  0.00    -0.184 N 
ATOM      5  H2  UNL     1      -9.288  24.579   4.452  1.00  0.00     0.185 HD
HETATM    6  N3  UNL     1      -8.459  25.323   7.277  1.00  0.00    -0.220 N 
ATOM      7  H3  UNL     1      -7.798  24.735   7.785  1.00  0.00     0.178 HD
ENDROOT
BRANCH   1   8
HETATM    8  O1  UNL     1      -7.597  27.340   4.401  1.00  0.00    -0.276 OA
ATOM      9  H1  UNL     1      -8.257  27.755   3.858  1.00  0.00     0.245 HD
ENDBRANCH   1   8
BRANCH   4  10
HETATM   10  C2  UNL     1      -7.165  24.219   4.279  1.00  0.00     0.090 A 
HETATM   11  C3  UNL     1      -6.484  23.109   4.700  1.00  0.00     0.038 A 
HETATM   12  C4  UNL     1      -5.381  22.764   4.015  1.00  0.00     0.010 A 
HETATM   13  C5  UNL     1      -5.031  23.554   2.952  1.00  0.00     0.052 A 
HETATM   14  S1  UNL     1      -6.246  24.747   2.942  1.00  0.00    -0.084 SA
ENDBRANCH   4  10
BRANCH   6  15
HETATM   15  C6  UNL     1      -9.647  25.808   7.909  1.00  0.00     0.099 C 
HETATM   16  C7  UNL     1     -10.882  25.027   7.533  1.00  0.00     0.026 C 
HETATM   17  C8  UNL     1     -11.875  25.410   8.601  1.00  0.00     0.002 C 
HETATM   18  C9  UNL     1     -11.075  25.991   9.746  1.00  0.00     0.002 C 
HETATM   19  C10 UNL     1      -9.625  25.613   9.422  1.00  0.00     0.026 C 
ENDBRANCH   6  15
TORSDOF 3
ENDMDL
