MODEL 1
REMARK VINA RESULT: -6.424533648      0.000      0.000
REMARK  2 active torsions:
REMARK  status: ('A' for Active; 'I' for Inactive)
REMARK       I    between atoms: N1_2  and  C2_4 
REMARK    1  A    between atoms: C2_4  and  C3_6 
REMARK    2  A    between atoms: C3_6  and  C4_7 
ROOT
HETATM    1  C4  UNL     1      -7.130  22.604   6.170  1.00  0.00    -0.068 C 
HETATM    2  C5  UNL     1      -6.733  23.526   7.291  1.00  0.00     0.044 C 
HETATM    3  C6  UNL     1      -6.322  21.607   5.852  1.00  0.00    -0.040 C 
HETATM    4  C7  UNL     1      -6.625  20.670   4.764  1.00  0.00     0.010 C 
HETATM    5  C8  UNL     1      -6.052  19.481   4.652  1.00  0.00     0.025 C 
HETATM    6  C9  UNL     1      -5.079  19.127   5.676  1.00  0.00     0.008 C 
HETATM    7  N2  UNL     1      -4.962  17.923   6.119  1.00  0.00    -0.402 N 
ATOM      8  H21 UNL     1      -4.280  17.676   6.837  1.00  0.00     0.156 HD
ATOM      9  H22 UNL     1      -5.541  17.153   5.784  1.00  0.00     0.156 HD
HETATM   10  C10 UNL     1      -4.235  20.249   6.163  1.00  0.00     0.050 C 
HETATM   11  C11 UNL     1      -3.313  20.660   5.032  1.00  0.00     0.018 C 
HETATM   12  C12 UNL     1      -5.052  21.416   6.636  1.00  0.00     0.101 C 
HETATM   13  S1  UNL     1      -5.457  21.162   8.400  1.00  0.00    -0.086 SA
ENDROOT
BRANCH   1  14
HETATM   14  C3  UNL     1      -8.414  22.918   5.511  1.00  0.00     0.137 C 
BRANCH  14  15
HETATM   15  C2  UNL     1      -8.448  24.310   4.973  1.00  0.00     0.221 C 
HETATM   16  N1  UNL     1      -7.403  24.744   4.117  1.00  0.00    -0.365 N 
HETATM   17  C1  UNL     1      -7.363  26.080   3.552  1.00  0.00     0.149 C 
ATOM     18  H1  UNL     1      -6.653  24.092   3.890  1.00  0.00     0.161 HD
HETATM   19  O1  UNL     1      -9.353  25.133   5.233  1.00  0.00    -0.273 OA
ENDBRANCH  14  15
ENDBRANCH   1  14
TORSDOF 2
ENDMDL
MODEL 2
REMARK VINA RESULT: -6.205800659      3.037      5.613
REMARK  2 active torsions:
REMARK  status: ('A' for Active; 'I' for Inactive)
REMARK       I    between atoms: N1_2  and  C2_4 
REMARK    1  A    between atoms: C2_4  and  C3_6 
REMARK    2  A    between atoms: C3_6  and  C4_7 
ROOT
HETATM    1  C4  UNL     1      -5.301  21.287   4.193  1.00  0.00    -0.068 C 
HETATM    2  C5  UNL     1      -4.038  22.010   3.812  1.00  0.00     0.044 C 
HETATM    3  C6  UNL     1      -6.218  21.935   4.891  1.00  0.00    -0.040 C 
HETATM    4  C7  UNL     1      -7.473  21.302   5.315  1.00  0.00     0.010 C 
HETATM    5  C8  UNL     1      -8.543  21.991   5.683  1.00  0.00     0.025 C 
HETATM    6  C9  UNL     1      -8.427  23.442   5.651  1.00  0.00     0.008 C 
HETATM    7  N2  UNL     1      -9.411  24.198   5.308  1.00  0.00    -0.402 N 
ATOM      8  H21 UNL     1      -9.330  25.215   5.285  1.00  0.00     0.156 HD
ATOM      9  H22 UNL     1     -10.323  23.828   5.036  1.00  0.00     0.156 HD
HETATM   10  C10 UNL     1      -7.099  23.981   6.047  1.00  0.00     0.050 C 
HETATM   11  C11 UNL     1      -6.917  23.718   7.528  1.00  0.00     0.018 C 
HETATM   12  C12 UNL     1      -5.977  23.375   5.255  1.00  0.00     0.101 C 
HETATM   13  S1  UNL     1      -5.747  24.358   3.732  1.00  0.00    -0.086 SA
ENDROOT
BRANCH   1  14
HETATM   14  C3  UNL     1      -5.392  19.882   3.747  1.00  0.00     0.137 C 
BRANCH  14  15
HETATM   15  C2  UNL     1      -4.712  18.944   4.689  1.00  0.00     0.221 C 
HETATM   16  N1  UNL     1      -5.446  18.409   5.778  1.00  0.00    -0.365 N 
HETATM   17  C1  UNL     1      -4.859  17.491   6.738  1.00  0.00     0.149 C 
ATOM     18  H1  UNL     1      -6.423  18.678   5.891  1.00  0.00     0.161 HD
HETATM   19  O1  UNL     1      -3.516  18.595   4.578  1.00  0.00    -0.273 OA
ENDBRANCH  14  15
ENDBRANCH   1  14
TORSDOF 2
ENDMDL
MODEL 3
REMARK VINA RESULT: -6.115973056      2.338      5.551
REMARK  2 active torsions:
REMARK  status: ('A' for Active; 'I' for Inactive)
REMARK       I    between atoms: N1_2  and  C2_4 
REMARK    1  A    between atoms: C2_4  and  C3_6 
REMARK    2  A    between atoms: C3_6  and  C4_7 
ROOT
HETATM    1  C4  UNL     1      -5.443  21.817   6.264  1.00  0.00    -0.068 C 
HETATM    2  C5  UNL     1      -5.496  21.082   7.575  1.00  0.00     0.044 C 
HETATM    3  C6  UNL     1      -6.411  22.670   5.974  1.00  0.00    -0.040 C 
HETATM    4  C7  UNL     1      -6.444  23.418   4.712  1.00  0.00     0.010 C 
HETATM    5  C8  UNL     1      -7.166  24.516   4.540  1.00  0.00     0.025 C 
HETATM    6  C9  UNL     1      -7.949  24.966   5.682  1.00  0.00     0.008 C 
HETATM    7  N2  UNL     1      -8.118  26.216   5.944  1.00  0.00    -0.402 N 
ATOM      8  H21 UNL     1      -8.667  26.531   6.744  1.00  0.00     0.156 HD
ATOM      9  H22 UNL     1      -7.713  26.959   5.374  1.00  0.00     0.156 HD
HETATM   10  C10 UNL     1      -8.540  23.884   6.512  1.00  0.00     0.050 C 
HETATM   11  C11 UNL     1      -9.613  23.202   5.688  1.00  0.00     0.018 C 
HETATM   12  C12 UNL     1      -7.512  22.893   6.975  1.00  0.00     0.101 C 
HETATM   13  S1  UNL     1      -6.796  23.493   8.546  1.00  0.00    -0.086 SA
ENDROOT
BRANCH   1  14
HETATM   14  C3  UNL     1      -4.289  21.497   5.399  1.00  0.00     0.137 C 
BRANCH  14  15
HETATM   15  C2  UNL     1      -4.417  20.155   4.759  1.00  0.00     0.221 C 
HETATM   16  N1  UNL     1      -3.791  19.037   5.368  1.00  0.00    -0.365 N 
HETATM   17  C1  UNL     1      -3.868  17.700   4.810  1.00  0.00     0.149 C 
ATOM     18  H1  UNL     1      -3.266  19.179   6.231  1.00  0.00     0.161 HD
HETATM   19  O1  UNL     1      -5.053  19.948   3.701  1.00  0.00    -0.273 OA
ENDBRANCH  14  15
ENDBRANCH   1  14
TORSDOF 2
ENDMDL
MODEL 4
REMARK VINA RESULT: -6.101782506      1.762      2.076
REMARK  2 active torsions:
REMARK  status: ('A' for Active; 'I' for Inactive)
REMARK       I    between atoms: N1_2  and  C2_4 
REMARK    1  A    between atoms: C2_4  and  C3_6 
REMARK    2  A    between atoms: C3_6  and  C4_7 
ROOT
HETATM    1  C4  UNL     1      -7.427  22.866   5.808  1.00  0.00    -0.068 C 
HETATM    2  C5  UNL     1      -7.058  24.176   6.449  1.00  0.00     0.044 C 
HETATM    3  C6  UNL     1      -6.469  21.992   5.551  1.00  0.00    -0.040 C 
HETATM    4  C7  UNL     1      -6.739  20.697   4.916  1.00  0.00     0.010 C 
HETATM    5  C8  UNL     1      -5.899  19.674   4.972  1.00  0.00     0.025 C 
HETATM    6  C9  UNL     1      -4.660  19.887   5.707  1.00  0.00     0.008 C 
HETATM    7  N2  UNL     1      -4.116  18.957   6.412  1.00  0.00    -0.402 N 
ATOM      8  H21 UNL     1      -3.248  19.107   6.927  1.00  0.00     0.156 HD
ATOM      9  H22 UNL     1      -4.519  18.024   6.500  1.00  0.00     0.156 HD
HETATM   10  C10 UNL     1      -4.073  21.247   5.579  1.00  0.00     0.050 C 
HETATM   11  C11 UNL     1      -3.584  21.406   4.153  1.00  0.00     0.018 C 
HETATM   12  C12 UNL     1      -5.052  22.329   5.931  1.00  0.00     0.101 C 
HETATM   13  S1  UNL     1      -4.959  22.629   7.731  1.00  0.00    -0.086 SA
ENDROOT
BRANCH   1  14
HETATM   14  C3  UNL     1      -8.863  22.684   5.511  1.00  0.00     0.137 C 
BRANCH  14  15
HETATM   15  C2  UNL     1      -9.693  23.815   6.019  1.00  0.00     0.221 C 
HETATM   16  N1  UNL     1     -10.277  23.718   7.308  1.00  0.00    -0.365 N 
HETATM   17  C1  UNL     1     -11.096  24.774   7.875  1.00  0.00     0.149 C 
ATOM     18  H1  UNL     1     -10.116  22.874   7.857  1.00  0.00     0.161 HD
HETATM   19  O1  UNL     1      -9.910  24.863   5.370  1.00  0.00    -0.273 OA
ENDBRANCH  14  15
ENDBRANCH   1  14
TORSDOF 2
ENDMDL
MODEL 5
REMARK VINA RESULT: -6.033683401      2.807      5.514
REMARK  2 active torsions:
REMARK  status: ('A' for Active; 'I' for Inactive)
REMARK       I    between atoms: N1_2  and  C2_4 
REMARK    1  A    between atoms: C2_4  and  C3_6 
REMARK    2  A    between atoms: C3_6  and  C4_7 
ROOT
HETATM    1  C4  UNL     1      -5.721  22.812   6.696  1.00  0.00    -0.068 C 
HETATM    2  C5  UNL     1      -5.445  21.858   7.826  1.00  0.00     0.044 C 
HETATM    3  C6  UNL     1      -6.876  23.455   6.676  1.00  0.00    -0.040 C 
HETATM    4  C7  UNL     1      -7.232  24.393   5.605  1.00  0.00     0.010 C 
HETATM    5  C8  UNL     1      -8.184  25.305   5.729  1.00  0.00     0.025 C 
HETATM    6  C9  UNL     1      -8.888  25.345   7.004  1.00  0.00     0.008 C 
HETATM    7  N2  UNL     1      -9.279  26.452   7.533  1.00  0.00    -0.402 N 
ATOM      8  H21 UNL     1      -9.772  26.479   8.426  1.00  0.00     0.156 HD
ATOM      9  H22 UNL     1      -9.118  27.360   7.097  1.00  0.00     0.156 HD
HETATM   10  C10 UNL     1      -9.123  24.022   7.639  1.00  0.00     0.050 C 
HETATM   11  C11 UNL     1     -10.128  23.272   6.788  1.00  0.00     0.018 C 
HETATM   12  C12 UNL     1      -7.858  23.229   7.794  1.00  0.00     0.101 C 
HETATM   13  S1  UNL     1      -7.083  23.681   9.386  1.00  0.00    -0.086 SA
ENDROOT
BRANCH   1  14
HETATM   14  C3  UNL     1      -4.649  22.933   5.687  1.00  0.00     0.137 C 
BRANCH  14  15
HETATM   15  C2  UNL     1      -4.411  21.651   4.959  1.00  0.00     0.221 C 
HETATM   16  N1  UNL     1      -5.514  20.968   4.386  1.00  0.00    -0.365 N 
HETATM   17  C1  UNL     1      -5.367  19.718   3.663  1.00  0.00     0.149 C 
ATOM     18  H1  UNL     1      -6.446  21.370   4.486  1.00  0.00     0.161 HD
HETATM   19  O1  UNL     1      -3.281  21.132   4.820  1.00  0.00    -0.273 OA
ENDBRANCH  14  15
ENDBRANCH   1  14
TORSDOF 2
ENDMDL
