MODEL 1
REMARK VINA RESULT: -6.527033942      0.000      0.000
REMARK  5 active torsions:
REMARK  status: ('A' for Active; 'I' for Inactive)
REMARK    1  A    between atoms: C2_2  and  C3_3 
REMARK    2  A    between atoms: C2_2  and  C4_10 
REMARK    3  A    between atoms: C3_3  and  O1_4 
REMARK    4  A    between atoms: N1_6  and  O2_8 
REMARK    5  A    between atoms: N2_14  and  O3_16 
ROOT
HETATM    1  C4  UNL     1      -6.644  22.534   4.860  1.00  0.00     0.027 C 
HETATM    2  C5  UNL     1      -5.494  23.440   4.370  1.00  0.00     0.015 C 
HETATM    3  C6  UNL     1      -6.001  24.316   3.241  1.00  0.00     0.055 C 
HETATM    4  C7  UNL     1      -7.045  25.164   3.870  1.00  0.00     0.010 C 
HETATM    5  N2  UNL     1      -6.969  26.432   3.796  1.00  0.00    -0.277 N 
ATOM      6  H2  UNL     1      -6.178  26.838   3.296  1.00  0.00     0.193 HD
HETATM    7  C8  UNL     1      -8.137  24.514   4.559  1.00  0.00     0.064 C 
HETATM    8  C9  UNL     1      -7.780  23.309   5.405  1.00  0.00    -0.035 C 
HETATM    9  C10 UNL     1      -9.021  22.433   5.384  1.00  0.00     0.016 C 
HETATM   10  C11 UNL     1      -7.645  23.788   6.810  1.00  0.00     0.016 C 
ENDROOT
BRANCH   1  11
HETATM   11  C2  UNL     1      -5.993  21.500   5.663  1.00  0.00    -0.026 C 
HETATM   12  C1  UNL     1      -6.319  20.066   5.299  1.00  0.00     0.048 C 
BRANCH  11  13
HETATM   13  C3  UNL     1      -4.574  21.636   5.978  1.00  0.00     0.162 C 
HETATM   14  N1  UNL     1      -4.191  22.002   7.138  1.00  0.00    -0.247 N 
ATOM     15  H1  UNL     1      -3.191  22.083   7.317  1.00  0.00     0.196 HD
BRANCH  13  16
HETATM   16  O1  UNL     1      -3.617  21.372   5.029  1.00  0.00    -0.345 OA
ATOM     17  H1  UNL     1      -2.830  20.892   5.255  1.00  0.00     0.219 HD
ENDBRANCH  13  16
BRANCH  14  18
HETATM   18  O2  UNL     1      -5.074  22.293   8.166  1.00  0.00    -0.288 OA
ATOM     19  H2  UNL     1      -4.846  22.203   9.084  1.00  0.00     0.244 HD
ENDBRANCH  14  18
ENDBRANCH  11  13
ENDBRANCH   1  11
BRANCH   5  20
HETATM   20  O3  UNL     1      -7.884  27.278   4.346  1.00  0.00    -0.290 OA
ATOM     21  H3  UNL     1      -8.099  28.131   3.984  1.00  0.00     0.244 HD
ENDBRANCH   5  20
TORSDOF 5
ENDMDL
MODEL 2
REMARK VINA RESULT: -6.379778504      1.641      2.195
REMARK  5 active torsions:
REMARK  status: ('A' for Active; 'I' for Inactive)
REMARK    1  A    between atoms: C2_2  and  C3_3 
REMARK    2  A    between atoms: C2_2  and  C4_10 
REMARK    3  A    between atoms: C3_3  and  O1_4 
REMARK    4  A    between atoms: N1_6  and  O2_8 
REMARK    5  A    between atoms: N2_14  and  O3_16 
ROOT
HETATM    1  C4  UNL     1      -6.165  22.583   4.298  1.00  0.00     0.027 C 
HETATM    2  C5  UNL     1      -5.285  23.651   3.616  1.00  0.00     0.015 C 
HETATM    3  C6  UNL     1      -6.171  24.593   2.823  1.00  0.00     0.055 C 
HETATM    4  C7  UNL     1      -7.019  25.253   3.848  1.00  0.00     0.010 C 
HETATM    5  N2  UNL     1      -7.049  26.522   3.931  1.00  0.00    -0.277 N 
ATOM      6  H2  UNL     1      -6.480  27.060   3.278  1.00  0.00     0.193 HD
HETATM    7  C8  UNL     1      -7.799  24.421   4.737  1.00  0.00     0.064 C 
HETATM    8  C9  UNL     1      -7.122  23.172   5.261  1.00  0.00    -0.035 C 
HETATM    9  C10 UNL     1      -8.250  22.182   5.493  1.00  0.00     0.016 C 
HETATM   10  C11 UNL     1      -6.587  23.501   6.613  1.00  0.00     0.016 C 
ENDROOT
BRANCH   1  11
HETATM   11  C2  UNL     1      -5.234  21.538   4.717  1.00  0.00    -0.026 C 
HETATM   12  C1  UNL     1      -3.942  22.010   5.354  1.00  0.00     0.048 C 
BRANCH  11  13
HETATM   13  C3  UNL     1      -5.751  20.369   5.422  1.00  0.00     0.162 C 
HETATM   14  N1  UNL     1      -6.129  19.332   4.783  1.00  0.00    -0.247 N 
ATOM     15  H1  UNL     1      -6.483  18.536   5.312  1.00  0.00     0.196 HD
BRANCH  13  16
HETATM   16  O1  UNL     1      -5.844  20.359   6.791  1.00  0.00    -0.345 OA
ATOM     17  H1  UNL     1      -6.457  19.783   7.232  1.00  0.00     0.219 HD
ENDBRANCH  13  16
BRANCH  14  18
HETATM   18  O2  UNL     1      -6.078  19.238   3.400  1.00  0.00    -0.288 OA
ATOM     19  H2  UNL     1      -5.541  19.809   2.863  1.00  0.00     0.244 HD
ENDBRANCH  14  18
ENDBRANCH  11  13
ENDBRANCH   1  11
BRANCH   5  20
HETATM   20  O3  UNL     1      -7.799  27.204   4.842  1.00  0.00    -0.290 OA
ATOM     21  H3  UNL     1      -8.140  28.079   4.696  1.00  0.00     0.244 HD
ENDBRANCH   5  20
TORSDOF 5
ENDMDL
MODEL 3
REMARK VINA RESULT: -6.327279806      1.948      4.994
REMARK  5 active torsions:
REMARK  status: ('A' for Active; 'I' for Inactive)
REMARK    1  A    between atoms: C2_2  and  C3_3 
REMARK    2  A    between atoms: C2_2  and  C4_10 
REMARK    3  A    between atoms: C3_3  and  O1_4 
REMARK    4  A    between atoms: N1_6  and  O2_8 
REMARK    5  A    between atoms: N2_14  and  O3_16 
ROOT
HETATM    1  C4  UNL     1      -7.453  24.058   5.245  1.00  0.00     0.027 C 
HETATM    2  C5  UNL     1      -6.668  23.836   3.935  1.00  0.00     0.015 C 
HETATM    3  C6  UNL     1      -5.401  23.060   4.241  1.00  0.00     0.055 C 
HETATM    4  C7  UNL     1      -5.883  21.747   4.740  1.00  0.00     0.010 C 
HETATM    5  N2  UNL     1      -5.495  20.671   4.184  1.00  0.00    -0.277 N 
ATOM      6  H2  UNL     1      -4.851  20.742   3.396  1.00  0.00     0.193 HD
HETATM    7  C8  UNL     1      -6.794  21.729   5.862  1.00  0.00     0.064 C 
HETATM    8  C9  UNL     1      -7.879  22.786   5.870  1.00  0.00    -0.035 C 
HETATM    9  C10 UNL     1      -8.170  23.039   7.339  1.00  0.00     0.016 C 
HETATM   10  C11 UNL     1      -9.108  22.152   5.316  1.00  0.00     0.016 C 
ENDROOT
BRANCH   1  11
HETATM   11  C2  UNL     1      -8.432  25.096   4.927  1.00  0.00    -0.026 C 
HETATM   12  C1  UNL     1      -9.747  25.027   5.678  1.00  0.00     0.048 C 
BRANCH  11  13
HETATM   13  C3  UNL     1      -7.984  26.480   4.810  1.00  0.00     0.162 C 
HETATM   14  N1  UNL     1      -7.823  27.023   3.667  1.00  0.00    -0.247 N 
ATOM     15  H1  UNL     1      -7.509  27.992   3.628  1.00  0.00     0.196 HD
BRANCH  13  16
HETATM   16  O1  UNL     1      -7.725  27.231   5.929  1.00  0.00    -0.345 OA
ATOM     17  H1  UNL     1      -7.641  28.175   5.872  1.00  0.00     0.219 HD
ENDBRANCH  13  16
BRANCH  14  18
HETATM   18  O2  UNL     1      -8.055  26.354   2.475  1.00  0.00    -0.288 OA
ATOM     19  H2  UNL     1      -7.427  26.334   1.762  1.00  0.00     0.244 HD
ENDBRANCH  14  18
ENDBRANCH  11  13
ENDBRANCH   1  11
BRANCH   5  20
HETATM   20  O3  UNL     1      -5.890  19.428   4.580  1.00  0.00    -0.290 OA
ATOM     21  H3  UNL     1      -5.534  18.977   5.337  1.00  0.00     0.244 HD
ENDBRANCH   5  20
TORSDOF 5
ENDMDL
MODEL 4
REMARK VINA RESULT: -6.303570939      1.907      2.219
REMARK  5 active torsions:
REMARK  status: ('A' for Active; 'I' for Inactive)
REMARK    1  A    between atoms: C2_2  and  C3_3 
REMARK    2  A    between atoms: C2_2  and  C4_10 
REMARK    3  A    between atoms: C3_3  and  O1_4 
REMARK    4  A    between atoms: N1_6  and  O2_8 
REMARK    5  A    between atoms: N2_14  and  O3_16 
ROOT
HETATM    1  C4  UNL     1      -6.695  23.182   4.470  1.00  0.00     0.027 C 
HETATM    2  C5  UNL     1      -6.024  24.555   4.255  1.00  0.00     0.015 C 
HETATM    3  C6  UNL     1      -7.093  25.588   3.955  1.00  0.00     0.055 C 
HETATM    4  C7  UNL     1      -7.912  25.642   5.192  1.00  0.00     0.010 C 
HETATM    5  N2  UNL     1      -8.092  26.750   5.791  1.00  0.00    -0.277 N 
ATOM      6  H2  UNL     1      -7.659  27.586   5.397  1.00  0.00     0.193 HD
HETATM    7  C8  UNL     1      -8.493  24.415   5.688  1.00  0.00     0.064 C 
HETATM    8  C9  UNL     1      -7.619  23.180   5.625  1.00  0.00    -0.035 C 
HETATM    9  C10 UNL     1      -8.588  22.021   5.471  1.00  0.00     0.016 C 
HETATM   10  C11 UNL     1      -7.000  23.016   6.971  1.00  0.00     0.016 C 
ENDROOT
BRANCH   1  11
HETATM   11  C2  UNL     1      -5.605  22.212   4.386  1.00  0.00    -0.026 C 
HETATM   12  C1  UNL     1      -5.998  20.752   4.502  1.00  0.00     0.048 C 
BRANCH  11  13
HETATM   13  C3  UNL     1      -4.581  22.384   3.360  1.00  0.00     0.162 C 
HETATM   14  N1  UNL     1      -3.404  21.922   3.523  1.00  0.00    -0.247 N 
ATOM     15  H1  UNL     1      -2.718  22.062   2.782  1.00  0.00     0.196 HD
BRANCH  13  16
HETATM   16  O1  UNL     1      -4.863  23.048   2.192  1.00  0.00    -0.345 OA
ATOM     17  H1  UNL     1      -4.225  23.632   1.800  1.00  0.00     0.219 HD
ENDBRANCH  13  16
BRANCH  14  18
HETATM   18  O2  UNL     1      -3.015  21.237   4.664  1.00  0.00    -0.288 OA
ATOM     19  H2  UNL     1      -2.523  20.424   4.637  1.00  0.00     0.244 HD
ENDBRANCH  14  18
ENDBRANCH  11  13
ENDBRANCH   1  11
BRANCH   5  20
HETATM   20  O3  UNL     1      -8.828  26.885   6.930  1.00  0.00    -0.290 OA
ATOM     21  H3  UNL     1      -9.726  27.197   6.944  1.00  0.00     0.244 HD
ENDBRANCH   5  20
TORSDOF 5
ENDMDL
MODEL 5
REMARK VINA RESULT: -6.094995678      2.278      4.497
REMARK  5 active torsions:
REMARK  status: ('A' for Active; 'I' for Inactive)
REMARK    1  A    between atoms: C2_2  and  C3_3 
REMARK    2  A    between atoms: C2_2  and  C4_10 
REMARK    3  A    between atoms: C3_3  and  O1_4 
REMARK    4  A    between atoms: N1_6  and  O2_8 
REMARK    5  A    between atoms: N2_14  and  O3_16 
ROOT
HETATM    1  C4  UNL     1      -7.359  24.336   5.389  1.00  0.00     0.027 C 
HETATM    2  C5  UNL     1      -7.266  24.576   3.868  1.00  0.00     0.015 C 
HETATM    3  C6  UNL     1      -5.815  24.803   3.489  1.00  0.00     0.055 C 
HETATM    4  C7  UNL     1      -5.143  23.520   3.814  1.00  0.00     0.010 C 
HETATM    5  N2  UNL     1      -4.482  22.900   2.921  1.00  0.00    -0.277 N 
ATOM      6  H2  UNL     1      -4.432  23.312   1.988  1.00  0.00     0.193 HD
HETATM    7  C8  UNL     1      -5.260  23.002   5.159  1.00  0.00     0.064 C 
HETATM    8  C9  UNL     1      -6.619  23.128   5.816  1.00  0.00    -0.035 C 
HETATM    9  C10 UNL     1      -6.328  23.235   7.302  1.00  0.00     0.016 C 
HETATM   10  C11 UNL     1      -7.314  21.822   5.632  1.00  0.00     0.016 C 
ENDROOT
BRANCH   1  11
HETATM   11  C2  UNL     1      -8.777  24.493   5.710  1.00  0.00    -0.026 C 
HETATM   12  C1  UNL     1      -9.622  23.236   5.639  1.00  0.00     0.048 C 
BRANCH  11  13
HETATM   13  C3  UNL     1      -9.156  25.297   6.867  1.00  0.00     0.162 C 
HETATM   14  N1  UNL     1      -8.787  26.513   6.970  1.00  0.00    -0.247 N 
ATOM     15  H1  UNL     1      -9.074  27.041   7.793  1.00  0.00     0.196 HD
BRANCH  13  16
HETATM   16  O1  UNL     1      -9.921  24.762   7.873  1.00  0.00    -0.345 OA
ATOM     17  H1  UNL     1     -10.660  25.241   8.228  1.00  0.00     0.219 HD
ENDBRANCH  13  16
BRANCH  14  18
HETATM   18  O2  UNL     1      -8.013  27.150   6.012  1.00  0.00    -0.288 OA
ATOM     19  H2  UNL     1      -7.157  27.518   6.200  1.00  0.00     0.244 HD
ENDBRANCH  14  18
ENDBRANCH  11  13
ENDBRANCH   1  11
BRANCH   5  20
HETATM   20  O3  UNL     1      -3.838  21.719   3.137  1.00  0.00    -0.290 OA
ATOM     21  H3  UNL     1      -3.192  21.354   2.543  1.00  0.00     0.244 HD
ENDBRANCH   5  20
TORSDOF 5
ENDMDL
