MODEL 1
REMARK VINA RESULT: -5.746189764      0.000      0.000
REMARK  3 active torsions:
REMARK  status: ('A' for Active; 'I' for Inactive)
REMARK    1  A    between atoms: C2_2  and  C5_5 
REMARK    2  A    between atoms: C5_5  and  N1_6 
REMARK    3  A    between atoms: N1_6  and  C6_8 
ROOT
HETATM    1  C6  UNL     1      -7.073  24.484   5.610  1.00  0.00     0.082 A 
HETATM    2  C7  UNL     1      -7.324  23.854   6.788  1.00  0.00     0.122 A 
HETATM    3  N2  UNL     1      -8.362  24.259   7.560  1.00  0.00    -0.341 N 
ATOM      4  H2  UNL     1      -8.566  23.798   8.447  1.00  0.00     0.167 HD
HETATM    5  C8  UNL     1      -9.114  25.285   7.123  1.00  0.00     0.176 A 
HETATM    6  S1  UNL     1     -10.362  25.765   8.061  1.00  0.00    -0.041 SA
HETATM    7  N3  UNL     1      -8.883  25.920   5.962  1.00  0.00    -0.322 N 
ATOM      8  H3  UNL     1      -9.485  26.693   5.678  1.00  0.00     0.169 HD
HETATM    9  C9  UNL     1      -7.862  25.543   5.175  1.00  0.00     0.130 A 
HETATM   10  S2  UNL     1      -7.559  26.299   3.760  1.00  0.00    -0.058 SA
ENDROOT
BRANCH   1  11
HETATM   11  N1  UNL     1      -5.990  24.061   4.806  1.00  0.00    -0.386 N 
ATOM     12  H1  UNL     1      -5.855  24.464   3.878  1.00  0.00     0.159 HD
BRANCH  11  13
HETATM   13  C5  UNL     1      -5.088  23.069   5.293  1.00  0.00     0.128 C 
BRANCH  13  14
HETATM   14  C2  UNL     1      -4.791  22.054   4.194  1.00  0.00    -0.035 C 
HETATM   15  C1  UNL     1      -3.396  21.489   4.340  1.00  0.00     0.016 C 
HETATM   16  C3  UNL     1      -4.948  22.793   2.880  1.00  0.00     0.016 C 
HETATM   17  C4  UNL     1      -5.753  20.879   4.296  1.00  0.00     0.016 C 
ENDBRANCH  13  14
ENDBRANCH  11  13
ENDBRANCH   1  11
TORSDOF 3
ENDMDL
MODEL 2
REMARK VINA RESULT: -5.699942726      0.101      1.137
REMARK  3 active torsions:
REMARK  status: ('A' for Active; 'I' for Inactive)
REMARK    1  A    between atoms: C2_2  and  C5_5 
REMARK    2  A    between atoms: C5_5  and  N1_6 
REMARK    3  A    between atoms: N1_6  and  C6_8 
ROOT
HETATM    1  C6  UNL     1      -7.126  24.507   5.616  1.00  0.00     0.082 A 
HETATM    2  C7  UNL     1      -7.391  23.882   6.793  1.00  0.00     0.122 A 
HETATM    3  N2  UNL     1      -8.416  24.313   7.568  1.00  0.00    -0.341 N 
ATOM      4  H2  UNL     1      -8.632  23.855   8.455  1.00  0.00     0.167 HD
HETATM    5  C8  UNL     1      -9.141  25.359   7.135  1.00  0.00     0.176 A 
HETATM    6  S1  UNL     1     -10.374  25.870   8.076  1.00  0.00    -0.041 SA
HETATM    7  N3  UNL     1      -8.895  25.991   5.975  1.00  0.00    -0.322 N 
ATOM      8  H3  UNL     1      -9.477  26.780   5.694  1.00  0.00     0.169 HD
HETATM    9  C9  UNL     1      -7.886  25.589   5.185  1.00  0.00     0.130 A 
HETATM   10  S2  UNL     1      -7.566  26.339   3.772  1.00  0.00    -0.058 SA
ENDROOT
BRANCH   1  11
HETATM   11  N1  UNL     1      -6.056  24.057   4.809  1.00  0.00    -0.386 N 
ATOM     12  H1  UNL     1      -5.947  24.415   3.860  1.00  0.00     0.159 HD
BRANCH  11  13
HETATM   13  C5  UNL     1      -5.130  23.101   5.324  1.00  0.00     0.128 C 
BRANCH  13  14
HETATM   14  C2  UNL     1      -4.830  22.047   4.264  1.00  0.00    -0.035 C 
HETATM   15  C1  UNL     1      -4.869  22.648   2.877  1.00  0.00     0.016 C 
HETATM   16  C3  UNL     1      -5.886  20.971   4.424  1.00  0.00     0.016 C 
HETATM   17  C4  UNL     1      -3.428  21.492   4.462  1.00  0.00     0.016 C 
ENDBRANCH  13  14
ENDBRANCH  11  13
ENDBRANCH   1  11
TORSDOF 3
ENDMDL
MODEL 3
REMARK VINA RESULT: -5.681363730      0.725      1.313
REMARK  3 active torsions:
REMARK  status: ('A' for Active; 'I' for Inactive)
REMARK    1  A    between atoms: C2_2  and  C5_5 
REMARK    2  A    between atoms: C5_5  and  N1_6 
REMARK    3  A    between atoms: N1_6  and  C6_8 
ROOT
HETATM    1  C6  UNL     1      -7.365  24.239   5.681  1.00  0.00     0.082 A 
HETATM    2  C7  UNL     1      -7.715  23.729   6.891  1.00  0.00     0.122 A 
HETATM    3  N2  UNL     1      -8.539  24.432   7.706  1.00  0.00    -0.341 N 
ATOM      4  H2  UNL     1      -8.813  24.065   8.618  1.00  0.00     0.167 HD
HETATM    5  C8  UNL     1      -8.984  25.626   7.278  1.00  0.00     0.176 A 
HETATM    6  S1  UNL     1      -9.977  26.465   8.267  1.00  0.00    -0.041 SA
HETATM    7  N3  UNL     1      -8.651  26.149   6.086  1.00  0.00    -0.322 N 
ATOM      8  H3  UNL     1      -9.018  27.059   5.811  1.00  0.00     0.169 HD
HETATM    9  C9  UNL     1      -7.836  25.477   5.256  1.00  0.00     0.130 A 
HETATM   10  S2  UNL     1      -7.415  26.089   3.803  1.00  0.00    -0.058 SA
ENDROOT
BRANCH   1  11
HETATM   11  N1  UNL     1      -6.506  23.505   4.832  1.00  0.00    -0.386 N 
ATOM     12  H1  UNL     1      -5.987  23.982   4.095  1.00  0.00     0.159 HD
BRANCH  11  13
HETATM   13  C5  UNL     1      -6.366  22.096   5.009  1.00  0.00     0.128 C 
BRANCH  13  14
HETATM   14  C2  UNL     1      -5.127  21.602   4.269  1.00  0.00    -0.035 C 
HETATM   15  C1  UNL     1      -5.363  20.233   3.672  1.00  0.00     0.016 C 
HETATM   16  C3  UNL     1      -4.008  21.567   5.292  1.00  0.00     0.016 C 
HETATM   17  C4  UNL     1      -4.803  22.536   3.114  1.00  0.00     0.016 C 
ENDBRANCH  13  14
ENDBRANCH  11  13
ENDBRANCH   1  11
TORSDOF 3
ENDMDL
MODEL 4
REMARK VINA RESULT: -5.444448160      1.148      1.657
REMARK  3 active torsions:
REMARK  status: ('A' for Active; 'I' for Inactive)
REMARK    1  A    between atoms: C2_2  and  C5_5 
REMARK    2  A    between atoms: C5_5  and  N1_6 
REMARK    3  A    between atoms: N1_6  and  C6_8 
ROOT
HETATM    1  C6  UNL     1      -7.589  24.409   6.369  1.00  0.00     0.082 A 
HETATM    2  C7  UNL     1      -7.943  24.063   7.634  1.00  0.00     0.122 A 
HETATM    3  N2  UNL     1      -8.801  24.847   8.333  1.00  0.00    -0.341 N 
ATOM      4  H2  UNL     1      -9.079  24.603   9.283  1.00  0.00     0.167 HD
HETATM    5  C8  UNL     1      -9.275  25.955   7.735  1.00  0.00     0.176 A 
HETATM    6  S1  UNL     1     -10.307  26.892   8.584  1.00  0.00    -0.041 SA
HETATM    7  N3  UNL     1      -8.937  26.315   6.485  1.00  0.00    -0.322 N 
ATOM      8  H3  UNL     1      -9.327  27.166   6.080  1.00  0.00     0.169 HD
HETATM    9  C9  UNL     1      -8.089  25.559   5.768  1.00  0.00     0.130 A 
HETATM   10  S2  UNL     1      -7.663  25.974   4.249  1.00  0.00    -0.058 SA
ENDROOT
BRANCH   1  11
HETATM   11  N1  UNL     1      -6.695  23.590   5.643  1.00  0.00    -0.386 N 
ATOM     12  H1  UNL     1      -5.766  23.938   5.401  1.00  0.00     0.159 HD
BRANCH  11  13
HETATM   13  C5  UNL     1      -7.092  22.278   5.249  1.00  0.00     0.128 C 
BRANCH  13  14
HETATM   14  C2  UNL     1      -5.862  21.396   5.069  1.00  0.00    -0.035 C 
HETATM   15  C1  UNL     1      -5.155  21.710   3.770  1.00  0.00     0.016 C 
HETATM   16  C3  UNL     1      -6.360  19.964   5.089  1.00  0.00     0.016 C 
HETATM   17  C4  UNL     1      -4.864  21.658   6.187  1.00  0.00     0.016 C 
ENDBRANCH  13  14
ENDBRANCH  11  13
ENDBRANCH   1  11
TORSDOF 3
ENDMDL
MODEL 5
REMARK VINA RESULT: -5.406123588      2.211      5.283
REMARK  3 active torsions:
REMARK  status: ('A' for Active; 'I' for Inactive)
REMARK    1  A    between atoms: C2_2  and  C5_5 
REMARK    2  A    between atoms: C5_5  and  N1_6 
REMARK    3  A    between atoms: N1_6  and  C6_8 
ROOT
HETATM    1  C6  UNL     1      -6.730  24.102   5.627  1.00  0.00     0.082 A 
HETATM    2  C7  UNL     1      -6.225  23.119   6.417  1.00  0.00     0.122 A 
HETATM    3  N2  UNL     1      -5.251  22.305   5.941  1.00  0.00    -0.341 N 
ATOM      4  H2  UNL     1      -4.859  21.562   6.520  1.00  0.00     0.167 HD
HETATM    5  C8  UNL     1      -4.818  22.505   4.684  1.00  0.00     0.176 A 
HETATM    6  S1  UNL     1      -3.645  21.519   4.120  1.00  0.00    -0.041 SA
HETATM    7  N3  UNL     1      -5.303  23.470   3.886  1.00  0.00    -0.322 N 
ATOM      8  H3  UNL     1      -4.938  23.579   2.940  1.00  0.00     0.169 HD
HETATM    9  C9  UNL     1      -6.269  24.293   4.329  1.00  0.00     0.130 A 
HETATM   10  S2  UNL     1      -6.876  25.474   3.380  1.00  0.00    -0.058 SA
ENDROOT
BRANCH   1  11
HETATM   11  N1  UNL     1      -7.745  24.950   6.125  1.00  0.00    -0.386 N 
ATOM     12  H1  UNL     1      -8.044  25.761   5.583  1.00  0.00     0.159 HD
BRANCH  11  13
HETATM   13  C5  UNL     1      -8.350  24.670   7.386  1.00  0.00     0.128 C 
BRANCH  13  14
HETATM   14  C2  UNL     1      -9.855  24.493   7.211  1.00  0.00    -0.035 C 
HETATM   15  C1  UNL     1     -10.614  25.191   8.316  1.00  0.00     0.016 C 
HETATM   16  C3  UNL     1     -10.111  22.999   7.228  1.00  0.00     0.016 C 
HETATM   17  C4  UNL     1     -10.305  25.124   5.902  1.00  0.00     0.016 C 
ENDBRANCH  13  14
ENDBRANCH  11  13
ENDBRANCH   1  11
TORSDOF 3
ENDMDL
