MODEL 1
REMARK VINA RESULT: -6.714936444      0.000      0.000
REMARK  5 active torsions:
REMARK  status: ('A' for Active; 'I' for Inactive)
REMARK    1  A    between atoms: C2_2  and  C3_3 
REMARK    2  A    between atoms: C3_3  and  C4_4 
REMARK    3  A    between atoms: C7_10  and  N2_11 
REMARK    4  A    between atoms: N3_14  and  C10_15 
REMARK    5  A    between atoms: C13_18  and  C14_19 
ROOT
HETATM    1  N2  UNL     1      70.644  -3.771  70.225  1.00  0.00    -0.363 N 
HETATM    2  C8  UNL     1      71.189  -3.206  68.987  1.00  0.00     0.144 C 
HETATM    3  C9  UNL     1      72.649  -2.869  69.110  1.00  0.00     0.143 C 
HETATM    4  N3  UNL     1      72.773  -1.990  70.255  1.00  0.00    -0.372 N 
HETATM    5  C17 UNL     1      72.364  -2.549  71.523  1.00  0.00     0.143 C 
HETATM    6  C18 UNL     1      70.958  -3.127  71.469  1.00  0.00     0.144 C 
ENDROOT
BRANCH   1   7
HETATM    7  C7  UNL     1      69.863  -4.964  70.073  1.00  0.00     0.123 A 
HETATM    8  C6  UNL     1      68.506  -4.924  70.019  1.00  0.00     0.070 A 
HETATM    9  C5  UNL     1      67.811  -6.146  69.910  1.00  0.00     0.112 A 
HETATM   10 BR1  UNL     1      67.521  -3.295  70.038  1.00  0.00    -0.046 Br
HETATM   11  N1  UNL     1      68.517  -7.271  69.864  1.00  0.00    -0.354 N 
HETATM   12  C4  UNL     1      69.855  -7.316  69.916  1.00  0.00     0.086 A 
ATOM     13  H1  UNL     1      68.010  -8.153  69.784  1.00  0.00     0.166 HD
HETATM   14  N5  UNL     1      70.533  -6.169  70.020  1.00  0.00    -0.331 N 
ATOM     15  H5  UNL     1      71.551  -6.184  70.061  1.00  0.00     0.168 HD
BRANCH  12  16
HETATM   16  C3  UNL     1      70.535  -8.645  69.854  1.00  0.00     0.103 C 
BRANCH  16  17
HETATM   17  C2  UNL     1      71.269  -8.952  71.105  1.00  0.00    -0.029 C 
HETATM   18  C1  UNL     1      70.659  -9.193  72.246  1.00  0.00     0.007 C 
ENDBRANCH  16  17
ENDBRANCH  12  16
ENDBRANCH   1   7
BRANCH   4  19
HETATM   19  C10 UNL     1      73.268  -0.636  70.147  1.00  0.00     0.072 A 
HETATM   20  C11 UNL     1      72.889   0.323  69.243  1.00  0.00     0.038 A 
HETATM   21  C12 UNL     1      73.488   1.519  69.327  1.00  0.00     0.024 A 
HETATM   22  C13 UNL     1      74.423   1.688  70.298  1.00  0.00     0.034 A 
HETATM   23  S2  UNL     1      74.449   0.172  71.077  1.00  0.00    -0.070 SA
BRANCH  22  24
HETATM   24  C14 UNL     1      75.230   2.899  70.605  1.00  0.00     0.056 A 
HETATM   25  C15 UNL     1      76.258   3.290  69.779  1.00  0.00     0.081 A 
HETATM   26  S1  UNL     1      76.828   4.687  70.574  1.00  0.00    -0.094 SA
HETATM   27  C16 UNL     1      75.744   4.693  71.890  1.00  0.00     0.138 A 
HETATM   28  N4  UNL     1      75.002   3.628  71.654  1.00  0.00    -0.358 N 
ATOM     29  H4  UNL     1      74.250   3.376  72.297  1.00  0.00     0.166 HD
ENDBRANCH  22  24
ENDBRANCH   4  19
TORSDOF 5
ENDMDL
MODEL 2
REMARK VINA RESULT: -6.609142549      1.233      1.273
REMARK  5 active torsions:
REMARK  status: ('A' for Active; 'I' for Inactive)
REMARK    1  A    between atoms: C2_2  and  C3_3 
REMARK    2  A    between atoms: C3_3  and  C4_4 
REMARK    3  A    between atoms: C7_10  and  N2_11 
REMARK    4  A    between atoms: N3_14  and  C10_15 
REMARK    5  A    between atoms: C13_18  and  C14_19 
ROOT
HETATM    1  N2  UNL     1      70.744  -3.814  70.207  1.00  0.00    -0.363 N 
HETATM    2  C8  UNL     1      71.276  -3.287  68.947  1.00  0.00     0.144 C 
HETATM    3  C9  UNL     1      72.753  -3.018  69.022  1.00  0.00     0.143 C 
HETATM    4  N3  UNL     1      72.953  -2.134  70.152  1.00  0.00    -0.372 N 
HETATM    5  C17 UNL     1      72.558  -2.660  71.438  1.00  0.00     0.143 C 
HETATM    6  C18 UNL     1      71.126  -3.172  71.434  1.00  0.00     0.144 C 
ENDROOT
BRANCH   1   7
HETATM    7  C7  UNL     1      69.904  -4.970  70.093  1.00  0.00     0.123 A 
HETATM    8  C6  UNL     1      68.550  -4.865  70.061  1.00  0.00     0.070 A 
HETATM    9  C5  UNL     1      67.795  -6.053  69.988  1.00  0.00     0.112 A 
HETATM   10 BR1  UNL     1      67.644  -3.190  70.061  1.00  0.00    -0.046 Br
HETATM   11  N1  UNL     1      68.446  -7.213  69.954  1.00  0.00    -0.354 N 
HETATM   12  C4  UNL     1      69.781  -7.321  69.986  1.00  0.00     0.086 A 
ATOM     13  H1  UNL     1      67.895  -8.070  69.901  1.00  0.00     0.166 HD
HETATM   14  N5  UNL     1      70.514  -6.206  70.055  1.00  0.00    -0.331 N 
ATOM     15  H5  UNL     1      71.531  -6.270  70.080  1.00  0.00     0.168 HD
BRANCH  12  16
HETATM   16  C3  UNL     1      70.394  -8.682  69.941  1.00  0.00     0.103 C 
BRANCH  16  17
HETATM   17  C2  UNL     1      71.328  -8.908  71.069  1.00  0.00    -0.029 C 
HETATM   18  C1  UNL     1      70.998  -9.603  72.137  1.00  0.00     0.007 C 
ENDBRANCH  16  17
ENDBRANCH  12  16
ENDBRANCH   1   7
BRANCH   4  19
HETATM   19  C10 UNL     1      73.507  -0.806  70.013  1.00  0.00     0.072 A 
HETATM   20  C11 UNL     1      73.147   0.327  70.696  1.00  0.00     0.038 A 
HETATM   21  C12 UNL     1      73.800   1.459  70.401  1.00  0.00     0.024 A 
HETATM   22  C13 UNL     1      74.767   1.398  69.448  1.00  0.00     0.034 A 
HETATM   23  S2  UNL     1      74.746  -0.242  68.982  1.00  0.00    -0.070 SA
BRANCH  22  24
HETATM   24  C14 UNL     1      75.630   2.494  68.934  1.00  0.00     0.056 A 
HETATM   25  C15 UNL     1      76.778   2.216  68.229  1.00  0.00     0.081 A 
HETATM   26  S1  UNL     1      77.364   3.783  67.893  1.00  0.00    -0.094 SA
HETATM   27  C16 UNL     1      76.136   4.685  68.656  1.00  0.00     0.138 A 
HETATM   28  N4  UNL     1      75.341   3.744  69.128  1.00  0.00    -0.358 N 
ATOM     29  H4  UNL     1      74.499   3.999  69.646  1.00  0.00     0.166 HD
ENDBRANCH  22  24
ENDBRANCH   4  19
TORSDOF 5
ENDMDL
MODEL 3
REMARK VINA RESULT: -6.515918625      6.222      8.147
REMARK  5 active torsions:
REMARK  status: ('A' for Active; 'I' for Inactive)
REMARK    1  A    between atoms: C2_2  and  C3_3 
REMARK    2  A    between atoms: C3_3  and  C4_4 
REMARK    3  A    between atoms: C7_10  and  N2_11 
REMARK    4  A    between atoms: N3_14  and  C10_15 
REMARK    5  A    between atoms: C13_18  and  C14_19 
ROOT
HETATM    1  N2  UNL     1      69.590  -8.839  73.752  1.00  0.00    -0.363 N 
HETATM    2  C8  UNL     1      69.895  -8.804  72.319  1.00  0.00     0.144 C 
HETATM    3  C9  UNL     1      70.659  -7.570  71.929  1.00  0.00     0.143 C 
HETATM    4  N3  UNL     1      69.874  -6.440  72.383  1.00  0.00    -0.372 N 
HETATM    5  C17 UNL     1      69.652  -6.362  73.808  1.00  0.00     0.143 C 
HETATM    6  C18 UNL     1      69.071  -7.651  74.370  1.00  0.00     0.144 C 
ENDROOT
BRANCH   1   7
HETATM    7  C7  UNL     1      69.883 -10.072  74.422  1.00  0.00     0.123 A 
HETATM    8  C6  UNL     1      71.063 -10.268  75.066  1.00  0.00     0.070 A 
HETATM    9  C5  UNL     1      71.290 -11.524  75.665  1.00  0.00     0.112 A 
HETATM   10 BR1  UNL     1      72.387  -8.911  75.231  1.00  0.00    -0.046 Br
HETATM   11  N1  UNL     1      70.339 -12.449  75.569  1.00  0.00    -0.354 N 
HETATM   12  C4  UNL     1      69.174 -12.260  74.935  1.00  0.00     0.086 A 
ATOM     13  H1  UNL     1      70.507 -13.357  76.004  1.00  0.00     0.166 HD
HETATM   14  N5  UNL     1      68.941 -11.077  74.361  1.00  0.00    -0.331 N 
ATOM     15  H5  UNL     1      68.059 -10.915  73.873  1.00  0.00     0.168 HD
BRANCH  12  16
HETATM   16  C3  UNL     1      68.185 -13.379  74.897  1.00  0.00     0.103 C 
BRANCH  16  17
HETATM   17  C2  UNL     1      67.403 -13.387  73.638  1.00  0.00    -0.029 C 
HETATM   18  C1  UNL     1      67.490 -14.357  72.753  1.00  0.00     0.007 C 
ENDBRANCH  16  17
ENDBRANCH  12  16
ENDBRANCH   1   7
BRANCH   4  19
HETATM   19  C10 UNL     1      69.337  -5.451  71.476  1.00  0.00     0.072 A 
HETATM   20  C11 UNL     1      69.436  -4.086  71.572  1.00  0.00     0.038 A 
HETATM   21  C12 UNL     1      68.855  -3.356  70.611  1.00  0.00     0.024 A 
HETATM   22  C13 UNL     1      68.212  -4.023  69.616  1.00  0.00     0.034 A 
HETATM   23  S2  UNL     1      68.433  -5.659  70.043  1.00  0.00    -0.070 SA
BRANCH  22  24
HETATM   24  C14 UNL     1      67.490  -3.464  68.443  1.00  0.00     0.056 A 
HETATM   25  C15 UNL     1      66.388  -4.101  67.923  1.00  0.00     0.081 A 
HETATM   26  S1  UNL     1      65.968  -3.067  66.633  1.00  0.00    -0.094 SA
HETATM   27  C16 UNL     1      67.199  -1.904  66.826  1.00  0.00     0.138 A 
HETATM   28  N4  UNL     1      67.868  -2.365  67.866  1.00  0.00    -0.358 N 
ATOM     29  H4  UNL     1      68.681  -1.857  68.216  1.00  0.00     0.166 HD
ENDBRANCH  22  24
ENDBRANCH   4  19
TORSDOF 5
ENDMDL
MODEL 4
REMARK VINA RESULT: -6.425929016      2.041      3.301
REMARK  5 active torsions:
REMARK  status: ('A' for Active; 'I' for Inactive)
REMARK    1  A    between atoms: C2_2  and  C3_3 
REMARK    2  A    between atoms: C3_3  and  C4_4 
REMARK    3  A    between atoms: C7_10  and  N2_11 
REMARK    4  A    between atoms: N3_14  and  C10_15 
REMARK    5  A    between atoms: C13_18  and  C14_19 
ROOT
HETATM    1  N2  UNL     1      70.188  -3.963  70.562  1.00  0.00    -0.363 N 
HETATM    2  C8  UNL     1      70.944  -3.369  69.456  1.00  0.00     0.144 C 
HETATM    3  C9  UNL     1      72.424  -3.358  69.720  1.00  0.00     0.143 C 
HETATM    4  N3  UNL     1      72.610  -2.675  70.984  1.00  0.00    -0.372 N 
HETATM    5  C17 UNL     1      71.986  -3.294  72.130  1.00  0.00     0.143 C 
HETATM    6  C18 UNL     1      70.505  -3.560  71.903  1.00  0.00     0.144 C 
ENDROOT
BRANCH   1   7
HETATM    7  C7  UNL     1      69.207  -4.942  70.191  1.00  0.00     0.123 A 
HETATM    8  C6  UNL     1      69.315  -6.239  70.581  1.00  0.00     0.070 A 
HETATM    9  C5  UNL     1      68.330  -7.146  70.140  1.00  0.00     0.112 A 
HETATM   10 BR1  UNL     1      70.703  -6.861  71.725  1.00  0.00    -0.046 Br
HETATM   11  N1  UNL     1      67.349  -6.687  69.369  1.00  0.00    -0.354 N 
HETATM   12  C4  UNL     1      67.239  -5.409  68.983  1.00  0.00     0.086 A 
ATOM     13  H1  UNL     1      66.638  -7.347  69.053  1.00  0.00     0.166 HD
HETATM   14  N5  UNL     1      68.162  -4.533  69.390  1.00  0.00    -0.331 N 
ATOM     15  H5  UNL     1      68.094  -3.556  69.106  1.00  0.00     0.168 HD
BRANCH  12  16
HETATM   16  C3  UNL     1      66.088  -5.015  68.116  1.00  0.00     0.103 C 
BRANCH  16  17
HETATM   17  C2  UNL     1      66.188  -3.606  67.665  1.00  0.00    -0.029 C 
HETATM   18  C1  UNL     1      66.055  -3.252  66.405  1.00  0.00     0.007 C 
ENDBRANCH  16  17
ENDBRANCH  12  16
ENDBRANCH   1   7
BRANCH   4  19
HETATM   19  C10 UNL     1      73.367  -1.449  71.102  1.00  0.00     0.072 A 
HETATM   20  C11 UNL     1      74.565  -1.263  71.743  1.00  0.00     0.038 A 
HETATM   21  C12 UNL     1      75.088  -0.030  71.727  1.00  0.00     0.024 A 
HETATM   22  C13 UNL     1      74.392   0.941  71.079  1.00  0.00     0.034 A 
HETATM   23  S2  UNL     1      73.019   0.111  70.503  1.00  0.00    -0.070 SA
BRANCH  22  24
HETATM   24  C14 UNL     1      74.741   2.377  70.915  1.00  0.00     0.056 A 
HETATM   25  C15 UNL     1      75.977   2.754  70.446  1.00  0.00     0.081 A 
HETATM   26  S1  UNL     1      75.847   4.455  70.456  1.00  0.00    -0.094 SA
HETATM   27  C16 UNL     1      74.253   4.585  71.047  1.00  0.00     0.138 A 
HETATM   28  N4  UNL     1      73.902   3.324  71.206  1.00  0.00    -0.358 N 
ATOM     29  H4  UNL     1      72.973   3.093  71.558  1.00  0.00     0.166 HD
ENDBRANCH  22  24
ENDBRANCH   4  19
TORSDOF 5
ENDMDL
MODEL 5
REMARK VINA RESULT: -6.407031302      3.895      9.850
REMARK  5 active torsions:
REMARK  status: ('A' for Active; 'I' for Inactive)
REMARK    1  A    between atoms: C2_2  and  C3_3 
REMARK    2  A    between atoms: C3_3  and  C4_4 
REMARK    3  A    between atoms: C7_10  and  N2_11 
REMARK    4  A    between atoms: N3_14  and  C10_15 
REMARK    5  A    between atoms: C13_18  and  C14_19 
ROOT
HETATM    1  N2  UNL     1      73.111  -2.300  70.554  1.00  0.00    -0.363 N 
HETATM    2  C8  UNL     1      72.169  -3.069  69.735  1.00  0.00     0.144 C 
HETATM    3  C9  UNL     1      70.815  -3.180  70.379  1.00  0.00     0.143 C 
HETATM    4  N3  UNL     1      71.031  -3.741  71.697  1.00  0.00    -0.372 N 
HETATM    5  C17 UNL     1      71.854  -2.954  72.587  1.00  0.00     0.143 C 
HETATM    6  C18 UNL     1      73.190  -2.588  71.958  1.00  0.00     0.144 C 
ENDROOT
BRANCH   1   7
HETATM    7  C7  UNL     1      73.851  -1.285  69.863  1.00  0.00     0.123 A 
HETATM    8  C6  UNL     1      75.063  -1.544  69.306  1.00  0.00     0.070 A 
HETATM    9  C5  UNL     1      75.744  -0.480  68.679  1.00  0.00     0.112 A 
HETATM   10 BR1  UNL     1      75.845  -3.279  69.297  1.00  0.00    -0.046 Br
HETATM   11  N1  UNL     1      75.167   0.717  68.666  1.00  0.00    -0.354 N 
HETATM   12  C4  UNL     1      73.972   0.977  69.213  1.00  0.00     0.086 A 
ATOM     13  H1  UNL     1      75.664   1.484  68.211  1.00  0.00     0.166 HD
HETATM   14  N5  UNL     1      73.311  -0.018  69.812  1.00  0.00    -0.331 N 
ATOM     15  H5  UNL     1      72.400   0.162  70.234  1.00  0.00     0.168 HD
BRANCH  12  16
HETATM   16  C3  UNL     1      73.429   2.366  69.131  1.00  0.00     0.103 C 
BRANCH  16  17
HETATM   17  C2  UNL     1      74.303   3.346  69.818  1.00  0.00    -0.029 C 
HETATM   18  C1  UNL     1      74.006   3.866  70.990  1.00  0.00     0.007 C 
ENDBRANCH  16  17
ENDBRANCH  12  16
ENDBRANCH   1   7
BRANCH   4  19
HETATM   19  C10 UNL     1      70.469  -5.009  72.106  1.00  0.00     0.072 A 
HETATM   20  C11 UNL     1      69.168  -5.424  71.987  1.00  0.00     0.038 A 
HETATM   21  C12 UNL     1      68.867  -6.649  72.439  1.00  0.00     0.024 A 
HETATM   22  C13 UNL     1      69.874  -7.384  72.980  1.00  0.00     0.034 A 
HETATM   23  S2  UNL     1      71.222  -6.349  72.847  1.00  0.00    -0.070 SA
BRANCH  22  24
HETATM   24  C14 UNL     1      69.815  -8.755  73.553  1.00  0.00     0.056 A 
HETATM   25  C15 UNL     1      70.459  -9.804  72.940  1.00  0.00     0.081 A 
HETATM   26  S1  UNL     1      70.073 -11.101  73.979  1.00  0.00    -0.094 SA
HETATM   27  C16 UNL     1      69.130 -10.247  75.114  1.00  0.00     0.138 A 
HETATM   28  N4  UNL     1      69.158  -9.016  74.641  1.00  0.00    -0.358 N 
ATOM     29  H4  UNL     1      68.664  -8.270  75.131  1.00  0.00     0.166 HD
ENDBRANCH  22  24
ENDBRANCH   4  19
TORSDOF 5
ENDMDL
