MODEL 1
REMARK VINA RESULT: -7.805429663      0.000      0.000
REMARK  5 active torsions:
REMARK  status: ('A' for Active; 'I' for Inactive)
REMARK    1  A    between atoms: C2_3  and  S1_4 
REMARK    2  A    between atoms: S1_4  and  C3_5 
REMARK    3  A    between atoms: C9_13  and  N3_14 
REMARK    4  A    between atoms: C14_20  and  S2_21 
REMARK    5  A    between atoms: S2_21  and  C15_22 
ROOT
HETATM    1  C1  UNL     1      73.339  -2.759  72.607  1.00  0.00     0.161 C 
HETATM    2  N1  UNL     1      72.116  -3.176  71.981  1.00  0.00    -0.298 N 
HETATM    3  C2  UNL     1      71.724  -2.587  70.849  1.00  0.00     0.150 A 
HETATM    4  N2  UNL     1      70.593  -3.004  70.269  1.00  0.00    -0.322 N 
ATOM      5  H2  UNL     1      70.289  -2.559  69.403  1.00  0.00     0.169 HD
HETATM    6  C9  UNL     1      69.820  -4.023  70.808  1.00  0.00     0.128 A 
HETATM    7  C14 UNL     1      70.226  -4.621  71.966  1.00  0.00     0.117 A 
HETATM    8  C21 UNL     1      71.395  -4.184  72.556  1.00  0.00     0.270 A 
HETATM    9  O2  UNL     1      71.768  -4.727  73.612  1.00  0.00    -0.266 OA
ENDROOT
BRANCH   7  10
HETATM   10  S2  UNL     1      69.336  -5.929  72.722  1.00  0.00    -0.078 SA
BRANCH  10  11
HETATM   11  C15 UNL     1      70.028  -7.532  72.570  1.00  0.00     0.044 A 
HETATM   12  C16 UNL     1      70.771  -7.821  71.446  1.00  0.00     0.022 A 
HETATM   13  C17 UNL     1      71.334  -9.056  71.292  1.00  0.00     0.002 A 
HETATM   14  C18 UNL     1      71.148 -10.008  72.280  1.00  0.00     0.003 A 
HETATM   15  C19 UNL     1      70.402  -9.711  73.405  1.00  0.00     0.044 A 
HETATM   16  C20 UNL     1      69.832  -8.468  73.563  1.00  0.00     0.133 A 
HETATM   17  F1  UNL     1      69.091  -8.182  74.686  1.00  0.00    -0.205 F 
ENDBRANCH  10  11
ENDBRANCH   7  10
BRANCH   6  18
HETATM   18  N3  UNL     1      68.637  -4.382  70.145  1.00  0.00    -0.362 N 
HETATM   19  C10 UNL     1      67.579  -3.356  69.974  1.00  0.00     0.150 C 
HETATM   20  C11 UNL     1      67.152  -3.442  68.523  1.00  0.00     0.187 C 
HETATM   21  O1  UNL     1      66.655  -4.707  68.210  1.00  0.00    -0.388 OA
HETATM   22  C12 UNL     1      66.797  -5.606  69.235  1.00  0.00     0.187 C 
HETATM   23  C13 UNL     1      68.292  -5.657  69.613  1.00  0.00     0.150 C 
ENDBRANCH   6  18
BRANCH   3  24
HETATM   24  S1  UNL     1      72.704  -1.254  70.177  1.00  0.00    -0.089 SA
BRANCH  24  25
HETATM   25  C3  UNL     1      73.773  -1.725  68.835  1.00  0.00     0.055 C 
HETATM   26  C4  UNL     1      74.909  -0.747  68.687  1.00  0.00     0.015 C 
HETATM   27  C5  UNL     1      75.864  -1.361  67.667  1.00  0.00     0.001 C 
HETATM   28  C6  UNL     1      76.715  -2.341  68.448  1.00  0.00     0.000 C 
HETATM   29  C7  UNL     1      75.837  -3.027  69.473  1.00  0.00     0.001 C 
HETATM   30  C8  UNL     1      74.387  -3.084  69.062  1.00  0.00     0.015 C 
ENDBRANCH  24  25
ENDBRANCH   3  24
TORSDOF 5
ENDMDL
MODEL 2
REMARK VINA RESULT: -7.715392414      0.950      1.299
REMARK  5 active torsions:
REMARK  status: ('A' for Active; 'I' for Inactive)
REMARK    1  A    between atoms: C2_3  and  S1_4 
REMARK    2  A    between atoms: S1_4  and  C3_5 
REMARK    3  A    between atoms: C9_13  and  N3_14 
REMARK    4  A    between atoms: C14_20  and  S2_21 
REMARK    5  A    between atoms: S2_21  and  C15_22 
ROOT
HETATM    1  C1  UNL     1      73.125  -3.048  72.593  1.00  0.00     0.161 C 
HETATM    2  N1  UNL     1      71.915  -3.408  71.909  1.00  0.00    -0.298 N 
HETATM    3  C2  UNL     1      71.556  -2.736  70.813  1.00  0.00     0.150 A 
HETATM    4  N2  UNL     1      70.436  -3.100  70.177  1.00  0.00    -0.322 N 
ATOM      5  H2  UNL     1      70.158  -2.592  69.339  1.00  0.00     0.169 HD
HETATM    6  C9  UNL     1      69.642  -4.147  70.624  1.00  0.00     0.128 A 
HETATM    7  C14 UNL     1      70.014  -4.830  71.745  1.00  0.00     0.117 A 
HETATM    8  C21 UNL     1      71.172  -4.448  72.393  1.00  0.00     0.270 A 
HETATM    9  O2  UNL     1      71.514  -5.068  73.416  1.00  0.00    -0.266 OA
ENDROOT
BRANCH   7  10
HETATM   10  S2  UNL     1      69.096  -6.180  72.384  1.00  0.00    -0.078 SA
BRANCH  10  11
HETATM   11  C15 UNL     1      69.911  -7.732  72.417  1.00  0.00     0.044 A 
HETATM   12  C16 UNL     1      69.833  -8.488  73.566  1.00  0.00     0.022 A 
HETATM   13  C17 UNL     1      70.447  -9.707  73.631  1.00  0.00     0.002 A 
HETATM   14  C18 UNL     1      71.143 -10.168  72.527  1.00  0.00     0.003 A 
HETATM   15  C19 UNL     1      71.216  -9.405  71.377  1.00  0.00     0.044 A 
HETATM   16  C20 UNL     1      70.600  -8.176  71.309  1.00  0.00     0.133 A 
HETATM   17  F1  UNL     1      70.678  -7.423  70.160  1.00  0.00    -0.205 F 
ENDBRANCH  10  11
ENDBRANCH   7  10
BRANCH   6  18
HETATM   18  N3  UNL     1      68.473  -4.447  69.908  1.00  0.00    -0.362 N 
HETATM   19  C10 UNL     1      67.441  -3.393  69.760  1.00  0.00     0.150 C 
HETATM   20  C11 UNL     1      67.057  -3.395  68.294  1.00  0.00     0.187 C 
HETATM   21  O1  UNL     1      66.546  -4.631  67.901  1.00  0.00    -0.388 OA
HETATM   22  C12 UNL     1      66.639  -5.584  68.881  1.00  0.00     0.187 C 
HETATM   23  C13 UNL     1      68.120  -5.686  69.300  1.00  0.00     0.150 C 
ENDBRANCH   6  18
BRANCH   3  24
HETATM   24  S1  UNL     1      72.562  -1.368  70.262  1.00  0.00    -0.089 SA
BRANCH  24  25
HETATM   25  C3  UNL     1      73.608  -1.732  68.869  1.00  0.00     0.055 C 
HETATM   26  C4  UNL     1      74.765  -0.771  68.802  1.00  0.00     0.015 C 
HETATM   27  C5  UNL     1      75.696  -1.306  67.718  1.00  0.00     0.001 C 
HETATM   28  C6  UNL     1      76.530  -2.376  68.391  1.00  0.00     0.000 C 
HETATM   29  C7  UNL     1      75.646  -3.136  69.355  1.00  0.00     0.001 C 
HETATM   30  C8  UNL     1      74.190  -3.121  68.957  1.00  0.00     0.015 C 
ENDBRANCH  24  25
ENDBRANCH   3  24
TORSDOF 5
ENDMDL
MODEL 3
REMARK VINA RESULT: -7.698447242      1.549      2.040
REMARK  5 active torsions:
REMARK  status: ('A' for Active; 'I' for Inactive)
REMARK    1  A    between atoms: C2_3  and  S1_4 
REMARK    2  A    between atoms: S1_4  and  C3_5 
REMARK    3  A    between atoms: C9_13  and  N3_14 
REMARK    4  A    between atoms: C14_20  and  S2_21 
REMARK    5  A    between atoms: S2_21  and  C15_22 
ROOT
HETATM    1  C1  UNL     1      73.711  -2.841  72.104  1.00  0.00     0.161 C 
HETATM    2  N1  UNL     1      72.427  -3.238  71.599  1.00  0.00    -0.298 N 
HETATM    3  C2  UNL     1      72.000  -2.751  70.433  1.00  0.00     0.150 A 
HETATM    4  N2  UNL     1      70.811  -3.150  69.969  1.00  0.00    -0.322 N 
ATOM      5  H2  UNL     1      70.479  -2.782  69.078  1.00  0.00     0.169 HD
HETATM    6  C9  UNL     1      70.012  -4.049  70.663  1.00  0.00     0.128 A 
HETATM    7  C14 UNL     1      70.454  -4.544  71.856  1.00  0.00     0.117 A 
HETATM    8  C21 UNL     1      71.684  -4.127  72.325  1.00  0.00     0.270 A 
HETATM    9  O2  UNL     1      72.090  -4.576  73.412  1.00  0.00    -0.266 OA
ENDROOT
BRANCH   7  10
HETATM   10  S2  UNL     1      69.536  -5.698  72.804  1.00  0.00    -0.078 SA
BRANCH  10  11
HETATM   11  C15 UNL     1      70.079  -7.364  72.744  1.00  0.00     0.044 A 
HETATM   12  C16 UNL     1      70.829  -7.770  71.661  1.00  0.00     0.022 A 
HETATM   13  C17 UNL     1      71.279  -9.056  71.579  1.00  0.00     0.002 A 
HETATM   14  C18 UNL     1      70.971  -9.942  72.598  1.00  0.00     0.003 A 
HETATM   15  C19 UNL     1      70.219  -9.529  73.681  1.00  0.00     0.044 A 
HETATM   16  C20 UNL     1      69.763  -8.233  73.767  1.00  0.00     0.133 A 
HETATM   17  F1  UNL     1      69.015  -7.829  74.848  1.00  0.00    -0.205 F 
ENDBRANCH  10  11
ENDBRANCH   7  10
BRANCH   6  18
HETATM   18  N3  UNL     1      68.769  -4.396  70.113  1.00  0.00    -0.362 N 
HETATM   19  C10 UNL     1      67.723  -3.350  70.006  1.00  0.00     0.150 C 
HETATM   20  C11 UNL     1      67.170  -3.462  68.600  1.00  0.00     0.187 C 
HETATM   21  O1  UNL     1      66.621  -4.722  68.365  1.00  0.00    -0.388 OA
HETATM   22  C12 UNL     1      66.832  -5.598  69.397  1.00  0.00     0.187 C 
HETATM   23  C13 UNL     1      68.352  -5.675  69.647  1.00  0.00     0.150 C 
ENDBRANCH   6  18
BRANCH   3  24
HETATM   24  S1  UNL     1      73.014  -1.569  69.560  1.00  0.00    -0.089 SA
BRANCH  24  25
HETATM   25  C3  UNL     1      72.974   0.079  70.229  1.00  0.00     0.055 C 
HETATM   26  C4  UNL     1      74.243   0.384  70.980  1.00  0.00     0.015 C 
HETATM   27  C5  UNL     1      74.188   1.872  71.316  1.00  0.00     0.001 C 
HETATM   28  C6  UNL     1      74.667   2.586  70.070  1.00  0.00     0.000 C 
HETATM   29  C7  UNL     1      74.125   1.857  68.860  1.00  0.00     0.001 C 
HETATM   30  C8  UNL     1      72.841   1.119  69.144  1.00  0.00     0.015 C 
ENDBRANCH  24  25
ENDBRANCH   3  24
TORSDOF 5
ENDMDL
MODEL 4
REMARK VINA RESULT: -7.580883627      2.226      3.290
REMARK  5 active torsions:
REMARK  status: ('A' for Active; 'I' for Inactive)
REMARK    1  A    between atoms: C2_3  and  S1_4 
REMARK    2  A    between atoms: S1_4  and  C3_5 
REMARK    3  A    between atoms: C9_13  and  N3_14 
REMARK    4  A    between atoms: C14_20  and  S2_21 
REMARK    5  A    between atoms: S2_21  and  C15_22 
ROOT
HETATM    1  C1  UNL     1      74.210  -1.564  71.983  1.00  0.00     0.161 C 
HETATM    2  N1  UNL     1      73.011  -2.283  71.657  1.00  0.00    -0.298 N 
HETATM    3  C2  UNL     1      72.404  -2.054  70.490  1.00  0.00     0.150 A 
HETATM    4  N2  UNL     1      71.300  -2.749  70.195  1.00  0.00    -0.322 N 
ATOM      5  H2  UNL     1      70.833  -2.580  69.305  1.00  0.00     0.169 HD
HETATM    6  C9  UNL     1      70.769  -3.693  71.063  1.00  0.00     0.128 A 
HETATM    7  C14 UNL     1      71.393  -3.923  72.255  1.00  0.00     0.117 A 
HETATM    8  C21 UNL     1      72.533  -3.201  72.549  1.00  0.00     0.270 A 
HETATM    9  O2  UNL     1      73.104  -3.408  73.636  1.00  0.00    -0.266 OA
ENDROOT
BRANCH   7  10
HETATM   10  S2  UNL     1      70.819  -5.105  73.416  1.00  0.00    -0.078 SA
BRANCH  10  11
HETATM   11  C15 UNL     1      70.081  -4.471  74.874  1.00  0.00     0.044 A 
HETATM   12  C16 UNL     1      69.856  -3.114  74.958  1.00  0.00     0.022 A 
HETATM   13  C17 UNL     1      69.275  -2.580  76.072  1.00  0.00     0.002 A 
HETATM   14  C18 UNL     1      68.917  -3.421  77.112  1.00  0.00     0.003 A 
HETATM   15  C19 UNL     1      69.145  -4.781  77.022  1.00  0.00     0.044 A 
HETATM   16  C20 UNL     1      69.731  -5.323  75.900  1.00  0.00     0.133 A 
HETATM   17  F1  UNL     1      69.954  -6.678  75.819  1.00  0.00    -0.205 F 
ENDBRANCH  10  11
ENDBRANCH   7  10
BRANCH   6  18
HETATM   18  N3  UNL     1      69.595  -4.361  70.683  1.00  0.00    -0.362 N 
HETATM   19  C10 UNL     1      69.706  -5.728  70.120  1.00  0.00     0.150 C 
HETATM   20  C11 UNL     1      68.666  -6.559  70.845  1.00  0.00     0.187 C 
HETATM   21  O1  UNL     1      67.381  -6.056  70.646  1.00  0.00    -0.388 OA
HETATM   22  C12 UNL     1      67.371  -4.866  69.967  1.00  0.00     0.187 C 
HETATM   23  C13 UNL     1      68.259  -3.873  70.746  1.00  0.00     0.150 C 
ENDBRANCH   6  18
BRANCH   3  24
HETATM   24  S1  UNL     1      73.071  -0.815  69.392  1.00  0.00    -0.089 SA
BRANCH  24  25
HETATM   25  C3  UNL     1      74.367  -1.395  68.320  1.00  0.00     0.055 C 
HETATM   26  C4  UNL     1      75.658  -0.671  68.599  1.00  0.00     0.015 C 
HETATM   27  C5  UNL     1      76.731  -1.392  67.788  1.00  0.00     0.001 C 
HETATM   28  C6  UNL     1      77.137  -2.587  68.624  1.00  0.00     0.000 C 
HETATM   29  C7  UNL     1      75.899  -3.149  69.290  1.00  0.00     0.001 C 
HETATM   30  C8  UNL     1      74.635  -2.867  68.516  1.00  0.00     0.015 C 
ENDBRANCH  24  25
ENDBRANCH   3  24
TORSDOF 5
ENDMDL
MODEL 5
REMARK VINA RESULT: -7.354452194      1.818      2.534
REMARK  5 active torsions:
REMARK  status: ('A' for Active; 'I' for Inactive)
REMARK    1  A    between atoms: C2_3  and  S1_4 
REMARK    2  A    between atoms: S1_4  and  C3_5 
REMARK    3  A    between atoms: C9_13  and  N3_14 
REMARK    4  A    between atoms: C14_20  and  S2_21 
REMARK    5  A    between atoms: S2_21  and  C15_22 
ROOT
HETATM    1  C1  UNL     1      74.517  -2.374  71.403  1.00  0.00     0.161 C 
HETATM    2  N1  UNL     1      73.191  -2.864  71.154  1.00  0.00    -0.298 N 
HETATM    3  C2  UNL     1      72.741  -2.935  69.900  1.00  0.00     0.150 A 
HETATM    4  N2  UNL     1      71.510  -3.413  69.687  1.00  0.00    -0.322 N 
ATOM      5  H2  UNL     1      71.162  -3.471  68.730  1.00  0.00     0.169 HD
HETATM    6  C9  UNL     1      70.692  -3.833  70.727  1.00  0.00     0.128 A 
HETATM    7  C14 UNL     1      71.157  -3.758  72.008  1.00  0.00     0.117 A 
HETATM    8  C21 UNL     1      72.429  -3.264  72.216  1.00  0.00     0.270 A 
HETATM    9  O2  UNL     1      72.856  -3.193  73.383  1.00  0.00    -0.266 OA
ENDROOT
BRANCH   7  10
HETATM   10  S2  UNL     1      70.216  -4.278  73.392  1.00  0.00    -0.078 SA
BRANCH  10  11
HETATM   11  C15 UNL     1      70.471  -5.926  73.934  1.00  0.00     0.044 A 
HETATM   12  C16 UNL     1      71.239  -6.761  73.151  1.00  0.00     0.022 A 
HETATM   13  C17 UNL     1      71.469  -8.050  73.540  1.00  0.00     0.002 A 
HETATM   14  C18 UNL     1      70.923  -8.501  74.730  1.00  0.00     0.003 A 
HETATM   15  C19 UNL     1      70.155  -7.658  75.510  1.00  0.00     0.044 A 
HETATM   16  C20 UNL     1      69.919  -6.359  75.121  1.00  0.00     0.133 A 
HETATM   17  F1  UNL     1      69.154  -5.527  75.904  1.00  0.00    -0.205 F 
ENDBRANCH  10  11
ENDBRANCH   7  10
BRANCH   6  18
HETATM   18  N3  UNL     1      69.407  -4.301  70.414  1.00  0.00    -0.362 N 
HETATM   19  C10 UNL     1      69.228  -5.745  70.127  1.00  0.00     0.150 C 
HETATM   20  C11 UNL     1      68.023  -6.180  70.937  1.00  0.00     0.187 C 
HETATM   21  O1  UNL     1      66.880  -5.469  70.575  1.00  0.00    -0.388 OA
HETATM   22  C12 UNL     1      67.137  -4.460  69.684  1.00  0.00     0.187 C 
HETATM   23  C13 UNL     1      68.207  -3.542  70.309  1.00  0.00     0.150 C 
ENDBRANCH   6  18
BRANCH   3  24
HETATM   24  S1  UNL     1      73.783  -2.362  68.568  1.00  0.00    -0.089 SA
BRANCH  24  25
HETATM   25  C3  UNL     1      73.669  -0.618  68.236  1.00  0.00     0.055 C 
HETATM   26  C4  UNL     1      72.854   0.078  69.295  1.00  0.00     0.015 C 
HETATM   27  C5  UNL     1      73.006   1.573  69.031  1.00  0.00     0.001 C 
HETATM   28  C6  UNL     1      74.317   1.967  69.679  1.00  0.00     0.000 C 
HETATM   29  C7  UNL     1      75.314   0.850  69.462  1.00  0.00     0.001 C 
HETATM   30  C8  UNL     1      75.028   0.037  68.224  1.00  0.00     0.015 C 
ENDBRANCH  24  25
ENDBRANCH   3  24
TORSDOF 5
ENDMDL
