MODEL 1
REMARK VINA RESULT: -4.892135974      0.000      0.000
REMARK  3 active torsions:
REMARK  status: ('A' for Active; 'I' for Inactive)
REMARK    1  A    between atoms: C2_2  and  C3_3 
REMARK    2  A    between atoms: C3_3  and  C6_9 
REMARK    3  A    between atoms: C4_4  and  C5_5 
ROOT
HETATM    1  C3  UNL     1      19.220   2.200  -4.234  1.00  0.00    -0.011 C 
HETATM    2  C4  UNL     1      19.327   0.953  -3.714  1.00  0.00     0.030 C 
ENDROOT
BRANCH   1   3
HETATM    3  C2  UNL     1      17.971   2.595  -4.732  1.00  0.00     0.003 C 
HETATM    4  C1  UNL     1      17.526   3.658  -5.314  1.00  0.00     0.012 C 
ENDBRANCH   1   3
BRANCH   1   5
HETATM    5  C6  UNL     1      20.438   2.967  -4.201  1.00  0.00     0.069 C 
HETATM    6  N2  UNL     1      21.213   3.034  -5.462  1.00  0.00    -0.101 NA
HETATM    7  C7  UNL     1      20.985   3.624  -3.227  1.00  0.00     0.127 C 
HETATM    8  N3  UNL     1      22.242   4.308  -3.518  1.00  0.00    -0.113 NA
ENDBRANCH   1   5
BRANCH   2   9
HETATM    9  C5  UNL     1      18.300  -0.030  -3.609  1.00  0.00     0.081 C 
HETATM   10  N1  UNL     1      18.263  -0.978  -4.515  1.00  0.00    -0.408 N 
ATOM     11  H12 UNL     1      18.955  -0.996  -5.264  1.00  0.00     0.155 HD
ATOM     12  H11 UNL     1      17.529  -1.681  -4.440  1.00  0.00     0.155 HD
ENDBRANCH   2   9
TORSDOF 3
ENDMDL
MODEL 2
REMARK VINA RESULT: -4.825556765      0.861      1.105
REMARK  3 active torsions:
REMARK  status: ('A' for Active; 'I' for Inactive)
REMARK    1  A    between atoms: C2_2  and  C3_3 
REMARK    2  A    between atoms: C3_3  and  C6_9 
REMARK    3  A    between atoms: C4_4  and  C5_5 
ROOT
HETATM    1  C3  UNL     1      19.231   2.142  -4.113  1.00  0.00    -0.011 C 
HETATM    2  C4  UNL     1      19.131   0.940  -3.496  1.00  0.00     0.030 C 
ENDROOT
BRANCH   1   3
HETATM    3  C2  UNL     1      18.221   2.497  -5.018  1.00  0.00     0.003 C 
HETATM    4  C1  UNL     1      17.417   3.501  -5.126  1.00  0.00     0.012 C 
ENDBRANCH   1   3
BRANCH   1   5
HETATM    5  C6  UNL     1      20.392   2.909  -3.743  1.00  0.00     0.069 C 
HETATM    6  N2  UNL     1      20.822   2.817  -2.328  1.00  0.00    -0.101 NA
HETATM    7  C7  UNL     1      21.142   3.686  -4.458  1.00  0.00     0.127 C 
HETATM    8  N3  UNL     1      22.262   4.330  -3.777  1.00  0.00    -0.113 NA
ENDBRANCH   1   5
BRANCH   2   9
HETATM    9  C5  UNL     1      18.101  -0.032  -3.658  1.00  0.00     0.081 C 
HETATM   10  N1  UNL     1      18.298  -0.996  -4.523  1.00  0.00    -0.408 N 
ATOM     11  H12 UNL     1      19.167  -1.036  -5.056  1.00  0.00     0.155 HD
ATOM     12  H11 UNL     1      17.561  -1.692  -4.639  1.00  0.00     0.155 HD
ENDBRANCH   2   9
TORSDOF 3
ENDMDL
MODEL 3
REMARK VINA RESULT: -4.756863408      2.215      4.805
REMARK  3 active torsions:
REMARK  status: ('A' for Active; 'I' for Inactive)
REMARK    1  A    between atoms: C2_2  and  C3_3 
REMARK    2  A    between atoms: C3_3  and  C6_9 
REMARK    3  A    between atoms: C4_4  and  C5_5 
ROOT
HETATM    1  C3  UNL     1      19.784   3.780  -4.344  1.00  0.00    -0.011 C 
HETATM    2  C4  UNL     1      19.722   5.046  -4.822  1.00  0.00     0.030 C 
ENDROOT
BRANCH   1   3
HETATM    3  C2  UNL     1      20.759   3.494  -3.378  1.00  0.00     0.003 C 
HETATM    4  C1  UNL     1      20.790   2.761  -2.315  1.00  0.00     0.012 C 
ENDBRANCH   1   3
BRANCH   1   5
HETATM    5  C6  UNL     1      18.813   2.880  -4.909  1.00  0.00     0.069 C 
HETATM    6  N2  UNL     1      19.318   1.567  -5.373  1.00  0.00    -0.101 NA
HETATM    7  C7  UNL     1      17.538   3.030  -5.086  1.00  0.00     0.127 C 
HETATM    8  N3  UNL     1      16.822   1.914  -5.696  1.00  0.00    -0.113 NA
ENDBRANCH   1   5
BRANCH   2   9
HETATM    9  C5  UNL     1      20.546   6.150  -4.455  1.00  0.00     0.081 C 
HETATM   10  N1  UNL     1      19.956   7.242  -4.032  1.00  0.00    -0.408 N 
ATOM     11  H12 UNL     1      18.939   7.284  -3.973  1.00  0.00     0.155 HD
ATOM     12  H11 UNL     1      20.546   8.032  -3.769  1.00  0.00     0.155 HD
ENDBRANCH   2   9
TORSDOF 3
ENDMDL
MODEL 4
REMARK VINA RESULT: -4.750411256      1.417      4.024
REMARK  3 active torsions:
REMARK  status: ('A' for Active; 'I' for Inactive)
REMARK    1  A    between atoms: C2_2  and  C3_3 
REMARK    2  A    between atoms: C3_3  and  C6_9 
REMARK    3  A    between atoms: C4_4  and  C5_5 
ROOT
HETATM    1  C3  UNL     1      19.803   3.000  -4.181  1.00  0.00    -0.011 C 
HETATM    2  C4  UNL     1      20.807   3.212  -3.296  1.00  0.00     0.030 C 
ENDROOT
BRANCH   1   3
HETATM    3  C2  UNL     1      19.540   4.004  -5.123  1.00  0.00     0.003 C 
HETATM    4  C1  UNL     1      19.883   4.203  -6.351  1.00  0.00     0.012 C 
ENDBRANCH   1   3
BRANCH   1   5
HETATM    5  C6  UNL     1      19.130   1.737  -4.027  1.00  0.00     0.069 C 
HETATM    6  N2  UNL     1      18.917   0.945  -5.261  1.00  0.00    -0.101 NA
HETATM    7  C7  UNL     1      18.666   1.162  -2.963  1.00  0.00     0.127 C 
HETATM    8  N3  UNL     1      18.026  -0.138  -3.142  1.00  0.00    -0.113 NA
ENDBRANCH   1   5
BRANCH   2   9
HETATM    9  C5  UNL     1      21.648   4.360  -3.202  1.00  0.00     0.081 C 
HETATM   10  N1  UNL     1      22.763   4.361  -3.890  1.00  0.00    -0.408 N 
ATOM     11  H12 UNL     1      23.007   3.559  -4.470  1.00  0.00     0.155 HD
ATOM     12  H11 UNL     1      23.365   5.182  -3.823  1.00  0.00     0.155 HD
ENDBRANCH   2   9
TORSDOF 3
ENDMDL
MODEL 5
REMARK VINA RESULT: -4.745040841      1.318      4.114
REMARK  3 active torsions:
REMARK  status: ('A' for Active; 'I' for Inactive)
REMARK    1  A    between atoms: C2_2  and  C3_3 
REMARK    2  A    between atoms: C3_3  and  C6_9 
REMARK    3  A    between atoms: C4_4  and  C5_5 
ROOT
HETATM    1  C3  UNL     1      19.374   2.788  -4.042  1.00  0.00    -0.011 C 
HETATM    2  C4  UNL     1      20.504   3.149  -3.387  1.00  0.00     0.030 C 
ENDROOT
BRANCH   1   3
HETATM    3  C2  UNL     1      18.886   3.656  -5.030  1.00  0.00     0.003 C 
HETATM    4  C1  UNL     1      17.709   4.054  -5.380  1.00  0.00     0.012 C 
ENDBRANCH   1   3
BRANCH   1   5
HETATM    5  C6  UNL     1      18.817   1.529  -3.622  1.00  0.00     0.069 C 
HETATM    6  N2  UNL     1      18.777   1.276  -2.163  1.00  0.00    -0.101 NA
HETATM    7  C7  UNL     1      18.333   0.554  -4.325  1.00  0.00     0.127 C 
HETATM    8  N3  UNL     1      17.839  -0.606  -3.589  1.00  0.00    -0.113 NA
ENDBRANCH   1   5
BRANCH   2   9
HETATM    9  C5  UNL     1      21.276   4.332  -3.583  1.00  0.00     0.081 C 
HETATM   10  N1  UNL     1      22.579   4.209  -3.656  1.00  0.00    -0.408 N 
ATOM     11  H12 UNL     1      23.011   3.289  -3.575  1.00  0.00     0.155 HD
ATOM     12  H11 UNL     1      23.131   5.055  -3.796  1.00  0.00     0.155 HD
ENDBRANCH   2   9
TORSDOF 3
ENDMDL
