MODEL 1
REMARK VINA RESULT: -4.398432346      0.000      0.000
REMARK  7 active torsions:
REMARK  status: ('A' for Active; 'I' for Inactive)
REMARK    1  A    between atoms: C2_2  and  C3_3 
REMARK    2  A    between atoms: C2_2  and  C7_15 
REMARK    3  A    between atoms: C4_4  and  C5_5 
REMARK    4  A    between atoms: C4_4  and  C6_10 
REMARK    5  A    between atoms: C5_5  and  N1_6 
REMARK    6  A    between atoms: C6_10  and  N2_11 
REMARK    7  A    between atoms: C7_15  and  N3_16 
ROOT
HETATM    1  C3  UNL     1      19.451   2.994  -4.772  1.00  0.00    -0.015 C 
HETATM    2  C4  UNL     1      19.103   1.847  -4.220  1.00  0.00    -0.033 C 
ENDROOT
BRANCH   2   3
HETATM    3  C5  UNL     1      19.565   1.526  -2.865  1.00  0.00     0.265 C 
BRANCH   3   4
HETATM    4  N1  UNL     1      20.953   1.163  -2.777  1.00  0.00    -0.076 N 
ATOM      5  H13 UNL     1      21.480   1.586  -3.541  1.00  0.00     0.274 HD
ATOM      6  H12 UNL     1      21.392   1.631  -1.982  1.00  0.00     0.274 HD
ATOM      7  H11 UNL     1      21.129   0.159  -2.738  1.00  0.00     0.274 HD
ENDBRANCH   3   4
ENDBRANCH   2   3
BRANCH   2   8
HETATM    8  C6  UNL     1      18.239   0.903  -5.006  1.00  0.00     0.265 C 
BRANCH   8   9
HETATM    9  N2  UNL     1      18.299  -0.441  -4.480  1.00  0.00    -0.076 N 
ATOM     10  H23 UNL     1      19.083  -0.555  -3.838  1.00  0.00     0.274 HD
ATOM     11  H22 UNL     1      17.534  -0.620  -3.830  1.00  0.00     0.274 HD
ATOM     12  H21 UNL     1      18.324  -1.138  -5.224  1.00  0.00     0.274 HD
ENDBRANCH   8   9
ENDBRANCH   2   8
BRANCH   1  13
HETATM   13  C2  UNL     1      20.269   4.072  -4.240  1.00  0.00     0.030 C 
HETATM   14  C1  UNL     1      19.670   5.400  -4.719  1.00  0.00     0.016 C 
BRANCH  13  15
HETATM   15  C7  UNL     1      21.681   3.966  -4.834  1.00  0.00     0.237 C 
BRANCH  15  16
HETATM   16  N3  UNL     1      22.669   4.343  -3.837  1.00  0.00    -0.079 N 
ATOM     17  H33 UNL     1      22.398   5.185  -3.328  1.00  0.00     0.274 HD
ATOM     18  H32 UNL     1      22.687   3.693  -3.052  1.00  0.00     0.274 HD
ATOM     19  H31 UNL     1      23.585   4.441  -4.275  1.00  0.00     0.274 HD
ENDBRANCH  15  16
ENDBRANCH  13  15
ENDBRANCH   1  13
TORSDOF 7
ENDMDL
MODEL 2
REMARK VINA RESULT: -4.334249837      2.020      2.201
REMARK  7 active torsions:
REMARK  status: ('A' for Active; 'I' for Inactive)
REMARK    1  A    between atoms: C2_2  and  C3_3 
REMARK    2  A    between atoms: C2_2  and  C7_15 
REMARK    3  A    between atoms: C4_4  and  C5_5 
REMARK    4  A    between atoms: C4_4  and  C6_10 
REMARK    5  A    between atoms: C5_5  and  N1_6 
REMARK    6  A    between atoms: C6_10  and  N2_11 
REMARK    7  A    between atoms: C7_15  and  N3_16 
ROOT
HETATM    1  C3  UNL     1      17.897   1.920  -4.763  1.00  0.00    -0.015 C 
HETATM    2  C4  UNL     1      18.516   1.179  -3.863  1.00  0.00    -0.033 C 
ENDROOT
BRANCH   2   3
HETATM    3  C5  UNL     1      19.566   1.776  -3.031  1.00  0.00     0.265 C 
BRANCH   3   4
HETATM    4  N1  UNL     1      20.889   1.274  -3.284  1.00  0.00    -0.076 N 
ATOM      5  H13 UNL     1      20.842   0.398  -3.805  1.00  0.00     0.274 HD
ATOM      6  H12 UNL     1      21.366   1.860  -3.969  1.00  0.00     0.274 HD
ATOM      7  H11 UNL     1      21.467   1.160  -2.451  1.00  0.00     0.274 HD
ENDBRANCH   3   4
ENDBRANCH   2   3
BRANCH   2   8
HETATM    8  C6  UNL     1      18.122  -0.263  -3.725  1.00  0.00     0.265 C 
BRANCH   8   9
HETATM    9  N2  UNL     1      18.126  -0.945  -4.999  1.00  0.00    -0.076 N 
ATOM     10  H23 UNL     1      17.921  -0.303  -5.765  1.00  0.00     0.274 HD
ATOM     11  H22 UNL     1      19.070  -1.219  -5.271  1.00  0.00     0.274 HD
ATOM     12  H21 UNL     1      17.491  -1.743  -5.004  1.00  0.00     0.274 HD
ENDBRANCH   8   9
ENDBRANCH   2   8
BRANCH   1  13
HETATM   13  C2  UNL     1      18.081   3.323  -5.099  1.00  0.00     0.030 C 
HETATM   14  C1  UNL     1      16.697   3.941  -5.325  1.00  0.00     0.016 C 
BRANCH  13  15
HETATM   15  C7  UNL     1      18.849   3.420  -6.425  1.00  0.00     0.237 C 
BRANCH  15  16
HETATM   16  N3  UNL     1      20.270   3.586  -6.166  1.00  0.00    -0.079 N 
ATOM     17  H33 UNL     1      20.454   4.358  -5.525  1.00  0.00     0.274 HD
ATOM     18  H32 UNL     1      20.646   2.828  -5.597  1.00  0.00     0.274 HD
ATOM     19  H31 UNL     1      20.774   3.691  -7.046  1.00  0.00     0.274 HD
ENDBRANCH  15  16
ENDBRANCH  13  15
ENDBRANCH   1  13
TORSDOF 7
ENDMDL
MODEL 3
REMARK VINA RESULT: -4.306478545      1.127      1.229
REMARK  7 active torsions:
REMARK  status: ('A' for Active; 'I' for Inactive)
REMARK    1  A    between atoms: C2_2  and  C3_3 
REMARK    2  A    between atoms: C2_2  and  C7_15 
REMARK    3  A    between atoms: C4_4  and  C5_5 
REMARK    4  A    between atoms: C4_4  and  C6_10 
REMARK    5  A    between atoms: C5_5  and  N1_6 
REMARK    6  A    between atoms: C6_10  and  N2_11 
REMARK    7  A    between atoms: C7_15  and  N3_16 
ROOT
HETATM    1  C3  UNL     1      19.697   4.215  -4.903  1.00  0.00    -0.015 C 
HETATM    2  C4  UNL     1      19.362   2.967  -4.636  1.00  0.00    -0.033 C 
ENDROOT
BRANCH   2   3
HETATM    3  C5  UNL     1      19.808   2.350  -3.382  1.00  0.00     0.265 C 
BRANCH   3   4
HETATM    4  N1  UNL     1      20.831   1.352  -3.536  1.00  0.00    -0.076 N 
ATOM      5  H13 UNL     1      20.492   0.582  -4.112  1.00  0.00     0.274 HD
ATOM      6  H12 UNL     1      21.580   1.702  -4.134  1.00  0.00     0.274 HD
ATOM      7  H11 UNL     1      21.215   0.997  -2.660  1.00  0.00     0.274 HD
ENDBRANCH   3   4
ENDBRANCH   2   3
BRANCH   2   8
HETATM    8  C6  UNL     1      18.530   2.216  -5.635  1.00  0.00     0.265 C 
BRANCH   8   9
HETATM    9  N2  UNL     1      17.585   1.332  -4.989  1.00  0.00    -0.076 N 
ATOM     10  H23 UNL     1      16.746   1.207  -5.556  1.00  0.00     0.274 HD
ATOM     11  H22 UNL     1      17.920   0.369  -4.986  1.00  0.00     0.274 HD
ATOM     12  H21 UNL     1      17.354   1.649  -4.048  1.00  0.00     0.274 HD
ENDBRANCH   8   9
ENDBRANCH   2   8
BRANCH   1  13
HETATM   13  C2  UNL     1      20.485   5.154  -4.121  1.00  0.00     0.030 C 
HETATM   14  C1  UNL     1      19.914   6.558  -4.355  1.00  0.00     0.016 C 
BRANCH  13  15
HETATM   15  C7  UNL     1      21.927   5.152  -4.646  1.00  0.00     0.237 C 
BRANCH  15  16
HETATM   16  N3  UNL     1      22.776   4.368  -3.764  1.00  0.00    -0.079 N 
ATOM     17  H33 UNL     1      22.968   4.852  -2.887  1.00  0.00     0.274 HD
ATOM     18  H32 UNL     1      22.287   3.558  -3.384  1.00  0.00     0.274 HD
ATOM     19  H31 UNL     1      23.633   4.104  -4.250  1.00  0.00     0.274 HD
ENDBRANCH  15  16
ENDBRANCH  13  15
ENDBRANCH   1  13
TORSDOF 7
ENDMDL
MODEL 4
REMARK VINA RESULT: -4.293975922      1.707      4.552
REMARK  7 active torsions:
REMARK  status: ('A' for Active; 'I' for Inactive)
REMARK    1  A    between atoms: C2_2  and  C3_3 
REMARK    2  A    between atoms: C2_2  and  C7_15 
REMARK    3  A    between atoms: C4_4  and  C5_5 
REMARK    4  A    between atoms: C4_4  and  C6_10 
REMARK    5  A    between atoms: C5_5  and  N1_6 
REMARK    6  A    between atoms: C6_10  and  N2_11 
REMARK    7  A    between atoms: C7_15  and  N3_16 
ROOT
HETATM    1  C3  UNL     1      19.732   2.234  -3.788  1.00  0.00    -0.015 C 
HETATM    2  C4  UNL     1      20.679   3.028  -4.251  1.00  0.00    -0.033 C 
ENDROOT
BRANCH   2   3
HETATM    3  C5  UNL     1      21.032   2.981  -5.674  1.00  0.00     0.265 C 
BRANCH   3   4
HETATM    4  N1  UNL     1      20.389   3.980  -6.484  1.00  0.00    -0.076 N 
ATOM      5  H13 UNL     1      19.436   4.140  -6.160  1.00  0.00     0.274 HD
ATOM      6  H12 UNL     1      20.794   4.899  -6.301  1.00  0.00     0.274 HD
ATOM      7  H11 UNL     1      20.395   3.784  -7.485  1.00  0.00     0.274 HD
ENDBRANCH   3   4
ENDBRANCH   2   3
BRANCH   2   8
HETATM    8  C6  UNL     1      21.370   3.958  -3.295  1.00  0.00     0.265 C 
BRANCH   8   9
HETATM    9  N2  UNL     1      22.674   4.351  -3.778  1.00  0.00    -0.076 N 
ATOM     10  H23 UNL     1      23.060   5.116  -3.225  1.00  0.00     0.274 HD
ATOM     11  H22 UNL     1      23.375   3.639  -3.575  1.00  0.00     0.274 HD
ATOM     12  H21 UNL     1      22.656   4.582  -4.771  1.00  0.00     0.274 HD
ENDBRANCH   8   9
ENDBRANCH   2   8
BRANCH   1  13
HETATM   13  C2  UNL     1      18.918   1.252  -4.486  1.00  0.00     0.030 C 
HETATM   14  C1  UNL     1      17.638   1.951  -4.959  1.00  0.00     0.016 C 
BRANCH  13  15
HETATM   15  C7  UNL     1      18.501   0.156  -3.495  1.00  0.00     0.237 C 
BRANCH  15  16
HETATM   16  N3  UNL     1      18.000  -1.002  -4.216  1.00  0.00    -0.079 N 
ATOM     17  H33 UNL     1      17.107  -0.812  -4.673  1.00  0.00     0.274 HD
ATOM     18  H32 UNL     1      18.553  -1.202  -5.049  1.00  0.00     0.274 HD
ATOM     19  H31 UNL     1      17.945  -1.805  -3.590  1.00  0.00     0.274 HD
ENDBRANCH  15  16
ENDBRANCH  13  15
ENDBRANCH   1  13
TORSDOF 7
ENDMDL
MODEL 5
REMARK VINA RESULT: -4.292316077      1.673      4.486
REMARK  7 active torsions:
REMARK  status: ('A' for Active; 'I' for Inactive)
REMARK    1  A    between atoms: C2_2  and  C3_3 
REMARK    2  A    between atoms: C2_2  and  C7_15 
REMARK    3  A    between atoms: C4_4  and  C5_5 
REMARK    4  A    between atoms: C4_4  and  C6_10 
REMARK    5  A    between atoms: C5_5  and  N1_6 
REMARK    6  A    between atoms: C6_10  and  N2_11 
REMARK    7  A    between atoms: C7_15  and  N3_16 
ROOT
HETATM    1  C3  UNL     1      19.625   4.608  -4.682  1.00  0.00    -0.015 C 
HETATM    2  C4  UNL     1      20.628   5.438  -4.463  1.00  0.00    -0.033 C 
ENDROOT
BRANCH   2   3
HETATM    3  C5  UNL     1      21.989   5.043  -4.843  1.00  0.00     0.265 C 
BRANCH   3   4
HETATM    4  N1  UNL     1      22.738   4.397  -3.799  1.00  0.00    -0.076 N 
ATOM      5  H13 UNL     1      23.336   5.072  -3.322  1.00  0.00     0.274 HD
ATOM      6  H12 UNL     1      22.121   4.135  -3.030  1.00  0.00     0.274 HD
ATOM      7  H11 UNL     1      23.286   3.592  -4.104  1.00  0.00     0.274 HD
ENDBRANCH   3   4
ENDBRANCH   2   3
BRANCH   2   8
HETATM    8  C6  UNL     1      20.338   6.766  -3.827  1.00  0.00     0.265 C 
BRANCH   8   9
HETATM    9  N2  UNL     1      20.732   7.866  -4.678  1.00  0.00    -0.076 N 
ATOM     10  H23 UNL     1      21.228   7.536  -5.506  1.00  0.00     0.274 HD
ATOM     11  H22 UNL     1      19.925   8.289  -5.135  1.00  0.00     0.274 HD
ATOM     12  H21 UNL     1      21.278   8.561  -4.170  1.00  0.00     0.274 HD
ENDBRANCH   8   9
ENDBRANCH   2   8
BRANCH   1  13
HETATM   13  C2  UNL     1      19.627   3.281  -5.275  1.00  0.00     0.030 C 
HETATM   14  C1  UNL     1      18.470   3.208  -6.278  1.00  0.00     0.016 C 
BRANCH  13  15
HETATM   15  C7  UNL     1      19.347   2.245  -4.176  1.00  0.00     0.237 C 
BRANCH  15  16
HETATM   16  N3  UNL     1      20.591   1.626  -3.748  1.00  0.00    -0.079 N 
ATOM     17  H33 UNL     1      20.616   1.476  -2.739  1.00  0.00     0.274 HD
ATOM     18  H32 UNL     1      20.654   0.652  -4.044  1.00  0.00     0.274 HD
ATOM     19  H31 UNL     1      21.385   2.177  -4.072  1.00  0.00     0.274 HD
ENDBRANCH  15  16
ENDBRANCH  13  15
ENDBRANCH   1  13
TORSDOF 7
ENDMDL
