MODEL 1
REMARK VINA RESULT: -4.695548728      0.000      0.000
REMARK  5 active torsions:
REMARK  status: ('A' for Active; 'I' for Inactive)
REMARK    1  A    between atoms: N1_1  and  C1_5 
REMARK    2  A    between atoms: C1_5  and  C2_6 
REMARK    3  A    between atoms: C2_6  and  C3_7 
REMARK    4  A    between atoms: C3_7  and  N2_8 
REMARK    5  A    between atoms: C3_7  and  C4_12 
ROOT
HETATM    1  C3  UNL     1      18.603   0.146  -4.309  1.00  0.00     0.234 C 
ENDROOT
BRANCH   1   2
HETATM    2  C2  UNL     1      18.665   0.978  -3.102  1.00  0.00     0.066 C 
BRANCH   2   3
HETATM    3  C1  UNL     1      19.991   1.527  -2.713  1.00  0.00     0.232 C 
BRANCH   3   4
HETATM    4  N1  UNL     1      20.810   1.823  -3.892  1.00  0.00    -0.079 N 
ATOM      5  H13 UNL     1      21.357   1.012  -4.181  1.00  0.00     0.274 HD
ATOM      6  H12 UNL     1      20.237   1.932  -4.729  1.00  0.00     0.274 HD
ATOM      7  H11 UNL     1      21.403   2.638  -3.735  1.00  0.00     0.274 HD
ENDBRANCH   3   4
ENDBRANCH   2   3
ENDBRANCH   1   2
BRANCH   1   8
HETATM    8  N2  UNL     1      17.900  -1.107  -3.931  1.00  0.00    -0.070 N 
ATOM      9  H23 UNL     1      17.148  -0.960  -3.258  1.00  0.00     0.275 HD
ATOM     10  H22 UNL     1      17.326  -1.489  -4.684  1.00  0.00     0.275 HD
ATOM     11  H21 UNL     1      18.613  -1.757  -3.601  1.00  0.00     0.275 HD
ENDBRANCH   1   8
BRANCH   1  12
HETATM   12  C4  UNL     1      17.796   0.673  -5.437  1.00  0.00     0.035 A 
HETATM   13  C5  UNL     1      17.139   1.802  -5.551  1.00  0.00     0.005 A 
HETATM   14  C6  UNL     1      16.504   1.826  -6.887  1.00  0.00     0.073 A 
HETATM   15  C7  UNL     1      16.920   0.528  -7.460  1.00  0.00     0.065 A 
HETATM   16  N3  UNL     1      17.643  -0.088  -6.621  1.00  0.00    -0.371 N 
ATOM     17  H3  UNL     1      18.057  -1.007  -6.777  1.00  0.00     0.164 HD
ENDBRANCH   1  12
TORSDOF 5
ENDMDL
MODEL 2
REMARK VINA RESULT: -4.693767429      2.485      4.502
REMARK  5 active torsions:
REMARK  status: ('A' for Active; 'I' for Inactive)
REMARK    1  A    between atoms: N1_1  and  C1_5 
REMARK    2  A    between atoms: C1_5  and  C2_6 
REMARK    3  A    between atoms: C2_6  and  C3_7 
REMARK    4  A    between atoms: C3_7  and  N2_8 
REMARK    5  A    between atoms: C3_7  and  C4_12 
ROOT
HETATM    1  C3  UNL     1      19.778   2.154  -3.278  1.00  0.00     0.234 C 
ENDROOT
BRANCH   1   2
HETATM    2  C2  UNL     1      18.822   1.417  -4.113  1.00  0.00     0.066 C 
BRANCH   2   3
HETATM    3  C1  UNL     1      18.370   0.086  -3.628  1.00  0.00     0.232 C 
BRANCH   3   4
HETATM    4  N1  UNL     1      18.182  -0.849  -4.741  1.00  0.00    -0.079 N 
ATOM      5  H13 UNL     1      17.800  -0.382  -5.563  1.00  0.00     0.274 HD
ATOM      6  H12 UNL     1      19.075  -1.150  -5.133  1.00  0.00     0.274 HD
ATOM      7  H11 UNL     1      17.609  -1.645  -4.463  1.00  0.00     0.274 HD
ENDBRANCH   3   4
ENDBRANCH   2   3
ENDBRANCH   1   2
BRANCH   1   8
HETATM    8  N2  UNL     1      20.938   1.252  -3.053  1.00  0.00    -0.070 N 
ATOM      9  H23 UNL     1      20.823   0.335  -3.485  1.00  0.00     0.275 HD
ATOM     10  H22 UNL     1      21.772   1.534  -3.569  1.00  0.00     0.275 HD
ATOM     11  H21 UNL     1      21.085   1.206  -2.045  1.00  0.00     0.275 HD
ENDBRANCH   1   8
BRANCH   1  12
HETATM   12  C4  UNL     1      20.388   3.365  -3.880  1.00  0.00     0.035 A 
HETATM   13  C5  UNL     1      19.838   4.334  -4.571  1.00  0.00     0.005 A 
HETATM   14  C6  UNL     1      20.903   5.295  -4.932  1.00  0.00     0.073 A 
HETATM   15  C7  UNL     1      22.106   4.679  -4.333  1.00  0.00     0.065 A 
HETATM   16  N3  UNL     1      21.778   3.602  -3.751  1.00  0.00    -0.371 N 
ATOM     17  H3  UNL     1      22.428   2.989  -3.258  1.00  0.00     0.164 HD
ENDBRANCH   1  12
TORSDOF 5
ENDMDL
MODEL 3
REMARK VINA RESULT: -4.659233253      2.187      3.707
REMARK  5 active torsions:
REMARK  status: ('A' for Active; 'I' for Inactive)
REMARK    1  A    between atoms: N1_1  and  C1_5 
REMARK    2  A    between atoms: C1_5  and  C2_6 
REMARK    3  A    between atoms: C2_6  and  C3_7 
REMARK    4  A    between atoms: C3_7  and  N2_8 
REMARK    5  A    between atoms: C3_7  and  C4_12 
ROOT
HETATM    1  C3  UNL     1      19.764   2.019  -3.034  1.00  0.00     0.234 C 
ENDROOT
BRANCH   1   2
HETATM    2  C2  UNL     1      18.648   1.069  -3.113  1.00  0.00     0.066 C 
BRANCH   2   3
HETATM    3  C1  UNL     1      18.617   0.141  -4.274  1.00  0.00     0.232 C 
BRANCH   3   4
HETATM    4  N1  UNL     1      17.843  -1.066  -3.968  1.00  0.00    -0.079 N 
ATOM      5  H13 UNL     1      17.741  -1.202  -2.963  1.00  0.00     0.274 HD
ATOM      6  H12 UNL     1      16.858  -0.952  -4.211  1.00  0.00     0.274 HD
ATOM      7  H11 UNL     1      18.246  -1.888  -4.418  1.00  0.00     0.274 HD
ENDBRANCH   3   4
ENDBRANCH   2   3
ENDBRANCH   1   2
BRANCH   1   8
HETATM    8  N2  UNL     1      21.002   1.213  -2.863  1.00  0.00    -0.070 N 
ATOM      9  H23 UNL     1      20.860   0.218  -3.032  1.00  0.00     0.275 HD
ATOM     10  H22 UNL     1      21.689   1.372  -3.599  1.00  0.00     0.275 HD
ATOM     11  H21 UNL     1      21.358   1.416  -1.929  1.00  0.00     0.275 HD
ENDBRANCH   1   8
BRANCH   1  12
HETATM   12  C4  UNL     1      20.036   2.825  -4.248  1.00  0.00     0.035 A 
HETATM   13  C5  UNL     1      19.331   3.781  -4.804  1.00  0.00     0.005 A 
HETATM   14  C6  UNL     1      20.063   4.248  -6.002  1.00  0.00     0.073 A 
HETATM   15  C7  UNL     1      21.262   3.383  -6.000  1.00  0.00     0.065 A 
HETATM   16  N3  UNL     1      21.213   2.602  -5.004  1.00  0.00    -0.371 N 
ATOM     17  H3  UNL     1      21.924   1.906  -4.777  1.00  0.00     0.164 HD
ENDBRANCH   1  12
TORSDOF 5
ENDMDL
MODEL 4
REMARK VINA RESULT: -4.588999708      2.525      4.478
REMARK  5 active torsions:
REMARK  status: ('A' for Active; 'I' for Inactive)
REMARK    1  A    between atoms: N1_1  and  C1_5 
REMARK    2  A    between atoms: C1_5  and  C2_6 
REMARK    3  A    between atoms: C2_6  and  C3_7 
REMARK    4  A    between atoms: C3_7  and  N2_8 
REMARK    5  A    between atoms: C3_7  and  C4_12 
ROOT
HETATM    1  C3  UNL     1      19.432   2.028  -4.615  1.00  0.00     0.234 C 
ENDROOT
BRANCH   1   2
HETATM    2  C2  UNL     1      19.499   0.919  -3.656  1.00  0.00     0.066 C 
BRANCH   2   3
HETATM    3  C1  UNL     1      18.297   0.055  -3.519  1.00  0.00     0.232 C 
BRANCH   3   4
HETATM    4  N1  UNL     1      18.273  -0.988  -4.549  1.00  0.00    -0.079 N 
ATOM      5  H13 UNL     1      18.913  -0.775  -5.313  1.00  0.00     0.274 HD
ATOM      6  H12 UNL     1      18.705  -1.851  -4.218  1.00  0.00     0.274 HD
ATOM      7  H11 UNL     1      17.325  -1.151  -4.888  1.00  0.00     0.274 HD
ENDBRANCH   3   4
ENDBRANCH   2   3
ENDBRANCH   1   2
BRANCH   1   8
HETATM    8  N2  UNL     1      18.019   2.487  -4.643  1.00  0.00    -0.070 N 
ATOM      9  H23 UNL     1      17.379   1.795  -5.033  1.00  0.00     0.275 HD
ATOM     10  H22 UNL     1      17.597   2.545  -3.716  1.00  0.00     0.275 HD
ATOM     11  H21 UNL     1      18.006   3.374  -5.146  1.00  0.00     0.275 HD
ENDBRANCH   1   8
BRANCH   1  12
HETATM   12  C4  UNL     1      20.191   3.254  -4.266  1.00  0.00     0.035 A 
HETATM   13  C5  UNL     1      19.915   4.514  -4.500  1.00  0.00     0.005 A 
HETATM   14  C6  UNL     1      21.012   5.332  -3.937  1.00  0.00     0.073 A 
HETATM   15  C7  UNL     1      21.918   4.307  -3.376  1.00  0.00     0.065 A 
HETATM   16  N3  UNL     1      21.425   3.157  -3.578  1.00  0.00    -0.371 N 
ATOM     17  H3  UNL     1      21.858   2.281  -3.286  1.00  0.00     0.164 HD
ENDBRANCH   1  12
TORSDOF 5
ENDMDL
MODEL 5
REMARK VINA RESULT: -4.575661971      3.253      5.091
REMARK  5 active torsions:
REMARK  status: ('A' for Active; 'I' for Inactive)
REMARK    1  A    between atoms: N1_1  and  C1_5 
REMARK    2  A    between atoms: C1_5  and  C2_6 
REMARK    3  A    between atoms: C2_6  and  C3_7 
REMARK    4  A    between atoms: C3_7  and  N2_8 
REMARK    5  A    between atoms: C3_7  and  C4_12 
ROOT
HETATM    1  C3  UNL     1      21.492   4.033  -4.571  1.00  0.00     0.234 C 
ENDROOT
BRANCH   1   2
HETATM    2  C2  UNL     1      20.838   5.307  -4.892  1.00  0.00     0.066 C 
BRANCH   2   3
HETATM    3  C1  UNL     1      20.608   6.262  -3.776  1.00  0.00     0.232 C 
BRANCH   3   4
HETATM    4  N1  UNL     1      19.686   7.330  -4.173  1.00  0.00    -0.079 N 
ATOM      5  H13 UNL     1      18.770   7.215  -3.738  1.00  0.00     0.274 HD
ATOM      6  H12 UNL     1      19.945   8.225  -3.756  1.00  0.00     0.274 HD
ATOM      7  H11 UNL     1      19.612   7.398  -5.188  1.00  0.00     0.274 HD
ENDBRANCH   3   4
ENDBRANCH   2   3
ENDBRANCH   1   2
BRANCH   1   8
HETATM    8  N2  UNL     1      22.581   4.340  -3.607  1.00  0.00    -0.070 N 
ATOM      9  H23 UNL     1      23.215   5.068  -3.936  1.00  0.00     0.275 HD
ATOM     10  H22 UNL     1      22.252   4.824  -2.771  1.00  0.00     0.275 HD
ATOM     11  H21 UNL     1      23.051   3.459  -3.402  1.00  0.00     0.275 HD
ENDBRANCH   1   8
BRANCH   1  12
HETATM   12  C4  UNL     1      20.668   3.026  -3.860  1.00  0.00     0.035 A 
HETATM   13  C5  UNL     1      20.723   2.615  -2.616  1.00  0.00     0.005 A 
HETATM   14  C6  UNL     1      19.670   1.593  -2.427  1.00  0.00     0.073 A 
HETATM   15  C7  UNL     1      19.054   1.519  -3.770  1.00  0.00     0.065 A 
HETATM   16  N3  UNL     1      19.638   2.336  -4.543  1.00  0.00    -0.371 N 
ATOM     17  H3  UNL     1      19.398   2.477  -5.525  1.00  0.00     0.164 HD
ENDBRANCH   1  12
TORSDOF 5
ENDMDL
