MODEL 1
REMARK VINA RESULT: -4.669170074      0.000      0.000
REMARK  5 active torsions:
REMARK  status: ('A' for Active; 'I' for Inactive)
REMARK    1  A    between atoms: C2_2  and  C3_4 
REMARK    2  A    between atoms: C3_4  and  C4_5 
REMARK    3  A    between atoms: C4_5  and  N2_6 
REMARK    4  A    between atoms: C5_10  and  C7_12 
REMARK    5  A    between atoms: C7_12  and  N3_13 
ROOT
HETATM    1  C3  UNL     1      18.883   1.562  -4.262  1.00  0.00    -0.006 C 
HETATM    2  C5  UNL     1      19.788   2.299  -3.752  1.00  0.00    -0.049 C 
HETATM    3  C6  UNL     1      20.440   1.838  -2.448  1.00  0.00     0.046 C 
ENDROOT
BRANCH   1   4
HETATM    4  C2  UNL     1      18.141   1.791  -5.463  1.00  0.00     0.045 C 
HETATM    5  C1  UNL     1      17.073   2.576  -5.427  1.00  0.00     0.040 C 
HETATM    6  N1  UNL     1      18.440   1.231  -6.720  1.00  0.00    -0.103 NA
ENDBRANCH   1   4
BRANCH   1   7
HETATM    7  C4  UNL     1      18.555   0.295  -3.461  1.00  0.00     0.270 C 
BRANCH   7   8
HETATM    8  N2  UNL     1      18.203  -0.804  -4.329  1.00  0.00    -0.075 N 
ATOM      9  H23 UNL     1      17.194  -0.863  -4.467  1.00  0.00     0.274 HD
ATOM     10  H22 UNL     1      18.484  -0.624  -5.293  1.00  0.00     0.274 HD
ATOM     11  H21 UNL     1      18.584  -1.686  -3.989  1.00  0.00     0.274 HD
ENDBRANCH   7   8
ENDBRANCH   1   7
BRANCH   2  12
HETATM   12  C7  UNL     1      20.356   3.541  -4.227  1.00  0.00     0.264 C 
BRANCH  12  13
HETATM   13  N3  UNL     1      21.767   3.689  -3.815  1.00  0.00    -0.076 N 
ATOM     14  H33 UNL     1      21.850   4.243  -2.963  1.00  0.00     0.274 HD
ATOM     15  H32 UNL     1      22.148   2.808  -3.470  1.00  0.00     0.274 HD
ATOM     16  H31 UNL     1      22.341   4.072  -4.566  1.00  0.00     0.274 HD
ENDBRANCH  12  13
ENDBRANCH   2  12
TORSDOF 5
ENDMDL
MODEL 2
REMARK VINA RESULT: -4.526569783      1.503      3.467
REMARK  5 active torsions:
REMARK  status: ('A' for Active; 'I' for Inactive)
REMARK    1  A    between atoms: C2_2  and  C3_4 
REMARK    2  A    between atoms: C3_4  and  C4_5 
REMARK    3  A    between atoms: C4_5  and  N2_6 
REMARK    4  A    between atoms: C5_10  and  C7_12 
REMARK    5  A    between atoms: C7_12  and  N3_13 
ROOT
HETATM    1  C3  UNL     1      19.308   1.719  -4.195  1.00  0.00    -0.006 C 
HETATM    2  C5  UNL     1      18.529   0.810  -4.631  1.00  0.00    -0.049 C 
HETATM    3  C6  UNL     1      18.100  -0.294  -3.664  1.00  0.00     0.046 C 
ENDROOT
BRANCH   1   4
HETATM    4  C2  UNL     1      19.837   2.837  -4.912  1.00  0.00     0.045 C 
HETATM    5  C1  UNL     1      19.120   3.949  -5.005  1.00  0.00     0.040 C 
HETATM    6  N1  UNL     1      21.086   2.866  -5.561  1.00  0.00    -0.103 NA
ENDBRANCH   1   4
BRANCH   1   7
HETATM    7  C4  UNL     1      19.729   1.559  -2.728  1.00  0.00     0.270 C 
BRANCH   7   8
HETATM    8  N2  UNL     1      21.012   2.169  -2.476  1.00  0.00    -0.075 N 
ATOM      9  H23 UNL     1      21.776   1.509  -2.626  1.00  0.00     0.274 HD
ATOM     10  H22 UNL     1      21.249   2.852  -3.196  1.00  0.00     0.274 HD
ATOM     11  H21 UNL     1      21.054   2.581  -1.544  1.00  0.00     0.274 HD
ENDBRANCH   7   8
ENDBRANCH   1   7
BRANCH   2  12
HETATM   12  C7  UNL     1      17.928   0.645  -5.936  1.00  0.00     0.264 C 
BRANCH  12  13
HETATM   13  N3  UNL     1      17.864  -0.777  -6.332  1.00  0.00    -0.076 N 
ATOM     14  H33 UNL     1      18.664  -1.299  -5.975  1.00  0.00     0.274 HD
ATOM     15  H32 UNL     1      17.119  -1.267  -5.837  1.00  0.00     0.274 HD
ATOM     16  H31 UNL     1      17.772  -0.883  -7.342  1.00  0.00     0.274 HD
ENDBRANCH  12  13
ENDBRANCH   2  12
TORSDOF 5
ENDMDL
MODEL 3
REMARK VINA RESULT: -4.454925502      1.480      3.468
REMARK  5 active torsions:
REMARK  status: ('A' for Active; 'I' for Inactive)
REMARK    1  A    between atoms: C2_2  and  C3_4 
REMARK    2  A    between atoms: C3_4  and  C4_5 
REMARK    3  A    between atoms: C4_5  and  N2_6 
REMARK    4  A    between atoms: C5_10  and  C7_12 
REMARK    5  A    between atoms: C7_12  and  N3_13 
ROOT
HETATM    1  C3  UNL     1      19.804   2.338  -3.840  1.00  0.00    -0.006 C 
HETATM    2  C5  UNL     1      18.971   1.404  -3.601  1.00  0.00    -0.049 C 
HETATM    3  C6  UNL     1      18.823   0.924  -2.158  1.00  0.00     0.046 C 
ENDROOT
BRANCH   1   4
HETATM    4  C2  UNL     1      20.109   2.939  -5.101  1.00  0.00     0.045 C 
HETATM    5  C1  UNL     1      19.285   3.849  -5.603  1.00  0.00     0.040 C 
HETATM    6  N1  UNL     1      21.234   2.638  -5.891  1.00  0.00    -0.103 NA
ENDBRANCH   1   4
BRANCH   1   7
HETATM    7  C4  UNL     1      20.573   2.845  -2.612  1.00  0.00     0.270 C 
BRANCH   7   8
HETATM    8  N2  UNL     1      21.710   3.649  -2.994  1.00  0.00    -0.075 N 
ATOM      9  H23 UNL     1      22.571   3.304  -2.569  1.00  0.00     0.274 HD
ATOM     10  H22 UNL     1      21.952   3.511  -3.975  1.00  0.00     0.274 HD
ATOM     11  H21 UNL     1      21.558   4.635  -2.782  1.00  0.00     0.274 HD
ENDBRANCH   7   8
ENDBRANCH   1   7
BRANCH   2  12
HETATM   12  C7  UNL     1      18.076   0.703  -4.495  1.00  0.00     0.264 C 
BRANCH  12  13
HETATM   13  N3  UNL     1      18.215  -0.762  -4.369  1.00  0.00    -0.076 N 
ATOM     14  H33 UNL     1      18.270  -1.048  -3.391  1.00  0.00     0.274 HD
ATOM     15  H32 UNL     1      17.352  -1.241  -4.627  1.00  0.00     0.274 HD
ATOM     16  H31 UNL     1      19.009  -1.113  -4.903  1.00  0.00     0.274 HD
ENDBRANCH  12  13
ENDBRANCH   2  12
TORSDOF 5
ENDMDL
MODEL 4
REMARK VINA RESULT: -4.442357238      1.075      1.186
REMARK  5 active torsions:
REMARK  status: ('A' for Active; 'I' for Inactive)
REMARK    1  A    between atoms: C2_2  and  C3_4 
REMARK    2  A    between atoms: C3_4  and  C4_5 
REMARK    3  A    between atoms: C4_5  and  N2_6 
REMARK    4  A    between atoms: C5_10  and  C7_12 
REMARK    5  A    between atoms: C7_12  and  N3_13 
ROOT
HETATM    1  C3  UNL     1      18.604   1.257  -4.287  1.00  0.00    -0.006 C 
HETATM    2  C5  UNL     1      19.531   2.046  -3.915  1.00  0.00    -0.049 C 
HETATM    3  C6  UNL     1      20.299   1.703  -2.639  1.00  0.00     0.046 C 
ENDROOT
BRANCH   1   4
HETATM    4  C2  UNL     1      17.759   1.376  -5.435  1.00  0.00     0.045 C 
HETATM    5  C1  UNL     1      18.304   1.384  -6.645  1.00  0.00     0.040 C 
HETATM    6  N1  UNL     1      16.357   1.502  -5.400  1.00  0.00    -0.103 NA
ENDBRANCH   1   4
BRANCH   1   7
HETATM    7  C4  UNL     1      18.372   0.053  -3.363  1.00  0.00     0.270 C 
BRANCH   7   8
HETATM    8  N2  UNL     1      17.863  -1.084  -4.093  1.00  0.00    -0.075 N 
ATOM      9  H23 UNL     1      16.848  -1.155  -4.015  1.00  0.00     0.274 HD
ATOM     10  H22 UNL     1      17.935  -0.944  -5.101  1.00  0.00     0.274 HD
ATOM     11  H21 UNL     1      18.320  -1.949  -3.803  1.00  0.00     0.274 HD
ENDBRANCH   7   8
ENDBRANCH   1   7
BRANCH   2  12
HETATM   12  C7  UNL     1      20.030   3.255  -4.533  1.00  0.00     0.264 C 
BRANCH  12  13
HETATM   13  N3  UNL     1      21.388   3.068  -5.081  1.00  0.00    -0.076 N 
ATOM     14  H33 UNL     1      21.980   3.877  -4.893  1.00  0.00     0.274 HD
ATOM     15  H32 UNL     1      21.908   2.365  -4.555  1.00  0.00     0.274 HD
ATOM     16  H31 UNL     1      21.367   2.846  -6.076  1.00  0.00     0.274 HD
ENDBRANCH  12  13
ENDBRANCH   2  12
TORSDOF 5
ENDMDL
MODEL 5
REMARK VINA RESULT: -4.403370010      2.073      3.439
REMARK  5 active torsions:
REMARK  status: ('A' for Active; 'I' for Inactive)
REMARK    1  A    between atoms: C2_2  and  C3_4 
REMARK    2  A    between atoms: C3_4  and  C4_5 
REMARK    3  A    between atoms: C4_5  and  N2_6 
REMARK    4  A    between atoms: C5_10  and  C7_12 
REMARK    5  A    between atoms: C7_12  and  N3_13 
ROOT
HETATM    1  C3  UNL     1      18.334   1.270  -4.506  1.00  0.00    -0.006 C 
HETATM    2  C5  UNL     1      17.867   2.197  -5.244  1.00  0.00    -0.049 C 
HETATM    3  C6  UNL     1      17.232   1.803  -6.578  1.00  0.00     0.046 C 
ENDROOT
BRANCH   1   4
HETATM    4  C2  UNL     1      18.968   1.401  -3.231  1.00  0.00     0.045 C 
HETATM    5  C1  UNL     1      20.200   1.888  -3.165  1.00  0.00     0.040 C 
HETATM    6  N1  UNL     1      18.393   1.038  -1.998  1.00  0.00    -0.103 NA
ENDBRANCH   1   4
BRANCH   1   7
HETATM    7  C4  UNL     1      18.206  -0.144  -5.088  1.00  0.00     0.270 C 
BRANCH   7   8
HETATM    8  N2  UNL     1      17.883  -1.111  -4.066  1.00  0.00    -0.075 N 
ATOM      9  H23 UNL     1      16.965  -1.528  -4.223  1.00  0.00     0.274 HD
ATOM     10  H22 UNL     1      18.455  -1.951  -4.151  1.00  0.00     0.274 HD
ATOM     11  H21 UNL     1      17.952  -0.706  -3.133  1.00  0.00     0.274 HD
ENDBRANCH   7   8
ENDBRANCH   1   7
BRANCH   2  12
HETATM   12  C7  UNL     1      17.801   3.624  -5.019  1.00  0.00     0.264 C 
BRANCH  12  13
HETATM   13  N3  UNL     1      16.449   4.157  -5.281  1.00  0.00    -0.076 N 
ATOM     14  H33 UNL     1      15.913   4.251  -4.418  1.00  0.00     0.274 HD
ATOM     15  H32 UNL     1      16.483   5.139  -5.555  1.00  0.00     0.274 HD
ATOM     16  H31 UNL     1      15.949   3.596  -5.970  1.00  0.00     0.274 HD
ENDBRANCH  12  13
ENDBRANCH   2  12
TORSDOF 5
ENDMDL
