MODEL 1
REMARK VINA RESULT: -6.828268271      0.000      0.000
REMARK  5 active torsions:
REMARK  status: ('A' for Active; 'I' for Inactive)
REMARK    1  A    between atoms: C2_4  and  N2_5 
REMARK    2  A    between atoms: C2_4  and  C11_20 
REMARK    3  A    between atoms: N2_5  and  C3_7 
REMARK    4  A    between atoms: N3_11  and  C7_12 
REMARK    5  A    between atoms: C7_12  and  C8_13 
ROOT
HETATM    1  C3  UNL     1      61.411 -28.859 -33.288  1.00  0.00     0.085 C 
HETATM    2  C4  UNL     1      62.385 -29.677 -32.506  1.00  0.00     0.030 C 
HETATM    3  C5  UNL     1      62.476 -29.117 -31.084  1.00  0.00     0.046 C 
HETATM    4  C6  UNL     1      63.771 -28.346 -30.995  1.00  0.00     0.058 C 
HETATM    5  N3  UNL     1      63.890 -27.210 -31.803  1.00  0.00    -0.387 N 
HETATM    6  C9  UNL     1      63.256 -27.170 -33.066  1.00  0.00     0.124 C 
HETATM    7  C10 UNL     1      61.777 -27.385 -33.043  1.00  0.00     0.045 C 
ENDROOT
BRANCH   1   8
HETATM    8  N2  UNL     1      61.316 -29.122 -34.673  1.00  0.00    -0.368 N 
ATOM      9  H2  UNL     1      62.022 -28.691 -35.270  1.00  0.00     0.161 HD
BRANCH   8  10
HETATM   10  C2  UNL     1      60.344 -29.922 -35.316  1.00  0.00     0.163 C 
HETATM   11  N1  UNL     1      59.730 -29.444 -36.382  1.00  0.00    -0.377 N 
HETATM   12  C1  UNL     1      60.032 -28.143 -36.884  1.00  0.00     0.148 C 
ATOM     13  H1  UNL     1      59.027 -30.013 -36.855  1.00  0.00     0.160 HD
BRANCH  10  14
HETATM   14  C11 UNL     1      59.914 -31.247 -34.906  1.00  0.00     0.298 C 
HETATM   15  N6  UNL     1      60.775 -32.336 -34.713  1.00  0.00    -0.054 NA
HETATM   16  O1  UNL     1      58.681 -31.450 -34.704  1.00  0.00    -0.268 OA
ENDBRANCH  10  14
ENDBRANCH   8  10
ENDBRANCH   1   8
BRANCH   5  17
HETATM   17  C7  UNL     1      64.218 -25.964 -31.224  1.00  0.00     0.194 C 
BRANCH  17  18
HETATM   18  C8  UNL     1      63.322 -25.606 -30.128  1.00  0.00     0.104 C 
HETATM   19  N4  UNL     1      63.844 -25.582 -28.920  1.00  0.00    -0.390 N 
ATOM     20  H42 UNL     1      64.836 -25.810 -28.854  1.00  0.00     0.157 HD
ATOM     21  H41 UNL     1      63.217 -25.332 -28.155  1.00  0.00     0.157 HD
HETATM   22  N5  UNL     1      61.956 -25.293 -30.219  1.00  0.00    -0.086 NA
ENDBRANCH  17  18
ENDBRANCH   5  17
TORSDOF 5
ENDMDL
MODEL 2
REMARK VINA RESULT: -6.749309556      4.072      6.399
REMARK  5 active torsions:
REMARK  status: ('A' for Active; 'I' for Inactive)
REMARK    1  A    between atoms: C2_4  and  N2_5 
REMARK    2  A    between atoms: C2_4  and  C11_20 
REMARK    3  A    between atoms: N2_5  and  C3_7 
REMARK    4  A    between atoms: N3_11  and  C7_12 
REMARK    5  A    between atoms: C7_12  and  C8_13 
ROOT
HETATM    1  C3  UNL     1      60.676 -27.718 -35.984  1.00  0.00     0.085 C 
HETATM    2  C4  UNL     1      61.444 -27.972 -34.728  1.00  0.00     0.030 C 
HETATM    3  C5  UNL     1      62.646 -28.863 -35.052  1.00  0.00     0.046 C 
HETATM    4  C6  UNL     1      62.308 -30.253 -34.568  1.00  0.00     0.058 C 
HETATM    5  N3  UNL     1      61.239 -30.901 -35.196  1.00  0.00    -0.387 N 
HETATM    6  C9  UNL     1      60.141 -30.153 -35.678  1.00  0.00     0.124 C 
HETATM    7  C10 UNL     1      60.484 -29.083 -36.665  1.00  0.00     0.045 C 
ENDROOT
BRANCH   1   8
HETATM    8  N2  UNL     1      59.438 -27.049 -35.856  1.00  0.00    -0.368 N 
ATOM      9  H2  UNL     1      58.602 -27.634 -35.829  1.00  0.00     0.161 HD
BRANCH   8  10
HETATM   10  C2  UNL     1      59.238 -25.653 -35.761  1.00  0.00     0.163 C 
HETATM   11  N1  UNL     1      58.818 -25.147 -34.616  1.00  0.00    -0.377 N 
HETATM   12  C1  UNL     1      58.566 -25.984 -33.489  1.00  0.00     0.148 C 
ATOM     13  H1  UNL     1      58.671 -24.141 -34.536  1.00  0.00     0.160 HD
BRANCH  10  14
HETATM   14  C11 UNL     1      59.426 -24.684 -36.825  1.00  0.00     0.298 C 
HETATM   15  N6  UNL     1      58.399 -24.197 -37.645  1.00  0.00    -0.054 NA
HETATM   16  O1  UNL     1      60.591 -24.238 -37.043  1.00  0.00    -0.268 OA
ENDBRANCH  10  14
ENDBRANCH   8  10
ENDBRANCH   1   8
BRANCH   5  17
HETATM   17  C7  UNL     1      61.428 -32.181 -35.766  1.00  0.00     0.194 C 
BRANCH  17  18
HETATM   18  C8  UNL     1      60.994 -33.255 -34.878  1.00  0.00     0.104 C 
HETATM   19  N4  UNL     1      61.866 -34.210 -34.635  1.00  0.00    -0.390 N 
ATOM     20  H42 UNL     1      62.778 -34.113 -35.083  1.00  0.00     0.157 HD
ATOM     21  H41 UNL     1      61.563 -34.961 -34.014  1.00  0.00     0.157 HD
HETATM   22  N5  UNL     1      59.740 -33.390 -34.261  1.00  0.00    -0.086 NA
ENDBRANCH  17  18
ENDBRANCH   5  17
TORSDOF 5
ENDMDL
MODEL 3
REMARK VINA RESULT: -6.671640024      2.223      6.356
REMARK  5 active torsions:
REMARK  status: ('A' for Active; 'I' for Inactive)
REMARK    1  A    between atoms: C2_4  and  N2_5 
REMARK    2  A    between atoms: C2_4  and  C11_20 
REMARK    3  A    between atoms: N2_5  and  C3_7 
REMARK    4  A    between atoms: N3_11  and  C7_12 
REMARK    5  A    between atoms: C7_12  and  C8_13 
ROOT
HETATM    1  C3  UNL     1      61.746 -27.800 -33.392  1.00  0.00     0.085 C 
HETATM    2  C4  UNL     1      61.684 -27.524 -34.858  1.00  0.00     0.030 C 
HETATM    3  C5  UNL     1      60.485 -28.267 -35.454  1.00  0.00     0.046 C 
HETATM    4  C6  UNL     1      61.029 -29.472 -36.182  1.00  0.00     0.058 C 
HETATM    5  N3  UNL     1      61.668 -30.446 -35.406  1.00  0.00    -0.387 N 
HETATM    6  C9  UNL     1      62.387 -30.072 -34.249  1.00  0.00     0.124 C 
HETATM    7  C10 UNL     1      61.598 -29.322 -33.224  1.00  0.00     0.045 C 
ENDROOT
BRANCH   1   8
HETATM    8  N2  UNL     1      62.885 -27.333 -32.697  1.00  0.00    -0.368 N 
ATOM      9  H2  UNL     1      63.628 -26.922 -33.261  1.00  0.00     0.161 HD
BRANCH   8  10
HETATM   10  C2  UNL     1      63.098 -27.376 -31.301  1.00  0.00     0.163 C 
HETATM   11  N1  UNL     1      64.165 -28.003 -30.839  1.00  0.00    -0.377 N 
HETATM   12  C1  UNL     1      65.090 -28.630 -31.724  1.00  0.00     0.148 C 
ATOM     13  H1  UNL     1      64.329 -28.039 -29.833  1.00  0.00     0.160 HD
BRANCH  10  14
HETATM   14  C11 UNL     1      62.233 -26.809 -30.282  1.00  0.00     0.298 C 
HETATM   15  N6  UNL     1      61.913 -25.449 -30.179  1.00  0.00    -0.054 NA
HETATM   16  O1  UNL     1      61.724 -27.583 -29.418  1.00  0.00    -0.268 OA
ENDBRANCH  10  14
ENDBRANCH   8  10
ENDBRANCH   1   8
BRANCH   5  17
HETATM   17  C7  UNL     1      61.240 -31.792 -35.474  1.00  0.00     0.194 C 
BRANCH  17  18
HETATM   18  C8  UNL     1      59.963 -32.005 -34.797  1.00  0.00     0.104 C 
HETATM   19  N4  UNL     1      59.786 -33.175 -34.223  1.00  0.00    -0.390 N 
ATOM     20  H42 UNL     1      60.563 -33.834 -34.293  1.00  0.00     0.157 HD
ATOM     21  H41 UNL     1      58.894 -33.324 -33.750  1.00  0.00     0.157 HD
HETATM   22  N5  UNL     1      58.895 -31.099 -34.701  1.00  0.00    -0.086 NA
ENDBRANCH  17  18
ENDBRANCH   5  17
TORSDOF 5
ENDMDL
MODEL 4
REMARK VINA RESULT: -6.663055680      1.392      1.739
REMARK  5 active torsions:
REMARK  status: ('A' for Active; 'I' for Inactive)
REMARK    1  A    between atoms: C2_4  and  N2_5 
REMARK    2  A    between atoms: C2_4  and  C11_20 
REMARK    3  A    between atoms: N2_5  and  C3_7 
REMARK    4  A    between atoms: N3_11  and  C7_12 
REMARK    5  A    between atoms: C7_12  and  C8_13 
ROOT
HETATM    1  C3  UNL     1      61.545 -29.345 -32.878  1.00  0.00     0.085 C 
HETATM    2  C4  UNL     1      62.417 -29.966 -31.837  1.00  0.00     0.030 C 
HETATM    3  C5  UNL     1      62.394 -29.089 -30.581  1.00  0.00     0.046 C 
HETATM    4  C6  UNL     1      63.700 -28.331 -30.549  1.00  0.00     0.058 C 
HETATM    5  N3  UNL     1      63.929 -27.418 -31.585  1.00  0.00    -0.387 N 
HETATM    6  C9  UNL     1      63.416 -27.669 -32.877  1.00  0.00     0.124 C 
HETATM    7  C10 UNL     1      61.934 -27.859 -32.948  1.00  0.00     0.045 C 
ENDROOT
BRANCH   1   8
HETATM    8  N2  UNL     1      61.570 -29.926 -34.167  1.00  0.00    -0.368 N 
ATOM      9  H2  UNL     1      61.848 -29.318 -34.937  1.00  0.00     0.161 HD
BRANCH   8  10
HETATM   10  C2  UNL     1      61.250 -31.262 -34.497  1.00  0.00     0.163 C 
HETATM   11  N1  UNL     1      62.228 -32.092 -34.812  1.00  0.00    -0.377 N 
HETATM   12  C1  UNL     1      63.587 -31.657 -34.823  1.00  0.00     0.148 C 
ATOM     13  H1  UNL     1      62.008 -33.058 -35.052  1.00  0.00     0.160 HD
BRANCH  10  14
HETATM   14  C11 UNL     1      59.918 -31.837 -34.555  1.00  0.00     0.298 C 
HETATM   15  N6  UNL     1      59.614 -33.167 -34.237  1.00  0.00    -0.054 NA
HETATM   16  O1  UNL     1      58.954 -31.100 -34.916  1.00  0.00    -0.268 OA
ENDBRANCH  10  14
ENDBRANCH   8  10
ENDBRANCH   1   8
BRANCH   5  17
HETATM   17  C7  UNL     1      64.242 -26.073 -31.281  1.00  0.00     0.194 C 
BRANCH  17  18
HETATM   18  C8  UNL     1      63.417 -25.539 -30.201  1.00  0.00     0.104 C 
HETATM   19  N4  UNL     1      64.026 -25.285 -29.063  1.00  0.00    -0.390 N 
ATOM     20  H42 UNL     1      65.028 -25.476 -29.035  1.00  0.00     0.157 HD
ATOM     21  H41 UNL     1      63.449 -24.912 -28.308  1.00  0.00     0.157 HD
HETATM   22  N5  UNL     1      62.038 -25.276 -30.239  1.00  0.00    -0.086 NA
ENDBRANCH  17  18
ENDBRANCH   5  17
TORSDOF 5
ENDMDL
MODEL 5
REMARK VINA RESULT: -6.656793072      0.863      1.176
REMARK  5 active torsions:
REMARK  status: ('A' for Active; 'I' for Inactive)
REMARK    1  A    between atoms: C2_4  and  N2_5 
REMARK    2  A    between atoms: C2_4  and  C11_20 
REMARK    3  A    between atoms: N2_5  and  C3_7 
REMARK    4  A    between atoms: N3_11  and  C7_12 
REMARK    5  A    between atoms: C7_12  and  C8_13 
ROOT
HETATM    1  C3  UNL     1      62.161 -29.671 -33.249  1.00  0.00     0.085 C 
HETATM    2  C4  UNL     1      63.585 -29.677 -32.801  1.00  0.00     0.030 C 
HETATM    3  C5  UNL     1      63.680 -28.991 -31.436  1.00  0.00     0.046 C 
HETATM    4  C6  UNL     1      64.252 -27.614 -31.673  1.00  0.00     0.058 C 
HETATM    5  N3  UNL     1      63.480 -26.728 -32.433  1.00  0.00    -0.387 N 
HETATM    6  C9  UNL     1      62.654 -27.219 -33.471  1.00  0.00     0.124 C 
HETATM    7  C10 UNL     1      61.643 -28.237 -33.051  1.00  0.00     0.045 C 
ENDROOT
BRANCH   1   8
HETATM    8  N2  UNL     1      61.900 -30.115 -34.566  1.00  0.00    -0.368 N 
ATOM      9  H2  UNL     1      62.705 -30.212 -35.185  1.00  0.00     0.161 HD
BRANCH   8  10
HETATM   10  C2  UNL     1      60.637 -30.440 -35.113  1.00  0.00     0.163 C 
HETATM   11  N1  UNL     1      60.141 -29.674 -36.068  1.00  0.00    -0.377 N 
HETATM   12  C1  UNL     1      60.858 -28.538 -36.546  1.00  0.00     0.148 C 
ATOM     13  H1  UNL     1      59.232 -29.900 -36.470  1.00  0.00     0.160 HD
BRANCH  10  14
HETATM   14  C11 UNL     1      59.785 -31.543 -34.709  1.00  0.00     0.298 C 
HETATM   15  N6  UNL     1      60.249 -32.820 -34.365  1.00  0.00    -0.054 NA
HETATM   16  O1  UNL     1      58.533 -31.358 -34.660  1.00  0.00    -0.268 OA
ENDBRANCH  10  14
ENDBRANCH   8  10
ENDBRANCH   1   8
BRANCH   5  17
HETATM   17  C7  UNL     1      63.148 -25.457 -31.913  1.00  0.00     0.194 C 
BRANCH  17  18
HETATM   18  C8  UNL     1      62.651 -25.529 -30.542  1.00  0.00     0.104 C 
HETATM   19  N4  UNL     1      61.401 -25.908 -30.385  1.00  0.00    -0.390 N 
ATOM     20  H42 UNL     1      60.886 -26.128 -31.238  1.00  0.00     0.157 HD
ATOM     21  H41 UNL     1      61.054 -25.958 -29.426  1.00  0.00     0.157 HD
HETATM   22  N5  UNL     1      63.359 -25.226 -29.367  1.00  0.00    -0.086 NA
ENDBRANCH  17  18
ENDBRANCH   5  17
TORSDOF 5
ENDMDL
