MODEL 1
REMARK VINA RESULT: -6.853698679      0.000      0.000
REMARK  5 active torsions:
REMARK  status: ('A' for Active; 'I' for Inactive)
REMARK    1  A    between atoms: N1_1  and  N2_4 
REMARK    2  A    between atoms: N2_4  and  N3_6 
REMARK       I    between atoms: N3_6  and  C1_8 
REMARK       I    between atoms: C1_8  and  N5_12 
REMARK    3  A    between atoms: N5_12  and  C2_14 
REMARK    4  A    between atoms: C2_14  and  C3_15 
REMARK    5  A    between atoms: C3_15  and  C4_16 
ROOT
HETATM    1  N3  UNL     1      59.819 -31.592 -33.864  1.00  0.00    -0.119 N 
ATOM      2  H3  UNL     1      59.678 -31.428 -32.868  1.00  0.00     0.207 HD
HETATM    3  C1  UNL     1      60.239 -30.484 -34.704  1.00  0.00     0.688 C 
HETATM    4  N4  UNL     1      60.784 -30.817 -35.818  1.00  0.00    -0.234 N 
ATOM      5  H41 UNL     1      61.079 -30.039 -36.409  1.00  0.00     0.174 HD
ATOM      6  H42 UNL     1      60.926 -31.780 -36.122  1.00  0.00     0.174 HD
HETATM    7  N5  UNL     1      60.044 -29.158 -34.286  1.00  0.00    -0.214 N 
ATOM      8  H5  UNL     1      59.186 -28.920 -33.789  1.00  0.00     0.178 HD
ENDROOT
BRANCH   7   9
HETATM    9  C2  UNL     1      61.038 -28.096 -34.542  1.00  0.00     0.071 C 
HETATM   10  C8  UNL     1      61.184 -27.926 -36.037  1.00  0.00     0.036 C 
HETATM   11  C9  UNL     1      60.727 -26.534 -36.500  1.00  0.00     0.029 C 
HETATM   12  C10 UNL     1      59.344 -26.325 -35.964  1.00  0.00     0.167 C 
HETATM   13  O2  UNL     1      59.179 -26.715 -34.636  1.00  0.00    -0.389 OA
HETATM   14  C11 UNL     1      60.464 -26.797 -34.021  1.00  0.00     0.199 C 
BRANCH   9  15
HETATM   15  C3  UNL     1      62.255 -28.523 -33.827  1.00  0.00     0.065 C 
BRANCH  15  16
HETATM   16  C4  UNL     1      62.435 -28.193 -32.402  1.00  0.00     0.123 C 
HETATM   17  C5  UNL     1      62.483 -29.315 -31.427  1.00  0.00     0.034 C 
HETATM   18  C6  UNL     1      63.620 -28.877 -30.479  1.00  0.00     0.029 C 
HETATM   19  C7  UNL     1      64.516 -28.183 -31.504  1.00  0.00     0.168 C 
HETATM   20  O1  UNL     1      63.630 -27.489 -32.267  1.00  0.00    -0.386 OA
ENDBRANCH  15  16
ENDBRANCH   9  15
ENDBRANCH   7   9
BRANCH   1  21
HETATM   21  N2  UNL     1      59.602 -32.871 -34.374  1.00  0.00    -0.235 N 
ATOM     22  H2  UNL     1      58.693 -33.129 -34.759  1.00  0.00     0.208 HD
BRANCH  21  23
HETATM   23  N1  UNL     1      60.568 -33.719 -34.350  1.00  0.00    -0.330 N 
ATOM     24  H12 UNL     1      61.393 -33.529 -33.781  1.00  0.00     0.178 HD
ATOM     25  H11 UNL     1      60.488 -34.571 -34.905  1.00  0.00     0.178 HD
ENDBRANCH  21  23
ENDBRANCH   1  21
TORSDOF 5
ENDMDL
MODEL 2
REMARK VINA RESULT: -6.788190706      1.173      4.358
REMARK  5 active torsions:
REMARK  status: ('A' for Active; 'I' for Inactive)
REMARK    1  A    between atoms: N1_1  and  N2_4 
REMARK    2  A    between atoms: N2_4  and  N3_6 
REMARK       I    between atoms: N3_6  and  C1_8 
REMARK       I    between atoms: C1_8  and  N5_12 
REMARK    3  A    between atoms: N5_12  and  C2_14 
REMARK    4  A    between atoms: C2_14  and  C3_15 
REMARK    5  A    between atoms: C3_15  and  C4_16 
ROOT
HETATM    1  N3  UNL     1      59.842 -31.304 -33.669  1.00  0.00    -0.119 N 
ATOM      2  H3  UNL     1      59.733 -31.425 -32.663  1.00  0.00     0.207 HD
HETATM    3  C1  UNL     1      60.538 -30.129 -34.163  1.00  0.00     0.688 C 
HETATM    4  N4  UNL     1      60.997 -30.225 -35.359  1.00  0.00    -0.234 N 
ATOM      5  H41 UNL     1      61.486 -29.400 -35.705  1.00  0.00     0.174 HD
ATOM      6  H42 UNL     1      60.895 -31.053 -35.946  1.00  0.00     0.174 HD
HETATM    7  N5  UNL     1      60.677 -28.990 -33.354  1.00  0.00    -0.214 N 
ATOM      8  H5  UNL     1      59.900 -28.714 -32.753  1.00  0.00     0.178 HD
ENDROOT
BRANCH   7   9
HETATM    9  C2  UNL     1      61.910 -28.176 -33.343  1.00  0.00     0.071 C 
HETATM   10  C8  UNL     1      61.860 -27.247 -32.152  1.00  0.00     0.036 C 
HETATM   11  C9  UNL     1      62.978 -27.551 -31.144  1.00  0.00     0.029 C 
HETATM   12  C10 UNL     1      62.893 -29.011 -30.820  1.00  0.00     0.167 C 
HETATM   13  O2  UNL     1      62.701 -29.833 -31.929  1.00  0.00    -0.389 OA
HETATM   14  C11 UNL     1      63.074 -29.112 -33.103  1.00  0.00     0.199 C 
BRANCH   9  15
HETATM   15  C3  UNL     1      61.954 -27.519 -34.663  1.00  0.00     0.065 C 
BRANCH  15  16
HETATM   16  C4  UNL     1      60.950 -26.502 -35.021  1.00  0.00     0.123 C 
HETATM   17  C5  UNL     1      61.287 -25.540 -36.105  1.00  0.00     0.034 C 
HETATM   18  C6  UNL     1      59.963 -25.454 -36.892  1.00  0.00     0.029 C 
HETATM   19  C7  UNL     1      59.501 -26.900 -36.717  1.00  0.00     0.168 C 
HETATM   20  O1  UNL     1      59.786 -27.160 -35.414  1.00  0.00    -0.386 OA
ENDBRANCH  15  16
ENDBRANCH   9  15
ENDBRANCH   7   9
BRANCH   1  21
HETATM   21  N2  UNL     1      59.316 -32.271 -34.525  1.00  0.00    -0.235 N 
ATOM     22  H2  UNL     1      58.644 -32.015 -35.248  1.00  0.00     0.208 HD
BRANCH  21  23
HETATM   23  N1  UNL     1      59.695 -33.492 -34.385  1.00  0.00    -0.330 N 
ATOM     24  H12 UNL     1      59.314 -34.055 -33.625  1.00  0.00     0.178 HD
ATOM     25  H11 UNL     1      60.374 -33.874 -35.044  1.00  0.00     0.178 HD
ENDBRANCH  21  23
ENDBRANCH   1  21
TORSDOF 5
ENDMDL
MODEL 3
REMARK VINA RESULT: -6.783688372      1.424      1.535
REMARK  5 active torsions:
REMARK  status: ('A' for Active; 'I' for Inactive)
REMARK    1  A    between atoms: N1_1  and  N2_4 
REMARK    2  A    between atoms: N2_4  and  N3_6 
REMARK       I    between atoms: N3_6  and  C1_8 
REMARK       I    between atoms: C1_8  and  N5_12 
REMARK    3  A    between atoms: N5_12  and  C2_14 
REMARK    4  A    between atoms: C2_14  and  C3_15 
REMARK    5  A    between atoms: C3_15  and  C4_16 
ROOT
HETATM    1  N3  UNL     1      60.437 -30.651 -33.903  1.00  0.00    -0.119 N 
ATOM      2  H3  UNL     1      60.144 -30.533 -32.933  1.00  0.00     0.207 HD
HETATM    3  C1  UNL     1      60.643 -29.471 -34.722  1.00  0.00     0.688 C 
HETATM    4  N4  UNL     1      61.382 -29.645 -35.758  1.00  0.00    -0.234 N 
ATOM      5  H41 UNL     1      61.526 -28.815 -36.334  1.00  0.00     0.174 HD
ATOM      6  H42 UNL     1      61.807 -30.535 -36.016  1.00  0.00     0.174 HD
HETATM    7  N5  UNL     1      60.057 -28.245 -34.368  1.00  0.00    -0.214 N 
ATOM      8  H5  UNL     1      59.114 -28.245 -33.977  1.00  0.00     0.178 HD
ENDROOT
BRANCH   7   9
HETATM    9  C2  UNL     1      60.757 -26.957 -34.542  1.00  0.00     0.071 C 
HETATM   10  C8  UNL     1      61.188 -26.836 -35.985  1.00  0.00     0.036 C 
HETATM   11  C9  UNL     1      60.490 -25.666 -36.694  1.00  0.00     0.029 C 
HETATM   12  C10 UNL     1      59.018 -25.838 -36.479  1.00  0.00     0.167 C 
HETATM   13  O2  UNL     1      58.666 -26.183 -35.175  1.00  0.00    -0.389 OA
HETATM   14  C11 UNL     1      59.749 -25.853 -34.306  1.00  0.00     0.199 C 
BRANCH   9  15
HETATM   15  C3  UNL     1      61.847 -26.970 -33.549  1.00  0.00     0.065 C 
BRANCH  15  16
HETATM   16  C4  UNL     1      61.543 -27.079 -32.111  1.00  0.00     0.123 C 
HETATM   17  C5  UNL     1      62.361 -28.016 -31.294  1.00  0.00     0.034 C 
HETATM   18  C6  UNL     1      62.593 -27.206 -30.001  1.00  0.00     0.029 C 
HETATM   19  C7  UNL     1      62.685 -25.811 -30.619  1.00  0.00     0.168 C 
HETATM   20  O1  UNL     1      61.685 -25.817 -31.540  1.00  0.00    -0.386 OA
ENDBRANCH  15  16
ENDBRANCH   9  15
ENDBRANCH   7   9
BRANCH   1  21
HETATM   21  N2  UNL     1      60.626 -31.942 -34.396  1.00  0.00    -0.235 N 
ATOM     22  H2  UNL     1      61.504 -32.203 -34.844  1.00  0.00     0.208 HD
BRANCH  21  23
HETATM   23  N1  UNL     1      59.672 -32.796 -34.275  1.00  0.00    -0.330 N 
ATOM     24  H12 UNL     1      59.589 -33.558 -34.948  1.00  0.00     0.178 HD
ATOM     25  H11 UNL     1      59.015 -32.691 -33.503  1.00  0.00     0.178 HD
ENDBRANCH  21  23
ENDBRANCH   1  21
TORSDOF 5
ENDMDL
MODEL 4
REMARK VINA RESULT: -6.758888823      1.355      1.549
REMARK  5 active torsions:
REMARK  status: ('A' for Active; 'I' for Inactive)
REMARK    1  A    between atoms: N1_1  and  N2_4 
REMARK    2  A    between atoms: N2_4  and  N3_6 
REMARK       I    between atoms: N3_6  and  C1_8 
REMARK       I    between atoms: C1_8  and  N5_12 
REMARK    3  A    between atoms: N5_12  and  C2_14 
REMARK    4  A    between atoms: C2_14  and  C3_15 
REMARK    5  A    between atoms: C3_15  and  C4_16 
ROOT
HETATM    1  N3  UNL     1      59.917 -32.517 -34.277  1.00  0.00    -0.119 N 
ATOM      2  H3  UNL     1      59.027 -32.293 -33.833  1.00  0.00     0.207 HD
HETATM    3  C1  UNL     1      60.815 -31.434 -34.636  1.00  0.00     0.688 C 
HETATM    4  N4  UNL     1      62.043 -31.771 -34.799  1.00  0.00    -0.234 N 
ATOM      5  H41 UNL     1      62.674 -31.010 -35.051  1.00  0.00     0.174 HD
ATOM      6  H42 UNL     1      62.395 -32.722 -34.693  1.00  0.00     0.174 HD
HETATM    7  N5  UNL     1      60.330 -30.124 -34.782  1.00  0.00    -0.214 N 
ATOM      8  H5  UNL     1      59.415 -29.983 -35.211  1.00  0.00     0.178 HD
ENDROOT
BRANCH   7   9
HETATM    9  C2  UNL     1      61.098 -28.944 -34.337  1.00  0.00     0.071 C 
HETATM   10  C8  UNL     1      62.206 -28.690 -35.332  1.00  0.00     0.036 C 
HETATM   11  C9  UNL     1      62.034 -27.341 -36.046  1.00  0.00     0.029 C 
HETATM   12  C10 UNL     1      60.647 -27.317 -36.611  1.00  0.00     0.167 C 
HETATM   13  O2  UNL     1      59.665 -27.784 -35.741  1.00  0.00    -0.389 OA
HETATM   14  C11 UNL     1      60.178 -27.745 -34.409  1.00  0.00     0.199 C 
BRANCH   9  15
HETATM   15  C3  UNL     1      61.534 -29.260 -32.963  1.00  0.00     0.065 C 
BRANCH  15  16
HETATM   16  C4  UNL     1      62.953 -29.133 -32.586  1.00  0.00     0.123 C 
HETATM   17  C5  UNL     1      63.305 -28.166 -31.512  1.00  0.00     0.034 C 
HETATM   18  C6  UNL     1      64.357 -28.949 -30.697  1.00  0.00     0.029 C 
HETATM   19  C7  UNL     1      63.771 -30.352 -30.859  1.00  0.00     0.168 C 
HETATM   20  O1  UNL     1      63.404 -30.383 -32.168  1.00  0.00    -0.386 OA
ENDBRANCH  15  16
ENDBRANCH   9  15
ENDBRANCH   7   9
BRANCH   1  21
HETATM   21  N2  UNL     1      60.231 -33.854 -34.519  1.00  0.00    -0.235 N 
ATOM     22  H2  UNL     1      61.202 -34.153 -34.599  1.00  0.00     0.208 HD
BRANCH  21  23
HETATM   23  N1  UNL     1      59.271 -34.702 -34.640  1.00  0.00    -0.330 N 
ATOM     24  H12 UNL     1      59.317 -35.590 -34.141  1.00  0.00     0.178 HD
ATOM     25  H11 UNL     1      58.479 -34.465 -35.237  1.00  0.00     0.178 HD
ENDBRANCH  21  23
ENDBRANCH   1  21
TORSDOF 5
ENDMDL
MODEL 5
REMARK VINA RESULT: -6.607497907      1.213      1.354
REMARK  5 active torsions:
REMARK  status: ('A' for Active; 'I' for Inactive)
REMARK    1  A    between atoms: N1_1  and  N2_4 
REMARK    2  A    between atoms: N2_4  and  N3_6 
REMARK       I    between atoms: N3_6  and  C1_8 
REMARK       I    between atoms: C1_8  and  N5_12 
REMARK    3  A    between atoms: N5_12  and  C2_14 
REMARK    4  A    between atoms: C2_14  and  C3_15 
REMARK    5  A    between atoms: C3_15  and  C4_16 
ROOT
HETATM    1  N3  UNL     1      60.210 -31.224 -34.195  1.00  0.00    -0.119 N 
ATOM      2  H3  UNL     1      59.509 -31.095 -33.467  1.00  0.00     0.207 HD
HETATM    3  C1  UNL     1      60.810 -30.052 -34.806  1.00  0.00     0.688 C 
HETATM    4  N4  UNL     1      61.936 -30.253 -35.391  1.00  0.00    -0.234 N 
ATOM      5  H41 UNL     1      62.357 -29.430 -35.820  1.00  0.00     0.174 HD
ATOM      6  H42 UNL     1      62.401 -31.159 -35.441  1.00  0.00     0.174 HD
HETATM    7  N5  UNL     1      60.169 -28.804 -34.737  1.00  0.00    -0.214 N 
ATOM      8  H5  UNL     1      59.153 -28.767 -34.823  1.00  0.00     0.178 HD
ENDROOT
BRANCH   7   9
HETATM    9  C2  UNL     1      60.915 -27.544 -34.546  1.00  0.00     0.071 C 
HETATM   10  C8  UNL     1      61.619 -27.202 -35.839  1.00  0.00     0.036 C 
HETATM   11  C9  UNL     1      61.093 -25.893 -36.446  1.00  0.00     0.029 C 
HETATM   12  C10 UNL     1      59.604 -26.020 -36.543  1.00  0.00     0.167 C 
HETATM   13  O2  UNL     1      59.001 -26.564 -35.411  1.00  0.00    -0.389 OA
HETATM   14  C11 UNL     1      59.902 -26.444 -34.310  1.00  0.00     0.199 C 
BRANCH   9  15
HETATM   15  C3  UNL     1      61.793 -27.784 -33.386  1.00  0.00     0.065 C 
BRANCH  15  16
HETATM   16  C4  UNL     1      63.235 -27.490 -33.471  1.00  0.00     0.123 C 
HETATM   17  C5  UNL     1      63.863 -26.748 -32.345  1.00  0.00     0.034 C 
HETATM   18  C6  UNL     1      65.204 -27.492 -32.169  1.00  0.00     0.029 C 
HETATM   19  C7  UNL     1      64.729 -28.902 -32.516  1.00  0.00     0.168 C 
HETATM   20  O1  UNL     1      63.917 -28.699 -33.588  1.00  0.00    -0.386 OA
ENDBRANCH  15  16
ENDBRANCH   9  15
ENDBRANCH   7   9
BRANCH   1  21
HETATM   21  N2  UNL     1      60.561 -32.521 -34.571  1.00  0.00    -0.235 N 
ATOM     22  H2  UNL     1      61.463 -32.709 -35.006  1.00  0.00     0.208 HD
BRANCH  21  23
HETATM   23  N1  UNL     1      59.724 -33.474 -34.359  1.00  0.00    -0.330 N 
ATOM     24  H12 UNL     1      59.791 -34.023 -33.502  1.00  0.00     0.178 HD
ATOM     25  H11 UNL     1      59.005 -33.660 -35.058  1.00  0.00     0.178 HD
ENDBRANCH  21  23
ENDBRANCH   1  21
TORSDOF 5
ENDMDL
