MODEL 1
REMARK VINA RESULT: -6.782129926      0.000      0.000
REMARK  4 active torsions:
REMARK  status: ('A' for Active; 'I' for Inactive)
REMARK    1  A    between atoms: O1_2  and  C2_3 
REMARK    2  A    between atoms: C2_3  and  C3_4 
REMARK       I    between atoms: N1_8  and  C7_10 
REMARK    3  A    between atoms: C8_15  and  C9_16 
REMARK    4  A    between atoms: C9_16  and  N4_17 
ROOT
HETATM    1  C3  UNL     1      60.297 -28.109 -35.905  1.00  0.00     0.103 C 
HETATM    2  C4  UNL     1      59.760 -29.322 -36.636  1.00  0.00     0.033 C 
HETATM    3  C5  UNL     1      60.725 -30.475 -36.520  1.00  0.00     0.057 C 
HETATM    4  C6  UNL     1      61.431 -30.475 -35.225  1.00  0.00     0.013 C 
HETATM    5  N1  UNL     1      61.459 -31.481 -34.467  1.00  0.00    -0.336 N 
ATOM      6  H1  UNL     1      61.971 -31.393 -33.589  1.00  0.00     0.168 HD
HETATM    7  C7  UNL     1      60.838 -32.723 -34.736  1.00  0.00     0.185 C 
HETATM    8  N2  UNL     1      61.466 -33.567 -35.469  1.00  0.00    -0.374 N 
ATOM      9  H21 UNL     1      61.018 -34.463 -35.663  1.00  0.00     0.158 HD
ATOM     10  H22 UNL     1      62.388 -33.394 -35.869  1.00  0.00     0.158 HD
HETATM   11  N3  UNL     1      59.559 -32.963 -34.181  1.00  0.00    -0.064 NA
HETATM   12  C8  UNL     1      62.125 -29.236 -34.818  1.00  0.00     0.142 C 
HETATM   13  N7  UNL     1      61.681 -28.186 -35.659  1.00  0.00    -0.399 N 
HETATM   14  C11 UNL     1      62.441 -27.004 -35.673  1.00  0.00     0.144 C 
ENDROOT
BRANCH  12  15
HETATM   15  C9  UNL     1      61.884 -28.893 -33.366  1.00  0.00     0.152 C 
BRANCH  15  16
HETATM   16  N4  UNL     1      63.109 -28.968 -32.618  1.00  0.00    -0.365 N 
HETATM   17  C10 UNL     1      63.153 -29.476 -31.438  1.00  0.00     0.197 C 
HETATM   18  N5  UNL     1      61.949 -29.976 -30.858  1.00  0.00    -0.067 NA
HETATM   19  N6  UNL     1      64.374 -29.536 -30.725  1.00  0.00    -0.067 NA
ATOM     20  H4  UNL     1      63.967 -28.609 -33.036  1.00  0.00     0.161 HD
ENDBRANCH  15  16
ENDBRANCH  12  15
BRANCH   1  21
HETATM   21  C2  UNL     1      59.917 -26.836 -36.589  1.00  0.00     0.191 C 
BRANCH  21  22
HETATM   22  O1  UNL     1      58.792 -26.303 -35.969  1.00  0.00    -0.394 OA
HETATM   23  C1  UNL     1      59.071 -25.839 -34.684  1.00  0.00     0.201 C 
ENDBRANCH  21  22
ENDBRANCH   1  21
TORSDOF 4
ENDMDL
MODEL 2
REMARK VINA RESULT: -6.661731808      2.329      2.568
REMARK  4 active torsions:
REMARK  status: ('A' for Active; 'I' for Inactive)
REMARK    1  A    between atoms: O1_2  and  C2_3 
REMARK    2  A    between atoms: C2_3  and  C3_4 
REMARK       I    between atoms: N1_8  and  C7_10 
REMARK    3  A    between atoms: C8_15  and  C9_16 
REMARK    4  A    between atoms: C9_16  and  N4_17 
ROOT
HETATM    1  C3  UNL     1      60.122 -26.328 -36.028  1.00  0.00     0.103 C 
HETATM    2  C4  UNL     1      60.068 -27.610 -36.833  1.00  0.00     0.033 C 
HETATM    3  C5  UNL     1      60.920 -28.672 -36.186  1.00  0.00     0.057 C 
HETATM    4  C6  UNL     1      60.918 -28.561 -34.715  1.00  0.00     0.013 C 
HETATM    5  N1  UNL     1      60.634 -29.530 -33.961  1.00  0.00    -0.336 N 
ATOM      6  H1  UNL     1      60.656 -29.364 -32.954  1.00  0.00     0.168 HD
HETATM    7  C7  UNL     1      60.286 -30.829 -34.398  1.00  0.00     0.185 C 
HETATM    8  N2  UNL     1      61.234 -31.647 -34.678  1.00  0.00    -0.374 N 
ATOM      9  H21 UNL     1      60.983 -32.583 -34.993  1.00  0.00     0.158 HD
ATOM     10  H22 UNL     1      62.224 -31.413 -34.604  1.00  0.00     0.158 HD
HETATM   11  N3  UNL     1      58.913 -31.153 -34.501  1.00  0.00    -0.064 NA
HETATM   12  C8  UNL     1      61.264 -27.253 -34.122  1.00  0.00     0.142 C 
HETATM   13  N7  UNL     1      61.221 -26.279 -35.149  1.00  0.00    -0.399 N 
HETATM   14  C11 UNL     1      61.830 -25.038 -34.890  1.00  0.00     0.144 C 
ENDROOT
BRANCH  12  15
HETATM   15  C9  UNL     1      60.337 -26.872 -32.989  1.00  0.00     0.152 C 
BRANCH  15  16
HETATM   16  N4  UNL     1      60.963 -25.907 -32.128  1.00  0.00    -0.365 N 
HETATM   17  C10 UNL     1      61.700 -26.260 -31.136  1.00  0.00     0.197 C 
HETATM   18  N5  UNL     1      61.900 -27.651 -30.887  1.00  0.00    -0.067 NA
HETATM   19  N6  UNL     1      62.303 -25.287 -30.304  1.00  0.00    -0.067 NA
ATOM     20  H4  UNL     1      60.817 -24.914 -32.308  1.00  0.00     0.161 HD
ENDBRANCH  15  16
ENDBRANCH  12  15
BRANCH   1  21
HETATM   21  C2  UNL     1      60.049 -25.119 -36.904  1.00  0.00     0.191 C 
BRANCH  21  22
HETATM   22  O1  UNL     1      58.908 -24.391 -36.581  1.00  0.00    -0.394 OA
HETATM   23  C1  UNL     1      59.121 -23.015 -36.671  1.00  0.00     0.201 C 
ENDBRANCH  21  22
ENDBRANCH   1  21
TORSDOF 4
ENDMDL
MODEL 3
REMARK VINA RESULT: -6.539316814      2.090      2.341
REMARK  4 active torsions:
REMARK  status: ('A' for Active; 'I' for Inactive)
REMARK    1  A    between atoms: O1_2  and  C2_3 
REMARK    2  A    between atoms: C2_3  and  C3_4 
REMARK       I    between atoms: N1_8  and  C7_10 
REMARK    3  A    between atoms: C8_15  and  C9_16 
REMARK    4  A    between atoms: C9_16  and  N4_17 
ROOT
HETATM    1  C3  UNL     1      60.121 -26.426 -36.176  1.00  0.00     0.103 C 
HETATM    2  C4  UNL     1      59.717 -27.647 -36.977  1.00  0.00     0.033 C 
HETATM    3  C5  UNL     1      60.585 -28.824 -36.614  1.00  0.00     0.057 C 
HETATM    4  C6  UNL     1      60.979 -28.801 -35.192  1.00  0.00     0.013 C 
HETATM    5  N1  UNL     1      60.796 -29.780 -34.420  1.00  0.00    -0.336 N 
ATOM      6  H1  UNL     1      61.099 -29.678 -33.452  1.00  0.00     0.168 HD
HETATM    7  C7  UNL     1      60.204 -31.011 -34.790  1.00  0.00     0.185 C 
HETATM    8  N2  UNL     1      60.949 -31.900 -35.337  1.00  0.00    -0.374 N 
ATOM      9  H21 UNL     1      60.522 -32.787 -35.603  1.00  0.00     0.158 HD
ATOM     10  H22 UNL     1      61.943 -31.770 -35.521  1.00  0.00     0.158 HD
HETATM   11  N3  UNL     1      58.825 -31.190 -34.534  1.00  0.00    -0.064 NA
HETATM   12  C8  UNL     1      61.611 -27.571 -34.672  1.00  0.00     0.142 C 
HETATM   13  N7  UNL     1      61.410 -26.539 -35.620  1.00  0.00    -0.399 N 
HETATM   14  C11 UNL     1      62.199 -25.382 -35.494  1.00  0.00     0.144 C 
ENDROOT
BRANCH  12  15
HETATM   15  C9  UNL     1      61.061 -27.169 -33.323  1.00  0.00     0.152 C 
BRANCH  15  16
HETATM   16  N4  UNL     1      62.052 -27.350 -32.298  1.00  0.00    -0.365 N 
HETATM   17  C10 UNL     1      62.533 -26.358 -31.637  1.00  0.00     0.197 C 
HETATM   18  N5  UNL     1      62.066 -25.043 -31.932  1.00  0.00    -0.067 NA
HETATM   19  N6  UNL     1      63.509 -26.567 -30.633  1.00  0.00    -0.067 NA
ATOM     20  H4  UNL     1      62.384 -28.292 -32.090  1.00  0.00     0.161 HD
ENDBRANCH  15  16
ENDBRANCH  12  15
BRANCH   1  21
HETATM   21  C2  UNL     1      59.956 -25.166 -36.964  1.00  0.00     0.191 C 
BRANCH  21  22
HETATM   22  O1  UNL     1      58.971 -24.384 -36.370  1.00  0.00    -0.394 OA
HETATM   23  C1  UNL     1      59.293 -23.028 -36.394  1.00  0.00     0.201 C 
ENDBRANCH  21  22
ENDBRANCH   1  21
TORSDOF 4
ENDMDL
MODEL 4
REMARK VINA RESULT: -6.488153173      2.959      5.704
REMARK  4 active torsions:
REMARK  status: ('A' for Active; 'I' for Inactive)
REMARK    1  A    between atoms: O1_2  and  C2_3 
REMARK    2  A    between atoms: C2_3  and  C3_4 
REMARK       I    between atoms: N1_8  and  C7_10 
REMARK    3  A    between atoms: C8_15  and  C9_16 
REMARK    4  A    between atoms: C9_16  and  N4_17 
ROOT
HETATM    1  C3  UNL     1      62.227 -27.778 -31.429  1.00  0.00     0.103 C 
HETATM    2  C4  UNL     1      61.750 -26.346 -31.554  1.00  0.00     0.033 C 
HETATM    3  C5  UNL     1      61.408 -26.030 -32.988  1.00  0.00     0.057 C 
HETATM    4  C6  UNL     1      60.856 -27.202 -33.695  1.00  0.00     0.013 C 
HETATM    5  N1  UNL     1      59.760 -27.168 -34.315  1.00  0.00    -0.336 N 
ATOM      6  H1  UNL     1      59.453 -28.025 -34.775  1.00  0.00     0.168 HD
HETATM    7  C7  UNL     1      58.919 -26.035 -34.424  1.00  0.00     0.185 C 
HETATM    8  N2  UNL     1      59.179 -25.175 -35.339  1.00  0.00    -0.374 N 
ATOM      9  H21 UNL     1      58.573 -24.359 -35.418  1.00  0.00     0.158 HD
ATOM     10  H22 UNL     1      59.958 -25.261 -35.992  1.00  0.00     0.158 HD
HETATM   11  N3  UNL     1      57.840 -25.916 -33.518  1.00  0.00    -0.064 NA
HETATM   12  C8  UNL     1      61.635 -28.457 -33.661  1.00  0.00     0.142 C 
HETATM   13  N7  UNL     1      62.629 -28.331 -32.660  1.00  0.00    -0.399 N 
HETATM   14  C11 UNL     1      63.685 -29.260 -32.675  1.00  0.00     0.144 C 
ENDROOT
BRANCH  12  15
HETATM   15  C9  UNL     1      60.766 -29.666 -33.398  1.00  0.00     0.152 C 
BRANCH  15  16
HETATM   16  N4  UNL     1      61.253 -30.806 -34.126  1.00  0.00    -0.365 N 
HETATM   17  C10 UNL     1      60.462 -31.587 -34.771  1.00  0.00     0.197 C 
HETATM   18  N5  UNL     1      59.063 -31.311 -34.761  1.00  0.00    -0.067 NA
HETATM   19  N6  UNL     1      60.970 -32.703 -35.478  1.00  0.00    -0.067 NA
ATOM     20  H4  UNL     1      62.254 -31.000 -34.130  1.00  0.00     0.161 HD
ENDBRANCH  15  16
ENDBRANCH  12  15
BRANCH   1  21
HETATM   21  C2  UNL     1      63.279 -27.921 -30.377  1.00  0.00     0.191 C 
BRANCH  21  22
HETATM   22  O1  UNL     1      62.807 -27.384 -29.184  1.00  0.00    -0.394 OA
HETATM   23  C1  UNL     1      63.837 -27.137 -28.276  1.00  0.00     0.201 C 
ENDBRANCH  21  22
ENDBRANCH   1  21
TORSDOF 4
ENDMDL
MODEL 5
REMARK VINA RESULT: -6.444266069      2.251      2.509
REMARK  4 active torsions:
REMARK  status: ('A' for Active; 'I' for Inactive)
REMARK    1  A    between atoms: O1_2  and  C2_3 
REMARK    2  A    between atoms: C2_3  and  C3_4 
REMARK       I    between atoms: N1_8  and  C7_10 
REMARK    3  A    between atoms: C8_15  and  C9_16 
REMARK    4  A    between atoms: C9_16  and  N4_17 
ROOT
HETATM    1  C3  UNL     1      60.840 -26.158 -35.583  1.00  0.00     0.103 C 
HETATM    2  C4  UNL     1      60.546 -27.356 -36.462  1.00  0.00     0.033 C 
HETATM    3  C5  UNL     1      61.311 -28.561 -35.980  1.00  0.00     0.057 C 
HETATM    4  C6  UNL     1      61.462 -28.568 -34.512  1.00  0.00     0.013 C 
HETATM    5  N1  UNL     1      61.128 -29.552 -33.799  1.00  0.00    -0.336 N 
ATOM      6  H1  UNL     1      61.267 -29.471 -32.792  1.00  0.00     0.168 HD
HETATM    7  C7  UNL     1      60.576 -30.761 -34.284  1.00  0.00     0.185 C 
HETATM    8  N2  UNL     1      61.379 -31.663 -34.715  1.00  0.00    -0.374 N 
ATOM      9  H21 UNL     1      60.981 -32.534 -35.064  1.00  0.00     0.158 HD
ATOM     10  H22 UNL     1      62.393 -31.558 -34.728  1.00  0.00     0.158 HD
HETATM   11  N3  UNL     1      59.169 -30.906 -34.265  1.00  0.00    -0.064 NA
HETATM   12  C8  UNL     1      62.029 -27.363 -33.872  1.00  0.00     0.142 C 
HETATM   13  N7  UNL     1      62.015 -26.313 -34.822  1.00  0.00    -0.399 N 
HETATM   14  C11 UNL     1      62.800 -25.180 -34.545  1.00  0.00     0.144 C 
ENDROOT
BRANCH  12  15
HETATM   15  C9  UNL     1      61.271 -26.964 -32.627  1.00  0.00     0.152 C 
BRANCH  15  16
HETATM   16  N4  UNL     1      61.933 -27.459 -31.451  1.00  0.00    -0.365 N 
HETATM   17  C10 UNL     1      62.210 -26.693 -30.456  1.00  0.00     0.197 C 
HETATM   18  N5  UNL     1      61.848 -25.316 -30.525  1.00  0.00    -0.067 NA
HETATM   19  N6  UNL     1      62.864 -27.209 -29.311  1.00  0.00    -0.067 NA
ATOM     20  H4  UNL     1      62.191 -28.444 -31.405  1.00  0.00     0.161 HD
ENDBRANCH  15  16
ENDBRANCH  12  15
BRANCH   1  21
HETATM   21  C2  UNL     1      60.841 -24.883 -36.364  1.00  0.00     0.191 C 
BRANCH  21  22
HETATM   22  O1  UNL     1      59.768 -24.891 -37.250  1.00  0.00    -0.394 OA
HETATM   23  C1  UNL     1      59.152 -23.642 -37.338  1.00  0.00     0.201 C 
ENDBRANCH  21  22
ENDBRANCH   1  21
TORSDOF 4
ENDMDL
