MODEL 1
REMARK VINA RESULT: -7.498097856      0.000      0.000
REMARK  6 active torsions:
REMARK  status: ('A' for Active; 'I' for Inactive)
REMARK    1  A    between atoms: C2_2  and  C3_3 
REMARK    2  A    between atoms: C2_2  and  C7_22 
REMARK       I    between atoms: C3_3  and  N1_5 
REMARK    3  A    between atoms: N1_5  and  C4_7 
REMARK    4  A    between atoms: C4_7  and  N2_8 
REMARK    5  A    between atoms: C4_7  and  C5_12 
REMARK    6  A    between atoms: C5_12  and  O2_13 
REMARK       I    between atoms: N3_15  and  C6_17 
ROOT
HETATM    1  C4  UNL     1      60.390 -31.553 -35.014  1.00  0.00     0.359 C 
ENDROOT
BRANCH   1   2
HETATM    2  N1  UNL     1      61.190 -30.748 -34.110  1.00  0.00    -0.327 N 
HETATM    3  C3  UNL     1      61.194 -29.347 -34.125  1.00  0.00     0.223 C 
HETATM    4  O1  UNL     1      60.457 -28.744 -34.983  1.00  0.00    -0.273 OA
ATOM      5  H1  UNL     1      61.779 -31.226 -33.428  1.00  0.00     0.165 HD
BRANCH   3   6
HETATM    6  C2  UNL     1      61.981 -28.491 -33.227  1.00  0.00     0.078 C 
HETATM    7  C1  UNL     1      61.138 -27.318 -32.706  1.00  0.00     0.020 C 
BRANCH   6   8
HETATM    8  C7  UNL     1      62.461 -29.226 -32.026  1.00  0.00     0.003 C 
HETATM    9  C8  UNL     1      62.325 -28.317 -30.782  1.00  0.00     0.010 C 
HETATM   10  C9  UNL     1      63.735 -28.402 -30.278  1.00  0.00    -0.013 C 
HETATM   11  C10 UNL     1      64.025 -29.878 -30.434  1.00  0.00     0.010 C 
HETATM   12  C12 UNL     1      64.551 -28.234 -31.564  1.00  0.00     0.010 C 
HETATM   13  C11 UNL     1      63.897 -29.547 -31.941  1.00  0.00    -0.009 C 
ENDBRANCH   6   8
ENDBRANCH   3   6
ENDBRANCH   1   2
BRANCH   1  14
HETATM   14  N2  UNL     1      58.999 -31.210 -34.796  1.00  0.00    -0.051 N 
ATOM     15  H23 UNL     1      58.628 -31.595 -33.927  1.00  0.00     0.277 HD
ATOM     16  H22 UNL     1      58.864 -30.224 -34.575  1.00  0.00     0.277 HD
ATOM     17  H21 UNL     1      58.474 -31.508 -35.618  1.00  0.00     0.277 HD
ENDBRANCH   1  14
BRANCH   1  18
HETATM   18  C5  UNL     1      60.541 -32.984 -34.653  1.00  0.00     0.169 C 
HETATM   19  N3  UNL     1      61.681 -33.562 -34.664  1.00  0.00    -0.312 N 
HETATM   20  C6  UNL     1      62.860 -32.848 -35.028  1.00  0.00     0.187 C 
ATOM     21  H3  UNL     1      61.748 -34.548 -34.409  1.00  0.00     0.170 HD
HETATM   22  N4  UNL     1      63.160 -32.768 -36.275  1.00  0.00    -0.373 N 
HETATM   23  N5  UNL     1      63.701 -32.233 -34.075  1.00  0.00    -0.064 NA
ATOM     24  H42 UNL     1      62.552 -33.213 -36.963  1.00  0.00     0.158 HD
ATOM     25  H41 UNL     1      64.003 -32.258 -36.535  1.00  0.00     0.158 HD
BRANCH  18  26
HETATM   26  O2  UNL     1      59.433 -33.745 -34.287  1.00  0.00    -0.346 OA
ATOM     27  H2  UNL     1      59.480 -34.694 -34.275  1.00  0.00     0.219 HD
ENDBRANCH  18  26
ENDBRANCH   1  18
TORSDOF 6
ENDMDL
MODEL 2
REMARK VINA RESULT: -7.276973150      1.190      2.065
REMARK  6 active torsions:
REMARK  status: ('A' for Active; 'I' for Inactive)
REMARK    1  A    between atoms: C2_2  and  C3_3 
REMARK    2  A    between atoms: C2_2  and  C7_22 
REMARK       I    between atoms: C3_3  and  N1_5 
REMARK    3  A    between atoms: N1_5  and  C4_7 
REMARK    4  A    between atoms: C4_7  and  N2_8 
REMARK    5  A    between atoms: C4_7  and  C5_12 
REMARK    6  A    between atoms: C5_12  and  O2_13 
REMARK       I    between atoms: N3_15  and  C6_17 
ROOT
HETATM    1  C4  UNL     1      60.407 -31.448 -34.816  1.00  0.00     0.359 C 
ENDROOT
BRANCH   1   2
HETATM    2  N1  UNL     1      60.814 -30.785 -33.591  1.00  0.00    -0.327 N 
HETATM    3  C3  UNL     1      61.599 -29.625 -33.567  1.00  0.00     0.223 C 
HETATM    4  O1  UNL     1      61.983 -29.125 -34.683  1.00  0.00    -0.273 OA
ATOM      5  H1  UNL     1      60.512 -31.183 -32.702  1.00  0.00     0.165 HD
BRANCH   3   6
HETATM    6  C2  UNL     1      62.029 -28.917 -32.354  1.00  0.00     0.078 C 
HETATM    7  C1  UNL     1      63.146 -29.686 -31.634  1.00  0.00     0.020 C 
BRANCH   6   8
HETATM    8  C7  UNL     1      62.578 -27.567 -32.654  1.00  0.00     0.003 C 
HETATM    9  C8  UNL     1      63.843 -27.328 -31.798  1.00  0.00     0.010 C 
HETATM   10  C9  UNL     1      63.448 -26.029 -31.160  1.00  0.00    -0.013 C 
HETATM   11  C10 UNL     1      62.856 -25.281 -32.333  1.00  0.00     0.010 C 
HETATM   12  C12 UNL     1      61.994 -26.293 -30.755  1.00  0.00     0.010 C 
HETATM   13  C11 UNL     1      61.782 -26.393 -32.251  1.00  0.00    -0.009 C 
ENDBRANCH   6   8
ENDBRANCH   3   6
ENDBRANCH   1   2
BRANCH   1  14
HETATM   14  N2  UNL     1      59.016 -31.122 -35.053  1.00  0.00    -0.051 N 
ATOM     15  H23 UNL     1      58.421 -31.948 -35.118  1.00  0.00     0.277 HD
ATOM     16  H22 UNL     1      58.566 -30.695 -34.244  1.00  0.00     0.277 HD
ATOM     17  H21 UNL     1      58.973 -30.535 -35.886  1.00  0.00     0.277 HD
ENDBRANCH   1  14
BRANCH   1  18
HETATM   18  C5  UNL     1      60.476 -32.917 -34.619  1.00  0.00     0.169 C 
HETATM   19  N3  UNL     1      61.583 -33.553 -34.698  1.00  0.00    -0.312 N 
HETATM   20  C6  UNL     1      62.801 -32.870 -34.980  1.00  0.00     0.187 C 
ATOM     21  H3  UNL     1      61.593 -34.563 -34.556  1.00  0.00     0.170 HD
HETATM   22  N4  UNL     1      63.111 -32.666 -36.210  1.00  0.00    -0.373 N 
HETATM   23  N5  UNL     1      63.671 -32.414 -33.965  1.00  0.00    -0.064 NA
ATOM     24  H42 UNL     1      62.483 -32.995 -36.944  1.00  0.00     0.158 HD
ATOM     25  H41 UNL     1      63.983 -32.178 -36.412  1.00  0.00     0.158 HD
BRANCH  18  26
HETATM   26  O2  UNL     1      59.326 -33.651 -34.340  1.00  0.00    -0.346 OA
ATOM     27  H2  UNL     1      59.327 -34.599 -34.411  1.00  0.00     0.219 HD
ENDBRANCH  18  26
ENDBRANCH   1  18
TORSDOF 6
ENDMDL
MODEL 3
REMARK VINA RESULT: -7.253102036      1.479      1.633
REMARK  6 active torsions:
REMARK  status: ('A' for Active; 'I' for Inactive)
REMARK    1  A    between atoms: C2_2  and  C3_3 
REMARK    2  A    between atoms: C2_2  and  C7_22 
REMARK       I    between atoms: C3_3  and  N1_5 
REMARK    3  A    between atoms: N1_5  and  C4_7 
REMARK    4  A    between atoms: C4_7  and  N2_8 
REMARK    5  A    between atoms: C4_7  and  C5_12 
REMARK    6  A    between atoms: C5_12  and  O2_13 
REMARK       I    between atoms: N3_15  and  C6_17 
ROOT
HETATM    1  C4  UNL     1      60.651 -30.036 -35.556  1.00  0.00     0.359 C 
ENDROOT
BRANCH   1   2
HETATM    2  N1  UNL     1      60.762 -29.028 -34.519  1.00  0.00    -0.327 N 
HETATM    3  C3  UNL     1      61.949 -28.339 -34.239  1.00  0.00     0.223 C 
HETATM    4  O1  UNL     1      62.992 -28.614 -34.931  1.00  0.00    -0.273 OA
ATOM      5  H1  UNL     1      59.934 -28.811 -33.965  1.00  0.00     0.165 HD
BRANCH   3   6
HETATM    6  C2  UNL     1      62.107 -27.308 -33.205  1.00  0.00     0.078 C 
HETATM    7  C1  UNL     1      60.799 -26.531 -32.998  1.00  0.00     0.020 C 
BRANCH   6   8
HETATM    8  C7  UNL     1      62.461 -27.887 -31.881  1.00  0.00     0.003 C 
HETATM    9  C8  UNL     1      62.015 -26.917 -30.762  1.00  0.00     0.010 C 
HETATM   10  C9  UNL     1      63.321 -26.783 -30.037  1.00  0.00    -0.013 C 
HETATM   11  C10 UNL     1      63.802 -28.216 -30.011  1.00  0.00     0.010 C 
HETATM   12  C12 UNL     1      64.316 -26.603 -31.189  1.00  0.00     0.010 C 
HETATM   13  C11 UNL     1      63.891 -28.012 -31.542  1.00  0.00    -0.009 C 
ENDBRANCH   6   8
ENDBRANCH   3   6
ENDBRANCH   1   2
BRANCH   1  14
HETATM   14  N2  UNL     1      59.685 -29.565 -36.527  1.00  0.00    -0.051 N 
ATOM     15  H23 UNL     1      58.902 -30.207 -36.652  1.00  0.00     0.277 HD
ATOM     16  H22 UNL     1      59.150 -28.763 -36.196  1.00  0.00     0.277 HD
ATOM     17  H21 UNL     1      60.185 -29.376 -37.396  1.00  0.00     0.277 HD
ENDBRANCH   1  14
BRANCH   1  18
HETATM   18  C5  UNL     1      60.097 -31.280 -34.968  1.00  0.00     0.169 C 
HETATM   19  N3  UNL     1      60.838 -32.290 -34.712  1.00  0.00    -0.312 N 
HETATM   20  C6  UNL     1      62.237 -32.258 -34.985  1.00  0.00     0.187 C 
ATOM     21  H3  UNL     1      60.423 -33.129 -34.307  1.00  0.00     0.170 HD
HETATM   22  N4  UNL     1      62.632 -32.576 -36.165  1.00  0.00    -0.373 N 
HETATM   23  N5  UNL     1      63.194 -31.896 -34.012  1.00  0.00    -0.064 NA
ATOM     24  H42 UNL     1      61.940 -32.837 -36.869  1.00  0.00     0.158 HD
ATOM     25  H41 UNL     1      63.633 -32.553 -36.360  1.00  0.00     0.158 HD
BRANCH  18  26
HETATM   26  O2  UNL     1      58.739 -31.384 -34.675  1.00  0.00    -0.346 OA
ATOM     27  H2  UNL     1      58.443 -31.491 -33.779  1.00  0.00     0.219 HD
ENDBRANCH  18  26
ENDBRANCH   1  18
TORSDOF 6
ENDMDL
MODEL 4
REMARK VINA RESULT: -7.234392104      1.041      1.683
REMARK  6 active torsions:
REMARK  status: ('A' for Active; 'I' for Inactive)
REMARK    1  A    between atoms: C2_2  and  C3_3 
REMARK    2  A    between atoms: C2_2  and  C7_22 
REMARK       I    between atoms: C3_3  and  N1_5 
REMARK    3  A    between atoms: N1_5  and  C4_7 
REMARK    4  A    between atoms: C4_7  and  N2_8 
REMARK    5  A    between atoms: C4_7  and  C5_12 
REMARK    6  A    between atoms: C5_12  and  O2_13 
REMARK       I    between atoms: N3_15  and  C6_17 
ROOT
HETATM    1  C4  UNL     1      60.447 -31.552 -34.864  1.00  0.00     0.359 C 
ENDROOT
BRANCH   1   2
HETATM    2  N1  UNL     1      61.087 -30.858 -33.762  1.00  0.00    -0.327 N 
HETATM    3  C3  UNL     1      61.363 -29.485 -33.774  1.00  0.00     0.223 C 
HETATM    4  O1  UNL     1      61.038 -28.806 -34.811  1.00  0.00    -0.273 OA
ATOM      5  H1  UNL     1      61.350 -31.398 -32.937  1.00  0.00     0.165 HD
BRANCH   3   6
HETATM    6  C2  UNL     1      62.002 -28.739 -32.682  1.00  0.00     0.078 C 
HETATM    7  C1  UNL     1      62.124 -29.606 -31.421  1.00  0.00     0.020 C 
BRANCH   6   8
HETATM    8  C7  UNL     1      63.384 -28.308 -33.026  1.00  0.00     0.003 C 
HETATM    9  C8  UNL     1      64.301 -28.500 -31.797  1.00  0.00     0.010 C 
HETATM   10  C9  UNL     1      64.864 -27.112 -31.709  1.00  0.00    -0.013 C 
HETATM   11  C10 UNL     1      65.157 -26.810 -33.161  1.00  0.00     0.010 C 
HETATM   12  C12 UNL     1      63.618 -26.242 -31.910  1.00  0.00     0.010 C 
HETATM   13  C11 UNL     1      63.616 -26.875 -33.286  1.00  0.00    -0.009 C 
ENDBRANCH   6   8
ENDBRANCH   3   6
ENDBRANCH   1   2
BRANCH   1  14
HETATM   14  N2  UNL     1      59.039 -31.214 -34.839  1.00  0.00    -0.051 N 
ATOM     15  H23 UNL     1      58.435 -32.036 -34.810  1.00  0.00     0.277 HD
ATOM     16  H22 UNL     1      58.746 -30.801 -33.954  1.00  0.00     0.277 HD
ATOM     17  H21 UNL     1      58.851 -30.611 -35.640  1.00  0.00     0.277 HD
ENDBRANCH   1  14
BRANCH   1  18
HETATM   18  C5  UNL     1      60.541 -33.015 -34.637  1.00  0.00     0.169 C 
HETATM   19  N3  UNL     1      61.662 -33.630 -34.676  1.00  0.00    -0.312 N 
HETATM   20  C6  UNL     1      62.873 -32.927 -34.944  1.00  0.00     0.187 C 
ATOM     21  H3  UNL     1      61.690 -34.637 -34.515  1.00  0.00     0.170 HD
HETATM   22  N4  UNL     1      63.208 -32.741 -36.170  1.00  0.00    -0.373 N 
HETATM   23  N5  UNL     1      63.709 -32.434 -33.918  1.00  0.00    -0.064 NA
ATOM     24  H42 UNL     1      62.604 -33.097 -36.911  1.00  0.00     0.158 HD
ATOM     25  H41 UNL     1      64.074 -32.238 -36.361  1.00  0.00     0.158 HD
BRANCH  18  26
HETATM   26  O2  UNL     1      59.400 -33.768 -34.370  1.00  0.00    -0.346 OA
ATOM     27  H2  UNL     1      59.463 -34.597 -33.910  1.00  0.00     0.219 HD
ENDBRANCH  18  26
ENDBRANCH   1  18
TORSDOF 6
ENDMDL
MODEL 5
REMARK VINA RESULT: -7.048464879      3.228      4.683
REMARK  6 active torsions:
REMARK  status: ('A' for Active; 'I' for Inactive)
REMARK    1  A    between atoms: C2_2  and  C3_3 
REMARK    2  A    between atoms: C2_2  and  C7_22 
REMARK       I    between atoms: C3_3  and  N1_5 
REMARK    3  A    between atoms: N1_5  and  C4_7 
REMARK    4  A    between atoms: C4_7  and  N2_8 
REMARK    5  A    between atoms: C4_7  and  C5_12 
REMARK    6  A    between atoms: C5_12  and  O2_13 
REMARK       I    between atoms: N3_15  and  C6_17 
ROOT
HETATM    1  C4  UNL     1      64.433 -32.618 -35.026  1.00  0.00     0.359 C 
ENDROOT
BRANCH   1   2
HETATM    2  N1  UNL     1      63.241 -31.894 -35.428  1.00  0.00    -0.327 N 
HETATM    3  C3  UNL     1      62.599 -30.954 -34.612  1.00  0.00     0.223 C 
HETATM    4  O1  UNL     1      63.085 -30.723 -33.449  1.00  0.00    -0.273 OA
ATOM      5  H1  UNL     1      62.852 -32.080 -36.353  1.00  0.00     0.165 HD
BRANCH   3   6
HETATM    6  C2  UNL     1      61.397 -30.194 -34.979  1.00  0.00     0.078 C 
HETATM    7  C1  UNL     1      60.321 -30.307 -33.890  1.00  0.00     0.020 C 
BRANCH   6   8
HETATM    8  C7  UNL     1      61.676 -28.741 -35.139  1.00  0.00     0.003 C 
HETATM    9  C8  UNL     1      60.578 -27.926 -34.417  1.00  0.00     0.010 C 
HETATM   10  C9  UNL     1      60.157 -27.045 -35.555  1.00  0.00    -0.013 C 
HETATM   11  C10 UNL     1      61.492 -26.654 -36.147  1.00  0.00     0.010 C 
HETATM   12  C12 UNL     1      60.072 -28.037 -36.721  1.00  0.00     0.010 C 
HETATM   13  C11 UNL     1      61.564 -28.161 -36.491  1.00  0.00    -0.009 C 
ENDBRANCH   6   8
ENDBRANCH   3   6
ENDBRANCH   1   2
BRANCH   1  14
HETATM   14  N2  UNL     1      65.522 -31.666 -34.947  1.00  0.00    -0.051 N 
ATOM     15  H23 UNL     1      65.238 -30.719 -35.196  1.00  0.00     0.277 HD
ATOM     16  H22 UNL     1      65.810 -31.473 -33.988  1.00  0.00     0.277 HD
ATOM     17  H21 UNL     1      66.284 -32.018 -35.527  1.00  0.00     0.277 HD
ENDBRANCH   1  14
BRANCH   1  18
HETATM   18  C5  UNL     1      64.791 -33.593 -36.085  1.00  0.00     0.169 C 
HETATM   19  N3  UNL     1      65.172 -34.780 -35.803  1.00  0.00    -0.312 N 
HETATM   20  C6  UNL     1      65.270 -35.216 -34.449  1.00  0.00     0.187 C 
ATOM     21  H3  UNL     1      65.410 -35.425 -36.557  1.00  0.00     0.170 HD
HETATM   22  N4  UNL     1      66.359 -34.976 -33.812  1.00  0.00    -0.373 N 
HETATM   23  N5  UNL     1      64.221 -35.896 -33.792  1.00  0.00    -0.064 NA
ATOM     24  H42 UNL     1      67.116 -34.484 -34.287  1.00  0.00     0.158 HD
ATOM     25  H41 UNL     1      66.429 -35.287 -32.844  1.00  0.00     0.158 HD
BRANCH  18  26
HETATM   26  O2  UNL     1      64.720 -33.238 -37.430  1.00  0.00    -0.346 OA
ATOM     27  H2  UNL     1      64.173 -32.515 -37.713  1.00  0.00     0.219 HD
ENDBRANCH  18  26
ENDBRANCH   1  18
TORSDOF 6
ENDMDL
