MODEL 1
REMARK VINA RESULT: -6.867603161      0.000      0.000
REMARK  4 active torsions:
REMARK  status: ('A' for Active; 'I' for Inactive)
REMARK       I    between atoms: N1_2  and  C2_4 
REMARK    1  A    between atoms: N3_6  and  C3_8 
REMARK    2  A    between atoms: C3_8  and  C4_9 
REMARK    3  A    between atoms: C4_9  and  N4_10 
REMARK       I    between atoms: N4_10  and  C5_12 
REMARK       I    between atoms: C5_12  and  N6_16 
REMARK    4  A    between atoms: C8_19  and  N7_20 
ROOT
HETATM    1  N4  UNL     1      59.913 -33.073 -34.074  1.00  0.00    -0.225 N 
ATOM      2  H4  UNL     1      59.636 -33.306 -33.120  1.00  0.00     0.177 HD
HETATM    3  C5  UNL     1      59.950 -31.719 -34.502  1.00  0.00     0.669 C 
HETATM    4  N5  UNL     1      58.846 -31.221 -34.952  1.00  0.00    -0.235 N 
ATOM      5  H51 UNL     1      58.872 -30.248 -35.260  1.00  0.00     0.174 HD
ATOM      6  H52 UNL     1      58.018 -31.816 -34.976  1.00  0.00     0.174 HD
HETATM    7  N6  UNL     1      61.095 -30.897 -34.469  1.00  0.00    -0.218 N 
HETATM    8  C6  UNL     1      60.931 -29.478 -34.293  1.00  0.00     0.143 C 
HETATM    9  C7  UNL     1      61.936 -28.850 -33.393  1.00  0.00     0.045 C 
HETATM   10  C8  UNL     1      63.297 -29.443 -33.417  1.00  0.00     0.081 C 
HETATM   11  C11 UNL     1      63.521 -30.503 -34.435  1.00  0.00     0.045 C 
HETATM   12  C12 UNL     1      62.392 -31.454 -34.604  1.00  0.00     0.143 C 
ENDROOT
BRANCH   1  13
HETATM   13  C4  UNL     1      60.280 -34.131 -35.021  1.00  0.00     0.157 C 
BRANCH  13  14
HETATM   14  C3  UNL     1      60.914 -35.297 -34.277  1.00  0.00     0.142 C 
BRANCH  14  15
HETATM   15  N3  UNL     1      62.125 -35.676 -34.954  1.00  0.00    -0.363 N 
HETATM   16  C2  UNL     1      63.282 -35.546 -34.410  1.00  0.00     0.183 C 
HETATM   17  N1  UNL     1      64.464 -35.933 -35.114  1.00  0.00    -0.369 N 
HETATM   18  N2  UNL     1      63.389 -35.021 -33.113  1.00  0.00    -0.064 NA
HETATM   19  C1  UNL     1      65.294 -34.947 -35.754  1.00  0.00     0.148 C 
ATOM     20  H1  UNL     1      64.723 -36.919 -35.162  1.00  0.00     0.161 HD
ATOM     21  H3  UNL     1      62.063 -36.061 -35.896  1.00  0.00     0.162 HD
ENDBRANCH  14  15
ENDBRANCH  13  14
ENDBRANCH   1  13
BRANCH  10  22
HETATM   22  N7  UNL     1      64.260 -28.385 -33.541  1.00  0.00    -0.416 N 
HETATM   23  C9  UNL     1      64.673 -28.106 -34.868  1.00  0.00     0.143 C 
HETATM   24  C10 UNL     1      65.296 -28.404 -32.565  1.00  0.00     0.143 C 
ENDBRANCH  10  22
TORSDOF 4
ENDMDL
MODEL 2
REMARK VINA RESULT: -6.782264591      2.573      3.766
REMARK  4 active torsions:
REMARK  status: ('A' for Active; 'I' for Inactive)
REMARK       I    between atoms: N1_2  and  C2_4 
REMARK    1  A    between atoms: N3_6  and  C3_8 
REMARK    2  A    between atoms: C3_8  and  C4_9 
REMARK    3  A    between atoms: C4_9  and  N4_10 
REMARK       I    between atoms: N4_10  and  C5_12 
REMARK       I    between atoms: C5_12  and  N6_16 
REMARK    4  A    between atoms: C8_19  and  N7_20 
ROOT
HETATM    1  N4  UNL     1      59.883 -29.534 -34.145  1.00  0.00    -0.225 N 
ATOM      2  H4  UNL     1      59.022 -29.787 -33.660  1.00  0.00     0.177 HD
HETATM    3  C5  UNL     1      60.449 -28.242 -33.978  1.00  0.00     0.669 C 
HETATM    4  N5  UNL     1      60.013 -27.310 -34.759  1.00  0.00    -0.235 N 
ATOM      5  H51 UNL     1      60.419 -26.381 -34.640  1.00  0.00     0.174 HD
ATOM      6  H52 UNL     1      59.296 -27.546 -35.445  1.00  0.00     0.174 HD
HETATM    7  N6  UNL     1      61.441 -27.915 -33.030  1.00  0.00    -0.218 N 
HETATM    8  C6  UNL     1      61.484 -26.580 -32.496  1.00  0.00     0.143 C 
HETATM    9  C7  UNL     1      61.780 -26.508 -31.040  1.00  0.00     0.045 C 
HETATM   10  C8  UNL     1      62.692 -27.552 -30.505  1.00  0.00     0.081 C 
HETATM   11  C11 UNL     1      63.301 -28.455 -31.517  1.00  0.00     0.045 C 
HETATM   12  C12 UNL     1      62.383 -28.886 -32.604  1.00  0.00     0.143 C 
ENDROOT
BRANCH   1  13
HETATM   13  C4  UNL     1      60.554 -30.498 -35.023  1.00  0.00     0.157 C 
BRANCH  13  14
HETATM   14  C3  UNL     1      60.000 -31.895 -34.779  1.00  0.00     0.142 C 
BRANCH  14  15
HETATM   15  N3  UNL     1      61.074 -32.845 -34.885  1.00  0.00    -0.363 N 
HETATM   16  C2  UNL     1      60.882 -34.110 -34.770  1.00  0.00     0.183 C 
HETATM   17  N1  UNL     1      61.974 -35.025 -34.880  1.00  0.00    -0.369 N 
HETATM   18  N2  UNL     1      59.588 -34.602 -34.537  1.00  0.00    -0.064 NA
HETATM   19  C1  UNL     1      62.576 -35.595 -33.704  1.00  0.00     0.148 C 
ATOM     20  H1  UNL     1      62.331 -35.276 -35.802  1.00  0.00     0.161 HD
ATOM     21  H3  UNL     1      62.020 -32.503 -35.056  1.00  0.00     0.162 HD
ENDBRANCH  14  15
ENDBRANCH  13  14
ENDBRANCH   1  13
BRANCH  10  22
HETATM   22  N7  UNL     1      63.694 -26.919 -29.696  1.00  0.00    -0.416 N 
HETATM   23  C9  UNL     1      63.801 -27.422 -28.375  1.00  0.00     0.143 C 
HETATM   24  C10 UNL     1      63.753 -25.502 -29.821  1.00  0.00     0.143 C 
ENDBRANCH  10  22
TORSDOF 4
ENDMDL
MODEL 3
REMARK VINA RESULT: -6.504145236      4.753      6.239
REMARK  4 active torsions:
REMARK  status: ('A' for Active; 'I' for Inactive)
REMARK       I    between atoms: N1_2  and  C2_4 
REMARK    1  A    between atoms: N3_6  and  C3_8 
REMARK    2  A    between atoms: C3_8  and  C4_9 
REMARK    3  A    between atoms: C4_9  and  N4_10 
REMARK       I    between atoms: N4_10  and  C5_12 
REMARK       I    between atoms: C5_12  and  N6_16 
REMARK    4  A    between atoms: C8_19  and  N7_20 
ROOT
HETATM    1  N4  UNL     1      60.002 -27.581 -34.826  1.00  0.00    -0.225 N 
ATOM      2  H4  UNL     1      59.358 -27.457 -34.046  1.00  0.00     0.177 HD
HETATM    3  C5  UNL     1      59.792 -26.890 -36.050  1.00  0.00     0.669 C 
HETATM    4  N5  UNL     1      59.011 -27.455 -36.910  1.00  0.00    -0.235 N 
ATOM      5  H51 UNL     1      58.859 -26.959 -37.789  1.00  0.00     0.174 HD
ATOM      6  H52 UNL     1      58.593 -28.354 -36.671  1.00  0.00     0.174 HD
HETATM    7  N6  UNL     1      60.371 -25.647 -36.381  1.00  0.00    -0.218 N 
HETATM    8  C6  UNL     1      59.659 -24.758 -37.260  1.00  0.00     0.143 C 
HETATM    9  C7  UNL     1      59.732 -23.323 -36.873  1.00  0.00     0.045 C 
HETATM   10  C8  UNL     1      60.997 -22.880 -36.233  1.00  0.00     0.081 C 
HETATM   11  C11 UNL     1      62.083 -23.896 -36.183  1.00  0.00     0.045 C 
HETATM   12  C12 UNL     1      61.634 -25.274 -35.857  1.00  0.00     0.143 C 
ENDROOT
BRANCH   1  13
HETATM   13  C4  UNL     1      61.158 -28.474 -34.701  1.00  0.00     0.157 C 
BRANCH  13  14
HETATM   14  C3  UNL     1      60.864 -29.566 -33.684  1.00  0.00     0.142 C 
BRANCH  14  15
HETATM   15  N3  UNL     1      61.210 -30.839 -34.255  1.00  0.00    -0.363 N 
HETATM   16  C2  UNL     1      60.332 -31.613 -34.787  1.00  0.00     0.183 C 
HETATM   17  N1  UNL     1      60.713 -32.872 -35.344  1.00  0.00    -0.369 N 
HETATM   18  N2  UNL     1      58.985 -31.219 -34.822  1.00  0.00    -0.064 NA
HETATM   19  C1  UNL     1      60.503 -34.093 -34.613  1.00  0.00     0.148 C 
ATOM     20  H1  UNL     1      61.139 -32.905 -36.271  1.00  0.00     0.161 HD
ATOM     21  H3  UNL     1      62.185 -31.138 -34.238  1.00  0.00     0.162 HD
ENDBRANCH  14  15
ENDBRANCH  13  14
ENDBRANCH   1  13
BRANCH  10  22
HETATM   22  N7  UNL     1      61.439 -21.672 -36.870  1.00  0.00    -0.416 N 
HETATM   23  C9  UNL     1      62.702 -21.760 -37.508  1.00  0.00     0.143 C 
HETATM   24  C10 UNL     1      61.210 -20.485 -36.118  1.00  0.00     0.143 C 
ENDBRANCH  10  22
TORSDOF 4
ENDMDL
MODEL 4
REMARK VINA RESULT: -6.502703075      3.903      5.040
REMARK  4 active torsions:
REMARK  status: ('A' for Active; 'I' for Inactive)
REMARK       I    between atoms: N1_2  and  C2_4 
REMARK    1  A    between atoms: N3_6  and  C3_8 
REMARK    2  A    between atoms: C3_8  and  C4_9 
REMARK    3  A    between atoms: C4_9  and  N4_10 
REMARK       I    between atoms: N4_10  and  C5_12 
REMARK       I    between atoms: C5_12  and  N6_16 
REMARK    4  A    between atoms: C8_19  and  N7_20 
ROOT
HETATM    1  N4  UNL     1      60.200 -28.474 -35.112  1.00  0.00    -0.225 N 
ATOM      2  H4  UNL     1      59.734 -28.349 -34.214  1.00  0.00     0.177 HD
HETATM    3  C5  UNL     1      60.028 -27.521 -36.151  1.00  0.00     0.669 C 
HETATM    4  N5  UNL     1      59.006 -27.681 -36.925  1.00  0.00    -0.235 N 
ATOM      5  H51 UNL     1      58.882 -26.997 -37.671  1.00  0.00     0.174 HD
ATOM      6  H52 UNL     1      58.385 -28.473 -36.753  1.00  0.00     0.174 HD
HETATM    7  N6  UNL     1      60.886 -26.427 -36.389  1.00  0.00    -0.218 N 
HETATM    8  C6  UNL     1      60.344 -25.227 -36.968  1.00  0.00     0.143 C 
HETATM    9  C7  UNL     1      60.878 -23.967 -36.384  1.00  0.00     0.045 C 
HETATM   10  C8  UNL     1      62.293 -24.001 -35.935  1.00  0.00     0.081 C 
HETATM   11  C11 UNL     1      63.038 -25.249 -36.249  1.00  0.00     0.045 C 
HETATM   12  C12 UNL     1      62.264 -26.503 -36.062  1.00  0.00     0.143 C 
ENDROOT
BRANCH   1  13
HETATM   13  C4  UNL     1      61.058 -29.639 -35.349  1.00  0.00     0.157 C 
BRANCH  13  14
HETATM   14  C3  UNL     1      60.483 -30.860 -34.646  1.00  0.00     0.142 C 
BRANCH  14  15
HETATM   15  N3  UNL     1      61.297 -32.003 -34.957  1.00  0.00    -0.363 N 
HETATM   16  C2  UNL     1      60.889 -33.207 -34.768  1.00  0.00     0.183 C 
HETATM   17  N1  UNL     1      61.728 -34.318 -35.089  1.00  0.00    -0.369 N 
HETATM   18  N2  UNL     1      59.608 -33.435 -34.243  1.00  0.00    -0.064 NA
HETATM   19  C1  UNL     1      62.449 -35.015 -34.057  1.00  0.00     0.148 C 
ATOM     20  H1  UNL     1      61.816 -34.621 -36.059  1.00  0.00     0.161 HD
ATOM     21  H3  UNL     1      62.231 -31.853 -35.341  1.00  0.00     0.162 HD
ENDBRANCH  14  15
ENDBRANCH  13  14
ENDBRANCH   1  13
BRANCH  10  22
HETATM   22  N7  UNL     1      62.969 -22.843 -36.449  1.00  0.00    -0.416 N 
HETATM   23  C9  UNL     1      62.139 -21.927 -37.144  1.00  0.00     0.143 C 
HETATM   24  C10 UNL     1      64.232 -23.108 -37.049  1.00  0.00     0.143 C 
ENDBRANCH  10  22
TORSDOF 4
ENDMDL
MODEL 5
REMARK VINA RESULT: -6.493847959      3.929      5.115
REMARK  4 active torsions:
REMARK  status: ('A' for Active; 'I' for Inactive)
REMARK       I    between atoms: N1_2  and  C2_4 
REMARK    1  A    between atoms: N3_6  and  C3_8 
REMARK    2  A    between atoms: C3_8  and  C4_9 
REMARK    3  A    between atoms: C4_9  and  N4_10 
REMARK       I    between atoms: N4_10  and  C5_12 
REMARK       I    between atoms: C5_12  and  N6_16 
REMARK    4  A    between atoms: C8_19  and  N7_20 
ROOT
HETATM    1  N4  UNL     1      61.381 -29.383 -35.464  1.00  0.00    -0.225 N 
ATOM      2  H4  UNL     1      62.336 -29.575 -35.764  1.00  0.00     0.177 HD
HETATM    3  C5  UNL     1      61.088 -28.225 -34.695  1.00  0.00     0.669 C 
HETATM    4  N5  UNL     1      61.220 -28.326 -33.414  1.00  0.00    -0.235 N 
ATOM      5  H51 UNL     1      61.010 -27.495 -32.862  1.00  0.00     0.174 HD
ATOM      6  H52 UNL     1      61.523 -29.220 -33.026  1.00  0.00     0.174 HD
HETATM    7  N6  UNL     1      60.668 -26.989 -35.232  1.00  0.00    -0.218 N 
HETATM    8  C6  UNL     1      61.008 -25.775 -34.539  1.00  0.00     0.143 C 
HETATM    9  C7  UNL     1      61.409 -24.651 -35.427  1.00  0.00     0.045 C 
HETATM   10  C8  UNL     1      60.732 -24.588 -36.748  1.00  0.00     0.081 C 
HETATM   11  C11 UNL     1      59.643 -25.577 -36.962  1.00  0.00     0.045 C 
HETATM   12  C12 UNL     1      59.924 -26.939 -36.438  1.00  0.00     0.143 C 
ENDROOT
BRANCH   1  13
HETATM   13  C4  UNL     1      60.291 -30.297 -35.819  1.00  0.00     0.157 C 
BRANCH  13  14
HETATM   14  C3  UNL     1      60.113 -31.342 -34.727  1.00  0.00     0.142 C 
BRANCH  14  15
HETATM   15  N3  UNL     1      61.041 -32.416 -34.956  1.00  0.00    -0.363 N 
HETATM   16  C2  UNL     1      60.713 -33.649 -34.799  1.00  0.00     0.183 C 
HETATM   17  N1  UNL     1      61.663 -34.690 -35.035  1.00  0.00    -0.369 N 
HETATM   18  N2  UNL     1      59.411 -33.979 -34.393  1.00  0.00    -0.064 NA
HETATM   19  C1  UNL     1      62.339 -35.330 -33.937  1.00  0.00     0.148 C 
ATOM     20  H1  UNL     1      61.865 -34.982 -35.991  1.00  0.00     0.161 HD
ATOM     21  H3  UNL     1      61.991 -32.192 -35.252  1.00  0.00     0.162 HD
ENDBRANCH  14  15
ENDBRANCH  13  14
ENDBRANCH   1  13
BRANCH  10  22
HETATM   22  N7  UNL     1      60.273 -23.246 -36.967  1.00  0.00    -0.416 N 
HETATM   23  C9  UNL     1      61.291 -22.258 -36.967  1.00  0.00     0.143 C 
HETATM   24  C10 UNL     1      59.081 -22.902 -36.269  1.00  0.00     0.143 C 
ENDBRANCH  10  22
TORSDOF 4
ENDMDL
