MODEL 1
REMARK VINA RESULT: -6.211636620      0.000      0.000
REMARK  6 active torsions:
REMARK  status: ('A' for Active; 'I' for Inactive)
REMARK    1  A    between atoms: C2_2  and  C3_3 
REMARK    2  A    between atoms: C3_3  and  C4_4 
REMARK    3  A    between atoms: C4_4  and  N1_5 
REMARK    4  A    between atoms: C4_4  and  C13_16 
REMARK       I    between atoms: N1_5  and  C5_7 
REMARK    5  A    between atoms: C5_7  and  C6_9 
REMARK    6  A    between atoms: C6_9  and  C7_10 
ROOT
HETATM    1  N1  UNL     1     -21.334   8.608   4.847  1.00  0.00    -0.350 N 
ATOM      2  H1  UNL     1     -20.788   9.024   4.093  1.00  0.00     0.163 HD
HETATM    3  C5  UNL     1     -21.261   7.225   5.059  1.00  0.00     0.218 C 
HETATM    4  O1  UNL     1     -21.953   6.733   6.007  1.00  0.00    -0.274 OA
ENDROOT
BRANCH   1   5
HETATM    5  C4  UNL     1     -22.183   9.482   5.688  1.00  0.00     0.152 C 
BRANCH   5   6
HETATM    6  C3  UNL     1     -21.259  10.403   6.465  1.00  0.00     0.059 C 
BRANCH   6   7
HETATM    7  C2  UNL     1     -21.046   9.977   7.862  1.00  0.00    -0.034 C 
HETATM    8  C1  UNL     1     -20.348  10.584   8.785  1.00  0.00     0.007 C 
ENDBRANCH   6   7
ENDBRANCH   5   6
BRANCH   5   9
HETATM    9  C13 UNL     1     -22.992  10.286   4.752  1.00  0.00     0.110 C 
HETATM   10  N2  UNL     1     -22.593  11.378   4.249  1.00  0.00    -0.389 N 
ATOM     11  H22 UNL     1     -21.681  11.737   4.533  1.00  0.00     0.157 HD
ATOM     12  H21 UNL     1     -23.153  11.934   3.603  1.00  0.00     0.157 HD
HETATM   13  N3  UNL     1     -24.258   9.788   4.359  1.00  0.00    -0.086 NA
ENDBRANCH   5   9
ENDBRANCH   1   5
BRANCH   3  14
HETATM   14  C6  UNL     1     -20.419   6.328   4.231  1.00  0.00     0.107 C 
BRANCH  14  15
HETATM   15  C7  UNL     1     -20.767   4.881   4.418  1.00  0.00    -0.006 C 
HETATM   16  C8  UNL     1     -20.850   4.228   3.050  1.00  0.00     0.005 C 
HETATM   17  C9  UNL     1     -21.255   2.773   3.236  1.00  0.00     0.000 C 
HETATM   18  C10 UNL     1     -20.110   2.071   3.896  1.00  0.00     0.000 C 
HETATM   19  C11 UNL     1     -19.203   2.939   4.700  1.00  0.00     0.000 C 
HETATM   20  C12 UNL     1     -19.825   4.140   5.324  1.00  0.00     0.005 C 
ENDBRANCH  14  15
ENDBRANCH   3  14
TORSDOF 6
ENDMDL
MODEL 2
REMARK VINA RESULT: -6.183728280      3.996      5.462
REMARK  6 active torsions:
REMARK  status: ('A' for Active; 'I' for Inactive)
REMARK    1  A    between atoms: C2_2  and  C3_3 
REMARK    2  A    between atoms: C3_3  and  C4_4 
REMARK    3  A    between atoms: C4_4  and  N1_5 
REMARK    4  A    between atoms: C4_4  and  C13_16 
REMARK       I    between atoms: N1_5  and  C5_7 
REMARK    5  A    between atoms: C5_7  and  C6_9 
REMARK    6  A    between atoms: C6_9  and  C7_10 
ROOT
HETATM    1  N1  UNL     1     -20.086   3.898   7.365  1.00  0.00    -0.350 N 
ATOM      2  H1  UNL     1     -20.885   3.843   6.733  1.00  0.00     0.163 HD
HETATM    3  C5  UNL     1     -18.825   3.497   6.907  1.00  0.00     0.218 C 
HETATM    4  O1  UNL     1     -17.847   3.577   7.716  1.00  0.00    -0.274 OA
ENDROOT
BRANCH   1   5
HETATM    5  C4  UNL     1     -20.291   4.402   8.743  1.00  0.00     0.152 C 
BRANCH   5   6
HETATM    6  C3  UNL     1     -21.227   5.594   8.657  1.00  0.00     0.059 C 
BRANCH   6   7
HETATM    7  C2  UNL     1     -21.659   5.903   7.281  1.00  0.00    -0.034 C 
HETATM    8  C1  UNL     1     -21.455   7.003   6.606  1.00  0.00     0.007 C 
ENDBRANCH   6   7
ENDBRANCH   5   6
BRANCH   5   9
HETATM    9  C13 UNL     1     -20.962   3.312   9.478  1.00  0.00     0.110 C 
HETATM   10  N2  UNL     1     -22.091   2.843   9.148  1.00  0.00    -0.389 N 
ATOM     11  H22 UNL     1     -22.576   3.262   8.354  1.00  0.00     0.157 HD
ATOM     12  H21 UNL     1     -22.555   2.090   9.656  1.00  0.00     0.157 HD
HETATM   13  N3  UNL     1     -20.289   2.730  10.579  1.00  0.00    -0.086 NA
ENDBRANCH   5   9
ENDBRANCH   1   5
BRANCH   3  14
HETATM   14  C6  UNL     1     -18.593   2.989   5.533  1.00  0.00     0.107 C 
BRANCH  14  15
HETATM   15  C7  UNL     1     -19.873   2.726   4.795  1.00  0.00    -0.006 C 
HETATM   16  C8  UNL     1     -20.288   4.004   4.088  1.00  0.00     0.005 C 
HETATM   17  C9  UNL     1     -21.614   3.755   3.384  1.00  0.00     0.000 C 
HETATM   18  C10 UNL     1     -21.351   2.797   2.264  1.00  0.00     0.000 C 
HETATM   19  C11 UNL     1     -20.161   1.917   2.438  1.00  0.00     0.000 C 
HETATM   20  C12 UNL     1     -19.800   1.569   3.841  1.00  0.00     0.005 C 
ENDBRANCH  14  15
ENDBRANCH   3  14
TORSDOF 6
ENDMDL
MODEL 3
REMARK VINA RESULT: -6.129187475      5.159      6.820
REMARK  6 active torsions:
REMARK  status: ('A' for Active; 'I' for Inactive)
REMARK    1  A    between atoms: C2_2  and  C3_3 
REMARK    2  A    between atoms: C3_3  and  C4_4 
REMARK    3  A    between atoms: C4_4  and  N1_5 
REMARK    4  A    between atoms: C4_4  and  C13_16 
REMARK       I    between atoms: N1_5  and  C5_7 
REMARK    5  A    between atoms: C5_7  and  C6_9 
REMARK    6  A    between atoms: C6_9  and  C7_10 
ROOT
HETATM    1  N1  UNL     1     -18.308   2.792   7.365  1.00  0.00    -0.350 N 
ATOM      2  H1  UNL     1     -19.205   2.308   7.320  1.00  0.00     0.163 HD
HETATM    3  C5  UNL     1     -17.572   2.973   6.187  1.00  0.00     0.218 C 
HETATM    4  O1  UNL     1     -16.457   3.581   6.271  1.00  0.00    -0.274 OA
ENDROOT
BRANCH   1   5
HETATM    5  C4  UNL     1     -17.819   3.286   8.672  1.00  0.00     0.152 C 
BRANCH   5   6
HETATM    6  C3  UNL     1     -18.987   3.963   9.369  1.00  0.00     0.059 C 
BRANCH   6   7
HETATM    7  C2  UNL     1     -20.184   4.089   8.516  1.00  0.00    -0.034 C 
HETATM    8  C1  UNL     1     -20.835   5.179   8.208  1.00  0.00     0.007 C 
ENDBRANCH   6   7
ENDBRANCH   5   6
BRANCH   5   9
HETATM    9  C13 UNL     1     -17.429   2.086   9.439  1.00  0.00     0.110 C 
HETATM   10  N2  UNL     1     -16.677   1.179   8.975  1.00  0.00    -0.389 N 
ATOM     11  H22 UNL     1     -16.352   1.265   8.012  1.00  0.00     0.157 HD
ATOM     12  H21 UNL     1     -16.407   0.350   9.505  1.00  0.00     0.157 HD
HETATM   13  N3  UNL     1     -17.880   1.967  10.776  1.00  0.00    -0.086 NA
ENDBRANCH   5   9
ENDBRANCH   1   5
BRANCH   3  14
HETATM   14  C6  UNL     1     -18.038   2.488   4.865  1.00  0.00     0.107 C 
BRANCH  14  15
HETATM   15  C7  UNL     1     -19.524   2.616   4.699  1.00  0.00    -0.006 C 
HETATM   16  C8  UNL     1     -19.872   4.092   4.632  1.00  0.00     0.005 C 
HETATM   17  C9  UNL     1     -21.384   4.224   4.518  1.00  0.00     0.000 C 
HETATM   18  C10 UNL     1     -21.778   3.704   3.171  1.00  0.00     0.000 C 
HETATM   19  C11 UNL     1     -20.838   2.718   2.564  1.00  0.00     0.000 C 
HETATM   20  C12 UNL     1     -20.072   1.868   3.517  1.00  0.00     0.005 C 
ENDBRANCH  14  15
ENDBRANCH   3  14
TORSDOF 6
ENDMDL
MODEL 4
REMARK VINA RESULT: -6.093180250      2.681      3.913
REMARK  6 active torsions:
REMARK  status: ('A' for Active; 'I' for Inactive)
REMARK    1  A    between atoms: C2_2  and  C3_3 
REMARK    2  A    between atoms: C3_3  and  C4_4 
REMARK    3  A    between atoms: C4_4  and  N1_5 
REMARK    4  A    between atoms: C4_4  and  C13_16 
REMARK       I    between atoms: N1_5  and  C5_7 
REMARK    5  A    between atoms: C5_7  and  C6_9 
REMARK    6  A    between atoms: C6_9  and  C7_10 
ROOT
HETATM    1  N1  UNL     1     -20.768   4.997   4.345  1.00  0.00    -0.350 N 
ATOM      2  H1  UNL     1     -19.749   4.999   4.310  1.00  0.00     0.163 HD
HETATM    3  C5  UNL     1     -21.473   4.017   3.634  1.00  0.00     0.218 C 
HETATM    4  O1  UNL     1     -22.744   4.038   3.696  1.00  0.00    -0.274 OA
ENDROOT
BRANCH   1   5
HETATM    5  C4  UNL     1     -21.464   6.030   5.146  1.00  0.00     0.152 C 
BRANCH   5   6
HETATM    6  C3  UNL     1     -21.031   5.853   6.591  1.00  0.00     0.059 C 
BRANCH   6   7
HETATM    7  C2  UNL     1     -21.470   4.574   7.182  1.00  0.00    -0.034 C 
HETATM    8  C1  UNL     1     -20.892   3.892   8.134  1.00  0.00     0.007 C 
ENDBRANCH   6   7
ENDBRANCH   5   6
BRANCH   5   9
HETATM    9  C13 UNL     1     -20.971   7.330   4.650  1.00  0.00     0.110 C 
HETATM   10  N2  UNL     1     -21.251   8.436   5.200  1.00  0.00    -0.389 N 
ATOM     11  H22 UNL     1     -21.877   8.431   6.005  1.00  0.00     0.157 HD
ATOM     12  H21 UNL     1     -20.911   9.333   4.856  1.00  0.00     0.157 HD
HETATM   13  N3  UNL     1     -20.103   7.336   3.531  1.00  0.00    -0.086 NA
ENDBRANCH   5   9
ENDBRANCH   1   5
BRANCH   3  14
HETATM   14  C6  UNL     1     -20.801   2.972   2.824  1.00  0.00     0.107 C 
BRANCH  14  15
HETATM   15  C7  UNL     1     -20.083   1.963   3.670  1.00  0.00    -0.006 C 
HETATM   16  C8  UNL     1     -19.142   1.174   2.778  1.00  0.00     0.005 C 
HETATM   17  C9  UNL     1     -18.452   0.114   3.626  1.00  0.00     0.000 C 
HETATM   18  C10 UNL     1     -17.536   0.825   4.572  1.00  0.00     0.000 C 
HETATM   19  C11 UNL     1     -17.906   2.234   4.887  1.00  0.00     0.000 C 
HETATM   20  C12 UNL     1     -19.359   2.557   4.845  1.00  0.00     0.005 C 
ENDBRANCH  14  15
ENDBRANCH   3  14
TORSDOF 6
ENDMDL
MODEL 5
REMARK VINA RESULT: -6.042314759      4.454      7.150
REMARK  6 active torsions:
REMARK  status: ('A' for Active; 'I' for Inactive)
REMARK    1  A    between atoms: C2_2  and  C3_3 
REMARK    2  A    between atoms: C3_3  and  C4_4 
REMARK    3  A    between atoms: C4_4  and  N1_5 
REMARK    4  A    between atoms: C4_4  and  C13_16 
REMARK       I    between atoms: N1_5  and  C5_7 
REMARK    5  A    between atoms: C5_7  and  C6_9 
REMARK    6  A    between atoms: C6_9  and  C7_10 
ROOT
HETATM    1  N1  UNL     1     -19.087   2.505   5.175  1.00  0.00    -0.350 N 
ATOM      2  H1  UNL     1     -19.335   2.645   6.154  1.00  0.00     0.163 HD
HETATM    3  C5  UNL     1     -20.087   2.595   4.198  1.00  0.00     0.218 C 
HETATM    4  O1  UNL     1     -19.749   2.415   2.985  1.00  0.00    -0.274 OA
ENDROOT
BRANCH   1   5
HETATM    5  C4  UNL     1     -17.678   2.211   4.823  1.00  0.00     0.152 C 
BRANCH   5   6
HETATM    6  C3  UNL     1     -16.797   2.974   5.797  1.00  0.00     0.059 C 
BRANCH   6   7
HETATM    7  C2  UNL     1     -17.556   3.655   6.863  1.00  0.00    -0.034 C 
HETATM    8  C1  UNL     1     -17.681   3.292   8.112  1.00  0.00     0.007 C 
ENDBRANCH   6   7
ENDBRANCH   5   6
BRANCH   5   9
HETATM    9  C13 UNL     1     -17.499   0.762   5.042  1.00  0.00     0.110 C 
HETATM   10  N2  UNL     1     -17.030   0.274   6.112  1.00  0.00    -0.389 N 
ATOM     11  H22 UNL     1     -16.730   0.915   6.847  1.00  0.00     0.157 HD
ATOM     12  H21 UNL     1     -16.906  -0.727   6.263  1.00  0.00     0.157 HD
HETATM   13  N3  UNL     1     -17.915  -0.128   4.023  1.00  0.00    -0.086 NA
ENDBRANCH   5   9
ENDBRANCH   1   5
BRANCH   3  14
HETATM   14  C6  UNL     1     -21.504   2.887   4.524  1.00  0.00     0.107 C 
BRANCH  14  15
HETATM   15  C7  UNL     1     -21.810   4.355   4.488  1.00  0.00    -0.006 C 
HETATM   16  C8  UNL     1     -21.482   4.945   5.848  1.00  0.00     0.005 C 
HETATM   17  C9  UNL     1     -21.843   6.423   5.830  1.00  0.00     0.000 C 
HETATM   18  C10 UNL     1     -20.884   7.106   4.905  1.00  0.00     0.000 C 
HETATM   19  C11 UNL     1     -20.278   6.239   3.855  1.00  0.00     0.000 C 
HETATM   20  C12 UNL     1     -21.112   5.097   3.384  1.00  0.00     0.005 C 
ENDBRANCH  14  15
ENDBRANCH   3  14
TORSDOF 6
ENDMDL
