MODEL 1
REMARK VINA RESULT: -5.965001448      0.000      0.000
REMARK  5 active torsions:
REMARK  status: ('A' for Active; 'I' for Inactive)
REMARK    1  A    between atoms: C2_2  and  C3_3 
REMARK    2  A    between atoms: C3_3  and  N1_4 
REMARK       I    between atoms: N1_4  and  C4_6 
REMARK       I    between atoms: C4_6  and  N2_8 
REMARK    3  A    between atoms: N2_8  and  C5_10 
REMARK       I    between atoms: N3_12  and  C7_13 
REMARK       I    between atoms: C7_13  and  N4_15 
REMARK    4  A    between atoms: N4_15  and  C8_17 
REMARK    5  A    between atoms: C8_17  and  C9_18 
ROOT
HETATM    1  C5  UNL     1     -16.507   1.369   6.114  1.00  0.00     0.122 C 
HETATM    2  C6  UNL     1     -17.134   2.546   6.811  1.00  0.00     0.154 C 
HETATM    3  N3  UNL     1     -18.211   2.499   5.812  1.00  0.00    -0.330 N 
HETATM    4  C7  UNL     1     -19.437   3.175   5.653  1.00  0.00     0.318 C 
HETATM    5  O2  UNL     1     -19.782   4.036   6.511  1.00  0.00    -0.247 OA
HETATM    6  N4  UNL     1     -20.264   2.890   4.549  1.00  0.00    -0.340 N 
ATOM      7  H4  UNL     1     -19.976   2.196   3.860  1.00  0.00     0.164 HD
HETATM    8  C11 UNL     1     -17.539   1.474   5.017  1.00  0.00     0.154 C 
ENDROOT
BRANCH   1   9
HETATM    9  N2  UNL     1     -16.637   0.109   6.797  1.00  0.00    -0.335 N 
HETATM   10  C4  UNL     1     -15.621  -0.336   7.646  1.00  0.00     0.316 C 
HETATM   11  N1  UNL     1     -15.740  -1.571   8.319  1.00  0.00    -0.340 N 
HETATM   12  O1  UNL     1     -14.601   0.366   7.805  1.00  0.00    -0.247 OA
ATOM     13  H1  UNL     1     -16.585  -2.121   8.167  1.00  0.00     0.164 HD
ATOM     14  H2  UNL     1     -17.472  -0.461   6.660  1.00  0.00     0.164 HD
BRANCH  11  15
HETATM   15  C3  UNL     1     -14.737  -2.100   9.209  1.00  0.00     0.150 C 
BRANCH  15  16
HETATM   16  C2  UNL     1     -13.837  -3.058   8.560  1.00  0.00    -0.018 C 
HETATM   17  C1  UNL     1     -12.717  -2.648   8.002  1.00  0.00     0.008 C 
ENDBRANCH  15  16
ENDBRANCH  11  15
ENDBRANCH   1   9
BRANCH   6  18
HETATM   18  C8  UNL     1     -21.519   3.583   4.398  1.00  0.00     0.150 C 
BRANCH  18  19
HETATM   19  C9  UNL     1     -21.379   4.635   3.383  1.00  0.00    -0.018 C 
HETATM   20  C10 UNL     1     -20.801   5.799   3.738  1.00  0.00     0.008 C 
ENDBRANCH  18  19
ENDBRANCH   6  18
TORSDOF 5
ENDMDL
MODEL 2
REMARK VINA RESULT: -5.694121415      0.659      1.284
REMARK  5 active torsions:
REMARK  status: ('A' for Active; 'I' for Inactive)
REMARK    1  A    between atoms: C2_2  and  C3_3 
REMARK    2  A    between atoms: C3_3  and  N1_4 
REMARK       I    between atoms: N1_4  and  C4_6 
REMARK       I    between atoms: C4_6  and  N2_8 
REMARK    3  A    between atoms: N2_8  and  C5_10 
REMARK       I    between atoms: N3_12  and  C7_13 
REMARK       I    between atoms: C7_13  and  N4_15 
REMARK    4  A    between atoms: N4_15  and  C8_17 
REMARK    5  A    between atoms: C8_17  and  C9_18 
ROOT
HETATM    1  C5  UNL     1     -16.498   1.364   6.138  1.00  0.00     0.122 C 
HETATM    2  C6  UNL     1     -17.110   2.567   6.803  1.00  0.00     0.154 C 
HETATM    3  N3  UNL     1     -18.196   2.498   5.815  1.00  0.00    -0.330 N 
HETATM    4  C7  UNL     1     -19.417   3.178   5.646  1.00  0.00     0.318 C 
HETATM    5  O2  UNL     1     -19.748   4.069   6.480  1.00  0.00    -0.247 OA
HETATM    6  N4  UNL     1     -20.257   2.865   4.559  1.00  0.00    -0.340 N 
ATOM      7  H4  UNL     1     -19.981   2.148   3.889  1.00  0.00     0.164 HD
HETATM    8  C11 UNL     1     -17.539   1.442   5.048  1.00  0.00     0.154 C 
ENDROOT
BRANCH   1   9
HETATM    9  N2  UNL     1     -16.632   0.127   6.861  1.00  0.00    -0.335 N 
HETATM   10  C4  UNL     1     -15.569  -0.352   7.631  1.00  0.00     0.316 C 
HETATM   11  N1  UNL     1     -15.692  -1.565   8.344  1.00  0.00    -0.340 N 
HETATM   12  O1  UNL     1     -14.506   0.298   7.686  1.00  0.00    -0.247 OA
ATOM     13  H1  UNL     1     -16.574  -2.074   8.278  1.00  0.00     0.164 HD
ATOM     14  H2  UNL     1     -17.503  -0.401   6.811  1.00  0.00     0.164 HD
BRANCH  11  15
HETATM   15  C3  UNL     1     -14.644  -2.127   9.158  1.00  0.00     0.150 C 
BRANCH  15  16
HETATM   16  C2  UNL     1     -14.874  -1.952  10.596  1.00  0.00    -0.018 C 
HETATM   17  C1  UNL     1     -16.068  -1.629  11.046  1.00  0.00     0.008 C 
ENDBRANCH  15  16
ENDBRANCH  11  15
ENDBRANCH   1   9
BRANCH   6  18
HETATM   18  C8  UNL     1     -21.507   3.564   4.398  1.00  0.00     0.150 C 
BRANCH  18  19
HETATM   19  C9  UNL     1     -21.362   4.598   3.365  1.00  0.00    -0.018 C 
HETATM   20  C10 UNL     1     -20.823   5.783   3.713  1.00  0.00     0.008 C 
ENDBRANCH  18  19
ENDBRANCH   6  18
TORSDOF 5
ENDMDL
MODEL 3
REMARK VINA RESULT: -5.439743956      6.776     10.183
REMARK  5 active torsions:
REMARK  status: ('A' for Active; 'I' for Inactive)
REMARK    1  A    between atoms: C2_2  and  C3_3 
REMARK    2  A    between atoms: C3_3  and  N1_4 
REMARK       I    between atoms: N1_4  and  C4_6 
REMARK       I    between atoms: C4_6  and  N2_8 
REMARK    3  A    between atoms: N2_8  and  C5_10 
REMARK       I    between atoms: N3_12  and  C7_13 
REMARK       I    between atoms: C7_13  and  N4_15 
REMARK    4  A    between atoms: N4_15  and  C8_17 
REMARK    5  A    between atoms: C8_17  and  C9_18 
ROOT
HETATM    1  C5  UNL     1     -22.063   9.257   5.307  1.00  0.00     0.122 C 
HETATM    2  C6  UNL     1     -23.327   9.577   4.556  1.00  0.00     0.154 C 
HETATM    3  N3  UNL     1     -22.742  10.887   4.231  1.00  0.00    -0.330 N 
HETATM    4  C7  UNL     1     -23.131  11.960   3.407  1.00  0.00     0.318 C 
HETATM    5  O2  UNL     1     -24.210  11.879   2.755  1.00  0.00    -0.247 OA
HETATM    6  N4  UNL     1     -22.321  13.109   3.313  1.00  0.00    -0.340 N 
ATOM      7  H4  UNL     1     -21.453  13.168   3.845  1.00  0.00     0.164 HD
HETATM    8  C11 UNL     1     -21.582  10.672   5.093  1.00  0.00     0.154 C 
ENDROOT
BRANCH   1   9
HETATM    9  N2  UNL     1     -21.177   8.330   4.653  1.00  0.00    -0.335 N 
HETATM   10  C4  UNL     1     -21.313   6.958   4.874  1.00  0.00     0.316 C 
HETATM   11  N1  UNL     1     -20.448   6.041   4.237  1.00  0.00    -0.340 N 
HETATM   12  O1  UNL     1     -22.205   6.543   5.642  1.00  0.00    -0.247 OA
ATOM     13  H1  UNL     1     -19.729   6.412   3.615  1.00  0.00     0.164 HD
ATOM     14  H2  UNL     1     -20.449   8.676   4.028  1.00  0.00     0.164 HD
BRANCH  11  15
HETATM   15  C3  UNL     1     -20.522   4.613   4.412  1.00  0.00     0.150 C 
BRANCH  15  16
HETATM   16  C2  UNL     1     -21.381   3.953   3.425  1.00  0.00    -0.018 C 
HETATM   17  C1  UNL     1     -20.956   2.889   2.775  1.00  0.00     0.008 C 
ENDBRANCH  15  16
ENDBRANCH  11  15
ENDBRANCH   1   9
BRANCH   6  18
HETATM   18  C8  UNL     1     -22.724  14.201   2.463  1.00  0.00     0.150 C 
BRANCH  18  19
HETATM   19  C9  UNL     1     -22.381  15.476   3.105  1.00  0.00    -0.018 C 
HETATM   20  C10 UNL     1     -21.080  15.808   3.221  1.00  0.00     0.008 C 
ENDBRANCH  18  19
ENDBRANCH   6  18
TORSDOF 5
ENDMDL
MODEL 4
REMARK VINA RESULT: -5.412405805      3.951      8.738
REMARK  5 active torsions:
REMARK  status: ('A' for Active; 'I' for Inactive)
REMARK    1  A    between atoms: C2_2  and  C3_3 
REMARK    2  A    between atoms: C3_3  and  N1_4 
REMARK       I    between atoms: N1_4  and  C4_6 
REMARK       I    between atoms: C4_6  and  N2_8 
REMARK    3  A    between atoms: N2_8  and  C5_10 
REMARK       I    between atoms: N3_12  and  C7_13 
REMARK       I    between atoms: C7_13  and  N4_15 
REMARK    4  A    between atoms: N4_15  and  C8_17 
REMARK    5  A    between atoms: C8_17  and  C9_18 
ROOT
HETATM    1  C5  UNL     1     -21.570   5.963   4.585  1.00  0.00     0.122 C 
HETATM    2  C6  UNL     1     -22.160   4.580   4.644  1.00  0.00     0.154 C 
HETATM    3  N3  UNL     1     -20.805   4.048   4.436  1.00  0.00    -0.330 N 
HETATM    4  C7  UNL     1     -20.242   2.757   4.450  1.00  0.00     0.318 C 
HETATM    5  O2  UNL     1     -20.985   1.762   4.686  1.00  0.00    -0.247 OA
HETATM    6  N4  UNL     1     -18.866   2.584   4.205  1.00  0.00    -0.340 N 
ATOM      7  H4  UNL     1     -18.274   3.391   4.012  1.00  0.00     0.164 HD
HETATM    8  C11 UNL     1     -20.234   5.373   4.203  1.00  0.00     0.154 C 
ENDROOT
BRANCH   1   9
HETATM    9  N2  UNL     1     -21.466   6.642   5.850  1.00  0.00    -0.335 N 
HETATM   10  C4  UNL     1     -21.445   8.038   5.895  1.00  0.00     0.316 C 
HETATM   11  N1  UNL     1     -21.343   8.712   7.132  1.00  0.00    -0.340 N 
HETATM   12  O1  UNL     1     -21.515   8.690   4.833  1.00  0.00    -0.247 OA
ATOM     13  H1  UNL     1     -21.288   8.151   7.981  1.00  0.00     0.164 HD
ATOM     14  H2  UNL     1     -21.407   6.104   6.714  1.00  0.00     0.164 HD
BRANCH  11  15
HETATM   15  C3  UNL     1     -21.314  10.147   7.263  1.00  0.00     0.150 C 
BRANCH  15  16
HETATM   16  C2  UNL     1     -20.480  10.608   8.377  1.00  0.00    -0.018 C 
HETATM   17  C1  UNL     1     -20.405   9.906   9.489  1.00  0.00     0.008 C 
ENDBRANCH  15  16
ENDBRANCH  11  15
ENDBRANCH   1   9
BRANCH   6  18
HETATM   18  C8  UNL     1     -18.298   1.259   4.226  1.00  0.00     0.150 C 
BRANCH  18  19
HETATM   19  C9  UNL     1     -17.251   1.191   5.253  1.00  0.00    -0.018 C 
HETATM   20  C10 UNL     1     -16.687   2.340   5.674  1.00  0.00     0.008 C 
ENDBRANCH  18  19
ENDBRANCH   6  18
TORSDOF 5
ENDMDL
MODEL 5
REMARK VINA RESULT: -5.349266896      4.513      6.655
REMARK  5 active torsions:
REMARK  status: ('A' for Active; 'I' for Inactive)
REMARK    1  A    between atoms: C2_2  and  C3_3 
REMARK    2  A    between atoms: C3_3  and  N1_4 
REMARK       I    between atoms: N1_4  and  C4_6 
REMARK       I    between atoms: C4_6  and  N2_8 
REMARK    3  A    between atoms: N2_8  and  C5_10 
REMARK       I    between atoms: N3_12  and  C7_13 
REMARK       I    between atoms: C7_13  and  N4_15 
REMARK    4  A    between atoms: N4_15  and  C8_17 
REMARK    5  A    between atoms: C8_17  and  C9_18 
ROOT
HETATM    1  C5  UNL     1     -21.298   4.520   5.850  1.00  0.00     0.122 C 
HETATM    2  C6  UNL     1     -21.885   5.532   4.904  1.00  0.00     0.154 C 
HETATM    3  N3  UNL     1     -21.575   6.568   5.899  1.00  0.00    -0.330 N 
HETATM    4  C7  UNL     1     -21.643   7.975   5.909  1.00  0.00     0.318 C 
HETATM    5  O2  UNL     1     -22.049   8.581   4.877  1.00  0.00    -0.247 OA
HETATM    6  N4  UNL     1     -21.260   8.692   7.059  1.00  0.00    -0.340 N 
ATOM      7  H4  UNL     1     -20.937   8.196   7.889  1.00  0.00     0.164 HD
HETATM    8  C11 UNL     1     -21.160   5.591   6.904  1.00  0.00     0.154 C 
ENDROOT
BRANCH   1   9
HETATM    9  N2  UNL     1     -20.001   4.016   5.484  1.00  0.00    -0.335 N 
HETATM   10  C4  UNL     1     -19.882   2.767   4.870  1.00  0.00     0.316 C 
HETATM   11  N1  UNL     1     -18.613   2.265   4.508  1.00  0.00    -0.340 N 
HETATM   12  O1  UNL     1     -20.907   2.093   4.644  1.00  0.00    -0.247 OA
ATOM     13  H1  UNL     1     -17.795   2.840   4.706  1.00  0.00     0.164 HD
ATOM     14  H2  UNL     1     -19.166   4.571   5.673  1.00  0.00     0.164 HD
BRANCH  11  15
HETATM   15  C3  UNL     1     -18.407   0.987   3.873  1.00  0.00     0.150 C 
BRANCH  15  16
HETATM   16  C2  UNL     1     -19.000   0.904   2.535  1.00  0.00    -0.018 C 
HETATM   17  C1  UNL     1     -18.272   0.528   1.505  1.00  0.00     0.008 C 
ENDBRANCH  15  16
ENDBRANCH  11  15
ENDBRANCH   1   9
BRANCH   6  18
HETATM   18  C8  UNL     1     -21.328  10.132   7.058  1.00  0.00     0.150 C 
BRANCH  18  19
HETATM   19  C9  UNL     1     -20.573  10.660   8.202  1.00  0.00    -0.018 C 
HETATM   20  C10 UNL     1     -20.524   9.928   9.333  1.00  0.00     0.008 C 
ENDBRANCH  18  19
ENDBRANCH   6  18
TORSDOF 5
ENDMDL
