MODEL 1
REMARK VINA RESULT: -6.270963617      0.000      0.000
REMARK  5 active torsions:
REMARK  status: ('A' for Active; 'I' for Inactive)
REMARK       I    between atoms: C1_2  and  N4_13 
REMARK    1  A    between atoms: N2_3  and  C2_5 
REMARK    2  A    between atoms: C2_5  and  C3_6 
REMARK       I    between atoms: C3_6  and  N3_8 
REMARK    3  A    between atoms: N3_8  and  C4_10 
REMARK    4  A    between atoms: N4_13  and  C7_15 
REMARK    5  A    between atoms: C7_15  and  C8_16 
ROOT
HETATM    1  N1  UNL     1     -18.154   0.242   3.042  1.00  0.00    -0.064 NA
HETATM    2  C1  UNL     1     -18.300   1.103   4.168  1.00  0.00     0.184 C 
HETATM    3  N2  UNL     1     -17.355   1.251   5.036  1.00  0.00    -0.356 N 
ATOM      4  H2  UNL     1     -16.476   0.746   4.922  1.00  0.00     0.162 HD
HETATM    5  N4  UNL     1     -19.500   1.837   4.381  1.00  0.00    -0.364 N 
ATOM      6  H4  UNL     1     -19.854   1.999   5.323  1.00  0.00     0.162 HD
ENDROOT
BRANCH   3   7
HETATM    7  C2  UNL     1     -17.533   2.123   6.156  1.00  0.00     0.225 C 
BRANCH   7   8
HETATM    8  C3  UNL     1     -16.871   1.498   7.347  1.00  0.00     0.235 C 
HETATM    9  O1  UNL     1     -16.929   2.055   8.474  1.00  0.00    -0.272 OA
HETATM   10  N3  UNL     1     -16.167   0.275   7.241  1.00  0.00    -0.355 N 
ATOM     11  H3  UNL     1     -16.105  -0.197   6.339  1.00  0.00     0.162 HD
BRANCH  10  12
HETATM   12  C4  UNL     1     -15.543  -0.303   8.382  1.00  0.00     0.084 A 
HETATM   13  C5  UNL     1     -15.170  -1.742   8.433  1.00  0.00     0.027 A 
HETATM   14  C6  UNL     1     -14.083  -0.790   8.155  1.00  0.00     0.027 A 
ENDBRANCH  10  12
ENDBRANCH   7   8
ENDBRANCH   3   7
BRANCH   5  15
HETATM   15  C7  UNL     1     -20.201   2.345   3.229  1.00  0.00     0.126 C 
BRANCH  15  16
HETATM   16  C8  UNL     1     -20.555   3.790   3.397  1.00  0.00     0.003 C 
HETATM   17  C9  UNL     1     -22.058   3.938   3.480  1.00  0.00     0.006 C 
HETATM   18  C10 UNL     1     -22.272   4.896   4.616  1.00  0.00     0.000 C 
HETATM   19  C11 UNL     1     -21.182   4.534   5.598  1.00  0.00     0.000 C 
HETATM   20  C12 UNL     1     -19.988   4.310   4.678  1.00  0.00     0.006 C 
ENDBRANCH  15  16
ENDBRANCH   5  15
TORSDOF 5
ENDMDL
MODEL 2
REMARK VINA RESULT: -6.184071547      2.103      2.736
REMARK  5 active torsions:
REMARK  status: ('A' for Active; 'I' for Inactive)
REMARK       I    between atoms: C1_2  and  N4_13 
REMARK    1  A    between atoms: N2_3  and  C2_5 
REMARK    2  A    between atoms: C2_5  and  C3_6 
REMARK       I    between atoms: C3_6  and  N3_8 
REMARK    3  A    between atoms: N3_8  and  C4_10 
REMARK    4  A    between atoms: N4_13  and  C7_15 
REMARK    5  A    between atoms: C7_15  and  C8_16 
ROOT
HETATM    1  N1  UNL     1     -18.826   0.383   3.524  1.00  0.00    -0.064 NA
HETATM    2  C1  UNL     1     -18.583   1.532   4.330  1.00  0.00     0.184 C 
HETATM    3  N2  UNL     1     -17.438   1.738   4.891  1.00  0.00    -0.356 N 
ATOM      4  H2  UNL     1     -16.680   1.069   4.759  1.00  0.00     0.162 HD
HETATM    5  N4  UNL     1     -19.599   2.503   4.550  1.00  0.00    -0.364 N 
ATOM      6  H4  UNL     1     -19.682   2.980   5.448  1.00  0.00     0.162 HD
ENDROOT
BRANCH   3   7
HETATM    7  C2  UNL     1     -17.227   2.902   5.696  1.00  0.00     0.225 C 
BRANCH   7   8
HETATM    8  C3  UNL     1     -17.247   2.486   7.136  1.00  0.00     0.235 C 
HETATM    9  O1  UNL     1     -16.718   1.399   7.491  1.00  0.00    -0.272 OA
HETATM   10  N3  UNL     1     -17.852   3.291   8.129  1.00  0.00    -0.355 N 
ATOM     11  H3  UNL     1     -18.287   4.175   7.866  1.00  0.00     0.162 HD
BRANCH  10  12
HETATM   12  C4  UNL     1     -17.862   2.878   9.491  1.00  0.00     0.084 A 
HETATM   13  C5  UNL     1     -17.833   3.856  10.611  1.00  0.00     0.027 A 
HETATM   14  C6  UNL     1     -19.142   3.267  10.284  1.00  0.00     0.027 A 
ENDBRANCH  10  12
ENDBRANCH   7   8
ENDBRANCH   3   7
BRANCH   5  15
HETATM   15  C7  UNL     1     -20.509   2.794   3.471  1.00  0.00     0.126 C 
BRANCH  15  16
HETATM   16  C8  UNL     1     -20.944   4.226   3.492  1.00  0.00     0.003 C 
HETATM   17  C9  UNL     1     -22.385   4.313   3.942  1.00  0.00     0.006 C 
HETATM   18  C10 UNL     1     -22.396   5.448   4.925  1.00  0.00     0.000 C 
HETATM   19  C11 UNL     1     -21.066   5.322   5.631  1.00  0.00     0.000 C 
HETATM   20  C12 UNL     1     -20.125   4.994   4.478  1.00  0.00     0.006 C 
ENDBRANCH  15  16
ENDBRANCH   5  15
TORSDOF 5
ENDMDL
MODEL 3
REMARK VINA RESULT: -6.051787331      1.126      1.212
REMARK  5 active torsions:
REMARK  status: ('A' for Active; 'I' for Inactive)
REMARK       I    between atoms: C1_2  and  N4_13 
REMARK    1  A    between atoms: N2_3  and  C2_5 
REMARK    2  A    between atoms: C2_5  and  C3_6 
REMARK       I    between atoms: C3_6  and  N3_8 
REMARK    3  A    between atoms: N3_8  and  C4_10 
REMARK    4  A    between atoms: N4_13  and  C7_15 
REMARK    5  A    between atoms: C7_15  and  C8_16 
ROOT
HETATM    1  N1  UNL     1     -18.596   0.707   1.900  1.00  0.00    -0.064 NA
HETATM    2  C1  UNL     1     -18.676   1.064   3.276  1.00  0.00     0.184 C 
HETATM    3  N2  UNL     1     -17.649   0.996   4.056  1.00  0.00    -0.356 N 
ATOM      4  H2  UNL     1     -16.751   0.682   3.687  1.00  0.00     0.162 HD
HETATM    5  N4  UNL     1     -19.899   1.511   3.850  1.00  0.00    -0.364 N 
ATOM      6  H4  UNL     1     -20.148   1.267   4.808  1.00  0.00     0.162 HD
ENDROOT
BRANCH   3   7
HETATM    7  C2  UNL     1     -17.763   1.361   5.435  1.00  0.00     0.225 C 
BRANCH   7   8
HETATM    8  C3  UNL     1     -16.496   0.963   6.131  1.00  0.00     0.235 C 
HETATM    9  O1  UNL     1     -15.378   1.319   5.673  1.00  0.00    -0.272 OA
HETATM   10  N3  UNL     1     -16.517   0.183   7.312  1.00  0.00    -0.355 N 
ATOM     11  H3  UNL     1     -17.409  -0.118   7.703  1.00  0.00     0.162 HD
BRANCH  10  12
HETATM   12  C4  UNL     1     -15.303  -0.186   7.958  1.00  0.00     0.084 A 
HETATM   13  C5  UNL     1     -15.208  -0.327   9.435  1.00  0.00     0.027 A 
HETATM   14  C6  UNL     1     -15.332  -1.573   8.662  1.00  0.00     0.027 A 
ENDBRANCH  10  12
ENDBRANCH   7   8
ENDBRANCH   3   7
BRANCH   5  15
HETATM   15  C7  UNL     1     -20.775   2.319   3.040  1.00  0.00     0.126 C 
BRANCH  15  16
HETATM   16  C8  UNL     1     -20.751   3.753   3.469  1.00  0.00     0.003 C 
HETATM   17  C9  UNL     1     -22.166   4.281   3.559  1.00  0.00     0.006 C 
HETATM   18  C10 UNL     1     -22.192   5.045   4.851  1.00  0.00     0.000 C 
HETATM   19  C11 UNL     1     -21.297   4.239   5.762  1.00  0.00     0.000 C 
HETATM   20  C12 UNL     1     -20.148   3.869   4.831  1.00  0.00     0.006 C 
ENDBRANCH  15  16
ENDBRANCH   5  15
TORSDOF 5
ENDMDL
MODEL 4
REMARK VINA RESULT: -6.006189977      1.426      2.120
REMARK  5 active torsions:
REMARK  status: ('A' for Active; 'I' for Inactive)
REMARK       I    between atoms: C1_2  and  N4_13 
REMARK    1  A    between atoms: N2_3  and  C2_5 
REMARK    2  A    between atoms: C2_5  and  C3_6 
REMARK       I    between atoms: C3_6  and  N3_8 
REMARK    3  A    between atoms: N3_8  and  C4_10 
REMARK    4  A    between atoms: N4_13  and  C7_15 
REMARK    5  A    between atoms: C7_15  and  C8_16 
ROOT
HETATM    1  N1  UNL     1     -17.519   0.352   4.119  1.00  0.00    -0.064 NA
HETATM    2  C1  UNL     1     -17.385   0.918   5.419  1.00  0.00     0.184 C 
HETATM    3  N2  UNL     1     -16.505   0.484   6.260  1.00  0.00    -0.356 N 
ATOM      4  H2  UNL     1     -15.885  -0.281   5.997  1.00  0.00     0.162 HD
HETATM    5  N4  UNL     1     -18.218   1.989   5.844  1.00  0.00    -0.364 N 
ATOM      6  H4  UNL     1     -18.535   2.055   6.812  1.00  0.00     0.162 HD
ENDROOT
BRANCH   3   7
HETATM    7  C2  UNL     1     -16.396   1.074   7.559  1.00  0.00     0.225 C 
BRANCH   7   8
HETATM    8  C3  UNL     1     -15.499   0.208   8.392  1.00  0.00     0.235 C 
HETATM    9  O1  UNL     1     -15.226   0.530   9.579  1.00  0.00    -0.272 OA
HETATM   10  N3  UNL     1     -14.938  -0.984   7.877  1.00  0.00    -0.355 N 
ATOM     11  H3  UNL     1     -15.144  -1.266   6.919  1.00  0.00     0.162 HD
BRANCH  10  12
HETATM   12  C4  UNL     1     -14.088  -1.792   8.683  1.00  0.00     0.084 A 
HETATM   13  C5  UNL     1     -14.096  -3.277   8.594  1.00  0.00     0.027 A 
HETATM   14  C6  UNL     1     -13.001  -2.582   7.900  1.00  0.00     0.027 A 
ENDBRANCH  10  12
ENDBRANCH   7   8
ENDBRANCH   3   7
BRANCH   5  15
HETATM   15  C7  UNL     1     -18.604   2.980   4.871  1.00  0.00     0.126 C 
BRANCH  15  16
HETATM   16  C8  UNL     1     -20.090   3.029   4.698  1.00  0.00     0.003 C 
HETATM   17  C9  UNL     1     -20.494   4.379   4.148  1.00  0.00     0.006 C 
HETATM   18  C10 UNL     1     -21.490   4.056   3.073  1.00  0.00     0.000 C 
HETATM   19  C11 UNL     1     -20.962   2.775   2.470  1.00  0.00     0.000 C 
HETATM   20  C12 UNL     1     -20.523   1.999   3.706  1.00  0.00     0.006 C 
ENDBRANCH  15  16
ENDBRANCH   5  15
TORSDOF 5
ENDMDL
MODEL 5
REMARK VINA RESULT: -5.983585335      2.895      4.849
REMARK  5 active torsions:
REMARK  status: ('A' for Active; 'I' for Inactive)
REMARK       I    between atoms: C1_2  and  N4_13 
REMARK    1  A    between atoms: N2_3  and  C2_5 
REMARK    2  A    between atoms: C2_5  and  C3_6 
REMARK       I    between atoms: C3_6  and  N3_8 
REMARK    3  A    between atoms: N3_8  and  C4_10 
REMARK    4  A    between atoms: N4_13  and  C7_15 
REMARK    5  A    between atoms: C7_15  and  C8_16 
ROOT
HETATM    1  N1  UNL     1     -20.609   6.725   3.768  1.00  0.00    -0.064 NA
HETATM    2  C1  UNL     1     -21.094   5.407   4.003  1.00  0.00     0.184 C 
HETATM    3  N2  UNL     1     -20.672   4.396   3.320  1.00  0.00    -0.356 N 
ATOM      4  H2  UNL     1     -19.972   4.533   2.590  1.00  0.00     0.162 HD
HETATM    5  N4  UNL     1     -22.069   5.151   5.007  1.00  0.00    -0.364 N 
ATOM      6  H4  UNL     1     -22.789   4.442   4.870  1.00  0.00     0.162 HD
ENDROOT
BRANCH   3   7
HETATM    7  C2  UNL     1     -21.181   3.084   3.581  1.00  0.00     0.225 C 
BRANCH   7   8
HETATM    8  C3  UNL     1     -20.044   2.226   4.051  1.00  0.00     0.235 C 
HETATM    9  O1  UNL     1     -20.032   0.992   3.801  1.00  0.00    -0.272 OA
HETATM   10  N3  UNL     1     -18.964   2.771   4.785  1.00  0.00    -0.355 N 
ATOM     11  H3  UNL     1     -18.951   3.767   5.000  1.00  0.00     0.162 HD
BRANCH  10  12
HETATM   12  C4  UNL     1     -17.895   1.941   5.224  1.00  0.00     0.084 A 
HETATM   13  C5  UNL     1     -16.537   2.483   5.500  1.00  0.00     0.027 A 
HETATM   14  C6  UNL     1     -17.394   2.227   6.669  1.00  0.00     0.027 A 
ENDBRANCH  10  12
ENDBRANCH   7   8
ENDBRANCH   3   7
BRANCH   5  15
HETATM   15  C7  UNL     1     -22.012   5.922   6.224  1.00  0.00     0.126 C 
BRANCH  15  16
HETATM   16  C8  UNL     1     -20.994   5.372   7.173  1.00  0.00     0.003 C 
HETATM   17  C9  UNL     1     -21.201   5.973   8.545  1.00  0.00     0.006 C 
HETATM   18  C10 UNL     1     -21.083   4.806   9.481  1.00  0.00     0.000 C 
HETATM   19  C11 UNL     1     -21.711   3.667   8.712  1.00  0.00     0.000 C 
HETATM   20  C12 UNL     1     -21.165   3.894   7.307  1.00  0.00     0.006 C 
ENDBRANCH  15  16
ENDBRANCH   5  15
TORSDOF 5
ENDMDL
