MODEL 1
REMARK VINA RESULT: -9.435453437      0.000      0.000
REMARK  10 active torsions:
REMARK  status: ('A' for Active; 'I' for Inactive)
REMARK    1  A    between atoms: C2_2  and  O2_4 
REMARK    2  A    between atoms: O2_4  and  C3_5 
REMARK    3  A    between atoms: C3_5  and  C4_6 
REMARK    4  A    between atoms: C8_11  and  C9_12 
REMARK    5  A    between atoms: C10_13  and  C11_14 
REMARK    6  A    between atoms: C11_14  and  O4_15 
REMARK    7  A    between atoms: N1_17  and  O5_19 
REMARK    8  A    between atoms: C15_24  and  O6_25 
REMARK    9  A    between atoms: O6_25  and  C16_26 
REMARK   10  A    between atoms: C16_26  and  C17_28 
ROOT
HETATM    1  C17 UNL     1      81.231  51.997  36.978  1.00  0.00     0.023 C 
HETATM    2  C18 UNL     1      82.505  52.707  36.628  1.00  0.00     0.055 C 
HETATM    3  C19 UNL     1      80.277  51.888  36.075  1.00  0.00     0.106 C 
HETATM    4  C20 UNL     1      79.026  51.246  36.264  1.00  0.00     0.088 C 
HETATM    5  N2  UNL     1      77.997  50.726  36.398  1.00  0.00    -0.192 NA
ENDROOT
BRANCH   1   6
HETATM    6  C16 UNL     1      81.079  51.444  38.306  1.00  0.00     0.290 C 
HETATM    7  O7  UNL     1      80.549  52.139  39.199  1.00  0.00    -0.260 OA
BRANCH   6   8
HETATM    8  O6  UNL     1      81.511  50.172  38.577  1.00  0.00    -0.309 OA
BRANCH   8   9
HETATM    9  C15 UNL     1      80.665  49.030  38.521  1.00  0.00     0.168 C 
HETATM   10  C4  UNL     1      81.374  47.787  39.044  1.00  0.00     0.183 C 
HETATM   11  O3  UNL     1      82.006  48.209  40.238  1.00  0.00    -0.341 OA
HETATM   12  C5  UNL     1      81.207  48.741  41.230  1.00  0.00     0.075 A 
HETATM   13  C6  UNL     1      81.564  48.770  42.554  1.00  0.00     0.038 A 
HETATM   14  C13 UNL     1      79.988  49.272  40.899  1.00  0.00    -0.021 A 
HETATM   15  C7  UNL     1      80.754  49.308  43.562  1.00  0.00     0.014 A 
HETATM   16  C8  UNL     1      79.539  49.832  43.188  1.00  0.00    -0.035 A 
HETATM   17  C12 UNL     1      79.137  49.821  41.842  1.00  0.00     0.021 A 
HETATM   18  C14 UNL     1      79.522  49.277  39.473  1.00  0.00     0.076 C 
BRANCH  10  19
HETATM   19  C3  UNL     1      82.381  47.259  38.091  1.00  0.00     0.213 C 
BRANCH  19  20
HETATM   20  O2  UNL     1      83.365  48.223  37.836  1.00  0.00    -0.319 OA
BRANCH  20  21
HETATM   21  C2  UNL     1      83.838  48.585  36.616  1.00  0.00     0.254 C 
HETATM   22  C1  UNL     1      82.883  48.995  35.530  1.00  0.00     0.126 C 
HETATM   23  O1  UNL     1      85.069  48.582  36.386  1.00  0.00    -0.266 OA
ENDBRANCH  20  21
ENDBRANCH  19  20
ENDBRANCH  10  19
BRANCH  16  24
HETATM   24  C9  UNL     1      78.670  50.399  44.197  1.00  0.00     0.015 C 
HETATM   25  C10 UNL     1      78.270  51.636  44.155  1.00  0.00     0.058 C 
BRANCH  25  26
HETATM   26  C11 UNL     1      77.385  52.158  45.212  1.00  0.00     0.159 C 
HETATM   27  N1  UNL     1      77.919  52.432  46.349  1.00  0.00    -0.248 N 
ATOM     28  H1  UNL     1      78.918  52.287  46.494  1.00  0.00     0.196 HD
BRANCH  26  29
HETATM   29  O4  UNL     1      76.036  52.346  44.992  1.00  0.00    -0.345 OA
ATOM     30  H4  UNL     1      75.425  51.618  45.015  1.00  0.00     0.219 HD
ENDBRANCH  26  29
BRANCH  27  31
HETATM   31  O5  UNL     1      77.132  52.924  47.373  1.00  0.00    -0.288 OA
ATOM     32  H5  UNL     1      76.715  53.773  47.279  1.00  0.00     0.244 HD
ENDBRANCH  27  31
ENDBRANCH  25  26
ENDBRANCH  16  24
ENDBRANCH   8   9
ENDBRANCH   6   8
ENDBRANCH   1   6
TORSDOF 10
ENDMDL
MODEL 2
REMARK VINA RESULT: -9.387179379      2.917      4.331
REMARK  10 active torsions:
REMARK  status: ('A' for Active; 'I' for Inactive)
REMARK    1  A    between atoms: C2_2  and  O2_4 
REMARK    2  A    between atoms: O2_4  and  C3_5 
REMARK    3  A    between atoms: C3_5  and  C4_6 
REMARK    4  A    between atoms: C8_11  and  C9_12 
REMARK    5  A    between atoms: C10_13  and  C11_14 
REMARK    6  A    between atoms: C11_14  and  O4_15 
REMARK    7  A    between atoms: N1_17  and  O5_19 
REMARK    8  A    between atoms: C15_24  and  O6_25 
REMARK    9  A    between atoms: O6_25  and  C16_26 
REMARK   10  A    between atoms: C16_26  and  C17_28 
ROOT
HETATM    1  C17 UNL     1      82.796  48.521  35.482  1.00  0.00     0.023 C 
HETATM    2  C18 UNL     1      83.076  48.793  34.034  1.00  0.00     0.055 C 
HETATM    3  C19 UNL     1      83.710  48.808  36.388  1.00  0.00     0.106 C 
HETATM    4  C20 UNL     1      83.583  48.606  37.787  1.00  0.00     0.088 C 
HETATM    5  N2  UNL     1      83.500  48.449  38.934  1.00  0.00    -0.192 NA
ENDROOT
BRANCH   1   6
HETATM    6  C16 UNL     1      81.520  47.947  35.854  1.00  0.00     0.290 C 
HETATM    7  O7  UNL     1      81.261  46.772  35.519  1.00  0.00    -0.260 OA
BRANCH   6   8
HETATM    8  O6  UNL     1      80.612  48.688  36.565  1.00  0.00    -0.309 OA
BRANCH   8   9
HETATM    9  C15 UNL     1      80.359  50.065  36.313  1.00  0.00     0.168 C 
HETATM   10  C4  UNL     1      78.889  50.310  35.999  1.00  0.00     0.183 C 
HETATM   11  O3  UNL     1      78.183  49.572  36.979  1.00  0.00    -0.341 OA
HETATM   12  C5  UNL     1      78.431  49.870  38.304  1.00  0.00     0.075 A 
HETATM   13  C6  UNL     1      77.550  49.595  39.319  1.00  0.00     0.038 A 
HETATM   14  C13 UNL     1      79.613  50.472  38.647  1.00  0.00    -0.021 A 
HETATM   15  C7  UNL     1      77.799  49.898  40.663  1.00  0.00     0.014 A 
HETATM   16  C8  UNL     1      78.998  50.501  40.966  1.00  0.00    -0.035 A 
HETATM   17  C12 UNL     1      79.927  50.798  39.956  1.00  0.00     0.021 A 
HETATM   18  C14 UNL     1      80.630  50.808  37.597  1.00  0.00     0.076 C 
BRANCH  10  19
HETATM   19  C3  UNL     1      78.509  49.850  34.640  1.00  0.00     0.213 C 
BRANCH  19  20
HETATM   20  O2  UNL     1      79.512  50.173  33.717  1.00  0.00    -0.319 OA
BRANCH  20  21
HETATM   21  C2  UNL     1      79.811  49.490  32.583  1.00  0.00     0.254 C 
HETATM   22  C1  UNL     1      79.668  47.994  32.545  1.00  0.00     0.126 C 
HETATM   23  O1  UNL     1      80.207  50.098  31.561  1.00  0.00    -0.266 OA
ENDBRANCH  20  21
ENDBRANCH  19  20
ENDBRANCH  10  19
BRANCH  16  24
HETATM   24  C9  UNL     1      79.297  50.830  42.343  1.00  0.00     0.015 C 
HETATM   25  C10 UNL     1      78.374  50.903  43.257  1.00  0.00     0.058 C 
BRANCH  25  26
HETATM   26  C11 UNL     1      78.739  51.242  44.644  1.00  0.00     0.159 C 
HETATM   27  N1  UNL     1      78.409  52.408  45.074  1.00  0.00    -0.248 N 
ATOM     28  H1  UNL     1      77.915  53.059  44.464  1.00  0.00     0.196 HD
BRANCH  26  29
HETATM   29  O4  UNL     1      79.408  50.346  45.451  1.00  0.00    -0.345 OA
ATOM     30  H4  UNL     1      80.234  49.959  45.183  1.00  0.00     0.219 HD
ENDBRANCH  26  29
BRANCH  27  31
HETATM   31  O5  UNL     1      78.729  52.775  46.368  1.00  0.00    -0.288 OA
ATOM     32  H5  UNL     1      79.562  52.508  46.740  1.00  0.00     0.244 HD
ENDBRANCH  27  31
ENDBRANCH  25  26
ENDBRANCH  16  24
ENDBRANCH   8   9
ENDBRANCH   6   8
ENDBRANCH   1   6
TORSDOF 10
ENDMDL
MODEL 3
REMARK VINA RESULT: -9.253547659      1.223      1.577
REMARK  10 active torsions:
REMARK  status: ('A' for Active; 'I' for Inactive)
REMARK    1  A    between atoms: C2_2  and  O2_4 
REMARK    2  A    between atoms: O2_4  and  C3_5 
REMARK    3  A    between atoms: C3_5  and  C4_6 
REMARK    4  A    between atoms: C8_11  and  C9_12 
REMARK    5  A    between atoms: C10_13  and  C11_14 
REMARK    6  A    between atoms: C11_14  and  O4_15 
REMARK    7  A    between atoms: N1_17  and  O5_19 
REMARK    8  A    between atoms: C15_24  and  O6_25 
REMARK    9  A    between atoms: O6_25  and  C16_26 
REMARK   10  A    between atoms: C16_26  and  C17_28 
ROOT
HETATM    1  C17 UNL     1      80.533  51.725  36.793  1.00  0.00     0.023 C 
HETATM    2  C18 UNL     1      79.279  51.163  36.194  1.00  0.00     0.055 C 
HETATM    3  C19 UNL     1      81.280  52.549  36.086  1.00  0.00     0.106 C 
HETATM    4  C20 UNL     1      82.486  53.156  36.521  1.00  0.00     0.088 C 
HETATM    5  N2  UNL     1      83.476  53.663  36.857  1.00  0.00    -0.192 NA
ENDROOT
BRANCH   1   6
HETATM    6  C16 UNL     1      80.896  51.349  38.143  1.00  0.00     0.290 C 
HETATM    7  O7  UNL     1      80.682  52.151  39.077  1.00  0.00    -0.260 OA
BRANCH   6   8
HETATM    8  O6  UNL     1      81.468  50.128  38.388  1.00  0.00    -0.309 OA
BRANCH   8   9
HETATM    9  C15 UNL     1      80.741  48.907  38.370  1.00  0.00     0.168 C 
HETATM   10  C4  UNL     1      81.572  47.757  38.925  1.00  0.00     0.183 C 
HETATM   11  O3  UNL     1      82.162  48.275  40.102  1.00  0.00    -0.341 OA
HETATM   12  C5  UNL     1      81.317  48.753  41.083  1.00  0.00     0.075 A 
HETATM   13  C6  UNL     1      81.673  48.856  42.404  1.00  0.00     0.038 A 
HETATM   14  C13 UNL     1      80.050  49.149  40.744  1.00  0.00    -0.021 A 
HETATM   15  C7  UNL     1      80.816  49.340  43.401  1.00  0.00     0.014 A 
HETATM   16  C8  UNL     1      79.553  49.729  43.018  1.00  0.00    -0.035 A 
HETATM   17  C12 UNL     1      79.151  49.638  41.676  1.00  0.00     0.021 A 
HETATM   18  C14 UNL     1      79.581  49.066  39.321  1.00  0.00     0.076 C 
BRANCH  10  19
HETATM   19  C3  UNL     1      82.624  47.304  37.981  1.00  0.00     0.213 C 
BRANCH  19  20
HETATM   20  O2  UNL     1      83.516  48.349  37.706  1.00  0.00    -0.319 OA
BRANCH  20  21
HETATM   21  C2  UNL     1      84.059  48.645  36.498  1.00  0.00     0.254 C 
HETATM   22  C1  UNL     1      83.261  49.411  35.480  1.00  0.00     0.126 C 
HETATM   23  O1  UNL     1      85.227  48.283  36.221  1.00  0.00    -0.266 OA
ENDBRANCH  20  21
ENDBRANCH  19  20
ENDBRANCH  10  19
BRANCH  16  24
HETATM   24  C9  UNL     1      78.636  50.235  44.015  1.00  0.00     0.015 C 
HETATM   25  C10 UNL     1      78.185  51.455  43.991  1.00  0.00     0.058 C 
BRANCH  25  26
HETATM   26  C11 UNL     1      77.252  51.915  45.035  1.00  0.00     0.159 C 
HETATM   27  N1  UNL     1      77.650  51.849  46.256  1.00  0.00    -0.248 N 
ATOM     28  H1  UNL     1      78.579  51.489  46.473  1.00  0.00     0.196 HD
BRANCH  26  29
HETATM   29  O4  UNL     1      75.999  52.398  44.717  1.00  0.00    -0.345 OA
ATOM     30  H4  UNL     1      75.814  52.767  43.862  1.00  0.00     0.219 HD
ENDBRANCH  26  29
BRANCH  27  31
HETATM   31  O5  UNL     1      76.811  52.268  47.272  1.00  0.00    -0.288 OA
ATOM     32  H5  UNL     1      77.149  52.832  47.957  1.00  0.00     0.244 HD
ENDBRANCH  27  31
ENDBRANCH  25  26
ENDBRANCH  16  24
ENDBRANCH   8   9
ENDBRANCH   6   8
ENDBRANCH   1   6
TORSDOF 10
ENDMDL
MODEL 4
REMARK VINA RESULT: -9.135578295      2.247      4.007
REMARK  10 active torsions:
REMARK  status: ('A' for Active; 'I' for Inactive)
REMARK    1  A    between atoms: C2_2  and  O2_4 
REMARK    2  A    between atoms: O2_4  and  C3_5 
REMARK    3  A    between atoms: C3_5  and  C4_6 
REMARK    4  A    between atoms: C8_11  and  C9_12 
REMARK    5  A    between atoms: C10_13  and  C11_14 
REMARK    6  A    between atoms: C11_14  and  O4_15 
REMARK    7  A    between atoms: N1_17  and  O5_19 
REMARK    8  A    between atoms: C15_24  and  O6_25 
REMARK    9  A    between atoms: O6_25  and  C16_26 
REMARK   10  A    between atoms: C16_26  and  C17_28 
ROOT
HETATM    1  C17 UNL     1      82.398  47.743  39.076  1.00  0.00     0.023 C 
HETATM    2  C18 UNL     1      83.559  47.882  40.015  1.00  0.00     0.055 C 
HETATM    3  C19 UNL     1      82.616  47.665  37.778  1.00  0.00     0.106 C 
HETATM    4  C20 UNL     1      81.620  47.531  36.777  1.00  0.00     0.088 C 
HETATM    5  N2  UNL     1      80.821  47.421  35.941  1.00  0.00    -0.192 NA
ENDROOT
BRANCH   1   6
HETATM    6  C16 UNL     1      81.058  47.694  39.619  1.00  0.00     0.290 C 
HETATM    7  O7  UNL     1      80.527  46.584  39.832  1.00  0.00    -0.260 OA
BRANCH   6   8
HETATM    8  O6  UNL     1      80.384  48.855  39.895  1.00  0.00    -0.309 OA
BRANCH   8   9
HETATM    9  C15 UNL     1      81.007  50.133  39.928  1.00  0.00     0.168 C 
HETATM   10  C4  UNL     1      80.282  51.129  39.032  1.00  0.00     0.183 C 
HETATM   11  O3  UNL     1      78.910  50.943  39.324  1.00  0.00    -0.341 OA
HETATM   12  C5  UNL     1      78.507  51.116  40.633  1.00  0.00     0.075 A 
HETATM   13  C6  UNL     1      77.218  51.416  40.994  1.00  0.00     0.038 A 
HETATM   14  C13 UNL     1      79.426  50.988  41.641  1.00  0.00    -0.021 A 
HETATM   15  C7  UNL     1      76.808  51.593  42.321  1.00  0.00     0.014 A 
HETATM   16  C8  UNL     1      77.761  51.455  43.304  1.00  0.00    -0.035 A 
HETATM   17  C12 UNL     1      79.091  51.149  42.975  1.00  0.00     0.021 A 
HETATM   18  C14 UNL     1      80.857  50.664  41.331  1.00  0.00     0.076 C 
BRANCH  10  19
HETATM   19  C3  UNL     1      80.535  50.889  37.589  1.00  0.00     0.213 C 
BRANCH  19  20
HETATM   20  O2  UNL     1      79.328  50.680  36.910  1.00  0.00    -0.319 OA
BRANCH  20  21
HETATM   21  C2  UNL     1      78.926  51.306  35.775  1.00  0.00     0.254 C 
HETATM   22  C1  UNL     1      78.208  50.534  34.703  1.00  0.00     0.126 C 
HETATM   23  O1  UNL     1      79.147  52.528  35.611  1.00  0.00    -0.266 OA
ENDBRANCH  20  21
ENDBRANCH  19  20
ENDBRANCH  10  19
BRANCH  16  24
HETATM   24  C9  UNL     1      77.380  51.630  44.689  1.00  0.00     0.015 C 
HETATM   25  C10 UNL     1      77.936  52.521  45.457  1.00  0.00     0.058 C 
BRANCH  25  26
HETATM   26  C11 UNL     1      77.506  52.653  46.860  1.00  0.00     0.159 C 
HETATM   27  N1  UNL     1      77.856  53.719  47.489  1.00  0.00    -0.248 N 
ATOM     28  H1  UNL     1      78.410  54.434  47.016  1.00  0.00     0.196 HD
BRANCH  26  29
HETATM   29  O4  UNL     1      76.758  51.672  47.478  1.00  0.00    -0.345 OA
ATOM     30  H4  UNL     1      75.814  51.746  47.556  1.00  0.00     0.219 HD
ENDBRANCH  26  29
BRANCH  27  31
HETATM   31  O5  UNL     1      77.478  53.890  48.807  1.00  0.00    -0.288 OA
ATOM     32  H5  UNL     1      77.880  54.578  49.326  1.00  0.00     0.244 HD
ENDBRANCH  27  31
ENDBRANCH  25  26
ENDBRANCH  16  24
ENDBRANCH   8   9
ENDBRANCH   6   8
ENDBRANCH   1   6
TORSDOF 10
ENDMDL
MODEL 5
REMARK VINA RESULT: -9.102699652      1.010      1.154
REMARK  10 active torsions:
REMARK  status: ('A' for Active; 'I' for Inactive)
REMARK    1  A    between atoms: C2_2  and  O2_4 
REMARK    2  A    between atoms: O2_4  and  C3_5 
REMARK    3  A    between atoms: C3_5  and  C4_6 
REMARK    4  A    between atoms: C8_11  and  C9_12 
REMARK    5  A    between atoms: C10_13  and  C11_14 
REMARK    6  A    between atoms: C11_14  and  O4_15 
REMARK    7  A    between atoms: N1_17  and  O5_19 
REMARK    8  A    between atoms: C15_24  and  O6_25 
REMARK    9  A    between atoms: O6_25  and  C16_26 
REMARK   10  A    between atoms: C16_26  and  C17_28 
ROOT
HETATM    1  C17 UNL     1      81.173  52.039  36.949  1.00  0.00     0.023 C 
HETATM    2  C18 UNL     1      82.432  52.786  36.626  1.00  0.00     0.055 C 
HETATM    3  C19 UNL     1      80.217  51.953  36.045  1.00  0.00     0.106 C 
HETATM    4  C20 UNL     1      78.978  51.280  36.209  1.00  0.00     0.088 C 
HETATM    5  N2  UNL     1      77.959  50.736  36.323  1.00  0.00    -0.192 NA
ENDROOT
BRANCH   1   6
HETATM    6  C16 UNL     1      81.036  51.424  38.252  1.00  0.00     0.290 C 
HETATM    7  O7  UNL     1      80.541  52.086  39.188  1.00  0.00    -0.260 OA
BRANCH   6   8
HETATM    8  O6  UNL     1      81.444  50.131  38.450  1.00  0.00    -0.309 OA
BRANCH   8   9
HETATM    9  C15 UNL     1      80.560  49.017  38.413  1.00  0.00     0.168 C 
HETATM   10  C4  UNL     1      81.243  47.749  38.909  1.00  0.00     0.183 C 
HETATM   11  O3  UNL     1      81.923  48.144  40.087  1.00  0.00    -0.341 OA
HETATM   12  C5  UNL     1      81.170  48.695  41.104  1.00  0.00     0.075 A 
HETATM   13  C6  UNL     1      81.565  48.705  42.417  1.00  0.00     0.038 A 
HETATM   14  C13 UNL     1      79.960  49.267  40.810  1.00  0.00    -0.021 A 
HETATM   15  C7  UNL     1      80.802  49.263  43.451  1.00  0.00     0.014 A 
HETATM   16  C8  UNL     1      79.594  49.828  43.114  1.00  0.00    -0.035 A 
HETATM   17  C12 UNL     1      79.154  49.838  41.781  1.00  0.00     0.021 A 
HETATM   18  C14 UNL     1      79.453  49.296  39.399  1.00  0.00     0.076 C 
BRANCH  10  19
HETATM   19  C3  UNL     1      82.205  47.194  37.925  1.00  0.00     0.213 C 
BRANCH  19  20
HETATM   20  O2  UNL     1      81.538  46.805  36.756  1.00  0.00    -0.319 OA
BRANCH  20  21
HETATM   21  C2  UNL     1      81.554  47.457  35.566  1.00  0.00     0.254 C 
HETATM   22  C1  UNL     1      82.532  48.574  35.333  1.00  0.00     0.126 C 
HETATM   23  O1  UNL     1      80.756  47.136  34.655  1.00  0.00    -0.266 OA
ENDBRANCH  20  21
ENDBRANCH  19  20
ENDBRANCH  10  19
BRANCH  16  24
HETATM   24  C9  UNL     1      78.775  50.417  44.150  1.00  0.00     0.015 C 
HETATM   25  C10 UNL     1      78.161  51.553  43.992  1.00  0.00     0.058 C 
BRANCH  25  26
HETATM   26  C11 UNL     1      77.339  52.104  45.084  1.00  0.00     0.159 C 
HETATM   27  N1  UNL     1      77.900  52.248  46.232  1.00  0.00    -0.248 N 
ATOM     28  H1  UNL     1      78.877  51.987  46.361  1.00  0.00     0.196 HD
BRANCH  26  29
HETATM   29  O4  UNL     1      76.019  52.450  44.885  1.00  0.00    -0.345 OA
ATOM     30  H4  UNL     1      75.677  53.286  45.179  1.00  0.00     0.219 HD
ENDBRANCH  26  29
BRANCH  27  31
HETATM   31  O5  UNL     1      77.171  52.761  47.289  1.00  0.00    -0.288 OA
ATOM     32  H5  UNL     1      77.341  52.451  48.171  1.00  0.00     0.244 HD
ENDBRANCH  27  31
ENDBRANCH  25  26
ENDBRANCH  16  24
ENDBRANCH   8   9
ENDBRANCH   6   8
ENDBRANCH   1   6
TORSDOF 10
ENDMDL
