MODEL 1
REMARK VINA RESULT: -6.836644804      0.000      0.000
REMARK  12 active torsions:
REMARK  status: ('A' for Active; 'I' for Inactive)
REMARK    1  A    between atoms: C2_2  and  C3_3 
REMARK    2  A    between atoms: C3_3  and  C4_4 
REMARK    3  A    between atoms: C4_4  and  O1_5 
REMARK    4  A    between atoms: O1_5  and  C5_6 
REMARK    5  A    between atoms: C5_6  and  C6_8 
REMARK    6  A    between atoms: C6_8  and  C7_9 
REMARK    7  A    between atoms: C7_9  and  S1_10 
REMARK    8  A    between atoms: S1_10  and  C8_11 
REMARK    9  A    between atoms: C8_11  and  N1_13 
REMARK   10  A    between atoms: C13_18  and  C14_19 
REMARK   11  A    between atoms: C14_19  and  O3_20 
REMARK   12  A    between atoms: N2_22  and  O4_23 
ROOT
HETATM    1  C6  UNL     1      81.278  51.167  37.808  1.00  0.00     0.052 C 
HETATM    2  C11 UNL     1      82.029  50.114  37.534  1.00  0.00    -0.037 C 
HETATM    3  C12 UNL     1      82.386  49.119  38.528  1.00  0.00     0.037 C 
HETATM    4  C13 UNL     1      82.615  47.836  38.224  1.00  0.00     0.059 C 
HETATM    5  N2  UNL     1      82.548  47.535  36.828  1.00  0.00    -0.253 N 
HETATM    6  C15 UNL     1      83.012  48.504  35.860  1.00  0.00     0.056 C 
HETATM    7  C16 UNL     1      82.663  48.015  34.474  1.00  0.00     0.041 C 
HETATM    8  C17 UNL     1      84.533  48.610  35.902  1.00  0.00     0.041 C 
HETATM    9  C18 UNL     1      82.474  49.891  36.141  1.00  0.00     0.072 C 
ENDROOT
BRANCH   1  10
HETATM   10  C5  UNL     1      80.964  52.158  36.748  1.00  0.00     0.294 C 
HETATM   11  O2  UNL     1      81.841  53.075  36.583  1.00  0.00    -0.259 OA
BRANCH  10  12
HETATM   12  O1  UNL     1      79.888  52.207  35.953  1.00  0.00    -0.317 OA
BRANCH  12  13
HETATM   13  C4  UNL     1      78.883  51.234  35.835  1.00  0.00     0.179 C 
BRANCH  13  14
HETATM   14  C3  UNL     1      79.062  50.353  34.642  1.00  0.00     0.026 C 
BRANCH  14  15
HETATM   15  C2  UNL     1      79.121  48.887  35.007  1.00  0.00    -0.002 C 
HETATM   16  C1  UNL     1      79.027  48.058  33.760  1.00  0.00     0.005 C 
ENDBRANCH  14  15
ENDBRANCH  13  14
ENDBRANCH  12  13
ENDBRANCH  10  12
ENDBRANCH   1  10
BRANCH   1  17
HETATM   17  C7  UNL     1      80.577  51.479  39.070  1.00  0.00     0.070 C 
BRANCH  17  18
HETATM   18  S1  UNL     1      79.475  50.392  39.822  1.00  0.00    -0.071 SA
BRANCH  18  19
HETATM   19  C8  UNL     1      79.280  50.323  41.551  1.00  0.00     0.140 C 
HETATM   20  S2  UNL     1      77.918  51.142  42.130  1.00  0.00    -0.052 SA
BRANCH  19  21
HETATM   21  N1  UNL     1      80.062  49.704  42.531  1.00  0.00    -0.375 N 
HETATM   22  C9  UNL     1      81.267  48.978  42.260  1.00  0.00     0.150 C 
HETATM   23  C10 UNL     1      79.657  49.783  43.921  1.00  0.00     0.150 C 
ENDBRANCH  19  21
ENDBRANCH  18  19
ENDBRANCH  17  18
ENDBRANCH   1  17
BRANCH   4  24
HETATM   24  C14 UNL     1      82.970  46.805  39.197  1.00  0.00     0.223 C 
BRANCH  24  25
HETATM   25  O3  UNL     1      83.933  47.331  40.076  1.00  0.00    -0.395 OA
ATOM     26  H3  UNL     1      84.520  46.631  40.337  1.00  0.00     0.209 HD
ENDBRANCH  24  25
ENDBRANCH   4  24
BRANCH   5  27
HETATM   27  O4  UNL     1      82.070  46.360  36.405  1.00  0.00    -0.287 OA
ATOM     28  H4  UNL     1      81.170  46.111  36.580  1.00  0.00     0.244 HD
ENDBRANCH   5  27
TORSDOF 12
ENDMDL
MODEL 2
REMARK VINA RESULT: -6.746867275      2.177      2.902
REMARK  12 active torsions:
REMARK  status: ('A' for Active; 'I' for Inactive)
REMARK    1  A    between atoms: C2_2  and  C3_3 
REMARK    2  A    between atoms: C3_3  and  C4_4 
REMARK    3  A    between atoms: C4_4  and  O1_5 
REMARK    4  A    between atoms: O1_5  and  C5_6 
REMARK    5  A    between atoms: C5_6  and  C6_8 
REMARK    6  A    between atoms: C6_8  and  C7_9 
REMARK    7  A    between atoms: C7_9  and  S1_10 
REMARK    8  A    between atoms: S1_10  and  C8_11 
REMARK    9  A    between atoms: C8_11  and  N1_13 
REMARK   10  A    between atoms: C13_18  and  C14_19 
REMARK   11  A    between atoms: C14_19  and  O3_20 
REMARK   12  A    between atoms: N2_22  and  O4_23 
ROOT
HETATM    1  C6  UNL     1      78.392  49.766  39.331  1.00  0.00     0.052 C 
HETATM    2  C11 UNL     1      79.656  49.463  39.089  1.00  0.00    -0.037 C 
HETATM    3  C12 UNL     1      80.652  49.338  40.137  1.00  0.00     0.037 C 
HETATM    4  C13 UNL     1      81.709  48.523  40.044  1.00  0.00     0.059 C 
HETATM    5  N2  UNL     1      81.818  47.833  38.796  1.00  0.00    -0.253 N 
HETATM    6  C15 UNL     1      81.421  48.492  37.572  1.00  0.00     0.056 C 
HETATM    7  C16 UNL     1      81.464  47.490  36.442  1.00  0.00     0.041 C 
HETATM    8  C17 UNL     1      82.421  49.584  37.209  1.00  0.00     0.041 C 
HETATM    9  C18 UNL     1      80.071  49.165  37.701  1.00  0.00     0.072 C 
ENDROOT
BRANCH   1  10
HETATM   10  C5  UNL     1      77.427  49.897  38.210  1.00  0.00     0.294 C 
HETATM   11  O2  UNL     1      76.540  48.977  38.144  1.00  0.00    -0.259 OA
BRANCH  10  12
HETATM   12  O1  UNL     1      77.372  50.851  37.272  1.00  0.00    -0.317 OA
BRANCH  12  13
HETATM   13  C4  UNL     1      76.955  50.700  35.939  1.00  0.00     0.179 C 
BRANCH  13  14
HETATM   14  C3  UNL     1      78.078  50.817  34.962  1.00  0.00     0.026 C 
BRANCH  14  15
HETATM   15  C2  UNL     1      78.465  49.486  34.360  1.00  0.00    -0.002 C 
HETATM   16  C1  UNL     1      79.865  49.568  33.826  1.00  0.00     0.005 C 
ENDBRANCH  14  15
ENDBRANCH  13  14
ENDBRANCH  12  13
ENDBRANCH  10  12
ENDBRANCH   1  10
BRANCH   1  17
HETATM   17  C7  UNL     1      77.727  49.913  40.641  1.00  0.00     0.070 C 
BRANCH  17  18
HETATM   18  S1  UNL     1      77.965  51.277  41.663  1.00  0.00    -0.071 SA
BRANCH  18  19
HETATM   19  C8  UNL     1      77.955  51.143  43.400  1.00  0.00     0.140 C 
HETATM   20  S2  UNL     1      76.763  52.072  44.160  1.00  0.00    -0.052 SA
BRANCH  19  21
HETATM   21  N1  UNL     1      78.766  50.398  44.260  1.00  0.00    -0.375 N 
HETATM   22  C9  UNL     1      78.539  50.268  45.669  1.00  0.00     0.150 C 
HETATM   23  C10 UNL     1      79.919  49.699  43.727  1.00  0.00     0.150 C 
ENDBRANCH  19  21
ENDBRANCH  18  19
ENDBRANCH  17  18
ENDBRANCH   1  17
BRANCH   4  24
HETATM   24  C14 UNL     1      82.727  48.366  41.079  1.00  0.00     0.223 C 
BRANCH  24  25
HETATM   25  O3  UNL     1      83.907  47.889  40.479  1.00  0.00    -0.395 OA
ATOM     26  H3  UNL     1      84.201  47.122  40.955  1.00  0.00     0.209 HD
ENDBRANCH  24  25
ENDBRANCH   4  24
BRANCH   5  27
HETATM   27  O4  UNL     1      82.295  46.584  38.746  1.00  0.00    -0.287 OA
ATOM     28  H4  UNL     1      83.145  46.404  38.360  1.00  0.00     0.244 HD
ENDBRANCH   5  27
TORSDOF 12
ENDMDL
MODEL 3
REMARK VINA RESULT: -6.734626249      0.780      1.155
REMARK  12 active torsions:
REMARK  status: ('A' for Active; 'I' for Inactive)
REMARK    1  A    between atoms: C2_2  and  C3_3 
REMARK    2  A    between atoms: C3_3  and  C4_4 
REMARK    3  A    between atoms: C4_4  and  O1_5 
REMARK    4  A    between atoms: O1_5  and  C5_6 
REMARK    5  A    between atoms: C5_6  and  C6_8 
REMARK    6  A    between atoms: C6_8  and  C7_9 
REMARK    7  A    between atoms: C7_9  and  S1_10 
REMARK    8  A    between atoms: S1_10  and  C8_11 
REMARK    9  A    between atoms: C8_11  and  N1_13 
REMARK   10  A    between atoms: C13_18  and  C14_19 
REMARK   11  A    between atoms: C14_19  and  O3_20 
REMARK   12  A    between atoms: N2_22  and  O4_23 
ROOT
HETATM    1  C6  UNL     1      81.282  51.181  37.763  1.00  0.00     0.052 C 
HETATM    2  C11 UNL     1      82.018  50.122  37.472  1.00  0.00    -0.037 C 
HETATM    3  C12 UNL     1      82.365  49.109  38.452  1.00  0.00     0.037 C 
HETATM    4  C13 UNL     1      82.576  47.828  38.130  1.00  0.00     0.059 C 
HETATM    5  N2  UNL     1      82.501  47.547  36.730  1.00  0.00    -0.253 N 
HETATM    6  C15 UNL     1      82.975  48.523  35.773  1.00  0.00     0.056 C 
HETATM    7  C16 UNL     1      82.615  48.058  34.382  1.00  0.00     0.041 C 
HETATM    8  C17 UNL     1      84.497  48.607  35.812  1.00  0.00     0.041 C 
HETATM    9  C18 UNL     1      82.456  49.912  36.075  1.00  0.00     0.072 C 
ENDROOT
BRANCH   1  10
HETATM   10  C5  UNL     1      80.979  52.191  36.718  1.00  0.00     0.294 C 
HETATM   11  O2  UNL     1      81.854  53.115  36.582  1.00  0.00    -0.259 OA
BRANCH  10  12
HETATM   12  O1  UNL     1      79.914  52.250  35.908  1.00  0.00    -0.317 OA
BRANCH  12  13
HETATM   13  C4  UNL     1      78.866  51.319  35.825  1.00  0.00     0.179 C 
BRANCH  13  14
HETATM   14  C3  UNL     1      78.986  50.412  34.645  1.00  0.00     0.026 C 
BRANCH  14  15
HETATM   15  C2  UNL     1      79.077  48.955  35.040  1.00  0.00    -0.002 C 
HETATM   16  C1  UNL     1      78.968  48.098  33.813  1.00  0.00     0.005 C 
ENDBRANCH  14  15
ENDBRANCH  13  14
ENDBRANCH  12  13
ENDBRANCH  10  12
ENDBRANCH   1  10
BRANCH   1  17
HETATM   17  C7  UNL     1      80.589  51.486  39.032  1.00  0.00     0.070 C 
BRANCH  17  18
HETATM   18  S1  UNL     1      79.563  50.359  39.830  1.00  0.00    -0.071 SA
BRANCH  18  19
HETATM   19  C8  UNL     1      79.669  50.067  41.544  1.00  0.00     0.140 C 
HETATM   20  S2  UNL     1      81.045  49.204  42.018  1.00  0.00    -0.052 SA
BRANCH  19  21
HETATM   21  N1  UNL     1      78.808  50.428  42.584  1.00  0.00    -0.375 N 
HETATM   22  C9  UNL     1      77.641  51.242  42.417  1.00  0.00     0.150 C 
HETATM   23  C10 UNL     1      79.082  49.965  43.931  1.00  0.00     0.150 C 
ENDBRANCH  19  21
ENDBRANCH  18  19
ENDBRANCH  17  18
ENDBRANCH   1  17
BRANCH   4  24
HETATM   24  C14 UNL     1      82.919  46.779  39.087  1.00  0.00     0.223 C 
BRANCH  24  25
HETATM   25  O3  UNL     1      83.802  47.315  40.042  1.00  0.00    -0.395 OA
ATOM     26  H3  UNL     1      83.618  48.241  40.138  1.00  0.00     0.209 HD
ENDBRANCH  24  25
ENDBRANCH   4  24
BRANCH   5  27
HETATM   27  O4  UNL     1      82.006  46.384  36.292  1.00  0.00    -0.287 OA
ATOM     28  H4  UNL     1      81.151  46.083  36.577  1.00  0.00     0.244 HD
ENDBRANCH   5  27
TORSDOF 12
ENDMDL
MODEL 4
REMARK VINA RESULT: -6.677409168      3.024      3.760
REMARK  12 active torsions:
REMARK  status: ('A' for Active; 'I' for Inactive)
REMARK    1  A    between atoms: C2_2  and  C3_3 
REMARK    2  A    between atoms: C3_3  and  C4_4 
REMARK    3  A    between atoms: C4_4  and  O1_5 
REMARK    4  A    between atoms: O1_5  and  C5_6 
REMARK    5  A    between atoms: C5_6  and  C6_8 
REMARK    6  A    between atoms: C6_8  and  C7_9 
REMARK    7  A    between atoms: C7_9  and  S1_10 
REMARK    8  A    between atoms: S1_10  and  C8_11 
REMARK    9  A    between atoms: C8_11  and  N1_13 
REMARK   10  A    between atoms: C13_18  and  C14_19 
REMARK   11  A    between atoms: C14_19  and  O3_20 
REMARK   12  A    between atoms: N2_22  and  O4_23 
ROOT
HETATM    1  C6  UNL     1      78.541  49.821  38.775  1.00  0.00     0.052 C 
HETATM    2  C11 UNL     1      79.805  49.455  38.658  1.00  0.00    -0.037 C 
HETATM    3  C12 UNL     1      80.701  49.335  39.793  1.00  0.00     0.037 C 
HETATM    4  C13 UNL     1      81.724  48.474  39.826  1.00  0.00     0.059 C 
HETATM    5  N2  UNL     1      81.910  47.726  38.621  1.00  0.00    -0.253 N 
HETATM    6  C15 UNL     1      81.650  48.348  37.341  1.00  0.00     0.056 C 
HETATM    7  C16 UNL     1      81.746  47.297  36.260  1.00  0.00     0.041 C 
HETATM    8  C17 UNL     1      82.725  49.381  37.025  1.00  0.00     0.041 C 
HETATM    9  C18 UNL     1      80.326  49.081  37.324  1.00  0.00     0.072 C 
ENDROOT
BRANCH   1  10
HETATM   10  C5  UNL     1      77.682  49.942  37.569  1.00  0.00     0.294 C 
HETATM   11  O2  UNL     1      77.861  51.003  36.877  1.00  0.00    -0.259 OA
BRANCH  10  12
HETATM   12  O1  UNL     1      76.756  49.084  37.123  1.00  0.00    -0.317 OA
BRANCH  12  13
HETATM   13  C4  UNL     1      75.431  49.383  36.768  1.00  0.00     0.179 C 
BRANCH  13  14
HETATM   14  C3  UNL     1      74.631  49.920  37.909  1.00  0.00     0.026 C 
BRANCH  14  15
HETATM   15  C2  UNL     1      74.268  51.377  37.728  1.00  0.00    -0.002 C 
HETATM   16  C1  UNL     1      74.824  52.175  38.870  1.00  0.00     0.005 C 
ENDBRANCH  14  15
ENDBRANCH  13  14
ENDBRANCH  12  13
ENDBRANCH  10  12
ENDBRANCH   1  10
BRANCH   1  17
HETATM   17  C7  UNL     1      77.772  50.051  40.015  1.00  0.00     0.070 C 
BRANCH  17  18
HETATM   18  S1  UNL     1      78.136  51.321  41.118  1.00  0.00    -0.071 SA
BRANCH  18  19
HETATM   19  C8  UNL     1      77.600  51.288  42.775  1.00  0.00     0.140 C 
HETATM   20  S2  UNL     1      78.529  50.298  43.785  1.00  0.00    -0.052 SA
BRANCH  19  21
HETATM   21  N1  UNL     1      76.535  51.941  43.401  1.00  0.00    -0.375 N 
HETATM   22  C9  UNL     1      75.418  52.507  42.705  1.00  0.00     0.150 C 
HETATM   23  C10 UNL     1      76.527  52.071  44.845  1.00  0.00     0.150 C 
ENDBRANCH  19  21
ENDBRANCH  18  19
ENDBRANCH  17  18
ENDBRANCH   1  17
BRANCH   4  24
HETATM   24  C14 UNL     1      82.642  48.320  40.952  1.00  0.00     0.223 C 
BRANCH  24  25
HETATM   25  O3  UNL     1      83.878  47.859  40.463  1.00  0.00    -0.395 OA
ATOM     26  H3  UNL     1      84.126  47.083  40.951  1.00  0.00     0.209 HD
ENDBRANCH  24  25
ENDBRANCH   4  24
BRANCH   5  27
HETATM   27  O4  UNL     1      82.333  46.458  38.663  1.00  0.00    -0.287 OA
ATOM     28  H4  UNL     1      81.830  45.765  38.252  1.00  0.00     0.244 HD
ENDBRANCH   5  27
TORSDOF 12
ENDMDL
MODEL 5
REMARK VINA RESULT: -6.670929913      3.119      4.122
REMARK  12 active torsions:
REMARK  status: ('A' for Active; 'I' for Inactive)
REMARK    1  A    between atoms: C2_2  and  C3_3 
REMARK    2  A    between atoms: C3_3  and  C4_4 
REMARK    3  A    between atoms: C4_4  and  O1_5 
REMARK    4  A    between atoms: O1_5  and  C5_6 
REMARK    5  A    between atoms: C5_6  and  C6_8 
REMARK    6  A    between atoms: C6_8  and  C7_9 
REMARK    7  A    between atoms: C7_9  and  S1_10 
REMARK    8  A    between atoms: S1_10  and  C8_11 
REMARK    9  A    between atoms: C8_11  and  N1_13 
REMARK   10  A    between atoms: C13_18  and  C14_19 
REMARK   11  A    between atoms: C14_19  and  O3_20 
REMARK   12  A    between atoms: N2_22  and  O4_23 
ROOT
HETATM    1  C6  UNL     1      79.056  50.416  36.688  1.00  0.00     0.052 C 
HETATM    2  C11 UNL     1      80.203  49.773  36.815  1.00  0.00    -0.037 C 
HETATM    3  C12 UNL     1      80.490  48.879  37.922  1.00  0.00     0.037 C 
HETATM    4  C13 UNL     1      81.312  47.829  37.816  1.00  0.00     0.059 C 
HETATM    5  N2  UNL     1      81.943  47.695  36.540  1.00  0.00    -0.253 N 
HETATM    6  C15 UNL     1      82.332  48.876  35.802  1.00  0.00     0.056 C 
HETATM    7  C16 UNL     1      82.802  48.460  34.428  1.00  0.00     0.041 C 
HETATM    8  C17 UNL     1      83.525  49.551  36.472  1.00  0.00     0.041 C 
HETATM    9  C18 UNL     1      81.224  49.906  35.752  1.00  0.00     0.072 C 
ENDROOT
BRANCH   1  10
HETATM   10  C5  UNL     1      78.834  51.330  35.540  1.00  0.00     0.294 C 
HETATM   11  O2  UNL     1      79.319  52.506  35.677  1.00  0.00    -0.259 OA
BRANCH  10  12
HETATM   12  O1  UNL     1      78.196  51.075  34.390  1.00  0.00    -0.317 OA
BRANCH  12  13
HETATM   13  C4  UNL     1      78.151  49.850  33.706  1.00  0.00     0.179 C 
BRANCH  13  14
HETATM   14  C3  UNL     1      79.143  49.767  32.593  1.00  0.00     0.026 C 
BRANCH  14  15
HETATM   15  C2  UNL     1      79.743  48.387  32.451  1.00  0.00    -0.002 C 
HETATM   16  C1  UNL     1      79.337  47.544  33.625  1.00  0.00     0.005 C 
ENDBRANCH  14  15
ENDBRANCH  13  14
ENDBRANCH  12  13
ENDBRANCH  10  12
ENDBRANCH   1  10
BRANCH   1  17
HETATM   17  C7  UNL     1      77.842  50.282  37.520  1.00  0.00     0.070 C 
BRANCH  17  18
HETATM   18  S1  UNL     1      76.441  49.430  36.999  1.00  0.00    -0.071 SA
BRANCH  18  19
HETATM   19  C8  UNL     1      74.996  50.256  36.485  1.00  0.00     0.140 C 
HETATM   20  S2  UNL     1      74.476  49.842  34.930  1.00  0.00    -0.052 SA
BRANCH  19  21
HETATM   21  N1  UNL     1      74.202  51.198  37.145  1.00  0.00    -0.375 N 
HETATM   22  C9  UNL     1      74.600  51.897  38.331  1.00  0.00     0.150 C 
HETATM   23  C10 UNL     1      72.886  51.512  36.624  1.00  0.00     0.150 C 
ENDBRANCH  19  21
ENDBRANCH  18  19
ENDBRANCH  17  18
ENDBRANCH   1  17
BRANCH   4  24
HETATM   24  C14 UNL     1      81.619  46.905  38.905  1.00  0.00     0.223 C 
BRANCH  24  25
HETATM   25  O3  UNL     1      82.971  46.531  38.807  1.00  0.00    -0.395 OA
ATOM     26  H3  UNL     1      83.027  45.583  38.849  1.00  0.00     0.209 HD
ENDBRANCH  24  25
ENDBRANCH   4  24
BRANCH   5  27
HETATM   27  O4  UNL     1      82.189  46.486  36.024  1.00  0.00    -0.287 OA
ATOM     28  H4  UNL     1      83.054  46.099  36.085  1.00  0.00     0.244 HD
ENDBRANCH   5  27
TORSDOF 12
ENDMDL
