MODEL 1
REMARK VINA RESULT: -8.667527528      0.000      0.000
REMARK  7 active torsions:
REMARK  status: ('A' for Active; 'I' for Inactive)
REMARK    1  A    between atoms: O1_1  and  C1_3 
REMARK    2  A    between atoms: C4_6  and  C5_7 
REMARK    3  A    between atoms: C5_7  and  N1_8 
REMARK    4  A    between atoms: N1_8  and  C6_10 
REMARK    5  A    between atoms: C6_10  and  C7_11 
REMARK    6  A    between atoms: C7_11  and  N2_12 
REMARK    7  A    between atoms: C18_26  and  O4_27 
ROOT
HETATM    1  C7  UNL     1      77.698  49.465  37.892  1.00  0.00     0.316 C 
ENDROOT
BRANCH   1   2
HETATM    2  C6  UNL     1      76.774  50.226  38.790  1.00  0.00     0.085 C 
BRANCH   2   3
HETATM    3  N1  UNL     1      77.375  50.889  39.875  1.00  0.00    -0.396 N 
ATOM      4  H1  UNL     1      78.383  50.883  40.029  1.00  0.00     0.159 HD
BRANCH   3   5
HETATM    5  C5  UNL     1      76.465  51.573  40.749  1.00  0.00     0.160 C 
BRANCH   5   6
HETATM    6  C4  UNL     1      76.992  51.549  42.147  1.00  0.00    -0.007 A 
HETATM    7  C3  UNL     1      78.216  50.965  42.345  1.00  0.00     0.014 A 
HETATM    8  C2  UNL     1      78.743  50.940  43.608  1.00  0.00     0.037 A 
HETATM    9  C1  UNL     1      78.062  51.490  44.681  1.00  0.00     0.068 A 
HETATM   10  C19 UNL     1      76.822  52.074  44.457  1.00  0.00     0.073 A 
HETATM   11  C18 UNL     1      76.288  52.101  43.185  1.00  0.00     0.076 A 
BRANCH   9  12
HETATM   12  O1  UNL     1      78.593  51.466  45.965  1.00  0.00    -0.361 OA
ATOM     13  H1  UNL     1      79.387  51.941  46.181  1.00  0.00     0.217 HD
ENDBRANCH   9  12
BRANCH  11  14
HETATM   14  O4  UNL     1      75.056  52.687  42.974  1.00  0.00    -0.360 OA
ATOM     15  H4  UNL     1      74.968  53.632  42.920  1.00  0.00     0.217 HD
ENDBRANCH  11  14
ENDBRANCH   5   6
ENDBRANCH   3   5
ENDBRANCH   2   3
ENDBRANCH   1   2
BRANCH   1  16
HETATM   16  N2  UNL     1      78.798  50.396  37.616  1.00  0.00     0.096 N 
HETATM   17  C8  UNL     1      80.089  49.796  37.632  1.00  0.00     0.299 C 
HETATM   18  C9  UNL     1      80.742  49.936  39.027  1.00  0.00     0.200 C 
HETATM   19  O2  UNL     1      81.977  49.351  39.060  1.00  0.00    -0.365 OA
HETATM   20  C10 UNL     1      82.567  49.486  37.813  1.00  0.00     0.337 C 
HETATM   21  O3  UNL     1      83.864  49.033  37.706  1.00  0.00    -0.367 OA
HETATM   22  C11 UNL     1      84.056  48.538  36.392  1.00  0.00     0.170 C 
HETATM   23  C12 UNL     1      83.508  49.427  35.339  1.00  0.00     0.026 C 
HETATM   24  C13 UNL     1      83.107  48.730  34.074  1.00  0.00     0.003 C 
HETATM   25  C14 UNL     1      81.745  48.094  34.109  1.00  0.00     0.010 C 
HETATM   26  C15 UNL     1      80.625  49.108  33.937  1.00  0.00     0.074 C 
HETATM   27  S1  UNL     1      79.172  48.648  34.912  1.00  0.00    -0.167 SA
HETATM   28  C16 UNL     1      78.092  50.015  35.279  1.00  0.00     0.104 C 
HETATM   29  C17 UNL     1      78.574  50.985  36.291  1.00  0.00     0.283 C 
ENDBRANCH   1  16
TORSDOF 7
ENDMDL
MODEL 2
REMARK VINA RESULT: -8.577855601      2.247      3.874
REMARK  7 active torsions:
REMARK  status: ('A' for Active; 'I' for Inactive)
REMARK    1  A    between atoms: O1_1  and  C1_3 
REMARK    2  A    between atoms: C4_6  and  C5_7 
REMARK    3  A    between atoms: C5_7  and  N1_8 
REMARK    4  A    between atoms: N1_8  and  C6_10 
REMARK    5  A    between atoms: C6_10  and  C7_11 
REMARK    6  A    between atoms: C7_11  and  N2_12 
REMARK    7  A    between atoms: C18_26  and  O4_27 
ROOT
HETATM    1  C7  UNL     1      81.311  49.685  40.552  1.00  0.00     0.316 C 
ENDROOT
BRANCH   1   2
HETATM    2  C6  UNL     1      80.953  49.353  41.966  1.00  0.00     0.085 C 
BRANCH   2   3
HETATM    3  N1  UNL     1      79.591  49.452  42.298  1.00  0.00    -0.396 N 
ATOM      4  H1  UNL     1      78.857  49.027  41.732  1.00  0.00     0.159 HD
BRANCH   3   5
HETATM    5  C5  UNL     1      79.308  50.197  43.492  1.00  0.00     0.160 C 
BRANCH   5   6
HETATM    6  C4  UNL     1      78.050  50.983  43.313  1.00  0.00    -0.007 A 
HETATM    7  C3  UNL     1      77.580  51.128  42.033  1.00  0.00     0.014 A 
HETATM    8  C2  UNL     1      76.419  51.825  41.829  1.00  0.00     0.037 A 
HETATM    9  C1  UNL     1      75.720  52.382  42.886  1.00  0.00     0.068 A 
HETATM   10  C19 UNL     1      76.217  52.224  44.174  1.00  0.00     0.073 A 
HETATM   11  C18 UNL     1      77.386  51.522  44.384  1.00  0.00     0.076 A 
BRANCH   9  12
HETATM   12  O1  UNL     1      74.542  53.091  42.682  1.00  0.00    -0.361 OA
ATOM     13  H1  UNL     1      73.784  52.685  42.280  1.00  0.00     0.217 HD
ENDBRANCH   9  12
BRANCH  11  14
HETATM   14  O4  UNL     1      77.869  51.369  45.668  1.00  0.00    -0.360 OA
ATOM     15  H4  UNL     1      77.698  50.576  46.162  1.00  0.00     0.217 HD
ENDBRANCH  11  14
ENDBRANCH   5   6
ENDBRANCH   3   5
ENDBRANCH   2   3
ENDBRANCH   1   2
BRANCH   1  16
HETATM   16  N2  UNL     1      80.498  48.771  39.740  1.00  0.00     0.096 N 
HETATM   17  C8  UNL     1      80.048  49.327  38.510  1.00  0.00     0.299 C 
HETATM   18  C9  UNL     1      78.635  49.937  38.666  1.00  0.00     0.200 C 
HETATM   19  O2  UNL     1      78.197  50.487  37.494  1.00  0.00    -0.365 OA
HETATM   20  C10 UNL     1      78.706  49.747  36.437  1.00  0.00     0.337 C 
HETATM   21  O3  UNL     1      78.275  50.114  35.180  1.00  0.00    -0.367 OA
HETATM   22  C11 UNL     1      79.328  49.872  34.262  1.00  0.00     0.170 C 
HETATM   23  C12 UNL     1      79.984  48.556  34.449  1.00  0.00     0.026 C 
HETATM   24  C13 UNL     1      81.414  48.498  33.997  1.00  0.00     0.003 C 
HETATM   25  C14 UNL     1      82.410  49.028  34.991  1.00  0.00     0.010 C 
HETATM   26  C15 UNL     1      82.696  48.041  36.111  1.00  0.00     0.074 C 
HETATM   27  S1  UNL     1      82.994  48.899  37.677  1.00  0.00    -0.167 SA
HETATM   28  C16 UNL     1      82.718  47.885  39.113  1.00  0.00     0.104 C 
HETATM   29  C17 UNL     1      81.306  47.582  39.447  1.00  0.00     0.283 C 
ENDBRANCH   1  16
TORSDOF 7
ENDMDL
MODEL 3
REMARK VINA RESULT: -8.555323886      2.495      3.695
REMARK  7 active torsions:
REMARK  status: ('A' for Active; 'I' for Inactive)
REMARK    1  A    between atoms: O1_1  and  C1_3 
REMARK    2  A    between atoms: C4_6  and  C5_7 
REMARK    3  A    between atoms: C5_7  and  N1_8 
REMARK    4  A    between atoms: N1_8  and  C6_10 
REMARK    5  A    between atoms: C6_10  and  C7_11 
REMARK    6  A    between atoms: C7_11  and  N2_12 
REMARK    7  A    between atoms: C18_26  and  O4_27 
ROOT
HETATM    1  C7  UNL     1      80.101  49.186  41.994  1.00  0.00     0.316 C 
ENDROOT
BRANCH   1   2
HETATM    2  C6  UNL     1      80.438  49.566  43.402  1.00  0.00     0.085 C 
BRANCH   2   3
HETATM    3  N1  UNL     1      79.347  49.845  44.244  1.00  0.00    -0.396 N 
ATOM      4  H1  UNL     1      79.097  49.246  45.031  1.00  0.00     0.159 HD
BRANCH   3   5
HETATM    5  C5  UNL     1      78.613  51.033  43.916  1.00  0.00     0.160 C 
BRANCH   5   6
HETATM    6  C4  UNL     1      78.249  51.765  45.167  1.00  0.00    -0.007 A 
HETATM    7  C3  UNL     1      78.589  53.091  45.238  1.00  0.00     0.014 A 
HETATM    8  C2  UNL     1      78.255  53.802  46.360  1.00  0.00     0.037 A 
HETATM    9  C1  UNL     1      77.587  53.206  47.415  1.00  0.00     0.068 A 
HETATM   10  C19 UNL     1      77.254  51.861  47.322  1.00  0.00     0.073 A 
HETATM   11  C18 UNL     1      77.588  51.141  46.193  1.00  0.00     0.076 A 
BRANCH   9  12
HETATM   12  O1  UNL     1      77.247  53.924  48.555  1.00  0.00    -0.361 OA
ATOM     13  H1  UNL     1      77.294  53.532  49.419  1.00  0.00     0.217 HD
ENDBRANCH   9  12
BRANCH  11  14
HETATM   14  O4  UNL     1      77.251  49.805  46.110  1.00  0.00    -0.360 OA
ATOM     15  H4  UNL     1      77.807  49.188  45.649  1.00  0.00     0.217 HD
ENDBRANCH  11  14
ENDBRANCH   5   6
ENDBRANCH   3   5
ENDBRANCH   2   3
ENDBRANCH   1   2
BRANCH   1  16
HETATM   16  N2  UNL     1      81.112  49.865  41.175  1.00  0.00     0.096 N 
HETATM   17  C8  UNL     1      81.581  49.098  40.072  1.00  0.00     0.299 C 
HETATM   18  C9  UNL     1      82.865  48.322  40.447  1.00  0.00     0.200 C 
HETATM   19  O2  UNL     1      83.319  47.570  39.400  1.00  0.00    -0.365 OA
HETATM   20  C10 UNL     1      83.023  48.230  38.217  1.00  0.00     0.337 C 
HETATM   21  O3  UNL     1      83.504  47.648  37.064  1.00  0.00    -0.367 OA
HETATM   22  C11 UNL     1      82.586  47.914  36.016  1.00  0.00     0.170 C 
HETATM   23  C12 UNL     1      82.122  49.321  35.980  1.00  0.00     0.026 C 
HETATM   24  C13 UNL     1      80.765  49.519  35.374  1.00  0.00     0.003 C 
HETATM   25  C14 UNL     1      79.614  49.265  36.309  1.00  0.00     0.010 C 
HETATM   26  C15 UNL     1      79.382  50.420  37.272  1.00  0.00     0.074 C 
HETATM   27  S1  UNL     1      78.820  49.821  38.884  1.00  0.00    -0.167 SA
HETATM   28  C16 UNL     1      79.117  50.963  40.217  1.00  0.00     0.104 C 
HETATM   29  C17 UNL     1      80.523  51.107  40.663  1.00  0.00     0.283 C 
ENDBRANCH   1  16
TORSDOF 7
ENDMDL
MODEL 4
REMARK VINA RESULT: -8.525906081      2.333      3.995
REMARK  7 active torsions:
REMARK  status: ('A' for Active; 'I' for Inactive)
REMARK    1  A    between atoms: O1_1  and  C1_3 
REMARK    2  A    between atoms: C4_6  and  C5_7 
REMARK    3  A    between atoms: C5_7  and  N1_8 
REMARK    4  A    between atoms: N1_8  and  C6_10 
REMARK    5  A    between atoms: C6_10  and  C7_11 
REMARK    6  A    between atoms: C7_11  and  N2_12 
REMARK    7  A    between atoms: C18_26  and  O4_27 
ROOT
HETATM    1  C7  UNL     1      81.933  49.072  39.776  1.00  0.00     0.316 C 
ENDROOT
BRANCH   1   2
HETATM    2  C6  UNL     1      81.671  48.868  41.234  1.00  0.00     0.085 C 
BRANCH   2   3
HETATM    3  N1  UNL     1      80.721  49.725  41.817  1.00  0.00    -0.396 N 
ATOM      4  H1  UNL     1      80.287  50.492  41.303  1.00  0.00     0.159 HD
BRANCH   3   5
HETATM    5  C5  UNL     1      80.406  49.442  43.188  1.00  0.00     0.160 C 
BRANCH   5   6
HETATM    6  C4  UNL     1      79.217  50.242  43.610  1.00  0.00    -0.007 A 
HETATM    7  C3  UNL     1      78.432  50.769  42.617  1.00  0.00     0.014 A 
HETATM    8  C2  UNL     1      77.322  51.492  42.963  1.00  0.00     0.037 A 
HETATM    9  C1  UNL     1      76.984  51.698  44.289  1.00  0.00     0.068 A 
HETATM   10  C19 UNL     1      77.794  51.157  45.278  1.00  0.00     0.073 A 
HETATM   11  C18 UNL     1      78.914  50.428  44.934  1.00  0.00     0.076 A 
BRANCH   9  12
HETATM   12  O1  UNL     1      75.858  52.433  44.643  1.00  0.00    -0.361 OA
ATOM     13  H1  UNL     1      74.985  52.064  44.572  1.00  0.00     0.217 HD
ENDBRANCH   9  12
BRANCH  11  14
HETATM   14  O4  UNL     1      79.711  49.892  45.926  1.00  0.00    -0.360 OA
ATOM     15  H4  UNL     1      80.637  49.743  45.780  1.00  0.00     0.217 HD
ENDBRANCH  11  14
ENDBRANCH   5   6
ENDBRANCH   3   5
ENDBRANCH   2   3
ENDBRANCH   1   2
BRANCH   1  16
HETATM   16  N2  UNL     1      80.850  48.348  39.099  1.00  0.00     0.096 N 
HETATM   17  C8  UNL     1      80.249  49.066  38.027  1.00  0.00     0.299 C 
HETATM   18  C9  UNL     1      79.001  49.838  38.513  1.00  0.00     0.200 C 
HETATM   19  O2  UNL     1      78.422  50.543  37.496  1.00  0.00    -0.365 OA
HETATM   20  C10 UNL     1      78.597  49.841  36.312  1.00  0.00     0.337 C 
HETATM   21  O3  UNL     1      77.982  50.372  35.199  1.00  0.00    -0.367 OA
HETATM   22  C11 UNL     1      78.782  50.078  34.066  1.00  0.00     0.170 C 
HETATM   23  C12 UNL     1      79.264  48.676  34.031  1.00  0.00     0.026 C 
HETATM   24  C13 UNL     1      80.550  48.472  33.287  1.00  0.00     0.003 C 
HETATM   25  C14 UNL     1      81.791  48.777  34.078  1.00  0.00     0.010 C 
HETATM   26  C15 UNL     1      82.148  47.665  35.052  1.00  0.00     0.074 C 
HETATM   27  S1  UNL     1      82.875  48.333  36.568  1.00  0.00    -0.167 SA
HETATM   28  C16 UNL     1      82.746  47.240  37.967  1.00  0.00     0.104 C 
HETATM   29  C17 UNL     1      81.401  47.095  38.572  1.00  0.00     0.283 C 
ENDBRANCH   1  16
TORSDOF 7
ENDMDL
MODEL 5
REMARK VINA RESULT: -8.443915003      2.436      3.804
REMARK  7 active torsions:
REMARK  status: ('A' for Active; 'I' for Inactive)
REMARK    1  A    between atoms: O1_1  and  C1_3 
REMARK    2  A    between atoms: C4_6  and  C5_7 
REMARK    3  A    between atoms: C5_7  and  N1_8 
REMARK    4  A    between atoms: N1_8  and  C6_10 
REMARK    5  A    between atoms: C6_10  and  C7_11 
REMARK    6  A    between atoms: C7_11  and  N2_12 
REMARK    7  A    between atoms: C18_26  and  O4_27 
ROOT
HETATM    1  C7  UNL     1      81.460  49.752  40.114  1.00  0.00     0.316 C 
ENDROOT
BRANCH   1   2
HETATM    2  C6  UNL     1      80.954  49.672  41.519  1.00  0.00     0.085 C 
BRANCH   2   3
HETATM    3  N1  UNL     1      80.047  50.673  41.907  1.00  0.00    -0.396 N 
ATOM      4  H1  UNL     1      80.322  51.650  42.013  1.00  0.00     0.159 HD
BRANCH   3   5
HETATM    5  C5  UNL     1      78.706  50.221  42.144  1.00  0.00     0.160 C 
BRANCH   5   6
HETATM    6  C4  UNL     1      78.241  50.695  43.483  1.00  0.00    -0.007 A 
HETATM    7  C3  UNL     1      77.166  51.546  43.508  1.00  0.00     0.014 A 
HETATM    8  C2  UNL     1      76.698  51.987  44.717  1.00  0.00     0.037 A 
HETATM    9  C1  UNL     1      77.289  51.591  45.904  1.00  0.00     0.068 A 
HETATM   10  C19 UNL     1      78.377  50.730  45.855  1.00  0.00     0.073 A 
HETATM   11  C18 UNL     1      78.853  50.283  44.639  1.00  0.00     0.076 A 
BRANCH   9  12
HETATM   12  O1  UNL     1      76.816  52.037  47.132  1.00  0.00    -0.361 OA
ATOM     13  H1  UNL     1      77.402  52.397  47.787  1.00  0.00     0.217 HD
ENDBRANCH   9  12
BRANCH  11  14
HETATM   14  O4  UNL     1      79.934  49.425  44.602  1.00  0.00    -0.360 OA
ATOM     15  H4  UNL     1      80.800  49.741  44.373  1.00  0.00     0.217 HD
ENDBRANCH  11  14
ENDBRANCH   5   6
ENDBRANCH   3   5
ENDBRANCH   2   3
ENDBRANCH   1   2
BRANCH   1  16
HETATM   16  N2  UNL     1      80.605  48.829  39.358  1.00  0.00     0.096 N 
HETATM   17  C8  UNL     1      80.123  49.355  38.127  1.00  0.00     0.299 C 
HETATM   18  C9  UNL     1      78.726  49.994  38.312  1.00  0.00     0.200 C 
HETATM   19  O2  UNL     1      78.257  50.517  37.140  1.00  0.00    -0.365 OA
HETATM   20  C10 UNL     1      78.718  49.737  36.089  1.00  0.00     0.337 C 
HETATM   21  O3  UNL     1      78.250  50.074  34.837  1.00  0.00    -0.367 OA
HETATM   22  C11 UNL     1      79.266  49.786  33.891  1.00  0.00     0.170 C 
HETATM   23  C12 UNL     1      79.907  48.465  34.096  1.00  0.00     0.026 C 
HETATM   24  C13 UNL     1      81.319  48.367  33.599  1.00  0.00     0.003 C 
HETATM   25  C14 UNL     1      82.358  48.910  34.542  1.00  0.00     0.010 C 
HETATM   26  C15 UNL     1      82.665  47.951  35.682  1.00  0.00     0.074 C 
HETATM   27  S1  UNL     1      83.031  48.851  37.209  1.00  0.00    -0.167 SA
HETATM   28  C16 UNL     1      82.787  47.886  38.685  1.00  0.00     0.104 C 
HETATM   29  C17 UNL     1      81.383  47.618  39.075  1.00  0.00     0.283 C 
ENDBRANCH   1  16
TORSDOF 7
ENDMDL
