MODEL 1
REMARK VINA RESULT: -10.021791068      0.000      0.000
REMARK  7 active torsions:
REMARK  status: ('A' for Active; 'I' for Inactive)
REMARK    1  A    between atoms: C4_5  and  N2_6 
REMARK    2  A    between atoms: C5_10  and  C6_11 
REMARK    3  A    between atoms: N3_12  and  N4_14 
REMARK       I    between atoms: N4_14  and  C7_16 
REMARK    4  A    between atoms: C7_16  and  C8_18 
REMARK    5  A    between atoms: C8_18  and  C18_30 
REMARK    6  A    between atoms: C9_19  and  C10_20 
REMARK    7  A    between atoms: C14_24  and  O5_25 
ROOT
HETATM    1  C1  UNL     1      82.826  48.340  38.018  1.00  0.00     0.229 C 
HETATM    2  N1  UNL     1      82.186  48.666  37.111  1.00  0.00    -0.426 NA
HETATM    3  C2  UNL     1      81.426  49.045  36.003  1.00  0.00     0.144 A 
HETATM    4  C3  UNL     1      81.520  48.546  34.723  1.00  0.00     0.110 A 
HETATM    5  C4  UNL     1      80.582  49.198  33.929  1.00  0.00     0.218 A 
HETATM    6  O3  UNL     1      79.968  50.043  34.718  1.00  0.00    -0.284 OA
HETATM    7  C5  UNL     1      80.421  49.997  35.945  1.00  0.00     0.135 A 
ENDROOT
BRANCH   7   8
HETATM    8  C6  UNL     1      79.978  50.788  37.084  1.00  0.00     0.148 C 
HETATM    9  N3  UNL     1      79.874  50.248  38.243  1.00  0.00    -0.306 N 
ATOM     10  H3  UNL     1      80.102  49.261  38.367  1.00  0.00     0.186 HD
BRANCH   9  11
HETATM   11  N4  UNL     1      79.436  51.029  39.367  1.00  0.00    -0.266 N 
HETATM   12  C7  UNL     1      78.428  50.538  40.192  1.00  0.00     0.276 C 
HETATM   13  O4  UNL     1      77.967  49.381  39.851  1.00  0.00    -0.266 OA
ATOM     14  H4  UNL     1      79.862  51.936  39.560  1.00  0.00     0.190 HD
BRANCH  12  15
HETATM   15  C8  UNL     1      77.819  51.136  41.378  1.00  0.00     0.110 C 
HETATM   16  C9  UNL     1      78.411  50.919  42.527  1.00  0.00     0.035 C 
BRANCH  16  17
HETATM   17  C10 UNL     1      78.124  51.333  43.859  1.00  0.00    -0.034 A 
HETATM   18  C11 UNL     1      78.414  52.601  44.307  1.00  0.00     0.021 A 
HETATM   19  C12 UNL     1      78.117  52.995  45.609  1.00  0.00    -0.028 A 
HETATM   20  C13 UNL     1      78.454  54.379  46.032  1.00  0.00     0.051 C 
HETATM   21  C14 UNL     1      77.522  52.138  46.502  1.00  0.00     0.077 A 
HETATM   22  C15 UNL     1      77.220  50.863  46.081  1.00  0.00    -0.028 A 
HETATM   23  C16 UNL     1      76.567  49.859  46.996  1.00  0.00     0.051 C 
HETATM   24  C17 UNL     1      77.516  50.478  44.796  1.00  0.00     0.021 A 
BRANCH  21  25
HETATM   25  O5  UNL     1      77.227  52.527  47.790  1.00  0.00    -0.360 OA
ATOM     26  H5  UNL     1      76.788  51.945  48.398  1.00  0.00     0.217 HD
ENDBRANCH  21  25
ENDBRANCH  16  17
BRANCH  15  27
HETATM   27  C18 UNL     1      76.584  51.846  41.284  1.00  0.00     0.215 C 
HETATM   28  O6  UNL     1      76.213  52.376  40.186  1.00  0.00    -0.644 OA
HETATM   29  O7  UNL     1      75.725  52.003  42.350  1.00  0.00    -0.644 OA
ENDBRANCH  15  27
ENDBRANCH  12  15
ENDBRANCH   9  11
ENDBRANCH   7   8
BRANCH   5  30
HETATM   30  N2  UNL     1      80.360  48.967  32.535  1.00  0.00    -0.090 N 
HETATM   31  O1  UNL     1      80.244  47.833  32.087  1.00  0.00    -0.530 OA
HETATM   32  O2  UNL     1      80.277  50.041  31.690  1.00  0.00    -0.530 OA
ENDBRANCH   5  30
TORSDOF 7
ENDMDL
MODEL 2
REMARK VINA RESULT: -9.962685828      0.701      1.725
REMARK  7 active torsions:
REMARK  status: ('A' for Active; 'I' for Inactive)
REMARK    1  A    between atoms: C4_5  and  N2_6 
REMARK    2  A    between atoms: C5_10  and  C6_11 
REMARK    3  A    between atoms: N3_12  and  N4_14 
REMARK       I    between atoms: N4_14  and  C7_16 
REMARK    4  A    between atoms: C7_16  and  C8_18 
REMARK    5  A    between atoms: C8_18  and  C18_30 
REMARK    6  A    between atoms: C9_19  and  C10_20 
REMARK    7  A    between atoms: C14_24  and  O5_25 
ROOT
HETATM    1  C1  UNL     1      82.045  48.859  38.237  1.00  0.00     0.229 C 
HETATM    2  N1  UNL     1      81.482  49.020  37.240  1.00  0.00    -0.426 NA
HETATM    3  C2  UNL     1      80.819  49.203  36.024  1.00  0.00     0.144 A 
HETATM    4  C3  UNL     1      81.243  48.796  34.780  1.00  0.00     0.110 A 
HETATM    5  C4  UNL     1      80.286  49.178  33.845  1.00  0.00     0.218 A 
HETATM    6  O3  UNL     1      79.345  49.785  34.521  1.00  0.00    -0.284 OA
HETATM    7  C5  UNL     1      79.604  49.829  35.803  1.00  0.00     0.135 A 
ENDROOT
BRANCH   7   8
HETATM    8  C6  UNL     1      78.786  50.422  36.852  1.00  0.00     0.148 C 
HETATM    9  N3  UNL     1      78.599  49.794  37.956  1.00  0.00    -0.306 N 
ATOM     10  H3  UNL     1      79.023  48.877  38.098  1.00  0.00     0.186 HD
BRANCH   9  11
HETATM   11  N4  UNL     1      77.792  50.378  38.991  1.00  0.00    -0.266 N 
HETATM   12  C7  UNL     1      78.356  50.634  40.239  1.00  0.00     0.276 C 
HETATM   13  O4  UNL     1      79.601  50.308  40.344  1.00  0.00    -0.266 OA
ATOM     14  H4  UNL     1      76.813  50.604  38.814  1.00  0.00     0.190 HD
BRANCH  12  15
HETATM   15  C8  UNL     1      77.750  51.212  41.436  1.00  0.00     0.110 C 
HETATM   16  C9  UNL     1      78.334  50.958  42.582  1.00  0.00     0.035 C 
BRANCH  16  17
HETATM   17  C10 UNL     1      78.046  51.344  43.922  1.00  0.00    -0.034 A 
HETATM   18  C11 UNL     1      77.459  50.482  44.819  1.00  0.00     0.021 A 
HETATM   19  C12 UNL     1      77.194  50.871  46.130  1.00  0.00    -0.028 A 
HETATM   20  C13 UNL     1      76.560  49.894  47.051  1.00  0.00     0.051 C 
HETATM   21  C14 UNL     1      77.505  52.129  46.584  1.00  0.00     0.077 A 
HETATM   22  C15 UNL     1      78.093  53.013  45.707  1.00  0.00    -0.028 A 
HETATM   23  C16 UNL     1      78.467  54.412  46.123  1.00  0.00     0.051 C 
HETATM   24  C17 UNL     1      78.352  52.625  44.415  1.00  0.00     0.021 A 
BRANCH  21  25
HETATM   25  O5  UNL     1      77.244  52.514  47.880  1.00  0.00    -0.360 OA
ATOM     26  H5  UNL     1      77.080  53.422  48.107  1.00  0.00     0.217 HD
ENDBRANCH  21  25
ENDBRANCH  16  17
BRANCH  15  27
HETATM   27  C18 UNL     1      76.528  51.944  41.353  1.00  0.00     0.215 C 
HETATM   28  O6  UNL     1      76.204  52.565  40.288  1.00  0.00    -0.644 OA
HETATM   29  O7  UNL     1      75.631  52.028  42.396  1.00  0.00    -0.644 OA
ENDBRANCH  15  27
ENDBRANCH  12  15
ENDBRANCH   9  11
ENDBRANCH   7   8
BRANCH   5  30
HETATM   30  N2  UNL     1      80.352  48.941  32.435  1.00  0.00    -0.090 N 
HETATM   31  O1  UNL     1      80.484  47.810  31.984  1.00  0.00    -0.530 OA
HETATM   32  O2  UNL     1      80.263  50.005  31.579  1.00  0.00    -0.530 OA
ENDBRANCH   5  30
TORSDOF 7
ENDMDL
MODEL 3
REMARK VINA RESULT: -9.727198400      1.691      2.709
REMARK  7 active torsions:
REMARK  status: ('A' for Active; 'I' for Inactive)
REMARK    1  A    between atoms: C4_5  and  N2_6 
REMARK    2  A    between atoms: C5_10  and  C6_11 
REMARK    3  A    between atoms: N3_12  and  N4_14 
REMARK       I    between atoms: N4_14  and  C7_16 
REMARK    4  A    between atoms: C7_16  and  C8_18 
REMARK    5  A    between atoms: C8_18  and  C18_30 
REMARK    6  A    between atoms: C9_19  and  C10_20 
REMARK    7  A    between atoms: C14_24  and  O5_25 
ROOT
HETATM    1  C1  UNL     1      82.093  46.818  36.884  1.00  0.00     0.229 C 
HETATM    2  N1  UNL     1      81.510  47.643  36.321  1.00  0.00    -0.426 NA
HETATM    3  C2  UNL     1      80.808  48.627  35.623  1.00  0.00     0.144 A 
HETATM    4  C3  UNL     1      80.425  48.592  34.301  1.00  0.00     0.110 A 
HETATM    5  C4  UNL     1      79.748  49.772  34.010  1.00  0.00     0.218 A 
HETATM    6  O3  UNL     1      79.740  50.465  35.120  1.00  0.00    -0.284 OA
HETATM    7  C5  UNL     1      80.346  49.844  36.099  1.00  0.00     0.135 A 
ENDROOT
BRANCH   7   8
HETATM    8  C6  UNL     1      80.528  50.309  37.466  1.00  0.00     0.148 C 
HETATM    9  N3  UNL     1      80.189  49.561  38.452  1.00  0.00    -0.306 N 
ATOM     10  H3  UNL     1      79.790  48.639  38.278  1.00  0.00     0.186 HD
BRANCH   9  11
HETATM   11  N4  UNL     1      80.368  50.020  39.802  1.00  0.00    -0.266 N 
HETATM   12  C7  UNL     1      79.502  49.577  40.799  1.00  0.00     0.276 C 
HETATM   13  O4  UNL     1      78.586  48.762  40.393  1.00  0.00    -0.266 OA
ATOM     14  H4  UNL     1      81.124  50.666  40.029  1.00  0.00     0.190 HD
BRANCH  12  15
HETATM   15  C8  UNL     1      79.478  49.896  42.224  1.00  0.00     0.110 C 
HETATM   16  C9  UNL     1      78.487  50.639  42.653  1.00  0.00     0.035 C 
BRANCH  16  17
HETATM   17  C10 UNL     1      78.135  51.135  43.941  1.00  0.00    -0.034 A 
HETATM   18  C11 UNL     1      77.479  50.358  44.867  1.00  0.00     0.021 A 
HETATM   19  C12 UNL     1      77.151  50.854  46.126  1.00  0.00    -0.028 A 
HETATM   20  C13 UNL     1      76.443  49.964  47.082  1.00  0.00     0.051 C 
HETATM   21  C14 UNL     1      77.466  52.137  46.499  1.00  0.00     0.077 A 
HETATM   22  C15 UNL     1      78.122  52.938  45.591  1.00  0.00    -0.028 A 
HETATM   23  C16 UNL     1      78.506  54.358  45.918  1.00  0.00     0.051 C 
HETATM   24  C17 UNL     1      78.443  52.444  44.350  1.00  0.00     0.021 A 
BRANCH  21  25
HETATM   25  O5  UNL     1      77.142  52.628  47.744  1.00  0.00    -0.360 OA
ATOM     26  H5  UNL     1      77.807  52.954  48.339  1.00  0.00     0.217 HD
ENDBRANCH  21  25
ENDBRANCH  16  17
BRANCH  15  27
HETATM   27  C18 UNL     1      80.543  49.483  43.081  1.00  0.00     0.215 C 
HETATM   28  O6  UNL     1      81.641  49.051  42.603  1.00  0.00    -0.644 OA
HETATM   29  O7  UNL     1      80.458  49.524  44.456  1.00  0.00    -0.644 OA
ENDBRANCH  15  27
ENDBRANCH  12  15
ENDBRANCH   9  11
ENDBRANCH   7   8
BRANCH   5  30
HETATM   30  N2  UNL     1      79.189  50.125  32.741  1.00  0.00    -0.090 N 
HETATM   31  O1  UNL     1      78.017  50.463  32.633  1.00  0.00    -0.530 OA
HETATM   32  O2  UNL     1      79.987  50.081  31.630  1.00  0.00    -0.530 OA
ENDBRANCH   5  30
TORSDOF 7
ENDMDL
MODEL 4
REMARK VINA RESULT: -9.710999386      1.672      2.195
REMARK  7 active torsions:
REMARK  status: ('A' for Active; 'I' for Inactive)
REMARK    1  A    between atoms: C4_5  and  N2_6 
REMARK    2  A    between atoms: C5_10  and  C6_11 
REMARK    3  A    between atoms: N3_12  and  N4_14 
REMARK       I    between atoms: N4_14  and  C7_16 
REMARK    4  A    between atoms: C7_16  and  C8_18 
REMARK    5  A    between atoms: C8_18  and  C18_30 
REMARK    6  A    between atoms: C9_19  and  C10_20 
REMARK    7  A    between atoms: C14_24  and  O5_25 
ROOT
HETATM    1  C1  UNL     1      81.955  46.821  36.913  1.00  0.00     0.229 C 
HETATM    2  N1  UNL     1      81.422  47.652  36.310  1.00  0.00    -0.426 NA
HETATM    3  C2  UNL     1      80.781  48.643  35.563  1.00  0.00     0.144 A 
HETATM    4  C3  UNL     1      80.436  48.584  34.232  1.00  0.00     0.110 A 
HETATM    5  C4  UNL     1      79.817  49.781  33.887  1.00  0.00     0.218 A 
HETATM    6  O3  UNL     1      79.803  50.506  34.976  1.00  0.00    -0.284 OA
HETATM    7  C5  UNL     1      80.355  49.890  35.990  1.00  0.00     0.135 A 
ENDROOT
BRANCH   7   8
HETATM    8  C6  UNL     1      80.516  50.387  37.349  1.00  0.00     0.148 C 
HETATM    9  N3  UNL     1      80.129  49.678  38.346  1.00  0.00    -0.306 N 
ATOM     10  H3  UNL     1      79.707  48.762  38.185  1.00  0.00     0.186 HD
BRANCH   9  11
HETATM   11  N4  UNL     1      80.287  50.168  39.687  1.00  0.00    -0.266 N 
HETATM   12  C7  UNL     1      79.552  49.592  40.720  1.00  0.00     0.276 C 
HETATM   13  O4  UNL     1      78.769  48.633  40.354  1.00  0.00    -0.266 OA
ATOM     14  H4  UNL     1      80.933  50.933  39.881  1.00  0.00     0.190 HD
BRANCH  12  15
HETATM   15  C8  UNL     1      79.536  49.911  42.146  1.00  0.00     0.110 C 
HETATM   16  C9  UNL     1      78.552  50.661  42.578  1.00  0.00     0.035 C 
BRANCH  16  17
HETATM   17  C10 UNL     1      78.209  51.160  43.868  1.00  0.00    -0.034 A 
HETATM   18  C11 UNL     1      78.511  52.444  44.257  1.00  0.00     0.021 A 
HETATM   19  C12 UNL     1      78.159  52.920  45.517  1.00  0.00    -0.028 A 
HETATM   20  C13 UNL     1      78.513  54.317  45.878  1.00  0.00     0.051 C 
HETATM   21  C14 UNL     1      77.497  52.132  46.426  1.00  0.00     0.077 A 
HETATM   22  C15 UNL     1      77.181  50.842  46.062  1.00  0.00    -0.028 A 
HETATM   23  C16 UNL     1      76.456  49.910  46.998  1.00  0.00     0.051 C 
HETATM   24  C17 UNL     1      77.532  50.376  44.818  1.00  0.00     0.021 A 
BRANCH  21  25
HETATM   25  O5  UNL     1      77.148  52.603  47.672  1.00  0.00    -0.360 OA
ATOM     26  H5  UNL     1      76.285  52.448  48.039  1.00  0.00     0.217 HD
ENDBRANCH  21  25
ENDBRANCH  16  17
BRANCH  15  27
HETATM   27  C18 UNL     1      80.602  49.492  42.998  1.00  0.00     0.215 C 
HETATM   28  O6  UNL     1      81.706  49.079  42.514  1.00  0.00    -0.644 OA
HETATM   29  O7  UNL     1      80.513  49.505  44.373  1.00  0.00    -0.644 OA
ENDBRANCH  15  27
ENDBRANCH  12  15
ENDBRANCH   9  11
ENDBRANCH   7   8
BRANCH   5  30
HETATM   30  N2  UNL     1      79.309  50.118  32.593  1.00  0.00    -0.090 N 
HETATM   31  O1  UNL     1      78.135  50.422  32.427  1.00  0.00    -0.530 OA
HETATM   32  O2  UNL     1      80.161  50.098  31.521  1.00  0.00    -0.530 OA
ENDBRANCH   5  30
TORSDOF 7
ENDMDL
MODEL 5
REMARK VINA RESULT: -9.663609868      1.765      2.647
REMARK  7 active torsions:
REMARK  status: ('A' for Active; 'I' for Inactive)
REMARK    1  A    between atoms: C4_5  and  N2_6 
REMARK    2  A    between atoms: C5_10  and  C6_11 
REMARK    3  A    between atoms: N3_12  and  N4_14 
REMARK       I    between atoms: N4_14  and  C7_16 
REMARK    4  A    between atoms: C7_16  and  C8_18 
REMARK    5  A    between atoms: C8_18  and  C18_30 
REMARK    6  A    between atoms: C9_19  and  C10_20 
REMARK    7  A    between atoms: C14_24  and  O5_25 
ROOT
HETATM    1  C1  UNL     1      75.921  50.559  36.516  1.00  0.00     0.229 C 
HETATM    2  N1  UNL     1      76.919  50.376  35.962  1.00  0.00    -0.426 NA
HETATM    3  C2  UNL     1      78.112  50.148  35.274  1.00  0.00     0.144 A 
HETATM    4  C3  UNL     1      78.250  49.735  33.968  1.00  0.00     0.110 A 
HETATM    5  C4  UNL     1      79.608  49.633  33.683  1.00  0.00     0.218 A 
HETATM    6  O3  UNL     1      80.233  49.972  34.781  1.00  0.00    -0.284 OA
HETATM    7  C5  UNL     1      79.407  50.284  35.747  1.00  0.00     0.135 A 
ENDROOT
BRANCH   7   8
HETATM    8  C6  UNL     1      79.744  50.707  37.099  1.00  0.00     0.148 C 
HETATM    9  N3  UNL     1      79.096  50.237  38.102  1.00  0.00    -0.306 N 
ATOM     10  H3  UNL     1      78.343  49.565  37.951  1.00  0.00     0.186 HD
BRANCH   9  11
HETATM   11  N4  UNL     1      79.427  50.654  39.436  1.00  0.00    -0.266 N 
HETATM   12  C7  UNL     1      78.826  50.023  40.522  1.00  0.00     0.276 C 
HETATM   13  O4  UNL     1      77.996  49.085  40.208  1.00  0.00    -0.266 OA
ATOM     14  H4  UNL     1      80.098  51.408  39.587  1.00  0.00     0.190 HD
BRANCH  12  15
HETATM   15  C8  UNL     1      78.995  50.264  41.953  1.00  0.00     0.110 C 
HETATM   16  C9  UNL     1      78.057  50.954  42.556  1.00  0.00     0.035 C 
BRANCH  16  17
HETATM   17  C10 UNL     1      77.878  51.369  43.907  1.00  0.00    -0.034 A 
HETATM   18  C11 UNL     1      78.282  52.608  44.348  1.00  0.00     0.021 A 
HETATM   19  C12 UNL     1      78.089  53.004  45.669  1.00  0.00    -0.028 A 
HETATM   20  C13 UNL     1      78.547  54.355  46.084  1.00  0.00     0.051 C 
HETATM   21  C14 UNL     1      77.490  52.179  46.588  1.00  0.00     0.077 A 
HETATM   22  C15 UNL     1      77.075  50.933  46.174  1.00  0.00    -0.028 A 
HETATM   23  C16 UNL     1      76.409  49.965  47.117  1.00  0.00     0.051 C 
HETATM   24  C17 UNL     1      77.268  50.546  44.870  1.00  0.00     0.021 A 
BRANCH  21  25
HETATM   25  O5  UNL     1      77.299  52.571  47.894  1.00  0.00    -0.360 OA
ATOM     26  H5  UNL     1      77.996  52.519  48.537  1.00  0.00     0.217 HD
ENDBRANCH  21  25
ENDBRANCH  16  17
BRANCH  15  27
HETATM   27  C18 UNL     1      80.178  49.839  42.629  1.00  0.00     0.215 C 
HETATM   28  O6  UNL     1      81.298  49.789  42.024  1.00  0.00    -0.644 OA
HETATM   29  O7  UNL     1      80.190  49.462  43.955  1.00  0.00    -0.644 OA
ENDBRANCH  15  27
ENDBRANCH  12  15
ENDBRANCH   9  11
ENDBRANCH   7   8
BRANCH   5  30
HETATM   30  N2  UNL     1      80.172  49.232  32.430  1.00  0.00    -0.090 N 
HETATM   31  O1  UNL     1      80.598  48.098  32.256  1.00  0.00    -0.530 OA
HETATM   32  O2  UNL     1      80.232  50.143  31.409  1.00  0.00    -0.530 OA
ENDBRANCH   5  30
TORSDOF 7
ENDMDL
