MODEL 1
REMARK VINA RESULT: -10.171654896      0.000      0.000
REMARK  16 active torsions:
REMARK  status: ('A' for Active; 'I' for Inactive)
REMARK    1  A    between atoms: N1_1  and  N2_4 
REMARK    2  A    between atoms: N2_4  and  C1_5 
REMARK    3  A    between atoms: N2_4  and  C28_45 
REMARK    4  A    between atoms: N2_4  and  C30_49 
REMARK    5  A    between atoms: C1_5  and  C2_6 
REMARK    6  A    between atoms: C3_7  and  C4_8 
REMARK    7  A    between atoms: C4_8  and  C5_9 
REMARK    8  A    between atoms: C5_9  and  C6_10 
REMARK    9  A    between atoms: C6_10  and  C7_11 
REMARK   10  A    between atoms: C7_11  and  N3_12 
REMARK   11  A    between atoms: C10_15  and  C11_16 
REMARK   12  A    between atoms: C14_19  and  N4_20 
REMARK   13  A    between atoms: C20_29  and  C21_30 
REMARK   14  A    between atoms: C28_45  and  C29_46 
REMARK   15  A    between atoms: C30_49  and  C31_50 
REMARK   16  A    between atoms: C35_54  and  O6_55 
ROOT
HETATM    1  N3  UNL     1      14.241  -8.629 -12.760  1.00  0.00    -0.365 N 
HETATM    2  C8  UNL     1      15.230  -8.490 -11.867  1.00  0.00     0.091 A 
HETATM    3  C9  UNL     1      14.946  -8.249 -10.539  1.00  0.00     0.030 A 
HETATM    4  C10 UNL     1      13.644  -8.143 -10.075  1.00  0.00    -0.011 A 
HETATM    5  C20 UNL     1      12.638  -8.289 -11.003  1.00  0.00     0.017 A 
HETATM    6  C27 UNL     1      12.975  -8.532 -12.341  1.00  0.00     0.105 A 
ENDROOT
BRANCH   1   7
HETATM    7  C7  UNL     1      14.485  -8.874 -14.170  1.00  0.00     0.128 C 
BRANCH   7   8
HETATM    8  C6  UNL     1      14.946  -7.668 -14.891  1.00  0.00     0.021 C 
BRANCH   8   9
HETATM    9  C5  UNL     1      16.286  -7.654 -15.482  1.00  0.00     0.014 C 
BRANCH   9  10
HETATM   10  C4  UNL     1      17.325  -8.594 -15.058  1.00  0.00     0.094 C 
BRANCH  10  11
HETATM   11  C3  UNL     1      18.221  -8.144 -14.006  1.00  0.00    -0.105 C 
HETATM   12  C2  UNL     1      19.004  -7.784 -13.135  1.00  0.00    -0.076 C 
BRANCH  12  13
HETATM   13  C1  UNL     1      19.935  -7.330 -12.100  1.00  0.00     0.358 C 
BRANCH  13  14
HETATM   14  N2  UNL     1      20.426  -8.437 -11.285  1.00  0.00     0.030 N 
BRANCH  14  15
HETATM   15  N1  UNL     1      21.636  -8.833 -11.849  1.00  0.00    -0.260 N 
ATOM     16  H12 UNL     1      21.788  -9.090 -12.825  1.00  0.00     0.183 HD
ATOM     17  H11 UNL     1      22.324  -8.813 -11.095  1.00  0.00     0.183 HD
ENDBRANCH  14  15
BRANCH  14  18
HETATM   18  C28 UNL     1      19.487  -9.523 -11.354  1.00  0.00     0.378 C 
BRANCH  18  19
HETATM   19  C29 UNL     1      20.012 -10.856 -11.557  1.00  0.00     0.202 C 
HETATM   20  O4  UNL     1      20.140 -11.607 -10.533  1.00  0.00    -0.647 OA
HETATM   21  O5  UNL     1      20.383 -11.377 -12.760  1.00  0.00    -0.647 OA
ENDBRANCH  18  19
ENDBRANCH  14  18
BRANCH  14  22
HETATM   22  C30 UNL     1      20.608  -7.971  -9.914  1.00  0.00     0.304 C 
BRANCH  22  23
HETATM   23  C31 UNL     1      19.305  -7.851  -9.190  1.00  0.00    -0.028 A 
HETATM   24  C32 UNL     1      18.840  -8.940  -8.507  1.00  0.00     0.009 A 
HETATM   25  C33 UNL     1      17.653  -8.857  -7.829  1.00  0.00     0.003 A 
HETATM   26  C34 UNL     1      16.904  -7.698  -7.814  1.00  0.00     0.036 A 
HETATM   27  C35 UNL     1      17.397  -6.606  -8.515  1.00  0.00     0.066 A 
HETATM   28  C36 UNL     1      18.581  -6.688  -9.192  1.00  0.00     0.045 A 
BRANCH  27  29
HETATM   29  O6  UNL     1      16.619  -5.437  -8.488  1.00  0.00    -0.361 OA
ATOM     30  H6  UNL     1      15.744  -5.498  -8.852  1.00  0.00     0.217 HD
ENDBRANCH  27  29
ENDBRANCH  22  23
ENDBRANCH  14  22
ENDBRANCH  13  14
ENDBRANCH  12  13
ENDBRANCH  10  11
ENDBRANCH   9  10
ENDBRANCH   8   9
ENDBRANCH   7   8
ENDBRANCH   1   7
BRANCH   5  31
HETATM   31  C21 UNL     1      11.267  -8.183 -10.545  1.00  0.00     0.047 A 
HETATM   32  C22 UNL     1      10.326  -9.152 -10.322  1.00  0.00     0.051 A 
HETATM   33  C23 UNL     1       9.144  -8.598  -9.889  1.00  0.00     0.078 A 
HETATM   34  C24 UNL     1       7.901  -9.066  -9.525  1.00  0.00     0.263 A 
HETATM   35  C26 UNL     1       9.377  -7.241  -9.847  1.00  0.00     0.125 A 
HETATM   36  O2  UNL     1       7.645 -10.302  -9.549  1.00  0.00    -0.267 OA
HETATM   37  N6  UNL     1       6.907  -8.244  -9.129  1.00  0.00    -0.275 N 
HETATM   38  C25 UNL     1       7.157  -6.917  -9.095  1.00  0.00     0.328 A 
ATOM     39  H6  UNL     1       5.993  -8.614  -8.864  1.00  0.00     0.173 HD
HETATM   40  O3  UNL     1       6.215  -6.168  -8.722  1.00  0.00    -0.247 OA
HETATM   41  N7  UNL     1       8.361  -6.451  -9.446  1.00  0.00    -0.293 N 
ATOM     42  H7  UNL     1       8.518  -5.443  -9.409  1.00  0.00     0.172 HD
HETATM   43  N8  UNL     1      10.653  -6.998 -10.241  1.00  0.00    -0.341 N 
ATOM     44  H8  UNL     1      11.086  -6.077 -10.301  1.00  0.00     0.167 HD
ENDBRANCH   5  31
BRANCH   4  45
HETATM   45  C11 UNL     1      13.386  -7.886  -8.674  1.00  0.00    -0.025 A 
HETATM   46  C12 UNL     1      13.343  -6.650  -8.108  1.00  0.00     0.014 A 
HETATM   47  C13 UNL     1      13.084  -6.500  -6.763  1.00  0.00     0.030 A 
HETATM   48  C14 UNL     1      12.855  -7.565  -5.910  1.00  0.00     0.038 A 
HETATM   49  C18 UNL     1      12.901  -8.822  -6.495  1.00  0.00     0.030 A 
HETATM   50  C19 UNL     1      13.158  -8.982  -7.837  1.00  0.00     0.014 A 
BRANCH  48  51
HETATM   51  N4  UNL     1      12.586  -7.385  -4.530  1.00  0.00    -0.298 N 
HETATM   52  C15 UNL     1      11.355  -7.732  -3.850  1.00  0.00     0.153 C 
HETATM   53  C16 UNL     1      11.295  -6.718  -2.701  1.00  0.00     0.144 C 
HETATM   54  N5  UNL     1      12.688  -6.624  -2.335  1.00  0.00    -0.341 N 
HETATM   55  C17 UNL     1      13.430  -6.840  -3.525  1.00  0.00     0.323 C 
ATOM     56  H5  UNL     1      13.063  -6.440  -1.405  1.00  0.00     0.164 HD
HETATM   57  O1  UNL     1      14.668  -6.600  -3.715  1.00  0.00    -0.247 OA
ENDBRANCH  48  51
ENDBRANCH   4  45
TORSDOF 16
ENDMDL
MODEL 2
REMARK VINA RESULT: -10.138240843      1.000      1.122
REMARK  16 active torsions:
REMARK  status: ('A' for Active; 'I' for Inactive)
REMARK    1  A    between atoms: N1_1  and  N2_4 
REMARK    2  A    between atoms: N2_4  and  C1_5 
REMARK    3  A    between atoms: N2_4  and  C28_45 
REMARK    4  A    between atoms: N2_4  and  C30_49 
REMARK    5  A    between atoms: C1_5  and  C2_6 
REMARK    6  A    between atoms: C3_7  and  C4_8 
REMARK    7  A    between atoms: C4_8  and  C5_9 
REMARK    8  A    between atoms: C5_9  and  C6_10 
REMARK    9  A    between atoms: C6_10  and  C7_11 
REMARK   10  A    between atoms: C7_11  and  N3_12 
REMARK   11  A    between atoms: C10_15  and  C11_16 
REMARK   12  A    between atoms: C14_19  and  N4_20 
REMARK   13  A    between atoms: C20_29  and  C21_30 
REMARK   14  A    between atoms: C28_45  and  C29_46 
REMARK   15  A    between atoms: C30_49  and  C31_50 
REMARK   16  A    between atoms: C35_54  and  O6_55 
ROOT
HETATM    1  N3  UNL     1      14.149  -8.529 -12.813  1.00  0.00    -0.365 N 
HETATM    2  C8  UNL     1      15.151  -8.398 -11.933  1.00  0.00     0.091 A 
HETATM    3  C9  UNL     1      14.886  -8.176 -10.598  1.00  0.00     0.030 A 
HETATM    4  C10 UNL     1      13.591  -8.082 -10.113  1.00  0.00    -0.011 A 
HETATM    5  C20 UNL     1      12.571  -8.221 -11.027  1.00  0.00     0.017 A 
HETATM    6  C27 UNL     1      12.889  -8.445 -12.374  1.00  0.00     0.105 A 
ENDROOT
BRANCH   1   7
HETATM    7  C7  UNL     1      14.373  -8.754 -14.229  1.00  0.00     0.128 C 
BRANCH   7   8
HETATM    8  C6  UNL     1      15.444  -7.898 -14.785  1.00  0.00     0.021 C 
BRANCH   8   9
HETATM    9  C5  UNL     1      16.562  -8.521 -15.497  1.00  0.00     0.014 C 
BRANCH   9  10
HETATM   10  C4  UNL     1      17.952  -8.162 -15.213  1.00  0.00     0.094 C 
BRANCH  10  11
HETATM   11  C3  UNL     1      18.433  -8.428 -13.869  1.00  0.00    -0.105 C 
HETATM   12  C2  UNL     1      18.804  -8.653 -12.723  1.00  0.00    -0.076 C 
BRANCH  12  13
HETATM   13  C1  UNL     1      19.258  -8.941 -11.361  1.00  0.00     0.358 C 
BRANCH  13  14
HETATM   14  N2  UNL     1      20.562  -8.347 -11.083  1.00  0.00     0.030 N 
BRANCH  14  15
HETATM   15  N1  UNL     1      20.631  -7.181 -11.843  1.00  0.00    -0.260 N 
ATOM     16  H12 UNL     1      19.853  -6.732 -12.326  1.00  0.00     0.183 HD
ATOM     17  H11 UNL     1      21.605  -6.879 -11.816  1.00  0.00     0.183 HD
ENDBRANCH  14  15
BRANCH  14  18
HETATM   18  C28 UNL     1      21.592  -9.255 -11.504  1.00  0.00     0.378 C 
BRANCH  18  19
HETATM   19  C29 UNL     1      22.491  -8.817 -12.550  1.00  0.00     0.202 C 
HETATM   20  O4  UNL     1      23.605  -8.300 -12.199  1.00  0.00    -0.647 OA
HETATM   21  O5  UNL     1      22.243  -8.912 -13.887  1.00  0.00    -0.647 OA
ENDBRANCH  18  19
ENDBRANCH  14  18
BRANCH  14  22
HETATM   22  C30 UNL     1      20.654  -8.054  -9.656  1.00  0.00     0.304 C 
BRANCH  22  23
HETATM   23  C31 UNL     1      19.303  -7.896  -9.033  1.00  0.00    -0.028 A 
HETATM   24  C32 UNL     1      18.767  -8.964  -8.369  1.00  0.00     0.009 A 
HETATM   25  C33 UNL     1      17.534  -8.846  -7.783  1.00  0.00     0.003 A 
HETATM   26  C34 UNL     1      16.810  -7.673  -7.843  1.00  0.00     0.036 A 
HETATM   27  C35 UNL     1      17.375  -6.604  -8.524  1.00  0.00     0.066 A 
HETATM   28  C36 UNL     1      18.605  -6.720  -9.109  1.00  0.00     0.045 A 
BRANCH  27  29
HETATM   29  O6  UNL     1      16.622  -5.419  -8.574  1.00  0.00    -0.361 OA
ATOM     30  H6  UNL     1      16.616  -4.954  -9.401  1.00  0.00     0.217 HD
ENDBRANCH  27  29
ENDBRANCH  22  23
ENDBRANCH  14  22
ENDBRANCH  13  14
ENDBRANCH  12  13
ENDBRANCH  10  11
ENDBRANCH   9  10
ENDBRANCH   8   9
ENDBRANCH   7   8
ENDBRANCH   1   7
BRANCH   5  31
HETATM   31  C21 UNL     1      11.207  -8.127 -10.547  1.00  0.00     0.047 A 
HETATM   32  C22 UNL     1      10.284  -9.106 -10.295  1.00  0.00     0.051 A 
HETATM   33  C23 UNL     1       9.102  -8.564  -9.850  1.00  0.00     0.078 A 
HETATM   34  C24 UNL     1       7.871  -9.044  -9.458  1.00  0.00     0.263 A 
HETATM   35  C26 UNL     1       9.316  -7.202  -9.829  1.00  0.00     0.125 A 
HETATM   36  O2  UNL     1       7.632 -10.283  -9.463  1.00  0.00    -0.267 OA
HETATM   37  N6  UNL     1       6.873  -8.230  -9.056  1.00  0.00    -0.275 N 
HETATM   38  C25 UNL     1       7.105  -6.899  -9.043  1.00  0.00     0.328 A 
ATOM     39  H6  UNL     1       5.969  -8.609  -8.771  1.00  0.00     0.173 HD
HETATM   40  O3  UNL     1       6.159  -6.158  -8.663  1.00  0.00    -0.247 OA
HETATM   41  N7  UNL     1       8.296  -6.421  -9.421  1.00  0.00    -0.293 N 
ATOM     42  H7  UNL     1       8.440  -5.411  -9.399  1.00  0.00     0.172 HD
HETATM   43  N8  UNL     1      10.582  -6.948 -10.248  1.00  0.00    -0.341 N 
ATOM     44  H8  UNL     1      11.001  -6.021 -10.327  1.00  0.00     0.167 HD
ENDBRANCH   5  31
BRANCH   4  45
HETATM   45  C11 UNL     1      13.353  -7.845  -8.704  1.00  0.00    -0.025 A 
HETATM   46  C12 UNL     1      13.317  -6.618  -8.121  1.00  0.00     0.014 A 
HETATM   47  C13 UNL     1      13.077  -6.487  -6.771  1.00  0.00     0.030 A 
HETATM   48  C14 UNL     1      12.862  -7.565  -5.929  1.00  0.00     0.038 A 
HETATM   49  C18 UNL     1      12.901  -8.814  -6.533  1.00  0.00     0.030 A 
HETATM   50  C19 UNL     1      13.139  -8.954  -7.880  1.00  0.00     0.014 A 
BRANCH  48  51
HETATM   51  N4  UNL     1      12.613  -7.404  -4.543  1.00  0.00    -0.298 N 
HETATM   52  C15 UNL     1      11.380  -7.732  -3.856  1.00  0.00     0.153 C 
HETATM   53  C16 UNL     1      11.360  -6.739  -2.686  1.00  0.00     0.144 C 
HETATM   54  N5  UNL     1      12.759  -6.690  -2.335  1.00  0.00    -0.341 N 
HETATM   55  C17 UNL     1      13.482  -6.902  -3.537  1.00  0.00     0.323 C 
ATOM     56  H5  UNL     1      13.149  -6.533  -1.406  1.00  0.00     0.164 HD
HETATM   57  O1  UNL     1      14.724  -6.691  -3.737  1.00  0.00    -0.247 OA
ENDBRANCH  48  51
ENDBRANCH   4  45
TORSDOF 16
ENDMDL
MODEL 3
REMARK VINA RESULT: -9.992256717      2.290     10.726
REMARK  16 active torsions:
REMARK  status: ('A' for Active; 'I' for Inactive)
REMARK    1  A    between atoms: N1_1  and  N2_4 
REMARK    2  A    between atoms: N2_4  and  C1_5 
REMARK    3  A    between atoms: N2_4  and  C28_45 
REMARK    4  A    between atoms: N2_4  and  C30_49 
REMARK    5  A    between atoms: C1_5  and  C2_6 
REMARK    6  A    between atoms: C3_7  and  C4_8 
REMARK    7  A    between atoms: C4_8  and  C5_9 
REMARK    8  A    between atoms: C5_9  and  C6_10 
REMARK    9  A    between atoms: C6_10  and  C7_11 
REMARK   10  A    between atoms: C7_11  and  N3_12 
REMARK   11  A    between atoms: C10_15  and  C11_16 
REMARK   12  A    between atoms: C14_19  and  N4_20 
REMARK   13  A    between atoms: C20_29  and  C21_30 
REMARK   14  A    between atoms: C28_45  and  C29_46 
REMARK   15  A    between atoms: C30_49  and  C31_50 
REMARK   16  A    between atoms: C35_54  and  O6_55 
ROOT
HETATM    1  N3  UNL     1      13.823  -7.039  -5.640  1.00  0.00    -0.365 N 
HETATM    2  C8  UNL     1      12.759  -7.128  -6.449  1.00  0.00     0.091 A 
HETATM    3  C9  UNL     1      12.924  -7.279  -7.810  1.00  0.00     0.030 A 
HETATM    4  C10 UNL     1      14.179  -7.346  -8.393  1.00  0.00    -0.011 A 
HETATM    5  C20 UNL     1      15.264  -7.255  -7.551  1.00  0.00     0.017 A 
HETATM    6  C27 UNL     1      15.047  -7.102  -6.175  1.00  0.00     0.105 A 
ENDROOT
BRANCH   1   7
HETATM    7  C7  UNL     1      13.705  -6.870  -4.203  1.00  0.00     0.128 C 
BRANCH   7   8
HETATM    8  C6  UNL     1      13.168  -8.069  -3.525  1.00  0.00     0.021 C 
BRANCH   8   9
HETATM    9  C5  UNL     1      11.990  -7.939  -2.664  1.00  0.00     0.014 C 
BRANCH   9  10
HETATM   10  C4  UNL     1      10.974  -6.911  -2.898  1.00  0.00     0.094 C 
BRANCH  10  11
HETATM   11  C3  UNL     1       9.852  -7.283  -3.742  1.00  0.00    -0.105 C 
HETATM   12  C2  UNL     1       8.929  -7.616  -4.476  1.00  0.00    -0.076 C 
BRANCH  12  13
HETATM   13  C1  UNL     1       7.815  -8.024  -5.334  1.00  0.00     0.358 C 
BRANCH  13  14
HETATM   14  N2  UNL     1       8.131  -7.864  -6.750  1.00  0.00     0.030 N 
BRANCH  14  15
HETATM   15  N1  UNL     1       9.008  -6.785  -6.837  1.00  0.00    -0.260 N 
ATOM     16  H12 UNL     1       9.017  -5.968  -6.226  1.00  0.00     0.183 HD
ATOM     17  H11 UNL     1       9.627  -6.982  -7.624  1.00  0.00     0.183 HD
ENDBRANCH  14  15
BRANCH  14  18
HETATM   18  C28 UNL     1       6.924  -7.558  -7.468  1.00  0.00     0.378 C 
BRANCH  18  19
HETATM   19  C29 UNL     1       6.062  -6.528  -6.930  1.00  0.00     0.202 C 
HETATM   20  O4  UNL     1       4.866  -6.854  -6.623  1.00  0.00    -0.647 OA
HETATM   21  O5  UNL     1       6.425  -5.231  -6.723  1.00  0.00    -0.647 OA
ENDBRANCH  18  19
ENDBRANCH  14  18
BRANCH  14  22
HETATM   22  C30 UNL     1       8.751  -9.091  -7.239  1.00  0.00     0.304 C 
BRANCH  22  23
HETATM   23  C31 UNL     1       9.068  -9.009  -8.699  1.00  0.00    -0.028 A 
HETATM   24  C32 UNL     1      10.347  -8.698  -9.067  1.00  0.00     0.009 A 
HETATM   25  C33 UNL     1      10.668  -8.622 -10.398  1.00  0.00     0.003 A 
HETATM   26  C34 UNL     1       9.733  -8.852 -11.385  1.00  0.00     0.036 A 
HETATM   27  C35 UNL     1       8.441  -9.166 -10.985  1.00  0.00     0.066 A 
HETATM   28  C36 UNL     1       8.120  -9.242  -9.659  1.00  0.00     0.045 A 
BRANCH  27  29
HETATM   29  O6  UNL     1       7.504  -9.396 -12.006  1.00  0.00    -0.361 OA
ATOM     30  H6  UNL     1       6.588  -9.321 -11.768  1.00  0.00     0.217 HD
ENDBRANCH  27  29
ENDBRANCH  22  23
ENDBRANCH  14  22
ENDBRANCH  13  14
ENDBRANCH  12  13
ENDBRANCH  10  11
ENDBRANCH   9  10
ENDBRANCH   8   9
ENDBRANCH   7   8
ENDBRANCH   1   7
BRANCH   5  31
HETATM   31  C21 UNL     1      16.589  -7.323  -8.134  1.00  0.00     0.047 A 
HETATM   32  C22 UNL     1      17.392  -8.401  -8.395  1.00  0.00     0.051 A 
HETATM   33  C23 UNL     1      18.581  -8.002  -8.957  1.00  0.00     0.078 A 
HETATM   34  C24 UNL     1      19.726  -8.622  -9.409  1.00  0.00     0.263 A 
HETATM   35  C26 UNL     1      18.497  -6.629  -9.042  1.00  0.00     0.125 A 
HETATM   36  O2  UNL     1      19.845  -9.877  -9.349  1.00  0.00    -0.267 OA
HETATM   37  N6  UNL     1      20.763  -7.933  -9.930  1.00  0.00    -0.275 N 
HETATM   38  C25 UNL     1      20.658  -6.588 -10.004  1.00  0.00     0.328 A 
ATOM     39  H6  UNL     1      21.601  -8.414 -10.258  1.00  0.00     0.173 HD
HETATM   40  O3  UNL     1      21.638  -5.966 -10.495  1.00  0.00    -0.247 OA
HETATM   41  N7  UNL     1      19.552  -5.975  -9.569  1.00  0.00    -0.293 N 
ATOM     42  H7  UNL     1      19.504  -4.959  -9.639  1.00  0.00     0.172 HD
HETATM   43  N8  UNL     1      17.299  -6.228  -8.547  1.00  0.00    -0.341 N 
ATOM     44  H8  UNL     1      16.977  -5.261  -8.492  1.00  0.00     0.167 HD
ENDBRANCH   5  31
BRANCH   4  45
HETATM   45  C11 UNL     1      14.312  -7.501  -9.827  1.00  0.00    -0.025 A 
HETATM   46  C12 UNL     1      14.281  -6.480 -10.723  1.00  0.00     0.014 A 
HETATM   47  C13 UNL     1      14.423  -6.721 -12.072  1.00  0.00     0.030 A 
HETATM   48  C14 UNL     1      14.600  -7.987 -12.602  1.00  0.00     0.038 A 
HETATM   49  C18 UNL     1      14.631  -9.024 -11.681  1.00  0.00     0.030 A 
HETATM   50  C19 UNL     1      14.491  -8.792 -10.332  1.00  0.00     0.014 A 
BRANCH  48  51
HETATM   51  N4  UNL     1      14.747  -8.210 -13.995  1.00  0.00    -0.298 N 
HETATM   52  C15 UNL     1      13.763  -8.817 -14.868  1.00  0.00     0.153 C 
HETATM   53  C16 UNL     1      14.623  -9.476 -15.954  1.00  0.00     0.144 C 
HETATM   54  N5  UNL     1      15.680  -8.506 -16.104  1.00  0.00    -0.341 N 
HETATM   55  C17 UNL     1      15.854  -7.902 -14.831  1.00  0.00     0.323 C 
ATOM     56  H5  UNL     1      16.199  -8.296 -16.956  1.00  0.00     0.164 HD
HETATM   57  O1  UNL     1      16.833  -7.183 -14.447  1.00  0.00    -0.247 OA
ENDBRANCH  48  51
ENDBRANCH   4  45
TORSDOF 16
ENDMDL
MODEL 4
REMARK VINA RESULT: -9.675041979      2.357     10.797
REMARK  16 active torsions:
REMARK  status: ('A' for Active; 'I' for Inactive)
REMARK    1  A    between atoms: N1_1  and  N2_4 
REMARK    2  A    between atoms: N2_4  and  C1_5 
REMARK    3  A    between atoms: N2_4  and  C28_45 
REMARK    4  A    between atoms: N2_4  and  C30_49 
REMARK    5  A    between atoms: C1_5  and  C2_6 
REMARK    6  A    between atoms: C3_7  and  C4_8 
REMARK    7  A    between atoms: C4_8  and  C5_9 
REMARK    8  A    between atoms: C5_9  and  C6_10 
REMARK    9  A    between atoms: C6_10  and  C7_11 
REMARK   10  A    between atoms: C7_11  and  N3_12 
REMARK   11  A    between atoms: C10_15  and  C11_16 
REMARK   12  A    between atoms: C14_19  and  N4_20 
REMARK   13  A    between atoms: C20_29  and  C21_30 
REMARK   14  A    between atoms: C28_45  and  C29_46 
REMARK   15  A    between atoms: C30_49  and  C31_50 
REMARK   16  A    between atoms: C35_54  and  O6_55 
ROOT
HETATM    1  N3  UNL     1      13.791  -7.110  -5.747  1.00  0.00    -0.365 N 
HETATM    2  C8  UNL     1      12.746  -7.298  -6.564  1.00  0.00     0.091 A 
HETATM    3  C9  UNL     1      12.944  -7.531  -7.909  1.00  0.00     0.030 A 
HETATM    4  C10 UNL     1      14.211  -7.580  -8.467  1.00  0.00    -0.011 A 
HETATM    5  C20 UNL     1      15.275  -7.386  -7.616  1.00  0.00     0.017 A 
HETATM    6  C27 UNL     1      15.026  -7.153  -6.256  1.00  0.00     0.105 A 
ENDROOT
BRANCH   1   7
HETATM    7  C7  UNL     1      13.639  -6.852  -4.326  1.00  0.00     0.128 C 
BRANCH   7   8
HETATM    8  C6  UNL     1      12.594  -7.689  -3.698  1.00  0.00     0.021 C 
BRANCH   8   9
HETATM    9  C5  UNL     1      11.638  -7.072  -2.776  1.00  0.00     0.014 C 
BRANCH   9  10
HETATM   10  C4  UNL     1      10.196  -7.105  -3.024  1.00  0.00     0.094 C 
BRANCH  10  11
HETATM   11  C3  UNL     1       9.774  -7.157  -4.412  1.00  0.00    -0.105 C 
HETATM   12  C2  UNL     1       9.397  -7.170  -5.578  1.00  0.00    -0.076 C 
BRANCH  12  13
HETATM   13  C1  UNL     1       8.970  -7.184  -6.979  1.00  0.00     0.358 C 
BRANCH  13  14
HETATM   14  N2  UNL     1       7.534  -6.960  -7.114  1.00  0.00     0.030 N 
BRANCH  14  15
HETATM   15  N1  UNL     1       7.242  -5.826  -6.360  1.00  0.00    -0.260 N 
ATOM     16  H12 UNL     1       7.680  -4.909  -6.458  1.00  0.00     0.183 HD
ATOM     17  H11 UNL     1       6.511  -6.099  -5.702  1.00  0.00     0.183 HD
ENDBRANCH  14  15
BRANCH  14  18
HETATM   18  C28 UNL     1       6.830  -8.090  -6.572  1.00  0.00     0.378 C 
BRANCH  18  19
HETATM   19  C29 UNL     1       5.679  -7.828  -5.735  1.00  0.00     0.202 C 
HETATM   20  O4  UNL     1       4.576  -7.543  -6.313  1.00  0.00    -0.647 OA
HETATM   21  O5  UNL     1       5.677  -7.861  -4.373  1.00  0.00    -0.647 OA
ENDBRANCH  18  19
ENDBRANCH  14  18
BRANCH  14  22
HETATM   22  C30 UNL     1       7.217  -6.755  -8.524  1.00  0.00     0.304 C 
BRANCH  22  23
HETATM   23  C31 UNL     1       8.206  -7.431  -9.419  1.00  0.00    -0.028 A 
HETATM   24  C32 UNL     1       7.940  -8.707  -9.831  1.00  0.00     0.009 A 
HETATM   25  C33 UNL     1       8.824  -9.350 -10.657  1.00  0.00     0.003 A 
HETATM   26  C34 UNL     1       9.986  -8.744 -11.090  1.00  0.00     0.036 A 
HETATM   27  C35 UNL     1      10.233  -7.448 -10.658  1.00  0.00     0.066 A 
HETATM   28  C36 UNL     1       9.352  -6.807  -9.834  1.00  0.00     0.045 A 
BRANCH  27  29
HETATM   29  O6  UNL     1      11.421  -6.849 -11.109  1.00  0.00    -0.361 OA
ATOM     30  H6  UNL     1      11.367  -5.936 -11.365  1.00  0.00     0.217 HD
ENDBRANCH  27  29
ENDBRANCH  22  23
ENDBRANCH  14  22
ENDBRANCH  13  14
ENDBRANCH  12  13
ENDBRANCH  10  11
ENDBRANCH   9  10
ENDBRANCH   8   9
ENDBRANCH   7   8
ENDBRANCH   1   7
BRANCH   5  31
HETATM   31  C21 UNL     1      16.613  -7.433  -8.172  1.00  0.00     0.047 A 
HETATM   32  C22 UNL     1      17.413  -8.501  -8.474  1.00  0.00     0.051 A 
HETATM   33  C23 UNL     1      18.618  -8.082  -8.987  1.00  0.00     0.078 A 
HETATM   34  C24 UNL     1      19.768  -8.686  -9.447  1.00  0.00     0.263 A 
HETATM   35  C26 UNL     1      18.546  -6.706  -8.998  1.00  0.00     0.125 A 
HETATM   36  O2  UNL     1      19.877  -9.944  -9.454  1.00  0.00    -0.267 OA
HETATM   37  N6  UNL     1      20.821  -7.979  -9.906  1.00  0.00    -0.275 N 
HETATM   38  C25 UNL     1      20.728  -6.631  -9.908  1.00  0.00     0.328 A 
ATOM     39  H6  UNL     1      21.663  -8.448 -10.242  1.00  0.00     0.173 HD
HETATM   40  O3  UNL     1      21.723  -5.990 -10.342  1.00  0.00    -0.247 OA
HETATM   41  N7  UNL     1      19.617  -6.033  -9.464  1.00  0.00    -0.293 N 
ATOM     42  H7  UNL     1      19.577  -5.014  -9.479  1.00  0.00     0.172 HD
HETATM   43  N8  UNL     1      17.339  -6.323  -8.508  1.00  0.00    -0.341 N 
ATOM     44  H8  UNL     1      17.023  -5.358  -8.407  1.00  0.00     0.167 HD
ENDBRANCH   5  31
BRANCH   4  45
HETATM   45  C11 UNL     1      14.377  -7.823  -9.885  1.00  0.00    -0.025 A 
HETATM   46  C12 UNL     1      14.128  -9.008 -10.502  1.00  0.00     0.014 A 
HETATM   47  C13 UNL     1      14.308  -9.146 -11.861  1.00  0.00     0.030 A 
HETATM   48  C14 UNL     1      14.745  -8.118 -12.678  1.00  0.00     0.038 A 
HETATM   49  C18 UNL     1      14.998  -6.912 -12.040  1.00  0.00     0.030 A 
HETATM   50  C19 UNL     1      14.820  -6.765 -10.684  1.00  0.00     0.014 A 
BRANCH  48  51
HETATM   51  N4  UNL     1      14.920  -8.284 -14.075  1.00  0.00    -0.298 N 
HETATM   52  C15 UNL     1      13.951  -8.850 -14.992  1.00  0.00     0.153 C 
HETATM   53  C16 UNL     1      14.831  -9.468 -16.087  1.00  0.00     0.144 C 
HETATM   54  N5  UNL     1      15.895  -8.497 -16.175  1.00  0.00    -0.341 N 
HETATM   55  C17 UNL     1      16.045  -7.947 -14.875  1.00  0.00     0.323 C 
ATOM     56  H5  UNL     1      16.432  -8.254 -17.007  1.00  0.00     0.164 HD
HETATM   57  O1  UNL     1      17.019  -7.249 -14.441  1.00  0.00    -0.247 OA
ENDBRANCH  48  51
ENDBRANCH   4  45
TORSDOF 16
ENDMDL
MODEL 5
REMARK VINA RESULT: -9.404679360      1.816      2.494
REMARK  16 active torsions:
REMARK  status: ('A' for Active; 'I' for Inactive)
REMARK    1  A    between atoms: N1_1  and  N2_4 
REMARK    2  A    between atoms: N2_4  and  C1_5 
REMARK    3  A    between atoms: N2_4  and  C28_45 
REMARK    4  A    between atoms: N2_4  and  C30_49 
REMARK    5  A    between atoms: C1_5  and  C2_6 
REMARK    6  A    between atoms: C3_7  and  C4_8 
REMARK    7  A    between atoms: C4_8  and  C5_9 
REMARK    8  A    between atoms: C5_9  and  C6_10 
REMARK    9  A    between atoms: C6_10  and  C7_11 
REMARK   10  A    between atoms: C7_11  and  N3_12 
REMARK   11  A    between atoms: C10_15  and  C11_16 
REMARK   12  A    between atoms: C14_19  and  N4_20 
REMARK   13  A    between atoms: C20_29  and  C21_30 
REMARK   14  A    between atoms: C28_45  and  C29_46 
REMARK   15  A    between atoms: C30_49  and  C31_50 
REMARK   16  A    between atoms: C35_54  and  O6_55 
ROOT
HETATM    1  N3  UNL     1      15.626  -7.714 -12.547  1.00  0.00    -0.365 N 
HETATM    2  C8  UNL     1      16.422  -7.710 -11.470  1.00  0.00     0.091 A 
HETATM    3  C9  UNL     1      15.882  -7.739 -10.201  1.00  0.00     0.030 A 
HETATM    4  C10 UNL     1      14.514  -7.775  -9.986  1.00  0.00    -0.011 A 
HETATM    5  C20 UNL     1      13.708  -7.781 -11.102  1.00  0.00     0.017 A 
HETATM    6  C27 UNL     1      14.301  -7.750 -12.371  1.00  0.00     0.105 A 
ENDROOT
BRANCH   1   7
HETATM    7  C7  UNL     1      16.142  -7.674 -13.904  1.00  0.00     0.128 C 
BRANCH   7   8
HETATM    8  C6  UNL     1      15.265  -8.366 -14.873  1.00  0.00     0.021 C 
BRANCH   8   9
HETATM    9  C5  UNL     1      15.690  -9.651 -15.433  1.00  0.00     0.014 C 
BRANCH   9  10
HETATM   10  C4  UNL     1      16.850  -9.760 -16.319  1.00  0.00     0.094 C 
BRANCH  10  11
HETATM   11  C3  UNL     1      18.095 -10.198 -15.712  1.00  0.00    -0.105 C 
HETATM   12  C2  UNL     1      19.152 -10.532 -15.191  1.00  0.00    -0.076 C 
BRANCH  12  13
HETATM   13  C1  UNL     1      20.404 -10.946 -14.553  1.00  0.00     0.358 C 
BRANCH  13  14
HETATM   14  N2  UNL     1      20.876  -9.959 -13.587  1.00  0.00     0.030 N 
BRANCH  14  15
HETATM   15  N1  UNL     1      21.078  -8.779 -14.300  1.00  0.00    -0.260 N 
ATOM     16  H12 UNL     1      20.732  -8.577 -15.239  1.00  0.00     0.183 HD
ATOM     17  H11 UNL     1      21.634  -8.171 -13.697  1.00  0.00     0.183 HD
ENDBRANCH  14  15
BRANCH  14  18
HETATM   18  C28 UNL     1      22.126 -10.404 -13.034  1.00  0.00     0.378 C 
BRANCH  18  19
HETATM   19  C29 UNL     1      23.277  -9.541 -13.191  1.00  0.00     0.202 C 
HETATM   20  O4  UNL     1      24.096  -9.807 -14.134  1.00  0.00    -0.647 OA
HETATM   21  O5  UNL     1      23.560  -8.463 -12.407  1.00  0.00    -0.647 OA
ENDBRANCH  18  19
ENDBRANCH  14  18
BRANCH  14  22
HETATM   22  C30 UNL     1      19.862  -9.785 -12.552  1.00  0.00     0.304 C 
BRANCH  22  23
HETATM   23  C31 UNL     1      20.069  -8.521 -11.780  1.00  0.00    -0.028 A 
HETATM   24  C32 UNL     1      20.496  -8.615 -10.485  1.00  0.00     0.009 A 
HETATM   25  C33 UNL     1      20.700  -7.474  -9.755  1.00  0.00     0.003 A 
HETATM   26  C34 UNL     1      20.485  -6.220 -10.290  1.00  0.00     0.036 A 
HETATM   27  C35 UNL     1      20.051  -6.151 -11.607  1.00  0.00     0.066 A 
HETATM   28  C36 UNL     1      19.847  -7.289 -12.336  1.00  0.00     0.045 A 
BRANCH  27  29
HETATM   29  O6  UNL     1      19.837  -4.867 -12.133  1.00  0.00    -0.361 OA
ATOM     30  H6  UNL     1      18.940  -4.556 -12.147  1.00  0.00     0.217 HD
ENDBRANCH  27  29
ENDBRANCH  22  23
ENDBRANCH  14  22
ENDBRANCH  13  14
ENDBRANCH  12  13
ENDBRANCH  10  11
ENDBRANCH   9  10
ENDBRANCH   8   9
ENDBRANCH   7   8
ENDBRANCH   1   7
BRANCH   5  31
HETATM   31  C21 UNL     1      12.272  -7.819 -10.907  1.00  0.00     0.047 A 
HETATM   32  C22 UNL     1      11.349  -8.759 -11.279  1.00  0.00     0.051 A 
HETATM   33  C23 UNL     1      10.084  -8.386 -10.889  1.00  0.00     0.078 A 
HETATM   34  C24 UNL     1       8.816  -8.914 -10.987  1.00  0.00     0.263 A 
HETATM   35  C26 UNL     1      10.246  -7.173 -10.254  1.00  0.00     0.125 A 
HETATM   36  O2  UNL     1       8.622 -10.022 -11.561  1.00  0.00    -0.267 OA
HETATM   37  N6  UNL     1       7.731  -8.288 -10.485  1.00  0.00    -0.275 N 
HETATM   38  C25 UNL     1       7.913  -7.101  -9.867  1.00  0.00     0.328 A 
ATOM     39  H6  UNL     1       6.801  -8.699 -10.571  1.00  0.00     0.173 HD
HETATM   40  O3  UNL     1       6.887  -6.534  -9.405  1.00  0.00    -0.247 OA
HETATM   41  N7  UNL     1       9.141  -6.578  -9.765  1.00  0.00    -0.293 N 
ATOM     42  H7  UNL     1       9.245  -5.680  -9.292  1.00  0.00     0.172 HD
HETATM   43  N8  UNL     1      11.562  -6.839 -10.268  1.00  0.00    -0.341 N 
ATOM     44  H8  UNL     1      11.959  -5.991  -9.865  1.00  0.00     0.167 HD
ENDBRANCH   5  31
BRANCH   4  45
HETATM   45  C11 UNL     1      13.985  -7.802  -8.638  1.00  0.00    -0.025 A 
HETATM   46  C12 UNL     1      13.496  -8.909  -8.020  1.00  0.00     0.014 A 
HETATM   47  C13 UNL     1      13.019  -8.842  -6.729  1.00  0.00     0.030 A 
HETATM   48  C14 UNL     1      13.000  -7.675  -5.986  1.00  0.00     0.038 A 
HETATM   49  C18 UNL     1      13.501  -6.550  -6.625  1.00  0.00     0.030 A 
HETATM   50  C19 UNL     1      13.981  -6.608  -7.913  1.00  0.00     0.014 A 
BRANCH  48  51
HETATM   51  N4  UNL     1      12.506  -7.631  -4.658  1.00  0.00    -0.298 N 
HETATM   52  C15 UNL     1      11.220  -8.127  -4.211  1.00  0.00     0.153 C 
HETATM   53  C16 UNL     1      10.894  -7.220  -3.018  1.00  0.00     0.144 C 
HETATM   54  N5  UNL     1      12.200  -7.052  -2.427  1.00  0.00    -0.341 N 
HETATM   55  C17 UNL     1      13.134  -7.110  -3.494  1.00  0.00     0.323 C 
ATOM     56  H5  UNL     1      12.409  -6.918  -1.438  1.00  0.00     0.164 HD
HETATM   57  O1  UNL     1      14.359  -6.762  -3.465  1.00  0.00    -0.247 OA
ENDBRANCH  48  51
ENDBRANCH   4  45
TORSDOF 16
ENDMDL
