MODEL 1
REMARK VINA RESULT: -10.574158742      0.000      0.000
REMARK  16 active torsions:
REMARK  status: ('A' for Active; 'I' for Inactive)
REMARK    1  A    between atoms: C1_4  and  C2_6 
REMARK    2  A    between atoms: C6_10  and  C7_11 
REMARK    3  A    between atoms: C7_11  and  C8_12 
REMARK    4  A    between atoms: C11_15  and  N3_16 
REMARK    5  A    between atoms: C15_23  and  C16_24 
REMARK    6  A    between atoms: C16_24  and  C17_25 
REMARK    7  A    between atoms: C17_25  and  C18_26 
REMARK    8  A    between atoms: C18_26  and  C19_27 
REMARK    9  A    between atoms: C19_27  and  C20_28 
REMARK   10  A    between atoms: C20_28  and  C21_29 
REMARK   11  A    between atoms: C21_29  and  N6_30 
REMARK   12  A    between atoms: N9_35  and  C23_36 
REMARK   13  A    between atoms: C23_36  and  C24_37 
REMARK   14  A    between atoms: C27_40  and  C28_41 
REMARK   15  A    between atoms: C33_46  and  S1_47 
REMARK   16  A    between atoms: S1_47  and  N10_48 
ROOT
HETATM    1  C2  UNL     1      15.699  -7.914 -12.924  1.00  0.00     0.007 A 
HETATM    2  C3  UNL     1      14.506  -8.536 -13.125  1.00  0.00     0.016 A 
HETATM    3  C4  UNL     1      13.634  -8.738 -12.068  1.00  0.00     0.015 A 
HETATM    4  C5  UNL     1      13.956  -8.316 -10.798  1.00  0.00     0.004 A 
HETATM    5  C6  UNL     1      13.312  -8.388  -9.555  1.00  0.00     0.004 A 
HETATM    6  C15 UNL     1      14.157  -7.790  -8.623  1.00  0.00     0.050 A 
HETATM    7  N9  UNL     1      15.293  -7.356  -9.269  1.00  0.00    -0.320 N 
HETATM    8  C36 UNL     1      15.156  -7.682 -10.558  1.00  0.00     0.051 A 
HETATM    9  C37 UNL     1      16.006  -7.498 -11.647  1.00  0.00     0.045 A 
ENDROOT
BRANCH   7  10
HETATM   10  C23 UNL     1      16.428  -6.641  -8.721  1.00  0.00     0.109 C 
BRANCH  10  11
HETATM   11  C24 UNL     1      17.742  -7.188  -8.996  1.00  0.00    -0.020 A 
HETATM   12  C25 UNL     1      18.636  -6.512  -9.791  1.00  0.00     0.013 A 
HETATM   13  C26 UNL     1      19.896  -6.963 -10.103  1.00  0.00     0.013 A 
HETATM   14  C27 UNL     1      20.341  -8.168  -9.613  1.00  0.00    -0.024 A 
HETATM   15  C34 UNL     1      19.469  -8.880  -8.809  1.00  0.00     0.013 A 
HETATM   16  C35 UNL     1      18.191  -8.391  -8.509  1.00  0.00     0.013 A 
BRANCH  14  17
HETATM   17  C28 UNL     1      21.677  -8.662  -9.913  1.00  0.00    -0.003 A 
HETATM   18  C29 UNL     1      22.742  -8.020  -9.308  1.00  0.00     0.014 A 
HETATM   19  C30 UNL     1      24.044  -8.424  -9.501  1.00  0.00     0.001 A 
HETATM   20  C31 UNL     1      24.329  -9.498 -10.315  1.00  0.00     0.002 A 
HETATM   21  C32 UNL     1      23.279 -10.151 -10.928  1.00  0.00     0.026 A 
HETATM   22  C33 UNL     1      21.959  -9.735 -10.729  1.00  0.00     0.090 A 
BRANCH  22  23
HETATM   23  S1  UNL     1      20.697 -10.589 -11.569  1.00  0.00     0.257 S 
HETATM   24  O1  UNL     1      19.828  -9.620 -12.334  1.00  0.00    -0.201 OA
HETATM   25  O2  UNL     1      19.880 -11.451 -10.660  1.00  0.00    -0.201 OA
BRANCH  23  26
HETATM   26  N10 UNL     1      21.459 -11.595 -12.782  1.00  0.00    -0.324 N 
ATOM     27 2H10 UNL     1      22.411 -11.959 -12.735  1.00  0.00     0.169 HD
ATOM     28 1H10 UNL     1      20.781 -11.744 -13.529  1.00  0.00     0.169 HD
ENDBRANCH  23  26
ENDBRANCH  22  23
ENDBRANCH  14  17
ENDBRANCH  10  11
ENDBRANCH   7  10
BRANCH   6  29
HETATM   29  C16 UNL     1      13.999  -7.619  -7.357  1.00  0.00     0.030 C 
BRANCH  29  30
HETATM   30  C17 UNL     1      13.350  -6.728  -6.469  1.00  0.00    -0.002 C 
BRANCH  30  31
HETATM   31  C18 UNL     1      12.192  -7.178  -5.880  1.00  0.00    -0.026 C 
BRANCH  31  32
HETATM   32  C19 UNL     1      11.954  -8.621  -5.686  1.00  0.00     0.029 C 
BRANCH  32  33
HETATM   33  C20 UNL     1      12.653  -9.130  -4.433  1.00  0.00     0.023 C 
BRANCH  33  34
HETATM   34  C21 UNL     1      12.039  -8.477  -3.209  1.00  0.00     0.122 C 
BRANCH  34  35
HETATM   35  N6  UNL     1      10.656  -8.823  -3.068  1.00  0.00    -0.367 N 
HETATM   36  C22 UNL     1       9.766  -7.935  -2.790  1.00  0.00     0.196 C 
HETATM   37  N7  UNL     1       8.390  -8.351  -2.662  1.00  0.00    -0.067 NA
HETATM   38  N8  UNL     1      10.078  -6.563  -2.602  1.00  0.00    -0.067 NA
ATOM     39  H6  UNL     1      10.370  -9.794  -3.190  1.00  0.00     0.161 HD
ENDBRANCH  34  35
ENDBRANCH  33  34
ENDBRANCH  32  33
ENDBRANCH  31  32
ENDBRANCH  30  31
ENDBRANCH  29  30
ENDBRANCH   6  29
BRANCH   5  40
HETATM   40  C7  UNL     1      12.149  -8.934  -9.301  1.00  0.00     0.026 C 
BRANCH  40  41
HETATM   41  C8  UNL     1      10.835  -8.305  -9.300  1.00  0.00    -0.035 A 
HETATM   42  C9  UNL     1      10.691  -6.957  -9.569  1.00  0.00     0.013 A 
HETATM   43  C10 UNL     1       9.434  -6.399  -9.499  1.00  0.00     0.030 A 
HETATM   44  C11 UNL     1       8.346  -7.200  -9.161  1.00  0.00     0.034 A 
HETATM   45  C13 UNL     1       8.490  -8.546  -8.892  1.00  0.00     0.030 A 
HETATM   46  C14 UNL     1       9.734  -9.105  -8.959  1.00  0.00     0.013 A 
BRANCH  44  47
HETATM   47  N3  UNL     1       7.018  -6.706  -9.078  1.00  0.00    -0.333 N 
HETATM   48  C12 UNL     1       6.450  -6.265  -8.017  1.00  0.00     0.201 C 
HETATM   49  N4  UNL     1       5.102  -5.787  -8.045  1.00  0.00    -0.066 NA
HETATM   50  N5  UNL     1       7.192  -6.259  -6.807  1.00  0.00    -0.066 NA
ATOM     51  H3  UNL     1       6.468  -6.701  -9.938  1.00  0.00     0.168 HD
ENDBRANCH  44  47
ENDBRANCH  40  41
ENDBRANCH   5  40
BRANCH   1  52
HETATM   52  C1  UNL     1      16.635  -7.685 -14.016  1.00  0.00     0.120 C 
HETATM   53  N1  UNL     1      17.896  -7.770 -13.785  1.00  0.00    -0.387 N 
ATOM     54  H12 UNL     1      18.550  -7.610 -14.550  1.00  0.00     0.157 HD
ATOM     55  H11 UNL     1      18.254  -7.995 -12.857  1.00  0.00     0.157 HD
HETATM   56  N2  UNL     1      16.138  -7.373 -15.304  1.00  0.00    -0.082 NA
ENDBRANCH   1  52
TORSDOF 16
ENDMDL
MODEL 2
REMARK VINA RESULT: -10.438809205      0.841      1.231
REMARK  16 active torsions:
REMARK  status: ('A' for Active; 'I' for Inactive)
REMARK    1  A    between atoms: C1_4  and  C2_6 
REMARK    2  A    between atoms: C6_10  and  C7_11 
REMARK    3  A    between atoms: C7_11  and  C8_12 
REMARK    4  A    between atoms: C11_15  and  N3_16 
REMARK    5  A    between atoms: C15_23  and  C16_24 
REMARK    6  A    between atoms: C16_24  and  C17_25 
REMARK    7  A    between atoms: C17_25  and  C18_26 
REMARK    8  A    between atoms: C18_26  and  C19_27 
REMARK    9  A    between atoms: C19_27  and  C20_28 
REMARK   10  A    between atoms: C20_28  and  C21_29 
REMARK   11  A    between atoms: C21_29  and  N6_30 
REMARK   12  A    between atoms: N9_35  and  C23_36 
REMARK   13  A    between atoms: C23_36  and  C24_37 
REMARK   14  A    between atoms: C27_40  and  C28_41 
REMARK   15  A    between atoms: C33_46  and  S1_47 
REMARK   16  A    between atoms: S1_47  and  N10_48 
ROOT
HETATM    1  C2  UNL     1      15.795  -7.978 -12.811  1.00  0.00     0.007 A 
HETATM    2  C3  UNL     1      14.587  -8.599 -12.889  1.00  0.00     0.016 A 
HETATM    3  C4  UNL     1      13.815  -8.775 -11.752  1.00  0.00     0.015 A 
HETATM    4  C5  UNL     1      14.253  -8.329 -10.526  1.00  0.00     0.004 A 
HETATM    5  C6  UNL     1      13.725  -8.372  -9.229  1.00  0.00     0.004 A 
HETATM    6  C15 UNL     1      14.654  -7.759  -8.390  1.00  0.00     0.050 A 
HETATM    7  N9  UNL     1      15.727  -7.344  -9.146  1.00  0.00    -0.320 N 
HETATM    8  C36 UNL     1      15.471  -7.695 -10.410  1.00  0.00     0.051 A 
HETATM    9  C37 UNL     1      16.219  -7.538 -11.576  1.00  0.00     0.045 A 
ENDROOT
BRANCH   7  10
HETATM   10  C23 UNL     1      16.909  -6.623  -8.720  1.00  0.00     0.109 C 
BRANCH  10  11
HETATM   11  C24 UNL     1      18.191  -7.174  -9.113  1.00  0.00    -0.020 A 
HETATM   12  C25 UNL     1      18.596  -8.409  -8.667  1.00  0.00     0.013 A 
HETATM   13  C26 UNL     1      19.795  -8.999  -8.989  1.00  0.00     0.013 A 
HETATM   14  C27 UNL     1      20.687  -8.349  -9.809  1.00  0.00    -0.024 A 
HETATM   15  C34 UNL     1      20.317  -7.102 -10.278  1.00  0.00     0.013 A 
HETATM   16  C35 UNL     1      19.086  -6.529  -9.931  1.00  0.00     0.013 A 
BRANCH  14  17
HETATM   17  C28 UNL     1      21.957  -8.956 -10.180  1.00  0.00    -0.003 A 
HETATM   18  C29 UNL     1      23.105  -8.406  -9.640  1.00  0.00     0.014 A 
HETATM   19  C30 UNL     1      24.355  -8.920  -9.902  1.00  0.00     0.001 A 
HETATM   20  C31 UNL     1      24.502 -10.017 -10.722  1.00  0.00     0.002 A 
HETATM   21  C32 UNL     1      23.367 -10.580 -11.271  1.00  0.00     0.026 A 
HETATM   22  C33 UNL     1      22.100 -10.052 -11.001  1.00  0.00     0.090 A 
BRANCH  22  23
HETATM   23  S1  UNL     1      20.726 -10.797 -11.764  1.00  0.00     0.257 S 
HETATM   24  O1  UNL     1      19.892  -9.758 -12.474  1.00  0.00    -0.201 OA
HETATM   25  O2  UNL     1      19.898 -11.596 -10.808  1.00  0.00    -0.201 OA
BRANCH  23  26
HETATM   26  N10 UNL     1      21.329 -11.855 -13.021  1.00  0.00    -0.324 N 
ATOM     27 2H10 UNL     1      22.139 -12.470 -12.938  1.00  0.00     0.169 HD
ATOM     28 1H10 UNL     1      20.727 -11.739 -13.836  1.00  0.00     0.169 HD
ENDBRANCH  23  26
ENDBRANCH  22  23
ENDBRANCH  14  17
ENDBRANCH  10  11
ENDBRANCH   7  10
BRANCH   6  29
HETATM   29  C16 UNL     1      14.613  -7.561  -7.119  1.00  0.00     0.030 C 
BRANCH  29  30
HETATM   30  C17 UNL     1      14.208  -6.561  -6.203  1.00  0.00    -0.002 C 
BRANCH  30  31
HETATM   31  C18 UNL     1      13.341  -6.949  -5.209  1.00  0.00    -0.026 C 
BRANCH  31  32
HETATM   32  C19 UNL     1      13.700  -8.032  -4.273  1.00  0.00     0.029 C 
BRANCH  32  33
HETATM   33  C20 UNL     1      12.648  -9.133  -4.276  1.00  0.00     0.023 C 
BRANCH  33  34
HETATM   34  C21 UNL     1      11.712  -8.944  -3.098  1.00  0.00     0.122 C 
BRANCH  34  35
HETATM   35  N6  UNL     1      10.425  -8.477  -3.518  1.00  0.00    -0.367 N 
HETATM   36  C22 UNL     1      10.037  -7.272  -3.285  1.00  0.00     0.196 C 
HETATM   37  N7  UNL     1       8.727  -6.866  -3.737  1.00  0.00    -0.067 NA
HETATM   38  N8  UNL     1      10.841  -6.323  -2.600  1.00  0.00    -0.067 NA
ATOM     39  H6  UNL     1       9.801  -9.114  -4.014  1.00  0.00     0.161 HD
ENDBRANCH  34  35
ENDBRANCH  33  34
ENDBRANCH  32  33
ENDBRANCH  31  32
ENDBRANCH  30  31
ENDBRANCH  29  30
ENDBRANCH   6  29
BRANCH   5  40
HETATM   40  C7  UNL     1      12.589  -8.908  -8.857  1.00  0.00     0.026 C 
BRANCH  40  41
HETATM   41  C8  UNL     1      11.338  -8.238  -8.528  1.00  0.00    -0.035 A 
HETATM   42  C9  UNL     1      10.781  -8.349  -7.268  1.00  0.00     0.013 A 
HETATM   43  C10 UNL     1       9.569  -7.743  -7.024  1.00  0.00     0.030 A 
HETATM   44  C11 UNL     1       8.937  -7.038  -8.046  1.00  0.00     0.034 A 
HETATM   45  C13 UNL     1       9.493  -6.926  -9.304  1.00  0.00     0.030 A 
HETATM   46  C14 UNL     1      10.695  -7.526  -9.551  1.00  0.00     0.013 A 
BRANCH  44  47
HETATM   47  N3  UNL     1       7.693  -6.377  -7.874  1.00  0.00    -0.333 N 
HETATM   48  C12 UNL     1       6.549  -6.948  -7.795  1.00  0.00     0.201 C 
HETATM   49  N4  UNL     1       5.352  -6.183  -7.620  1.00  0.00    -0.066 NA
HETATM   50  N5  UNL     1       6.492  -8.363  -7.884  1.00  0.00    -0.066 NA
ATOM     51  H3  UNL     1       7.712  -5.359  -7.807  1.00  0.00     0.168 HD
ENDBRANCH  44  47
ENDBRANCH  40  41
ENDBRANCH   5  40
BRANCH   1  52
HETATM   52  C1  UNL     1      16.628  -7.776 -13.988  1.00  0.00     0.120 C 
HETATM   53  N1  UNL     1      17.892  -7.989 -13.902  1.00  0.00    -0.387 N 
ATOM     54  H12 UNL     1      18.474  -7.847 -14.727  1.00  0.00     0.157 HD
ATOM     55  H11 UNL     1      18.323  -8.296 -13.030  1.00  0.00     0.157 HD
HETATM   56  N2  UNL     1      16.030  -7.350 -15.198  1.00  0.00    -0.082 NA
ENDBRANCH   1  52
TORSDOF 16
ENDMDL
MODEL 3
REMARK VINA RESULT: -9.917077450      1.953      2.227
REMARK  16 active torsions:
REMARK  status: ('A' for Active; 'I' for Inactive)
REMARK    1  A    between atoms: C1_4  and  C2_6 
REMARK    2  A    between atoms: C6_10  and  C7_11 
REMARK    3  A    between atoms: C7_11  and  C8_12 
REMARK    4  A    between atoms: C11_15  and  N3_16 
REMARK    5  A    between atoms: C15_23  and  C16_24 
REMARK    6  A    between atoms: C16_24  and  C17_25 
REMARK    7  A    between atoms: C17_25  and  C18_26 
REMARK    8  A    between atoms: C18_26  and  C19_27 
REMARK    9  A    between atoms: C19_27  and  C20_28 
REMARK   10  A    between atoms: C20_28  and  C21_29 
REMARK   11  A    between atoms: C21_29  and  N6_30 
REMARK   12  A    between atoms: N9_35  and  C23_36 
REMARK   13  A    between atoms: C23_36  and  C24_37 
REMARK   14  A    between atoms: C27_40  and  C28_41 
REMARK   15  A    between atoms: C33_46  and  S1_47 
REMARK   16  A    between atoms: S1_47  and  N10_48 
ROOT
HETATM    1  C2  UNL     1      15.815  -8.076 -13.192  1.00  0.00     0.007 A 
HETATM    2  C3  UNL     1      14.563  -8.610 -13.221  1.00  0.00     0.016 A 
HETATM    3  C4  UNL     1      13.864  -8.821 -12.044  1.00  0.00     0.015 A 
HETATM    4  C5  UNL     1      14.418  -8.498 -10.827  1.00  0.00     0.004 A 
HETATM    5  C6  UNL     1      13.982  -8.604  -9.499  1.00  0.00     0.004 A 
HETATM    6  C15 UNL     1      15.009  -8.117  -8.692  1.00  0.00     0.050 A 
HETATM    7  N9  UNL     1      16.051  -7.716  -9.497  1.00  0.00    -0.320 N 
HETATM    8  C36 UNL     1      15.683  -7.954 -10.760  1.00  0.00     0.051 A 
HETATM    9  C37 UNL     1      16.355  -7.758 -11.965  1.00  0.00     0.045 A 
ENDROOT
BRANCH   7  10
HETATM   10  C23 UNL     1      17.308  -7.107  -9.112  1.00  0.00     0.109 C 
BRANCH  10  11
HETATM   11  C24 UNL     1      18.499  -7.571  -9.797  1.00  0.00    -0.020 A 
HETATM   12  C25 UNL     1      19.191  -6.743 -10.648  1.00  0.00     0.013 A 
HETATM   13  C26 UNL     1      20.323  -7.107 -11.337  1.00  0.00     0.013 A 
HETATM   14  C27 UNL     1      20.838  -8.375 -11.203  1.00  0.00    -0.024 A 
HETATM   15  C34 UNL     1      20.168  -9.239 -10.356  1.00  0.00     0.013 A 
HETATM   16  C35 UNL     1      19.017  -8.837  -9.667  1.00  0.00     0.013 A 
BRANCH  14  17
HETATM   17  C28 UNL     1      22.045  -8.782 -11.908  1.00  0.00    -0.003 A 
HETATM   18  C29 UNL     1      21.886  -9.574 -13.031  1.00  0.00     0.014 A 
HETATM   19  C30 UNL     1      22.958  -9.991 -13.787  1.00  0.00     0.001 A 
HETATM   20  C31 UNL     1      24.241  -9.625 -13.444  1.00  0.00     0.002 A 
HETATM   21  C32 UNL     1      24.419  -8.835 -12.327  1.00  0.00     0.026 A 
HETATM   22  C33 UNL     1      23.326  -8.415 -11.562  1.00  0.00     0.090 A 
BRANCH  22  23
HETATM   23  S1  UNL     1      23.641  -7.453 -10.147  1.00  0.00     0.257 S 
HETATM   24  O1  UNL     1      23.043  -8.108  -8.924  1.00  0.00    -0.201 OA
HETATM   25  O2  UNL     1      23.168  -6.042 -10.292  1.00  0.00    -0.201 OA
BRANCH  23  26
HETATM   26  N10 UNL     1      25.371  -7.454  -9.883  1.00  0.00    -0.324 N 
ATOM     27 2H10 UNL     1      26.069  -7.096 -10.534  1.00  0.00     0.169 HD
ATOM     28 1H10 UNL     1      25.542  -7.875  -8.969  1.00  0.00     0.169 HD
ENDBRANCH  23  26
ENDBRANCH  22  23
ENDBRANCH  14  17
ENDBRANCH  10  11
ENDBRANCH   7  10
BRANCH   6  29
HETATM   29  C16 UNL     1      15.072  -8.014  -7.411  1.00  0.00     0.030 C 
BRANCH  29  30
HETATM   30  C17 UNL     1      14.894  -7.034  -6.405  1.00  0.00    -0.002 C 
BRANCH  30  31
HETATM   31  C18 UNL     1      13.732  -7.102  -5.676  1.00  0.00    -0.026 C 
BRANCH  31  32
HETATM   32  C19 UNL     1      13.682  -7.840  -4.399  1.00  0.00     0.029 C 
BRANCH  32  33
HETATM   33  C20 UNL     1      12.710  -9.008  -4.476  1.00  0.00     0.023 C 
BRANCH  33  34
HETATM   34  C21 UNL     1      11.685  -8.889  -3.364  1.00  0.00     0.122 C 
BRANCH  34  35
HETATM   35  N6  UNL     1      10.442  -8.367  -3.849  1.00  0.00    -0.367 N 
HETATM   36  C22 UNL     1      10.044  -7.183  -3.539  1.00  0.00     0.196 C 
HETATM   37  N7  UNL     1       8.781  -6.718  -4.062  1.00  0.00    -0.067 NA
HETATM   38  N8  UNL     1      10.791  -6.312  -2.703  1.00  0.00    -0.067 NA
ATOM     39  H6  UNL     1       9.860  -8.947  -4.453  1.00  0.00     0.161 HD
ENDBRANCH  34  35
ENDBRANCH  33  34
ENDBRANCH  32  33
ENDBRANCH  31  32
ENDBRANCH  30  31
ENDBRANCH  29  30
ENDBRANCH   6  29
BRANCH   5  40
HETATM   40  C7  UNL     1      12.841  -9.092  -9.081  1.00  0.00     0.026 C 
BRANCH  40  41
HETATM   41  C8  UNL     1      11.560  -8.411  -8.950  1.00  0.00    -0.035 A 
HETATM   42  C9  UNL     1      10.829  -8.047 -10.065  1.00  0.00     0.013 A 
HETATM   43  C10 UNL     1       9.652  -7.354  -9.888  1.00  0.00     0.030 A 
HETATM   44  C11 UNL     1       9.230  -7.038  -8.598  1.00  0.00     0.034 A 
HETATM   45  C13 UNL     1       9.960  -7.400  -7.484  1.00  0.00     0.030 A 
HETATM   46  C14 UNL     1      11.128  -8.087  -7.655  1.00  0.00     0.013 A 
BRANCH  44  47
HETATM   47  N3  UNL     1       8.026  -6.336  -8.329  1.00  0.00    -0.333 N 
HETATM   48  C12 UNL     1       6.912  -6.869  -7.987  1.00  0.00     0.201 C 
HETATM   49  N4  UNL     1       5.754  -6.066  -7.738  1.00  0.00    -0.066 NA
HETATM   50  N5  UNL     1       6.850  -8.281  -7.859  1.00  0.00    -0.066 NA
ATOM     51  H3  UNL     1       8.049  -5.320  -8.416  1.00  0.00     0.168 HD
ENDBRANCH  44  47
ENDBRANCH  40  41
ENDBRANCH   5  40
BRANCH   1  52
HETATM   52  C1  UNL     1      16.574  -7.840 -14.412  1.00  0.00     0.120 C 
HETATM   53  N1  UNL     1      17.837  -8.069 -14.415  1.00  0.00    -0.387 N 
ATOM     54  H12 UNL     1      18.368  -7.903 -15.269  1.00  0.00     0.157 HD
ATOM     55  H11 UNL     1      18.319  -8.412 -13.583  1.00  0.00     0.157 HD
HETATM   56  N2  UNL     1      15.906  -7.363 -15.565  1.00  0.00    -0.082 NA
ENDBRANCH   1  52
TORSDOF 16
ENDMDL
MODEL 4
REMARK VINA RESULT: -9.900834112      4.814     12.363
REMARK  16 active torsions:
REMARK  status: ('A' for Active; 'I' for Inactive)
REMARK    1  A    between atoms: C1_4  and  C2_6 
REMARK    2  A    between atoms: C6_10  and  C7_11 
REMARK    3  A    between atoms: C7_11  and  C8_12 
REMARK    4  A    between atoms: C11_15  and  N3_16 
REMARK    5  A    between atoms: C15_23  and  C16_24 
REMARK    6  A    between atoms: C16_24  and  C17_25 
REMARK    7  A    between atoms: C17_25  and  C18_26 
REMARK    8  A    between atoms: C18_26  and  C19_27 
REMARK    9  A    between atoms: C19_27  and  C20_28 
REMARK   10  A    between atoms: C20_28  and  C21_29 
REMARK   11  A    between atoms: C21_29  and  N6_30 
REMARK   12  A    between atoms: N9_35  and  C23_36 
REMARK   13  A    between atoms: C23_36  and  C24_37 
REMARK   14  A    between atoms: C27_40  and  C28_41 
REMARK   15  A    between atoms: C33_46  and  S1_47 
REMARK   16  A    between atoms: S1_47  and  N10_48 
ROOT
HETATM    1  C2  UNL     1      10.820  -7.540  -4.547  1.00  0.00     0.007 A 
HETATM    2  C3  UNL     1      12.125  -7.878  -4.356  1.00  0.00     0.016 A 
HETATM    3  C4  UNL     1      12.913  -8.260  -5.429  1.00  0.00     0.015 A 
HETATM    4  C5  UNL     1      12.396  -8.307  -6.703  1.00  0.00     0.004 A 
HETATM    5  C6  UNL     1      12.919  -8.659  -7.955  1.00  0.00     0.004 A 
HETATM    6  C15 UNL     1      11.888  -8.517  -8.883  1.00  0.00     0.050 A 
HETATM    7  N9  UNL     1      10.759  -8.085  -8.226  1.00  0.00    -0.320 N 
HETATM    8  C36 UNL     1      11.079  -7.971  -6.933  1.00  0.00     0.051 A 
HETATM    9  C37 UNL     1      10.317  -7.592  -5.828  1.00  0.00     0.045 A 
ENDROOT
BRANCH   7  10
HETATM   10  C23 UNL     1       9.460  -7.759  -8.780  1.00  0.00     0.109 C 
BRANCH  10  11
HETATM   11  C24 UNL     1       8.317  -8.464  -8.234  1.00  0.00    -0.020 A 
HETATM   12  C25 UNL     1       7.181  -7.787  -7.862  1.00  0.00     0.013 A 
HETATM   13  C26 UNL     1       6.059  -8.379  -7.332  1.00  0.00     0.013 A 
HETATM   14  C27 UNL     1       6.021  -9.740  -7.140  1.00  0.00    -0.024 A 
HETATM   15  C34 UNL     1       7.147 -10.458  -7.500  1.00  0.00     0.013 A 
HETATM   16  C35 UNL     1       8.274  -9.823  -8.038  1.00  0.00     0.013 A 
BRANCH  14  17
HETATM   17  C28 UNL     1       4.841 -10.396  -6.597  1.00  0.00    -0.003 A 
HETATM   18  C29 UNL     1       4.063 -11.130  -7.474  1.00  0.00     0.014 A 
HETATM   19  C30 UNL     1       2.942 -11.812  -7.060  1.00  0.00     0.001 A 
HETATM   20  C31 UNL     1       2.555 -11.787  -5.738  1.00  0.00     0.002 A 
HETATM   21  C32 UNL     1       3.319 -11.060  -4.848  1.00  0.00     0.026 A 
HETATM   22  C33 UNL     1       4.457 -10.367  -5.275  1.00  0.00     0.090 A 
BRANCH  22  23
HETATM   23  S1  UNL     1       5.342  -9.444  -4.096  1.00  0.00     0.257 S 
HETATM   24  O1  UNL     1       5.057  -7.970  -4.262  1.00  0.00    -0.201 OA
HETATM   25  O2  UNL     1       6.812  -9.719  -4.132  1.00  0.00    -0.201 OA
BRANCH  23  26
HETATM   26  N10 UNL     1       4.718  -9.869  -2.517  1.00  0.00    -0.324 N 
ATOM     27 2H10 UNL     1       5.251  -9.857  -1.648  1.00  0.00     0.169 HD
ATOM     28 1H10 UNL     1       3.738 -10.126  -2.633  1.00  0.00     0.169 HD
ENDBRANCH  23  26
ENDBRANCH  22  23
ENDBRANCH  14  17
ENDBRANCH  10  11
ENDBRANCH   7  10
BRANCH   6  29
HETATM   29  C16 UNL     1      11.889  -8.724 -10.153  1.00  0.00     0.030 C 
BRANCH  29  30
HETATM   30  C17 UNL     1      11.978  -7.987 -11.358  1.00  0.00    -0.002 C 
BRANCH  30  31
HETATM   31  C18 UNL     1      13.238  -7.618 -11.764  1.00  0.00    -0.026 C 
BRANCH  31  32
HETATM   32  C19 UNL     1      14.064  -8.525 -12.585  1.00  0.00     0.029 C 
BRANCH  32  33
HETATM   33  C20 UNL     1      15.479  -8.631 -12.034  1.00  0.00     0.023 C 
BRANCH  33  34
HETATM   34  C21 UNL     1      16.366  -7.605 -12.712  1.00  0.00     0.122 C 
BRANCH  34  35
HETATM   35  N6  UNL     1      17.430  -8.230 -13.440  1.00  0.00    -0.367 N 
HETATM   36  C22 UNL     1      17.502  -8.154 -14.723  1.00  0.00     0.196 C 
HETATM   37  N7  UNL     1      18.601  -8.806 -15.395  1.00  0.00    -0.067 NA
HETATM   38  N8  UNL     1      16.547  -7.456 -15.509  1.00  0.00    -0.067 NA
ATOM     39  H6  UNL     1      18.146  -8.747 -12.930  1.00  0.00     0.161 HD
ENDBRANCH  34  35
ENDBRANCH  33  34
ENDBRANCH  32  33
ENDBRANCH  31  32
ENDBRANCH  30  31
ENDBRANCH  29  30
ENDBRANCH   6  29
BRANCH   5  40
HETATM   40  C7  UNL     1      14.135  -9.072  -8.213  1.00  0.00     0.026 C 
BRANCH  40  41
HETATM   41  C8  UNL     1      15.346  -8.276  -8.367  1.00  0.00    -0.035 A 
HETATM   42  C9  UNL     1      15.284  -6.958  -8.777  1.00  0.00     0.013 A 
HETATM   43  C10 UNL     1      16.461  -6.267  -8.963  1.00  0.00     0.030 A 
HETATM   44  C11 UNL     1      17.676  -6.909  -8.736  1.00  0.00     0.034 A 
HETATM   45  C13 UNL     1      17.738  -8.225  -8.327  1.00  0.00     0.030 A 
HETATM   46  C14 UNL     1      16.574  -8.915  -8.142  1.00  0.00     0.013 A 
BRANCH  44  47
HETATM   47  N3  UNL     1      18.931  -6.265  -8.894  1.00  0.00    -0.333 N 
HETATM   48  C12 UNL     1      19.724  -6.409  -9.890  1.00  0.00     0.201 C 
HETATM   49  N4  UNL     1      20.971  -5.710  -9.950  1.00  0.00    -0.066 NA
HETATM   50  N5  UNL     1      19.337  -7.282 -10.940  1.00  0.00    -0.066 NA
ATOM     51  H3  UNL     1      19.228  -5.633  -8.150  1.00  0.00     0.168 HD
ENDBRANCH  44  47
ENDBRANCH  40  41
ENDBRANCH   5  40
BRANCH   1  52
HETATM   52  C1  UNL     1       9.967  -7.132  -3.440  1.00  0.00     0.120 C 
HETATM   53  N1  UNL     1       8.703  -7.349  -3.513  1.00  0.00    -0.387 N 
ATOM     54  H12 UNL     1       8.106  -7.063  -2.737  1.00  0.00     0.157 HD
ATOM     55  H11 UNL     1       8.286  -7.801  -4.326  1.00  0.00     0.157 HD
HETATM   56  N2  UNL     1      10.545  -6.504  -2.311  1.00  0.00    -0.082 NA
ENDBRANCH   1  52
TORSDOF 16
ENDMDL
MODEL 5
REMARK VINA RESULT: -9.795257832      1.730      2.237
REMARK  16 active torsions:
REMARK  status: ('A' for Active; 'I' for Inactive)
REMARK    1  A    between atoms: C1_4  and  C2_6 
REMARK    2  A    between atoms: C6_10  and  C7_11 
REMARK    3  A    between atoms: C7_11  and  C8_12 
REMARK    4  A    between atoms: C11_15  and  N3_16 
REMARK    5  A    between atoms: C15_23  and  C16_24 
REMARK    6  A    between atoms: C16_24  and  C17_25 
REMARK    7  A    between atoms: C17_25  and  C18_26 
REMARK    8  A    between atoms: C18_26  and  C19_27 
REMARK    9  A    between atoms: C19_27  and  C20_28 
REMARK   10  A    between atoms: C20_28  and  C21_29 
REMARK   11  A    between atoms: C21_29  and  N6_30 
REMARK   12  A    between atoms: N9_35  and  C23_36 
REMARK   13  A    between atoms: C23_36  and  C24_37 
REMARK   14  A    between atoms: C27_40  and  C28_41 
REMARK   15  A    between atoms: C33_46  and  S1_47 
REMARK   16  A    between atoms: S1_47  and  N10_48 
ROOT
HETATM    1  C2  UNL     1      15.037  -8.027 -13.392  1.00  0.00     0.007 A 
HETATM    2  C3  UNL     1      13.778  -8.534 -13.284  1.00  0.00     0.016 A 
HETATM    3  C4  UNL     1      13.209  -8.735 -12.037  1.00  0.00     0.015 A 
HETATM    4  C5  UNL     1      13.902  -8.429 -10.888  1.00  0.00     0.004 A 
HETATM    5  C6  UNL     1      13.614  -8.531  -9.520  1.00  0.00     0.004 A 
HETATM    6  C15 UNL     1      14.734  -8.069  -8.832  1.00  0.00     0.050 A 
HETATM    7  N9  UNL     1      15.689  -7.688  -9.746  1.00  0.00    -0.320 N 
HETATM    8  C36 UNL     1      15.178  -7.913 -10.961  1.00  0.00     0.051 A 
HETATM    9  C37 UNL     1      15.716  -7.726 -12.233  1.00  0.00     0.045 A 
ENDROOT
BRANCH   7  10
HETATM   10  C23 UNL     1      16.995  -7.108  -9.502  1.00  0.00     0.109 C 
BRANCH  10  11
HETATM   11  C24 UNL     1      18.147  -7.910  -9.864  1.00  0.00    -0.020 A 
HETATM   12  C25 UNL     1      18.569  -8.942  -9.060  1.00  0.00     0.013 A 
HETATM   13  C26 UNL     1      19.653  -9.744  -9.328  1.00  0.00     0.013 A 
HETATM   14  C27 UNL     1      20.400  -9.541 -10.465  1.00  0.00    -0.024 A 
HETATM   15  C34 UNL     1      20.008  -8.510 -11.299  1.00  0.00     0.013 A 
HETATM   16  C35 UNL     1      18.897  -7.711 -10.997  1.00  0.00     0.013 A 
BRANCH  14  17
HETATM   17  C28 UNL     1      21.542 -10.386 -10.782  1.00  0.00    -0.003 A 
HETATM   18  C29 UNL     1      21.284 -11.705 -11.110  1.00  0.00     0.014 A 
HETATM   19  C30 UNL     1      22.288 -12.581 -11.454  1.00  0.00     0.001 A 
HETATM   20  C31 UNL     1      23.601 -12.165 -11.484  1.00  0.00     0.002 A 
HETATM   21  C32 UNL     1      23.877 -10.852 -11.159  1.00  0.00     0.026 A 
HETATM   22  C33 UNL     1      22.853  -9.967 -10.809  1.00  0.00     0.090 A 
BRANCH  22  23
HETATM   23  S1  UNL     1      23.292  -8.340 -10.376  1.00  0.00     0.257 S 
HETATM   24  O1  UNL     1      22.651  -7.955  -9.065  1.00  0.00    -0.201 OA
HETATM   25  O2  UNL     1      22.968  -7.350 -11.450  1.00  0.00    -0.201 OA
BRANCH  23  26
HETATM   26  N10 UNL     1      25.017  -8.320 -10.081  1.00  0.00    -0.324 N 
ATOM     27 2H10 UNL     1      25.692  -8.975 -10.475  1.00  0.00     0.169 HD
ATOM     28 1H10 UNL     1      25.212  -7.543  -9.449  1.00  0.00     0.169 HD
ENDBRANCH  23  26
ENDBRANCH  22  23
ENDBRANCH  14  17
ENDBRANCH  10  11
ENDBRANCH   7  10
BRANCH   6  29
HETATM   29  C16 UNL     1      14.941  -7.973  -7.565  1.00  0.00     0.030 C 
BRANCH  29  30
HETATM   30  C17 UNL     1      14.823  -7.014  -6.531  1.00  0.00    -0.002 C 
BRANCH  30  31
HETATM   31  C18 UNL     1      13.684  -7.071  -5.763  1.00  0.00    -0.026 C 
BRANCH  31  32
HETATM   32  C19 UNL     1      13.696  -7.724  -4.440  1.00  0.00     0.029 C 
BRANCH  32  33
HETATM   33  C20 UNL     1      12.792  -8.948  -4.423  1.00  0.00     0.023 C 
BRANCH  33  34
HETATM   34  C21 UNL     1      11.856  -8.871  -3.232  1.00  0.00     0.122 C 
BRANCH  34  35
HETATM   35  N6  UNL     1      10.559  -8.396  -3.613  1.00  0.00    -0.367 N 
HETATM   36  C22 UNL     1      10.171  -7.201  -3.334  1.00  0.00     0.196 C 
HETATM   37  N7  UNL     1       8.852  -6.786  -3.748  1.00  0.00    -0.067 NA
HETATM   38  N8  UNL     1      10.985  -6.270  -2.634  1.00  0.00    -0.067 NA
ATOM     39  H6  UNL     1       9.929  -9.019  -4.117  1.00  0.00     0.161 HD
ENDBRANCH  34  35
ENDBRANCH  33  34
ENDBRANCH  32  33
ENDBRANCH  31  32
ENDBRANCH  30  31
ENDBRANCH  29  30
ENDBRANCH   6  29
BRANCH   5  40
HETATM   40  C7  UNL     1      12.515  -8.996  -8.979  1.00  0.00     0.026 C 
BRANCH  40  41
HETATM   41  C8  UNL     1      11.291  -8.275  -8.657  1.00  0.00    -0.035 A 
HETATM   42  C9  UNL     1      10.802  -8.244  -7.365  1.00  0.00     0.013 A 
HETATM   43  C10 UNL     1       9.610  -7.596  -7.123  1.00  0.00     0.030 A 
HETATM   44  C11 UNL     1       8.931  -6.993  -8.180  1.00  0.00     0.034 A 
HETATM   45  C13 UNL     1       9.419  -7.025  -9.470  1.00  0.00     0.030 A 
HETATM   46  C14 UNL     1      10.600  -7.665  -9.715  1.00  0.00     0.013 A 
BRANCH  44  47
HETATM   47  N3  UNL     1       7.705  -6.299  -8.014  1.00  0.00    -0.333 N 
HETATM   48  C12 UNL     1       6.560  -6.840  -7.823  1.00  0.00     0.201 C 
HETATM   49  N4  UNL     1       5.382  -6.043  -7.667  1.00  0.00    -0.066 NA
HETATM   50  N5  UNL     1       6.483  -8.256  -7.768  1.00  0.00    -0.066 NA
ATOM     51  H3  UNL     1       7.738  -5.279  -8.050  1.00  0.00     0.168 HD
ENDBRANCH  44  47
ENDBRANCH  40  41
ENDBRANCH   5  40
BRANCH   1  52
HETATM   52  C1  UNL     1      15.660  -7.803 -14.689  1.00  0.00     0.120 C 
HETATM   53  N1  UNL     1      14.935  -7.858 -15.748  1.00  0.00    -0.387 N 
ATOM     54  H12 UNL     1      15.373  -7.701 -16.656  1.00  0.00     0.157 HD
ATOM     55  H11 UNL     1      13.935  -8.054 -15.700  1.00  0.00     0.157 HD
HETATM   56  N2  UNL     1      17.048  -7.531 -14.756  1.00  0.00    -0.082 NA
ENDBRANCH   1  52
TORSDOF 16
ENDMDL
