MODEL 1
REMARK VINA RESULT: -5.600196102      0.000      0.000
REMARK  16 active torsions:
REMARK  status: ('A' for Active; 'I' for Inactive)
REMARK    1  A    between atoms: C2_2  and  C3_3 
REMARK    2  A    between atoms: C3_3  and  C4_4 
REMARK    3  A    between atoms: C6_9  and  C7_10 
REMARK    4  A    between atoms: C10_15  and  O2_16 
REMARK    5  A    between atoms: C11_18  and  C12_19 
REMARK    6  A    between atoms: C12_19  and  C13_20 
REMARK    7  A    between atoms: C16_25  and  C17_26 
REMARK    8  A    between atoms: C17_26  and  C18_27 
REMARK    9  A    between atoms: C18_27  and  C19_28 
REMARK   10  A    between atoms: C19_28  and  C20_29 
REMARK   11  A    between atoms: C25_37  and  N5_38 
REMARK   12  A    between atoms: C30_46  and  C31_47 
REMARK   13  A    between atoms: C31_47  and  C32_48 
REMARK   14  A    between atoms: C32_48  and  C33_49 
REMARK   15  A    between atoms: C33_49  and  C34_50 
REMARK   16  A    between atoms: C34_50  and  N7_51 
ROOT
HETATM    1  C4  UNL     1      20.798  -9.233 -11.766  1.00  0.00     0.180 C 
HETATM    2  N1  UNL     1      21.470 -10.291 -12.518  1.00  0.00    -0.346 N 
ATOM      3  H1  UNL     1      21.896 -10.026 -13.406  1.00  0.00     0.163 HD
HETATM    4  C5  UNL     1      21.583 -11.632 -12.136  1.00  0.00     0.241 C 
HETATM    5  O1  UNL     1      21.171 -12.526 -12.962  1.00  0.00    -0.271 OA
HETATM    6  C6  UNL     1      22.138 -12.131 -10.865  1.00  0.00     0.179 C 
HETATM    7  N2  UNL     1      23.551 -11.890 -10.694  1.00  0.00    -0.359 N 
ATOM      8  H2  UNL     1      23.997 -12.523 -10.030  1.00  0.00     0.162 HD
HETATM    9  C10 UNL     1      24.416 -10.972 -11.252  1.00  0.00     0.135 C 
HETATM   10  C11 UNL     1      24.954 -10.819 -12.625  1.00  0.00     0.152 C 
HETATM   11  N3  UNL     1      24.931 -11.907 -13.488  1.00  0.00    -0.404 N 
ATOM     12  H3  UNL     1      25.285 -12.811 -13.174  1.00  0.00     0.154 HD
HETATM   13  C16 UNL     1      24.414 -11.768 -14.806  1.00  0.00     0.095 C 
HETATM   14  C23 UNL     1      25.011 -10.687 -15.649  1.00  0.00     0.147 C 
HETATM   15  N4  UNL     1      24.652 -10.913 -17.032  1.00  0.00    -0.354 N 
ATOM     16  H4  UNL     1      25.026 -11.768 -17.444  1.00  0.00     0.162 HD
HETATM   17  C24 UNL     1      23.867 -10.131 -17.891  1.00  0.00     0.265 C 
HETATM   18  O3  UNL     1      24.507  -9.647 -18.905  1.00  0.00    -0.266 OA
HETATM   19  C25 UNL     1      22.468  -9.777 -17.834  1.00  0.00     0.092 C 
HETATM   20  C28 UNL     1      21.759  -9.487 -16.531  1.00  0.00     0.185 C 
HETATM   21  N6  UNL     1      20.725 -10.464 -16.278  1.00  0.00    -0.354 N 
ATOM     22  H6  UNL     1      20.849 -11.384 -16.700  1.00  0.00     0.162 HD
HETATM   23  C29 UNL     1      19.562 -10.273 -15.507  1.00  0.00     0.240 C 
HETATM   24  O4  UNL     1      18.661 -11.177 -15.460  1.00  0.00    -0.271 OA
HETATM   25  C30 UNL     1      19.276  -9.060 -14.704  1.00  0.00     0.176 C 
HETATM   26  N8  UNL     1      18.811  -9.439 -13.389  1.00  0.00    -0.346 N 
ATOM     27  H8  UNL     1      17.961 -10.002 -13.363  1.00  0.00     0.163 HD
HETATM   28  C35 UNL     1      19.373  -9.135 -12.151  1.00  0.00     0.241 C 
HETATM   29  O5  UNL     1      18.580  -8.724 -11.233  1.00  0.00    -0.271 OA
ENDROOT
BRANCH  25  30
HETATM   30  C31 UNL     1      18.178  -8.325 -15.468  1.00  0.00     0.035 C 
BRANCH  30  31
HETATM   31  C32 UNL     1      17.054  -7.875 -14.599  1.00  0.00     0.004 C 
BRANCH  31  32
HETATM   32  C33 UNL     1      15.721  -7.868 -15.339  1.00  0.00     0.027 C 
BRANCH  32  33
HETATM   33  C34 UNL     1      15.429  -9.298 -15.814  1.00  0.00     0.229 C 
BRANCH  33  34
HETATM   34  N7  UNL     1      15.054 -10.093 -14.635  1.00  0.00    -0.079 N 
ATOM     35  H73 UNL     1      15.773 -10.093 -13.912  1.00  0.00     0.274 HD
ATOM     36  H72 UNL     1      14.310  -9.662 -14.086  1.00  0.00     0.274 HD
ATOM     37  H71 UNL     1      14.815 -11.032 -14.957  1.00  0.00     0.274 HD
ENDBRANCH  33  34
ENDBRANCH  32  33
ENDBRANCH  31  32
ENDBRANCH  30  31
ENDBRANCH  25  30
BRANCH   1  38
HETATM   38  C3  UNL     1      21.480  -7.923 -11.888  1.00  0.00     0.061 C 
BRANCH  38  39
HETATM   39  C2  UNL     1      22.210  -7.588 -10.632  1.00  0.00    -0.034 C 
HETATM   40  C1  UNL     1      21.954  -8.245  -9.508  1.00  0.00     0.007 C 
ENDBRANCH  38  39
ENDBRANCH   1  38
BRANCH  19  41
HETATM   41  N5  UNL     1      21.700  -9.681 -18.883  1.00  0.00    -0.387 N 
HETATM   42  C26 UNL     1      21.077  -8.442 -19.315  1.00  0.00     0.149 C 
HETATM   43  C27 UNL     1      21.452 -10.888 -19.648  1.00  0.00     0.149 C 
ENDBRANCH  19  41
BRANCH   6  44
HETATM   44  C7  UNL     1      21.744 -13.563 -10.601  1.00  0.00     0.009 C 
HETATM   45  C8  UNL     1      22.867 -14.534 -10.560  1.00  0.00     0.012 C 
HETATM   46  C9  UNL     1      21.063 -13.574  -9.229  1.00  0.00     0.012 C 
ENDBRANCH   6  44
BRANCH  13  47
HETATM   47  C17 UNL     1      24.317 -13.108 -15.477  1.00  0.00     0.026 C 
BRANCH  47  48
HETATM   48  C18 UNL     1      24.111 -14.266 -14.560  1.00  0.00     0.002 C 
BRANCH  48  49
HETATM   49  C19 UNL     1      22.724 -14.834 -14.893  1.00  0.00     0.004 C 
BRANCH  49  50
HETATM   50  C20 UNL     1      22.363 -14.564 -16.331  1.00  0.00    -0.023 C 
HETATM   51  C21 UNL     1      22.424 -15.906 -17.051  1.00  0.00     0.009 C 
HETATM   52  C22 UNL     1      20.893 -14.153 -16.359  1.00  0.00     0.009 C 
ENDBRANCH  49  50
ENDBRANCH  48  49
ENDBRANCH  47  48
ENDBRANCH  13  47
BRANCH   9  53
HETATM   53  O2  UNL     1      24.882 -10.038 -10.474  1.00  0.00    -0.348 OA
ATOM     54  H2  UNL     1      24.866 -10.200  -9.538  1.00  0.00     0.219 HD
ENDBRANCH   9  53
BRANCH  10  55
HETATM   55  C12 UNL     1      26.408 -10.330 -12.482  1.00  0.00     0.037 C 
BRANCH  55  56
HETATM   56  C13 UNL     1      27.417 -11.406 -12.663  1.00  0.00    -0.020 C 
HETATM   57  C14 UNL     1      28.466 -11.170 -13.695  1.00  0.00     0.009 C 
HETATM   58  C15 UNL     1      28.153 -11.559 -11.325  1.00  0.00     0.009 C 
ENDBRANCH  55  56
ENDBRANCH  10  55
TORSDOF 16
ENDMDL
MODEL 2
REMARK VINA RESULT: -5.363602092      0.934      1.206
REMARK  16 active torsions:
REMARK  status: ('A' for Active; 'I' for Inactive)
REMARK    1  A    between atoms: C2_2  and  C3_3 
REMARK    2  A    between atoms: C3_3  and  C4_4 
REMARK    3  A    between atoms: C6_9  and  C7_10 
REMARK    4  A    between atoms: C10_15  and  O2_16 
REMARK    5  A    between atoms: C11_18  and  C12_19 
REMARK    6  A    between atoms: C12_19  and  C13_20 
REMARK    7  A    between atoms: C16_25  and  C17_26 
REMARK    8  A    between atoms: C17_26  and  C18_27 
REMARK    9  A    between atoms: C18_27  and  C19_28 
REMARK   10  A    between atoms: C19_28  and  C20_29 
REMARK   11  A    between atoms: C25_37  and  N5_38 
REMARK   12  A    between atoms: C30_46  and  C31_47 
REMARK   13  A    between atoms: C31_47  and  C32_48 
REMARK   14  A    between atoms: C32_48  and  C33_49 
REMARK   15  A    between atoms: C33_49  and  C34_50 
REMARK   16  A    between atoms: C34_50  and  N7_51 
ROOT
HETATM    1  C4  UNL     1      20.822  -9.016 -11.869  1.00  0.00     0.180 C 
HETATM    2  N1  UNL     1      21.660  -9.980 -12.578  1.00  0.00    -0.346 N 
ATOM      3  H1  UNL     1      22.057  -9.679 -13.470  1.00  0.00     0.163 HD
HETATM    4  C5  UNL     1      21.971 -11.275 -12.152  1.00  0.00     0.241 C 
HETATM    5  O1  UNL     1      21.715 -12.247 -12.954  1.00  0.00    -0.271 OA
HETATM    6  C6  UNL     1      22.575 -11.645 -10.859  1.00  0.00     0.179 C 
HETATM    7  N2  UNL     1      23.930 -11.185 -10.679  1.00  0.00    -0.359 N 
ATOM      8  H2  UNL     1      24.457 -11.722  -9.989  1.00  0.00     0.162 HD
HETATM    9  C10 UNL     1      24.654 -10.161 -11.255  1.00  0.00     0.135 C 
HETATM   10  C11 UNL     1      25.186  -9.969 -12.625  1.00  0.00     0.152 C 
HETATM   11  N3  UNL     1      25.344 -11.072 -13.453  1.00  0.00    -0.404 N 
ATOM     12  H3  UNL     1      25.828 -11.901 -13.106  1.00  0.00     0.154 HD
HETATM   13  C16 UNL     1      24.835 -11.054 -14.782  1.00  0.00     0.095 C 
HETATM   14  C23 UNL     1      25.274  -9.919 -15.651  1.00  0.00     0.147 C 
HETATM   15  N4  UNL     1      24.978 -10.239 -17.031  1.00  0.00    -0.354 N 
ATOM     16  H4  UNL     1      25.485 -11.038 -17.410  1.00  0.00     0.162 HD
HETATM   17  C24 UNL     1      24.096  -9.613 -17.923  1.00  0.00     0.265 C 
HETATM   18  O3  UNL     1      24.672  -9.067 -18.945  1.00  0.00    -0.266 OA
HETATM   19  C25 UNL     1      22.659  -9.477 -17.896  1.00  0.00     0.092 C 
HETATM   20  C28 UNL     1      21.891  -9.261 -16.612  1.00  0.00     0.185 C 
HETATM   21  N6  UNL     1      21.015 -10.378 -16.340  1.00  0.00    -0.354 N 
ATOM     22  H6  UNL     1      21.286 -11.280 -16.731  1.00  0.00     0.162 HD
HETATM   23  C29 UNL     1      19.824 -10.345 -15.589  1.00  0.00     0.240 C 
HETATM   24  O4  UNL     1      19.072 -11.375 -15.525  1.00  0.00    -0.271 OA
HETATM   25  C30 UNL     1      19.341  -9.167 -14.830  1.00  0.00     0.176 C 
HETATM   26  N8  UNL     1      18.918  -9.573 -13.509  1.00  0.00    -0.346 N 
ATOM     27  H8  UNL     1      18.164 -10.259 -13.476  1.00  0.00     0.163 HD
HETATM   28  C35 UNL     1      19.405  -9.149 -12.275  1.00  0.00     0.241 C 
HETATM   29  O5  UNL     1      18.543  -8.838 -11.380  1.00  0.00    -0.271 OA
ENDROOT
BRANCH  25  30
HETATM   30  C31 UNL     1      18.157  -8.633 -15.631  1.00  0.00     0.035 C 
BRANCH  30  31
HETATM   31  C32 UNL     1      17.057  -8.104 -14.775  1.00  0.00     0.004 C 
BRANCH  31  32
HETATM   32  C33 UNL     1      15.682  -8.532 -15.276  1.00  0.00     0.027 C 
BRANCH  32  33
HETATM   33  C34 UNL     1      14.817  -8.887 -14.059  1.00  0.00     0.229 C 
BRANCH  33  34
HETATM   34  N7  UNL     1      15.678  -8.831 -12.867  1.00  0.00    -0.079 N 
ATOM     35  H73 UNL     1      16.649  -8.616 -13.090  1.00  0.00     0.274 HD
ATOM     36  H72 UNL     1      15.491  -8.018 -12.280  1.00  0.00     0.274 HD
ATOM     37  H71 UNL     1      15.572  -9.714 -12.367  1.00  0.00     0.274 HD
ENDBRANCH  33  34
ENDBRANCH  32  33
ENDBRANCH  31  32
ENDBRANCH  30  31
ENDBRANCH  25  30
BRANCH   1  38
HETATM   38  C3  UNL     1      21.296  -7.621 -12.025  1.00  0.00     0.061 C 
BRANCH  38  39
HETATM   39  C2  UNL     1      21.996  -7.160 -10.792  1.00  0.00    -0.034 C 
HETATM   40  C1  UNL     1      21.876  -7.835  -9.656  1.00  0.00     0.007 C 
ENDBRANCH  38  39
ENDBRANCH   1  38
BRANCH  19  41
HETATM   41  N5  UNL     1      21.903  -9.532 -18.957  1.00  0.00    -0.387 N 
HETATM   42  C26 UNL     1      21.774 -10.712 -19.793  1.00  0.00     0.149 C 
HETATM   43  C27 UNL     1      21.164  -8.338 -19.319  1.00  0.00     0.149 C 
ENDBRANCH  19  41
BRANCH   6  44
HETATM   44  C7  UNL     1      22.400 -13.112 -10.554  1.00  0.00     0.009 C 
HETATM   45  C8  UNL     1      23.520 -13.745  -9.812  1.00  0.00     0.012 C 
HETATM   46  C9  UNL     1      21.141 -13.223  -9.688  1.00  0.00     0.012 C 
ENDBRANCH   6  44
BRANCH  13  47
HETATM   47  C17 UNL     1      24.956 -12.412 -15.410  1.00  0.00     0.026 C 
BRANCH  47  48
HETATM   48  C18 UNL     1      24.488 -13.549 -14.565  1.00  0.00     0.002 C 
BRANCH  48  49
HETATM   49  C19 UNL     1      23.363 -14.234 -15.355  1.00  0.00     0.004 C 
BRANCH  49  50
HETATM   50  C20 UNL     1      22.938 -15.514 -14.685  1.00  0.00    -0.023 C 
HETATM   51  C21 UNL     1      23.764 -16.629 -15.317  1.00  0.00     0.009 C 
HETATM   52  C22 UNL     1      23.399 -15.438 -13.231  1.00  0.00     0.009 C 
ENDBRANCH  49  50
ENDBRANCH  48  49
ENDBRANCH  47  48
ENDBRANCH  13  47
BRANCH   9  53
HETATM   53  O2  UNL     1      24.958  -9.145 -10.501  1.00  0.00    -0.348 OA
ATOM     54  H2  UNL     1      24.910  -9.267  -9.561  1.00  0.00     0.219 HD
ENDBRANCH   9  53
BRANCH  10  55
HETATM   55  C12 UNL     1      26.545  -9.258 -12.480  1.00  0.00     0.037 C 
BRANCH  55  56
HETATM   56  C13 UNL     1      27.711 -10.163 -12.657  1.00  0.00    -0.020 C 
HETATM   57  C14 UNL     1      28.731  -9.749 -13.660  1.00  0.00     0.009 C 
HETATM   58  C15 UNL     1      28.435 -10.228 -11.304  1.00  0.00     0.009 C 
ENDBRANCH  55  56
ENDBRANCH  10  55
TORSDOF 16
ENDMDL
MODEL 3
REMARK VINA RESULT: -5.259039720      1.067      1.156
REMARK  16 active torsions:
REMARK  status: ('A' for Active; 'I' for Inactive)
REMARK    1  A    between atoms: C2_2  and  C3_3 
REMARK    2  A    between atoms: C3_3  and  C4_4 
REMARK    3  A    between atoms: C6_9  and  C7_10 
REMARK    4  A    between atoms: C10_15  and  O2_16 
REMARK    5  A    between atoms: C11_18  and  C12_19 
REMARK    6  A    between atoms: C12_19  and  C13_20 
REMARK    7  A    between atoms: C16_25  and  C17_26 
REMARK    8  A    between atoms: C17_26  and  C18_27 
REMARK    9  A    between atoms: C18_27  and  C19_28 
REMARK   10  A    between atoms: C19_28  and  C20_29 
REMARK   11  A    between atoms: C25_37  and  N5_38 
REMARK   12  A    between atoms: C30_46  and  C31_47 
REMARK   13  A    between atoms: C31_47  and  C32_48 
REMARK   14  A    between atoms: C32_48  and  C33_49 
REMARK   15  A    between atoms: C33_49  and  C34_50 
REMARK   16  A    between atoms: C34_50  and  N7_51 
ROOT
HETATM    1  C4  UNL     1      21.301  -9.928 -11.622  1.00  0.00     0.180 C 
HETATM    2  N1  UNL     1      21.882 -10.906 -12.539  1.00  0.00    -0.346 N 
ATOM      3  H1  UNL     1      22.272 -10.547 -13.411  1.00  0.00     0.163 HD
HETATM    4  C5  UNL     1      21.956 -12.288 -12.334  1.00  0.00     0.241 C 
HETATM    5  O1  UNL     1      21.460 -13.054 -13.238  1.00  0.00    -0.271 OA
HETATM    6  C6  UNL     1      22.557 -12.965 -11.170  1.00  0.00     0.179 C 
HETATM    7  N2  UNL     1      23.986 -12.801 -11.056  1.00  0.00    -0.359 N 
ATOM      8  H2  UNL     1      24.439 -13.530 -10.503  1.00  0.00     0.162 HD
HETATM    9  C10 UNL     1      24.860 -11.853 -11.546  1.00  0.00     0.135 C 
HETATM   10  C11 UNL     1      25.329 -11.548 -12.919  1.00  0.00     0.152 C 
HETATM   11  N3  UNL     1      25.209 -12.516 -13.907  1.00  0.00    -0.404 N 
ATOM     12  H3  UNL     1      25.539 -13.465 -13.730  1.00  0.00     0.154 HD
HETATM   13  C16 UNL     1      24.628 -12.191 -15.165  1.00  0.00     0.095 C 
HETATM   14  C23 UNL     1      25.227 -11.035 -15.901  1.00  0.00     0.147 C 
HETATM   15  N4  UNL     1      24.783 -11.071 -17.278  1.00  0.00    -0.354 N 
ATOM     16  H4  UNL     1      25.095 -11.880 -17.813  1.00  0.00     0.162 HD
HETATM   17  C24 UNL     1      23.988 -10.157 -17.983  1.00  0.00     0.265 C 
HETATM   18  O3  UNL     1      24.593  -9.573 -18.966  1.00  0.00    -0.266 OA
HETATM   19  C25 UNL     1      22.611  -9.760 -17.800  1.00  0.00     0.092 C 
HETATM   20  C28 UNL     1      21.988  -9.611 -16.431  1.00  0.00     0.185 C 
HETATM   21  N6  UNL     1      20.927 -10.573 -16.240  1.00  0.00    -0.354 N 
ATOM     22  H6  UNL     1      20.986 -11.437 -16.780  1.00  0.00     0.162 HD
HETATM   23  C29 UNL     1      19.818 -10.438 -15.383  1.00  0.00     0.240 C 
HETATM   24  O4  UNL     1      18.880 -11.306 -15.395  1.00  0.00    -0.271 OA
HETATM   25  C30 UNL     1      19.630  -9.326 -14.420  1.00  0.00     0.176 C 
HETATM   26  N8  UNL     1      19.221  -9.851 -13.136  1.00  0.00    -0.346 N 
ATOM     27  H8  UNL     1      18.350 -10.380 -13.131  1.00  0.00     0.163 HD
HETATM   28  C35 UNL     1      19.863  -9.727 -11.906  1.00  0.00     0.241 C 
HETATM   29  O5  UNL     1      19.141  -9.406 -10.899  1.00  0.00    -0.271 OA
ENDROOT
BRANCH  25  30
HETATM   30  C31 UNL     1      18.526  -8.459 -15.020  1.00  0.00     0.035 C 
BRANCH  30  31
HETATM   31  C32 UNL     1      17.849  -7.589 -14.017  1.00  0.00     0.004 C 
BRANCH  31  32
HETATM   32  C33 UNL     1      16.356  -7.881 -13.917  1.00  0.00     0.027 C 
BRANCH  32  33
HETATM   33  C34 UNL     1      15.974  -7.925 -12.431  1.00  0.00     0.229 C 
BRANCH  33  34
HETATM   34  N7  UNL     1      17.077  -7.321 -11.668  1.00  0.00    -0.079 N 
ATOM     35  H73 UNL     1      16.826  -6.423 -11.253  1.00  0.00     0.274 HD
ATOM     36  H72 UNL     1      17.278  -7.818 -10.800  1.00  0.00     0.274 HD
ATOM     37  H71 UNL     1      17.885  -7.259 -12.287  1.00  0.00     0.274 HD
ENDBRANCH  33  34
ENDBRANCH  32  33
ENDBRANCH  31  32
ENDBRANCH  30  31
ENDBRANCH  25  30
BRANCH   1  38
HETATM   38  C3  UNL     1      22.033  -8.639 -11.621  1.00  0.00     0.061 C 
BRANCH  38  39
HETATM   39  C2  UNL     1      23.018  -8.592 -10.503  1.00  0.00    -0.034 C 
HETATM   40  C1  UNL     1      22.831  -7.776  -9.474  1.00  0.00     0.007 C 
ENDBRANCH  38  39
ENDBRANCH   1  38
BRANCH  19  41
HETATM   41  N5  UNL     1      21.792  -9.503 -18.781  1.00  0.00    -0.387 N 
HETATM   42  C26 UNL     1      21.166  -8.210 -18.989  1.00  0.00     0.149 C 
HETATM   43  C27 UNL     1      21.489 -10.580 -19.704  1.00  0.00     0.149 C 
ENDBRANCH  19  41
BRANCH   6  44
HETATM   44  C7  UNL     1      22.113 -14.403 -11.064  1.00  0.00     0.009 C 
HETATM   45  C8  UNL     1      23.141 -15.413 -11.424  1.00  0.00     0.012 C 
HETATM   46  C9  UNL     1      21.730 -14.625  -9.597  1.00  0.00     0.012 C 
ENDBRANCH   6  44
BRANCH  13  47
HETATM   47  C17 UNL     1      24.434 -13.431 -15.990  1.00  0.00     0.026 C 
BRANCH  47  48
HETATM   48  C18 UNL     1      24.337 -14.702 -15.216  1.00  0.00     0.002 C 
BRANCH  48  49
HETATM   49  C19 UNL     1      22.888 -15.187 -15.372  1.00  0.00     0.004 C 
BRANCH  49  50
HETATM   50  C20 UNL     1      22.334 -14.804 -16.719  1.00  0.00    -0.023 C 
HETATM   51  C21 UNL     1      22.201 -16.097 -17.516  1.00  0.00     0.009 C 
HETATM   52  C22 UNL     1      20.906 -14.312 -16.498  1.00  0.00     0.009 C 
ENDBRANCH  49  50
ENDBRANCH  48  49
ENDBRANCH  47  48
ENDBRANCH  13  47
BRANCH   9  53
HETATM   53  O2  UNL     1      25.409 -11.044 -10.687  1.00  0.00    -0.348 OA
ATOM     54  H2  UNL     1      25.939 -10.334 -11.031  1.00  0.00     0.219 HD
ENDBRANCH   9  53
BRANCH  10  55
HETATM   55  C12 UNL     1      26.809 -11.136 -12.803  1.00  0.00     0.037 C 
BRANCH  55  56
HETATM   56  C13 UNL     1      27.757 -12.225 -13.156  1.00  0.00    -0.020 C 
HETATM   57  C14 UNL     1      28.730 -11.935 -14.247  1.00  0.00     0.009 C 
HETATM   58  C15 UNL     1      28.591 -12.516 -11.899  1.00  0.00     0.009 C 
ENDBRANCH  55  56
ENDBRANCH  10  55
TORSDOF 16
ENDMDL
MODEL 4
REMARK VINA RESULT: -5.123193193      3.101      7.620
REMARK  16 active torsions:
REMARK  status: ('A' for Active; 'I' for Inactive)
REMARK    1  A    between atoms: C2_2  and  C3_3 
REMARK    2  A    between atoms: C3_3  and  C4_4 
REMARK    3  A    between atoms: C6_9  and  C7_10 
REMARK    4  A    between atoms: C10_15  and  O2_16 
REMARK    5  A    between atoms: C11_18  and  C12_19 
REMARK    6  A    between atoms: C12_19  and  C13_20 
REMARK    7  A    between atoms: C16_25  and  C17_26 
REMARK    8  A    between atoms: C17_26  and  C18_27 
REMARK    9  A    between atoms: C18_27  and  C19_28 
REMARK   10  A    between atoms: C19_28  and  C20_29 
REMARK   11  A    between atoms: C25_37  and  N5_38 
REMARK   12  A    between atoms: C30_46  and  C31_47 
REMARK   13  A    between atoms: C31_47  and  C32_48 
REMARK   14  A    between atoms: C32_48  and  C33_49 
REMARK   15  A    between atoms: C33_49  and  C34_50 
REMARK   16  A    between atoms: C34_50  and  N7_51 
ROOT
HETATM    1  C4  UNL     1      26.247  -9.645 -12.371  1.00  0.00     0.180 C 
HETATM    2  N1  UNL     1      25.159 -10.396 -11.751  1.00  0.00    -0.346 N 
ATOM      3  H1  UNL     1      24.213 -10.040 -11.892  1.00  0.00     0.163 HD
HETATM    4  C5  UNL     1      25.290 -11.558 -10.982  1.00  0.00     0.241 C 
HETATM    5  O1  UNL     1      24.775 -11.557  -9.804  1.00  0.00    -0.271 OA
HETATM    6  C6  UNL     1      25.966 -12.802 -11.392  1.00  0.00     0.179 C 
HETATM    7  N2  UNL     1      25.318 -13.506 -12.472  1.00  0.00    -0.359 N 
ATOM      8  H2  UNL     1      25.549 -14.499 -12.511  1.00  0.00     0.162 HD
HETATM    9  C10 UNL     1      24.447 -13.101 -13.462  1.00  0.00     0.135 C 
HETATM   10  C11 UNL     1      23.032 -12.659 -13.423  1.00  0.00     0.152 C 
HETATM   11  N3  UNL     1      22.249 -12.991 -12.326  1.00  0.00    -0.404 N 
ATOM     12  H3  UNL     1      22.223 -13.955 -11.994  1.00  0.00     0.154 HD
HETATM   13  C16 UNL     1      21.481 -11.993 -11.663  1.00  0.00     0.095 C 
HETATM   14  C23 UNL     1      20.545 -11.194 -12.511  1.00  0.00     0.147 C 
HETATM   15  N4  UNL     1      19.602 -10.505 -11.656  1.00  0.00    -0.354 N 
ATOM     16  H4  UNL     1      18.979 -11.109 -11.122  1.00  0.00     0.162 HD
HETATM   17  C24 UNL     1      19.419  -9.130 -11.455  1.00  0.00     0.265 C 
HETATM   18  O3  UNL     1      18.267  -8.684 -11.839  1.00  0.00    -0.266 OA
HETATM   19  C25 UNL     1      20.296  -8.130 -10.891  1.00  0.00     0.092 C 
HETATM   20  C28 UNL     1      21.789  -8.140 -11.123  1.00  0.00     0.185 C 
HETATM   21  N6  UNL     1      22.503  -8.350  -9.884  1.00  0.00    -0.354 N 
ATOM     22  H6  UNL     1      22.008  -8.855  -9.149  1.00  0.00     0.162 HD
HETATM   23  C29 UNL     1      23.814  -7.927  -9.591  1.00  0.00     0.240 C 
HETATM   24  O4  UNL     1      24.289  -8.065  -8.413  1.00  0.00    -0.271 OA
HETATM   25  C30 UNL     1      24.737  -7.308 -10.572  1.00  0.00     0.176 C 
HETATM   26  N8  UNL     1      26.043  -7.920 -10.472  1.00  0.00    -0.346 N 
ATOM     27  H8  UNL     1      26.501  -7.842  -9.565  1.00  0.00     0.163 HD
HETATM   28  C35 UNL     1      26.757  -8.601 -11.455  1.00  0.00     0.241 C 
HETATM   29  O5  UNL     1      27.995  -8.302 -11.593  1.00  0.00    -0.271 OA
ENDROOT
BRANCH  25  30
HETATM   30  C31 UNL     1      24.805  -5.834 -10.181  1.00  0.00     0.035 C 
BRANCH  30  31
HETATM   31  C32 UNL     1      26.168  -5.397  -9.763  1.00  0.00     0.004 C 
BRANCH  31  32
HETATM   32  C33 UNL     1      26.188  -4.864  -8.334  1.00  0.00     0.027 C 
BRANCH  32  33
HETATM   33  C34 UNL     1      27.196  -5.694  -7.527  1.00  0.00     0.229 C 
BRANCH  33  34
HETATM   34  N7  UNL     1      26.474  -6.841  -6.955  1.00  0.00    -0.079 N 
ATOM     35  H73 UNL     1      26.818  -7.104  -6.031  1.00  0.00     0.274 HD
ATOM     36  H72 UNL     1      25.518  -6.612  -6.682  1.00  0.00     0.274 HD
ATOM     37  H71 UNL     1      26.522  -7.606  -7.629  1.00  0.00     0.274 HD
ENDBRANCH  33  34
ENDBRANCH  32  33
ENDBRANCH  31  32
ENDBRANCH  30  31
ENDBRANCH  25  30
BRANCH   1  38
HETATM   38  C3  UNL     1      25.871  -9.070 -13.684  1.00  0.00     0.061 C 
BRANCH  38  39
HETATM   39  C2  UNL     1      24.523  -9.549 -14.104  1.00  0.00    -0.034 C 
HETATM   40  C1  UNL     1      24.170  -9.532 -15.383  1.00  0.00     0.007 C 
ENDBRANCH  38  39
ENDBRANCH   1  38
BRANCH  19  41
HETATM   41  N5  UNL     1      19.888  -7.147 -10.138  1.00  0.00    -0.387 N 
HETATM   42  C26 UNL     1      19.123  -7.332  -8.918  1.00  0.00     0.149 C 
HETATM   43  C27 UNL     1      20.212  -5.798 -10.559  1.00  0.00     0.149 C 
ENDBRANCH  19  41
BRANCH   6  44
HETATM   44  C7  UNL     1      26.283 -13.686 -10.212  1.00  0.00     0.009 C 
HETATM   45  C8  UNL     1      25.507 -14.951 -10.138  1.00  0.00     0.012 C 
HETATM   46  C9  UNL     1      27.766 -14.052 -10.337  1.00  0.00     0.012 C 
ENDBRANCH   6  44
BRANCH  13  47
HETATM   47  C17 UNL     1      20.873 -12.546 -10.405  1.00  0.00     0.026 C 
BRANCH  47  48
HETATM   48  C18 UNL     1      21.650 -13.638  -9.750  1.00  0.00     0.002 C 
BRANCH  48  49
HETATM   49  C19 UNL     1      20.807 -14.105  -8.554  1.00  0.00     0.004 C 
BRANCH  49  50
HETATM   50  C20 UNL     1      21.543 -15.143  -7.750  1.00  0.00    -0.023 C 
HETATM   51  C21 UNL     1      22.920 -14.561  -7.447  1.00  0.00     0.009 C 
HETATM   52  C22 UNL     1      20.840 -15.251  -6.399  1.00  0.00     0.009 C 
ENDBRANCH  49  50
ENDBRANCH  48  49
ENDBRANCH  47  48
ENDBRANCH  13  47
BRANCH   9  53
HETATM   53  O2  UNL     1      24.896 -13.083 -14.684  1.00  0.00    -0.348 OA
ATOM     54  H2  UNL     1      24.677 -13.820 -15.241  1.00  0.00     0.219 HD
ENDBRANCH   9  53
BRANCH  10  55
HETATM   55  C12 UNL     1      22.360 -13.203 -14.697  1.00  0.00     0.037 C 
BRANCH  55  56
HETATM   56  C13 UNL     1      21.873 -12.138 -15.613  1.00  0.00    -0.020 C 
HETATM   57  C14 UNL     1      22.417 -12.152 -17.000  1.00  0.00     0.009 C 
HETATM   58  C15 UNL     1      20.354 -12.320 -15.743  1.00  0.00     0.009 C 
ENDBRANCH  55  56
ENDBRANCH  10  55
TORSDOF 16
ENDMDL
MODEL 5
REMARK VINA RESULT: -5.058833667      0.945      1.134
REMARK  16 active torsions:
REMARK  status: ('A' for Active; 'I' for Inactive)
REMARK    1  A    between atoms: C2_2  and  C3_3 
REMARK    2  A    between atoms: C3_3  and  C4_4 
REMARK    3  A    between atoms: C6_9  and  C7_10 
REMARK    4  A    between atoms: C10_15  and  O2_16 
REMARK    5  A    between atoms: C11_18  and  C12_19 
REMARK    6  A    between atoms: C12_19  and  C13_20 
REMARK    7  A    between atoms: C16_25  and  C17_26 
REMARK    8  A    between atoms: C17_26  and  C18_27 
REMARK    9  A    between atoms: C18_27  and  C19_28 
REMARK   10  A    between atoms: C19_28  and  C20_29 
REMARK   11  A    between atoms: C25_37  and  N5_38 
REMARK   12  A    between atoms: C30_46  and  C31_47 
REMARK   13  A    between atoms: C31_47  and  C32_48 
REMARK   14  A    between atoms: C32_48  and  C33_49 
REMARK   15  A    between atoms: C33_49  and  C34_50 
REMARK   16  A    between atoms: C34_50  and  N7_51 
ROOT
HETATM    1  C4  UNL     1      21.276  -9.944 -11.806  1.00  0.00     0.180 C 
HETATM    2  N1  UNL     1      21.893 -10.891 -12.732  1.00  0.00    -0.346 N 
ATOM      3  H1  UNL     1      22.285 -10.507 -13.592  1.00  0.00     0.163 HD
HETATM    4  C5  UNL     1      21.998 -12.274 -12.552  1.00  0.00     0.241 C 
HETATM    5  O1  UNL     1      21.532 -13.035 -13.477  1.00  0.00    -0.271 OA
HETATM    6  C6  UNL     1      22.599 -12.959 -11.392  1.00  0.00     0.179 C 
HETATM    7  N2  UNL     1      24.022 -12.762 -11.255  1.00  0.00    -0.359 N 
ATOM      8  H2  UNL     1      24.485 -13.490 -10.710  1.00  0.00     0.162 HD
HETATM    9  C10 UNL     1      24.879 -11.784 -11.715  1.00  0.00     0.135 C 
HETATM   10  C11 UNL     1      25.359 -11.442 -13.076  1.00  0.00     0.152 C 
HETATM   11  N3  UNL     1      25.276 -12.394 -14.083  1.00  0.00    -0.404 N 
ATOM     12  H3  UNL     1      25.627 -13.338 -13.919  1.00  0.00     0.154 HD
HETATM   13  C16 UNL     1      24.704 -12.060 -15.343  1.00  0.00     0.095 C 
HETATM   14  C23 UNL     1      25.284 -10.877 -16.049  1.00  0.00     0.147 C 
HETATM   15  N4  UNL     1      24.860 -10.898 -17.432  1.00  0.00    -0.354 N 
ATOM     16  H4  UNL     1      25.199 -11.689 -17.979  1.00  0.00     0.162 HD
HETATM   17  C24 UNL     1      24.052  -9.990 -18.132  1.00  0.00     0.265 C 
HETATM   18  O3  UNL     1      24.656  -9.374 -19.096  1.00  0.00    -0.266 OA
HETATM   19  C25 UNL     1      22.664  -9.630 -17.960  1.00  0.00     0.092 C 
HETATM   20  C28 UNL     1      22.019  -9.522 -16.598  1.00  0.00     0.185 C 
HETATM   21  N6  UNL     1      20.979 -10.512 -16.440  1.00  0.00    -0.354 N 
ATOM     22  H6  UNL     1      21.067 -11.364 -16.994  1.00  0.00     0.162 HD
HETATM   23  C29 UNL     1      19.856 -10.419 -15.595  1.00  0.00     0.240 C 
HETATM   24  O4  UNL     1      18.940 -11.309 -15.636  1.00  0.00    -0.271 OA
HETATM   25  C30 UNL     1      19.628  -9.331 -14.615  1.00  0.00     0.176 C 
HETATM   26  N8  UNL     1      19.215  -9.889 -13.347  1.00  0.00    -0.346 N 
ATOM     27  H8  UNL     1      18.357 -10.439 -13.363  1.00  0.00     0.163 HD
HETATM   28  C35 UNL     1      19.837  -9.773 -12.106  1.00  0.00     0.241 C 
HETATM   29  O5  UNL     1      19.094  -9.488 -11.103  1.00  0.00    -0.271 OA
ENDROOT
BRANCH  25  30
HETATM   30  C31 UNL     1      18.512  -8.480 -15.214  1.00  0.00     0.035 C 
BRANCH  30  31
HETATM   31  C32 UNL     1      17.580  -7.926 -14.191  1.00  0.00     0.004 C 
BRANCH  31  32
HETATM   32  C33 UNL     1      16.133  -7.923 -14.674  1.00  0.00     0.027 C 
BRANCH  32  33
HETATM   33  C34 UNL     1      15.910  -9.178 -15.529  1.00  0.00     0.229 C 
BRANCH  33  34
HETATM   34  N7  UNL     1      15.085 -10.112 -14.747  1.00  0.00    -0.079 N 
ATOM     35  H73 UNL     1      15.338 -10.132 -13.759  1.00  0.00     0.274 HD
ATOM     36  H72 UNL     1      14.123  -9.791 -14.633  1.00  0.00     0.274 HD
ATOM     37  H71 UNL     1      15.148 -11.028 -15.190  1.00  0.00     0.274 HD
ENDBRANCH  33  34
ENDBRANCH  32  33
ENDBRANCH  31  32
ENDBRANCH  30  31
ENDBRANCH  25  30
BRANCH   1  38
HETATM   38  C3  UNL     1      21.977  -8.639 -11.771  1.00  0.00     0.061 C 
BRANCH  38  39
HETATM   39  C2  UNL     1      22.854  -8.542 -10.570  1.00  0.00    -0.034 C 
HETATM   40  C1  UNL     1      22.408  -7.984  -9.452  1.00  0.00     0.007 C 
ENDBRANCH  38  39
ENDBRANCH   1  38
BRANCH  19  41
HETATM   41  N5  UNL     1      21.853  -9.375 -18.948  1.00  0.00    -0.387 N 
HETATM   42  C26 UNL     1      21.200  -8.092 -19.143  1.00  0.00     0.149 C 
HETATM   43  C27 UNL     1      21.585 -10.442 -19.893  1.00  0.00     0.149 C 
ENDBRANCH  19  41
BRANCH   6  44
HETATM   44  C7  UNL     1      22.189 -14.408 -11.318  1.00  0.00     0.009 C 
HETATM   45  C8  UNL     1      23.223 -15.384 -11.748  1.00  0.00     0.012 C 
HETATM   46  C9  UNL     1      21.863 -14.687  -9.847  1.00  0.00     0.012 C 
ENDBRANCH   6  44
BRANCH  13  47
HETATM   47  C17 UNL     1      24.551 -13.289 -16.193  1.00  0.00     0.026 C 
BRANCH  47  48
HETATM   48  C18 UNL     1      24.512 -14.579 -15.447  1.00  0.00     0.002 C 
BRANCH  48  49
HETATM   49  C19 UNL     1      23.151 -15.215 -15.762  1.00  0.00     0.004 C 
BRANCH  49  50
HETATM   50  C20 UNL     1      23.296 -16.689 -16.038  1.00  0.00    -0.023 C 
HETATM   51  C21 UNL     1      24.079 -16.810 -17.342  1.00  0.00     0.009 C 
HETATM   52  C22 UNL     1      24.210 -17.263 -14.959  1.00  0.00     0.009 C 
ENDBRANCH  49  50
ENDBRANCH  48  49
ENDBRANCH  47  48
ENDBRANCH  13  47
BRANCH   9  53
HETATM   53  O2  UNL     1      25.397 -10.978 -10.834  1.00  0.00    -0.348 OA
ATOM     54  H2  UNL     1      25.910 -10.247 -11.158  1.00  0.00     0.219 HD
ENDBRANCH   9  53
BRANCH  10  55
HETATM   55  C12 UNL     1      26.827 -10.997 -12.932  1.00  0.00     0.037 C 
BRANCH  55  56
HETATM   56  C13 UNL     1      27.806 -12.049 -13.313  1.00  0.00    -0.020 C 
HETATM   57  C14 UNL     1      28.819 -11.677 -14.340  1.00  0.00     0.009 C 
HETATM   58  C15 UNL     1      28.590 -12.410 -12.043  1.00  0.00     0.009 C 
ENDBRANCH  55  56
ENDBRANCH  10  55
TORSDOF 16
ENDMDL
