MODEL 1
REMARK VINA RESULT: -7.376043314      0.000      0.000
REMARK  11 active torsions:
REMARK  status: ('A' for Active; 'I' for Inactive)
REMARK    1  A    between atoms: O1_2  and  C2_3 
REMARK    2  A    between atoms: C2_3  and  C3_5 
REMARK    3  A    between atoms: C3_5  and  N1_6 
REMARK    4  A    between atoms: C3_5  and  C19_29 
REMARK       I    between atoms: N1_6  and  C4_8 
REMARK    5  A    between atoms: C4_8  and  C5_10 
REMARK    6  A    between atoms: C5_10  and  C6_11 
REMARK    7  A    between atoms: C5_10  and  N3_24 
REMARK    8  A    between atoms: C6_11  and  N2_12 
REMARK    9  A    between atoms: N2_12  and  C7_14 
REMARK   10  A    between atoms: C7_14  and  C10_17 
REMARK   11  A    between atoms: C10_17  and  C11_18 
REMARK       I    between atoms: N3_24  and  C17_26 
ROOT
HETATM    1  C5  UNL     1       9.907  41.204  -2.427  1.00  0.00     0.194 C 
ENDROOT
BRANCH   1   2
HETATM    2  C4  UNL     1       8.773  40.932  -3.295  1.00  0.00     0.242 C 
HETATM    3  N1  UNL     1       7.413  40.904  -2.947  1.00  0.00    -0.345 N 
ATOM      4  H1  UNL     1       7.169  41.088  -1.974  1.00  0.00     0.163 HD
HETATM    5  O3  UNL     1       9.060  40.688  -4.530  1.00  0.00    -0.271 OA
BRANCH   3   6
HETATM    6  C3  UNL     1       6.342  40.637  -3.866  1.00  0.00     0.187 C 
BRANCH   6   7
HETATM    7  C2  UNL     1       5.338  41.719  -3.869  1.00  0.00     0.281 C 
HETATM    8  O2  UNL     1       5.515  42.682  -3.058  1.00  0.00    -0.263 OA
BRANCH   7   9
HETATM    9  O1  UNL     1       4.230  41.758  -4.685  1.00  0.00    -0.325 OA
HETATM   10  C1  UNL     1       2.950  41.557  -4.103  1.00  0.00     0.213 C 
ENDBRANCH   7   9
ENDBRANCH   6   7
BRANCH   6  11
HETATM   11  C19 UNL     1       5.563  39.383  -3.442  1.00  0.00     0.010 C 
HETATM   12  C20 UNL     1       6.328  38.136  -3.762  1.00  0.00     0.012 C 
HETATM   13  C21 UNL     1       5.206  39.412  -1.984  1.00  0.00     0.012 C 
ENDBRANCH   6  11
ENDBRANCH   3   6
ENDBRANCH   1   2
BRANCH   1  14
HETATM   14  C6  UNL     1      10.860  42.282  -2.949  1.00  0.00     0.149 C 
BRANCH  14  15
HETATM   15  N2  UNL     1      11.903  41.706  -3.712  1.00  0.00    -0.411 N 
ATOM     16  H2  UNL     1      11.709  41.040  -4.461  1.00  0.00     0.154 HD
BRANCH  15  17
HETATM   17  C7  UNL     1      13.254  42.101  -3.386  1.00  0.00     0.018 C 
HETATM   18  C8  UNL     1      14.319  41.252  -3.981  1.00  0.00     0.037 C 
HETATM   19  C9  UNL     1      13.387  43.467  -4.118  1.00  0.00     0.037 C 
BRANCH  17  20
HETATM   20  C10 UNL     1      13.344  42.367  -1.934  1.00  0.00     0.034 C 
BRANCH  20  21
HETATM   21  C11 UNL     1      13.975  41.368  -1.050  1.00  0.00    -0.012 C 
HETATM   22  C12 UNL     1      15.105  41.783  -0.183  1.00  0.00     0.005 C 
HETATM   23  C13 UNL     1      15.128  41.009   1.134  1.00  0.00     0.000 C 
HETATM   24  C14 UNL     1      14.666  39.582   0.928  1.00  0.00     0.000 C 
HETATM   25  C15 UNL     1      13.219  39.555   0.486  1.00  0.00     0.000 C 
HETATM   26  C16 UNL     1      12.868  40.883  -0.091  1.00  0.00     0.005 C 
ENDBRANCH  20  21
ENDBRANCH  17  20
ENDBRANCH  15  17
ENDBRANCH  14  15
ENDBRANCH   1  14
BRANCH   1  27
HETATM   27  N3  UNL     1       9.531  41.495  -1.069  1.00  0.00    -0.347 N 
HETATM   28  C17 UNL     1       9.346  40.539  -0.051  1.00  0.00     0.214 C 
HETATM   29  C18 UNL     1       8.962  40.968   1.323  1.00  0.00     0.117 C 
HETATM   30  O4  UNL     1       9.499  39.287  -0.251  1.00  0.00    -0.274 OA
ATOM     31  H3  UNL     1       9.386  42.474  -0.824  1.00  0.00     0.163 HD
ENDBRANCH   1  27
TORSDOF 11
ENDMDL
MODEL 2
REMARK VINA RESULT: -7.273813986      2.293      4.222
REMARK  11 active torsions:
REMARK  status: ('A' for Active; 'I' for Inactive)
REMARK    1  A    between atoms: O1_2  and  C2_3 
REMARK    2  A    between atoms: C2_3  and  C3_5 
REMARK    3  A    between atoms: C3_5  and  N1_6 
REMARK    4  A    between atoms: C3_5  and  C19_29 
REMARK       I    between atoms: N1_6  and  C4_8 
REMARK    5  A    between atoms: C4_8  and  C5_10 
REMARK    6  A    between atoms: C5_10  and  C6_11 
REMARK    7  A    between atoms: C5_10  and  N3_24 
REMARK    8  A    between atoms: C6_11  and  N2_12 
REMARK    9  A    between atoms: N2_12  and  C7_14 
REMARK   10  A    between atoms: C7_14  and  C10_17 
REMARK   11  A    between atoms: C10_17  and  C11_18 
REMARK       I    between atoms: N3_24  and  C17_26 
ROOT
HETATM    1  C5  UNL     1       9.890  40.482  -0.235  1.00  0.00     0.194 C 
ENDROOT
BRANCH   1   2
HETATM    2  C4  UNL     1       9.760  40.831  -1.641  1.00  0.00     0.242 C 
HETATM    3  N1  UNL     1       9.276  42.031  -2.186  1.00  0.00    -0.345 N 
ATOM      4  H1  UNL     1       8.966  42.755  -1.538  1.00  0.00     0.163 HD
HETATM    5  O3  UNL     1      10.137  39.924  -2.478  1.00  0.00    -0.271 OA
BRANCH   3   6
HETATM    6  C3  UNL     1       9.186  42.309  -3.593  1.00  0.00     0.187 C 
BRANCH   6   7
HETATM    7  C2  UNL     1       9.515  43.715  -3.897  1.00  0.00     0.281 C 
HETATM    8  O2  UNL     1       8.828  44.295  -4.796  1.00  0.00    -0.263 OA
BRANCH   7   9
HETATM    9  O1  UNL     1      10.509  44.439  -3.278  1.00  0.00    -0.325 OA
HETATM   10  C1  UNL     1      11.841  44.315  -3.758  1.00  0.00     0.213 C 
ENDBRANCH   7   9
ENDBRANCH   6   7
BRANCH   6  11
HETATM   11  C19 UNL     1       7.744  42.129  -4.091  1.00  0.00     0.010 C 
HETATM   12  C20 UNL     1       7.572  40.814  -4.788  1.00  0.00     0.012 C 
HETATM   13  C21 UNL     1       6.746  42.260  -2.977  1.00  0.00     0.012 C 
ENDBRANCH   6  11
ENDBRANCH   3   6
ENDBRANCH   1   2
BRANCH   1  14
HETATM   14  C6  UNL     1      11.179  40.978   0.424  1.00  0.00     0.149 C 
BRANCH  14  15
HETATM   15  N2  UNL     1      11.988  39.890   0.829  1.00  0.00    -0.411 N 
ATOM     16  H2  UNL     1      11.607  39.120   1.379  1.00  0.00     0.154 HD
BRANCH  15  17
HETATM   17  C7  UNL     1      13.376  39.918   0.430  1.00  0.00     0.018 C 
HETATM   18  C8  UNL     1      14.351  40.012   1.549  1.00  0.00     0.037 C 
HETATM   19  C9  UNL     1      13.584  38.490  -0.150  1.00  0.00     0.037 C 
BRANCH  17  20
HETATM   20  C10 UNL     1      13.542  40.876  -0.684  1.00  0.00     0.034 C 
BRANCH  20  21
HETATM   21  C11 UNL     1      14.115  40.413  -1.962  1.00  0.00    -0.012 C 
HETATM   22  C12 UNL     1      13.396  40.711  -3.225  1.00  0.00     0.005 C 
HETATM   23  C13 UNL     1      14.357  40.914  -4.395  1.00  0.00     0.000 C 
HETATM   24  C14 UNL     1      15.558  40.001  -4.270  1.00  0.00     0.000 C 
HETATM   25  C15 UNL     1      16.364  40.354  -3.039  1.00  0.00     0.000 C 
HETATM   26  C16 UNL     1      15.490  41.102  -2.091  1.00  0.00     0.005 C 
ENDBRANCH  20  21
ENDBRANCH  17  20
ENDBRANCH  15  17
ENDBRANCH  14  15
ENDBRANCH   1  14
BRANCH   1  27
HETATM   27  N3  UNL     1       8.752  40.869   0.557  1.00  0.00    -0.347 N 
HETATM   28  C17 UNL     1       8.380  40.289   1.786  1.00  0.00     0.214 C 
HETATM   29  C18 UNL     1       7.180  40.783   2.518  1.00  0.00     0.117 C 
HETATM   30  O4  UNL     1       9.040  39.336   2.323  1.00  0.00    -0.274 OA
ATOM     31  H3  UNL     1       8.167  41.623   0.199  1.00  0.00     0.163 HD
ENDBRANCH   1  27
TORSDOF 11
ENDMDL
MODEL 3
REMARK VINA RESULT: -7.210682398      1.941      3.559
REMARK  11 active torsions:
REMARK  status: ('A' for Active; 'I' for Inactive)
REMARK    1  A    between atoms: O1_2  and  C2_3 
REMARK    2  A    between atoms: C2_3  and  C3_5 
REMARK    3  A    between atoms: C3_5  and  N1_6 
REMARK    4  A    between atoms: C3_5  and  C19_29 
REMARK       I    between atoms: N1_6  and  C4_8 
REMARK    5  A    between atoms: C4_8  and  C5_10 
REMARK    6  A    between atoms: C5_10  and  C6_11 
REMARK    7  A    between atoms: C5_10  and  N3_24 
REMARK    8  A    between atoms: C6_11  and  N2_12 
REMARK    9  A    between atoms: N2_12  and  C7_14 
REMARK   10  A    between atoms: C7_14  and  C10_17 
REMARK   11  A    between atoms: C10_17  and  C11_18 
REMARK       I    between atoms: N3_24  and  C17_26 
ROOT
HETATM    1  C5  UNL     1      11.560  41.926  -2.599  1.00  0.00     0.194 C 
ENDROOT
BRANCH   1   2
HETATM    2  C4  UNL     1      10.220  41.419  -2.847  1.00  0.00     0.242 C 
HETATM    3  N1  UNL     1       9.047  41.708  -2.131  1.00  0.00    -0.345 N 
ATOM      4  H1  UNL     1       9.122  42.341  -1.335  1.00  0.00     0.163 HD
HETATM    5  O3  UNL     1      10.106  40.609  -3.845  1.00  0.00    -0.271 OA
BRANCH   3   6
HETATM    6  C3  UNL     1       7.750  41.175  -2.443  1.00  0.00     0.187 C 
BRANCH   6   7
HETATM    7  C2  UNL     1       6.878  42.185  -3.073  1.00  0.00     0.281 C 
HETATM    8  O2  UNL     1       7.423  43.265  -3.464  1.00  0.00    -0.263 OA
BRANCH   7   9
HETATM    9  O1  UNL     1       5.522  42.041  -3.266  1.00  0.00    -0.325 OA
HETATM   10  C1  UNL     1       5.067  41.448  -4.474  1.00  0.00     0.213 C 
ENDBRANCH   7   9
ENDBRANCH   6   7
BRANCH   6  11
HETATM   11  C19 UNL     1       7.010  40.764  -1.162  1.00  0.00     0.010 C 
HETATM   12  C20 UNL     1       6.406  39.400  -1.299  1.00  0.00     0.012 C 
HETATM   13  C21 UNL     1       7.904  40.815   0.043  1.00  0.00     0.012 C 
ENDBRANCH   6  11
ENDBRANCH   3   6
ENDBRANCH   1   2
BRANCH   1  14
HETATM   14  C6  UNL     1      12.458  40.976  -1.803  1.00  0.00     0.149 C 
BRANCH  14  15
HETATM   15  N2  UNL     1      13.187  41.682  -0.816  1.00  0.00    -0.411 N 
ATOM     16  H2  UNL     1      12.771  42.458  -0.302  1.00  0.00     0.154 HD
BRANCH  15  17
HETATM   17  C7  UNL     1      14.545  41.254  -0.568  1.00  0.00     0.018 C 
HETATM   18  C8  UNL     1      15.101  40.312  -1.574  1.00  0.00     0.037 C 
HETATM   19  C9  UNL     1      15.350  42.568  -0.774  1.00  0.00     0.037 C 
BRANCH  17  20
HETATM   20  C10 UNL     1      14.681  40.870   0.853  1.00  0.00     0.034 C 
BRANCH  20  21
HETATM   21  C11 UNL     1      15.032  39.480   1.201  1.00  0.00    -0.012 C 
HETATM   22  C12 UNL     1      15.770  39.216   2.460  1.00  0.00     0.005 C 
HETATM   23  C13 UNL     1      15.390  37.869   3.073  1.00  0.00     0.000 C 
HETATM   24  C14 UNL     1      15.114  36.845   1.993  1.00  0.00     0.000 C 
HETATM   25  C15 UNL     1      13.909  37.253   1.174  1.00  0.00     0.000 C 
HETATM   26  C16 UNL     1      13.696  38.720   1.332  1.00  0.00     0.005 C 
ENDBRANCH  20  21
ENDBRANCH  17  20
ENDBRANCH  15  17
ENDBRANCH  14  15
ENDBRANCH   1  14
BRANCH   1  27
HETATM   27  N3  UNL     1      12.238  42.359  -3.792  1.00  0.00    -0.347 N 
HETATM   28  C17 UNL     1      13.087  43.480  -3.886  1.00  0.00     0.214 C 
HETATM   29  C18 UNL     1      13.739  43.824  -5.180  1.00  0.00     0.117 C 
HETATM   30  O4  UNL     1      13.335  44.238  -2.888  1.00  0.00    -0.274 OA
ATOM     31  H3  UNL     1      12.093  41.810  -4.639  1.00  0.00     0.163 HD
ENDBRANCH   1  27
TORSDOF 11
ENDMDL
MODEL 4
REMARK VINA RESULT: -7.208552006      1.626      2.983
REMARK  11 active torsions:
REMARK  status: ('A' for Active; 'I' for Inactive)
REMARK    1  A    between atoms: O1_2  and  C2_3 
REMARK    2  A    between atoms: C2_3  and  C3_5 
REMARK    3  A    between atoms: C3_5  and  N1_6 
REMARK    4  A    between atoms: C3_5  and  C19_29 
REMARK       I    between atoms: N1_6  and  C4_8 
REMARK    5  A    between atoms: C4_8  and  C5_10 
REMARK    6  A    between atoms: C5_10  and  C6_11 
REMARK    7  A    between atoms: C5_10  and  N3_24 
REMARK    8  A    between atoms: C6_11  and  N2_12 
REMARK    9  A    between atoms: N2_12  and  C7_14 
REMARK   10  A    between atoms: C7_14  and  C10_17 
REMARK   11  A    between atoms: C10_17  and  C11_18 
REMARK       I    between atoms: N3_24  and  C17_26 
ROOT
HETATM    1  C5  UNL     1      10.250  41.901  -2.638  1.00  0.00     0.194 C 
ENDROOT
BRANCH   1   2
HETATM    2  C4  UNL     1       9.083  41.373  -3.325  1.00  0.00     0.242 C 
HETATM    3  N1  UNL     1       7.739  41.470  -2.931  1.00  0.00    -0.345 N 
ATOM      4  H1  UNL     1       7.534  41.959  -2.060  1.00  0.00     0.163 HD
HETATM    5  O3  UNL     1       9.320  40.743  -4.426  1.00  0.00    -0.271 OA
BRANCH   3   6
HETATM    6  C3  UNL     1       6.632  40.930  -3.670  1.00  0.00     0.187 C 
BRANCH   6   7
HETATM    7  C2  UNL     1       5.488  41.861  -3.706  1.00  0.00     0.281 C 
HETATM    8  O2  UNL     1       5.430  42.750  -2.798  1.00  0.00    -0.263 OA
BRANCH   7   9
HETATM    9  O1  UNL     1       4.484  41.837  -4.648  1.00  0.00    -0.325 OA
HETATM   10  C1  UNL     1       3.171  41.488  -4.234  1.00  0.00     0.213 C 
ENDBRANCH   7   9
ENDBRANCH   6   7
BRANCH   6  11
HETATM   11  C19 UNL     1       6.086  39.668  -2.987  1.00  0.00     0.010 C 
HETATM   12  C20 UNL     1       6.368  38.444  -3.804  1.00  0.00     0.012 C 
HETATM   13  C21 UNL     1       6.635  39.501  -1.599  1.00  0.00     0.012 C 
ENDBRANCH   6  11
ENDBRANCH   3   6
ENDBRANCH   1   2
BRANCH   1  14
HETATM   14  C6  UNL     1      10.800  40.992  -1.535  1.00  0.00     0.149 C 
BRANCH  14  15
HETATM   15  N2  UNL     1      11.903  41.598  -0.888  1.00  0.00    -0.411 N 
ATOM     16  H2  UNL     1      11.862  42.562  -0.557  1.00  0.00     0.154 HD
BRANCH  15  17
HETATM   17  C7  UNL     1      13.089  40.791  -0.716  1.00  0.00     0.018 C 
HETATM   18  C8  UNL     1      13.314  39.769  -1.771  1.00  0.00     0.037 C 
HETATM   19  C9  UNL     1      14.230  41.827  -0.925  1.00  0.00     0.037 C 
BRANCH  17  20
HETATM   20  C10 UNL     1      13.163  40.330   0.687  1.00  0.00     0.034 C 
BRANCH  20  21
HETATM   21  C11 UNL     1      14.086  39.236   1.045  1.00  0.00    -0.012 C 
HETATM   22  C12 UNL     1      15.103  39.467   2.100  1.00  0.00     0.005 C 
HETATM   23  C13 UNL     1      15.405  38.196   2.892  1.00  0.00     0.000 C 
HETATM   24  C14 UNL     1      15.338  36.977   1.997  1.00  0.00     0.000 C 
HETATM   25  C15 UNL     1      13.933  36.784   1.471  1.00  0.00     0.000 C 
HETATM   26  C16 UNL     1      13.204  38.081   1.561  1.00  0.00     0.005 C 
ENDBRANCH  20  21
ENDBRANCH  17  20
ENDBRANCH  15  17
ENDBRANCH  14  15
ENDBRANCH   1  14
BRANCH   1  27
HETATM   27  N3  UNL     1      11.312  42.289  -3.529  1.00  0.00    -0.347 N 
HETATM   28  C17 UNL     1      12.045  43.490  -3.449  1.00  0.00     0.214 C 
HETATM   29  C18 UNL     1      13.129  43.777  -4.429  1.00  0.00     0.117 C 
HETATM   30  O4  UNL     1      11.822  44.371  -2.551  1.00  0.00    -0.274 OA
ATOM     31  H3  UNL     1      11.553  41.643  -4.279  1.00  0.00     0.163 HD
ENDBRANCH   1  27
TORSDOF 11
ENDMDL
MODEL 5
REMARK VINA RESULT: -7.189797264      2.378      3.694
REMARK  11 active torsions:
REMARK  status: ('A' for Active; 'I' for Inactive)
REMARK    1  A    between atoms: O1_2  and  C2_3 
REMARK    2  A    between atoms: C2_3  and  C3_5 
REMARK    3  A    between atoms: C3_5  and  N1_6 
REMARK    4  A    between atoms: C3_5  and  C19_29 
REMARK       I    between atoms: N1_6  and  C4_8 
REMARK    5  A    between atoms: C4_8  and  C5_10 
REMARK    6  A    between atoms: C5_10  and  C6_11 
REMARK    7  A    between atoms: C5_10  and  N3_24 
REMARK    8  A    between atoms: C6_11  and  N2_12 
REMARK    9  A    between atoms: N2_12  and  C7_14 
REMARK   10  A    between atoms: C7_14  and  C10_17 
REMARK   11  A    between atoms: C10_17  and  C11_18 
REMARK       I    between atoms: N3_24  and  C17_26 
ROOT
HETATM    1  C5  UNL     1      10.063  40.498  -0.350  1.00  0.00     0.194 C 
ENDROOT
BRANCH   1   2
HETATM    2  C4  UNL     1       9.924  40.883  -1.745  1.00  0.00     0.242 C 
HETATM    3  N1  UNL     1       9.284  42.021  -2.261  1.00  0.00    -0.345 N 
ATOM      4  H1  UNL     1       8.853  42.664  -1.598  1.00  0.00     0.163 HD
HETATM    5  O3  UNL     1      10.454  40.076  -2.602  1.00  0.00    -0.271 OA
BRANCH   3   6
HETATM    6  C3  UNL     1       9.193  42.341  -3.659  1.00  0.00     0.187 C 
BRANCH   6   7
HETATM    7  C2  UNL     1       9.499  43.762  -3.917  1.00  0.00     0.281 C 
HETATM    8  O2  UNL     1       8.840  44.343  -4.836  1.00  0.00    -0.263 OA
BRANCH   7   9
HETATM    9  O1  UNL     1      10.442  44.498  -3.236  1.00  0.00    -0.325 OA
HETATM   10  C1  UNL     1      11.816  44.268  -3.516  1.00  0.00     0.213 C 
ENDBRANCH   7   9
ENDBRANCH   6   7
BRANCH   6  11
HETATM   11  C19 UNL     1       7.757  42.152  -4.168  1.00  0.00     0.010 C 
HETATM   12  C20 UNL     1       7.595  40.829  -4.851  1.00  0.00     0.012 C 
HETATM   13  C21 UNL     1       6.748  42.293  -3.065  1.00  0.00     0.012 C 
ENDBRANCH   6  11
ENDBRANCH   3   6
ENDBRANCH   1   2
BRANCH   1  14
HETATM   14  C6  UNL     1      11.382  40.928   0.297  1.00  0.00     0.149 C 
BRANCH  14  15
HETATM   15  N2  UNL     1      12.301  41.374  -0.683  1.00  0.00    -0.411 N 
ATOM     16  H2  UNL     1      12.024  42.033  -1.411  1.00  0.00     0.154 HD
BRANCH  15  17
HETATM   17  C7  UNL     1      13.648  40.856  -0.606  1.00  0.00     0.018 C 
HETATM   18  C8  UNL     1      13.981  39.817  -1.616  1.00  0.00     0.037 C 
HETATM   19  C9  UNL     1      14.502  42.089  -1.018  1.00  0.00     0.037 C 
BRANCH  17  20
HETATM   20  C10 UNL     1      13.970  40.546   0.803  1.00  0.00     0.034 C 
BRANCH  20  21
HETATM   21  C11 UNL     1      14.607  39.258   1.137  1.00  0.00    -0.012 C 
HETATM   22  C12 UNL     1      15.554  39.196   2.277  1.00  0.00     0.005 C 
HETATM   23  C13 UNL     1      15.511  37.841   2.982  1.00  0.00     0.000 C 
HETATM   24  C14 UNL     1      15.266  36.725   1.990  1.00  0.00     0.000 C 
HETATM   25  C15 UNL     1      13.903  36.875   1.352  1.00  0.00     0.000 C 
HETATM   26  C16 UNL     1      13.459  38.291   1.494  1.00  0.00     0.005 C 
ENDBRANCH  20  21
ENDBRANCH  17  20
ENDBRANCH  15  17
ENDBRANCH  14  15
ENDBRANCH   1  14
BRANCH   1  27
HETATM   27  N3  UNL     1       8.956  40.912   0.471  1.00  0.00    -0.347 N 
HETATM   28  C17 UNL     1       8.541  40.279   1.660  1.00  0.00     0.214 C 
HETATM   29  C18 UNL     1       7.380  40.808   2.428  1.00  0.00     0.117 C 
HETATM   30  O4  UNL     1       9.129  39.246   2.128  1.00  0.00    -0.274 OA
ATOM     31  H3  UNL     1       8.428  41.730   0.168  1.00  0.00     0.163 HD
ENDBRANCH   1  27
TORSDOF 11
ENDMDL
