MODEL 1
REMARK VINA RESULT: -7.765557975      0.000      0.000
REMARK  11 active torsions:
REMARK  status: ('A' for Active; 'I' for Inactive)
REMARK       I    between atoms: N1_2  and  C2_4 
REMARK       I    between atoms: C2_4  and  N2_5 
REMARK       I    between atoms: C2_4  and  N6_24 
REMARK    1  A    between atoms: N2_5  and  C3_7 
REMARK    2  A    between atoms: C3_7  and  C4_8 
REMARK    3  A    between atoms: C4_8  and  C5_9 
REMARK    4  A    between atoms: C5_9  and  C6_10 
REMARK    5  A    between atoms: C6_10  and  C7_11 
REMARK    6  A    between atoms: C7_11  and  C8_12 
REMARK    7  A    between atoms: C8_12  and  C9_13 
REMARK    8  A    between atoms: C9_13  and  N3_14 
REMARK    9  A    between atoms: N3_14  and  C10_16 
REMARK   10  A    between atoms: N6_24  and  C13_26 
REMARK   11  A    between atoms: C13_26  and  C14_27 
ROOT
HETATM    1  C3  UNL     1       8.273  41.169  -4.488  1.00  0.00     0.138 C 
ENDROOT
BRANCH   1   2
HETATM    2  N2  UNL     1       9.626  41.245  -4.023  1.00  0.00    -0.227 N 
HETATM    3  C2  UNL     1      10.109  42.170  -3.053  1.00  0.00     0.669 C 
HETATM    4  N1  UNL     1      10.095  43.417  -3.289  1.00  0.00    -0.231 N 
HETATM    5  N6  UNL     1      10.607  41.627  -1.822  1.00  0.00    -0.226 N 
HETATM    6  C1  UNL     1       9.641  44.094  -4.456  1.00  0.00     0.165 C 
ATOM      7  H1  UNL     1      10.457  44.013  -2.544  1.00  0.00     0.177 HD
ATOM      8  H6  UNL     1      10.087  40.883  -1.357  1.00  0.00     0.177 HD
ATOM      9  H2  UNL     1      10.296  40.584  -4.416  1.00  0.00     0.177 HD
BRANCH   5  10
HETATM   10  C13 UNL     1      11.815  42.107  -1.237  1.00  0.00     0.142 C 
BRANCH  10  11
HETATM   11  C14 UNL     1      13.025  41.904  -2.118  1.00  0.00     0.004 C 
HETATM   12  C15 UNL     1      13.663  43.195  -2.511  1.00  0.00     0.006 C 
HETATM   13  C16 UNL     1      15.150  43.216  -2.226  1.00  0.00     0.000 C 
HETATM   14  C17 UNL     1      15.424  42.891  -0.775  1.00  0.00     0.000 C 
HETATM   15  C18 UNL     1      14.886  41.534  -0.459  1.00  0.00     0.000 C 
HETATM   16  C19 UNL     1      14.020  40.956  -1.541  1.00  0.00     0.006 C 
ENDBRANCH  10  11
ENDBRANCH   5  10
ENDBRANCH   1   2
BRANCH   1  17
HETATM   17  C4  UNL     1       7.256  40.977  -3.373  1.00  0.00     0.020 C 
BRANCH  17  18
HETATM   18  C5  UNL     1       6.160  42.003  -3.530  1.00  0.00     0.002 C 
BRANCH  18  19
HETATM   19  C6  UNL     1       5.131  41.550  -4.544  1.00  0.00     0.000 C 
BRANCH  19  20
HETATM   20  C7  UNL     1       3.742  41.599  -3.982  1.00  0.00     0.002 C 
BRANCH  20  21
HETATM   21  C8  UNL     1       3.786  42.129  -2.583  1.00  0.00     0.020 C 
BRANCH  21  22
HETATM   22  C9  UNL     1       2.922  41.377  -1.614  1.00  0.00     0.121 C 
BRANCH  22  23
HETATM   23  N3  UNL     1       1.727  42.135  -1.263  1.00  0.00    -0.369 N 
ATOM     24  H3  UNL     1       1.769  43.037  -0.788  1.00  0.00     0.161 HD
BRANCH  23  25
HETATM   25  C10 UNL     1       0.596  41.569  -1.603  1.00  0.00     0.161 A 
HETATM   26  N4  UNL     1      -0.644  42.027  -1.388  1.00  0.00    -0.279 N 
HETATM   27  N5  UNL     1      -1.625  41.334  -1.793  1.00  0.00    -0.296 N 
ATOM     28  H4  UNL     1      -0.796  42.915  -0.909  1.00  0.00     0.189 HD
HETATM   29  C11 UNL     1      -1.421  40.182  -2.413  1.00  0.00     0.066 A 
ATOM     30  H5  UNL     1      -2.577  41.665  -1.640  1.00  0.00     0.187 HD
HETATM   31  C12 UNL     1      -2.462  39.233  -2.957  1.00  0.00     0.078 C 
HETATM   32  S1  UNL     1       0.285  40.096  -2.412  1.00  0.00    -0.039 SA
ENDBRANCH  23  25
ENDBRANCH  22  23
ENDBRANCH  21  22
ENDBRANCH  20  21
ENDBRANCH  19  20
ENDBRANCH  18  19
ENDBRANCH  17  18
ENDBRANCH   1  17
TORSDOF 11
ENDMDL
MODEL 2
REMARK VINA RESULT: -7.699228940      2.210      3.720
REMARK  11 active torsions:
REMARK  status: ('A' for Active; 'I' for Inactive)
REMARK       I    between atoms: N1_2  and  C2_4 
REMARK       I    between atoms: C2_4  and  N2_5 
REMARK       I    between atoms: C2_4  and  N6_24 
REMARK    1  A    between atoms: N2_5  and  C3_7 
REMARK    2  A    between atoms: C3_7  and  C4_8 
REMARK    3  A    between atoms: C4_8  and  C5_9 
REMARK    4  A    between atoms: C5_9  and  C6_10 
REMARK    5  A    between atoms: C6_10  and  C7_11 
REMARK    6  A    between atoms: C7_11  and  C8_12 
REMARK    7  A    between atoms: C8_12  and  C9_13 
REMARK    8  A    between atoms: C9_13  and  N3_14 
REMARK    9  A    between atoms: N3_14  and  C10_16 
REMARK   10  A    between atoms: N6_24  and  C13_26 
REMARK   11  A    between atoms: C13_26  and  C14_27 
ROOT
HETATM    1  C3  UNL     1      10.708  44.266  -4.239  1.00  0.00     0.138 C 
ENDROOT
BRANCH   1   2
HETATM    2  N2  UNL     1      11.769  43.358  -3.917  1.00  0.00    -0.227 N 
HETATM    3  C2  UNL     1      13.135  43.723  -3.736  1.00  0.00     0.669 C 
HETATM    4  N1  UNL     1      13.806  44.204  -4.699  1.00  0.00    -0.231 N 
HETATM    5  N6  UNL     1      13.699  43.517  -2.434  1.00  0.00    -0.226 N 
HETATM    6  C1  UNL     1      13.385  44.457  -6.036  1.00  0.00     0.165 C 
ATOM      7  H1  UNL     1      14.776  44.441  -4.489  1.00  0.00     0.177 HD
ATOM      8  H6  UNL     1      13.162  43.780  -1.608  1.00  0.00     0.177 HD
ATOM      9  H2  UNL     1      11.528  42.373  -3.809  1.00  0.00     0.177 HD
BRANCH   5  10
HETATM   10  C13 UNL     1      14.998  42.950  -2.272  1.00  0.00     0.142 C 
BRANCH  10  11
HETATM   11  C14 UNL     1      14.968  41.472  -1.963  1.00  0.00     0.004 C 
HETATM   12  C15 UNL     1      13.590  40.983  -1.665  1.00  0.00     0.006 C 
HETATM   13  C16 UNL     1      13.214  39.772  -2.493  1.00  0.00     0.000 C 
HETATM   14  C17 UNL     1      13.384  40.057  -3.968  1.00  0.00     0.000 C 
HETATM   15  C18 UNL     1      14.808  40.413  -4.245  1.00  0.00     0.000 C 
HETATM   16  C19 UNL     1      15.630  40.640  -3.009  1.00  0.00     0.006 C 
ENDBRANCH  10  11
ENDBRANCH   5  10
ENDBRANCH   1   2
BRANCH   1  17
HETATM   17  C4  UNL     1       9.329  43.623  -4.209  1.00  0.00     0.020 C 
BRANCH  17  18
HETATM   18  C5  UNL     1       9.356  42.452  -3.258  1.00  0.00     0.002 C 
BRANCH  18  19
HETATM   19  C6  UNL     1       9.025  41.160  -3.976  1.00  0.00     0.000 C 
BRANCH  19  20
HETATM   20  C7  UNL     1       7.642  40.683  -3.646  1.00  0.00     0.002 C 
BRANCH  20  21
HETATM   21  C8  UNL     1       6.817  40.636  -4.893  1.00  0.00     0.020 C 
BRANCH  21  22
HETATM   22  C9  UNL     1       5.592  41.502  -4.852  1.00  0.00     0.121 C 
BRANCH  22  23
HETATM   23  N3  UNL     1       5.292  41.940  -3.494  1.00  0.00    -0.369 N 
ATOM     24  H3  UNL     1       6.008  42.300  -2.862  1.00  0.00     0.161 HD
BRANCH  23  25
HETATM   25  C10 UNL     1       4.034  41.836  -3.148  1.00  0.00     0.161 A 
HETATM   26  N4  UNL     1       2.979  41.640  -3.950  1.00  0.00    -0.279 N 
HETATM   27  N5  UNL     1       1.826  41.566  -3.428  1.00  0.00    -0.296 N 
ATOM     28  H4  UNL     1       3.101  41.553  -4.959  1.00  0.00     0.189 HD
HETATM   29  C11 UNL     1       1.675  41.681  -2.118  1.00  0.00     0.066 A 
ATOM     30  H5  UNL     1       1.010  41.416  -4.021  1.00  0.00     0.187 HD
HETATM   31  C12 UNL     1       0.388  41.620  -1.331  1.00  0.00     0.078 C 
HETATM   32  S1  UNL     1       3.290  41.909  -1.611  1.00  0.00    -0.039 SA
ENDBRANCH  23  25
ENDBRANCH  22  23
ENDBRANCH  21  22
ENDBRANCH  20  21
ENDBRANCH  19  20
ENDBRANCH  18  19
ENDBRANCH  17  18
ENDBRANCH   1  17
TORSDOF 11
ENDMDL
MODEL 3
REMARK VINA RESULT: -7.691382341      2.984     13.014
REMARK  11 active torsions:
REMARK  status: ('A' for Active; 'I' for Inactive)
REMARK       I    between atoms: N1_2  and  C2_4 
REMARK       I    between atoms: C2_4  and  N2_5 
REMARK       I    between atoms: C2_4  and  N6_24 
REMARK    1  A    between atoms: N2_5  and  C3_7 
REMARK    2  A    between atoms: C3_7  and  C4_8 
REMARK    3  A    between atoms: C4_8  and  C5_9 
REMARK    4  A    between atoms: C5_9  and  C6_10 
REMARK    5  A    between atoms: C6_10  and  C7_11 
REMARK    6  A    between atoms: C7_11  and  C8_12 
REMARK    7  A    between atoms: C8_12  and  C9_13 
REMARK    8  A    between atoms: C9_13  and  N3_14 
REMARK    9  A    between atoms: N3_14  and  C10_16 
REMARK   10  A    between atoms: N6_24  and  C13_26 
REMARK   11  A    between atoms: C13_26  and  C14_27 
ROOT
HETATM    1  C3  UNL     1       0.521  39.264  -2.869  1.00  0.00     0.138 C 
ENDROOT
BRANCH   1   2
HETATM    2  N2  UNL     1      -0.903  39.220  -2.724  1.00  0.00    -0.227 N 
HETATM    3  C2  UNL     1      -1.759  40.358  -2.672  1.00  0.00     0.669 C 
HETATM    4  N1  UNL     1      -1.664  41.192  -1.721  1.00  0.00    -0.231 N 
HETATM    5  N6  UNL     1      -2.716  40.505  -3.730  1.00  0.00    -0.226 N 
HETATM    6  C1  UNL     1      -0.774  41.173  -0.609  1.00  0.00     0.165 C 
ATOM      7  H1  UNL     1      -2.310  41.980  -1.756  1.00  0.00     0.177 HD
ATOM      8  H6  UNL     1      -2.428  40.337  -4.694  1.00  0.00     0.177 HD
ATOM      9  H2  UNL     1      -1.340  38.301  -2.653  1.00  0.00     0.177 HD
BRANCH   5  10
HETATM   10  C13 UNL     1      -4.064  40.881  -3.459  1.00  0.00     0.142 C 
BRANCH  10  11
HETATM   11  C14 UNL     1      -5.062  39.794  -3.779  1.00  0.00     0.004 C 
HETATM   12  C15 UNL     1      -4.526  38.803  -4.758  1.00  0.00     0.006 C 
HETATM   13  C16 UNL     1      -4.672  37.376  -4.276  1.00  0.00     0.000 C 
HETATM   14  C17 UNL     1      -4.033  37.200  -2.917  1.00  0.00     0.000 C 
HETATM   15  C18 UNL     1      -4.690  38.115  -1.937  1.00  0.00     0.000 C 
HETATM   16  C19 UNL     1      -5.609  39.122  -2.565  1.00  0.00     0.006 C 
ENDBRANCH  10  11
ENDBRANCH   5  10
ENDBRANCH   1   2
BRANCH   1  17
HETATM   17  C4  UNL     1       1.006  40.378  -3.785  1.00  0.00     0.020 C 
BRANCH  17  18
HETATM   18  C5  UNL     1       2.037  41.199  -3.051  1.00  0.00     0.002 C 
BRANCH  18  19
HETATM   19  C6  UNL     1       3.214  41.523  -3.948  1.00  0.00     0.000 C 
BRANCH  19  20
HETATM   20  C7  UNL     1       4.412  41.952  -3.154  1.00  0.00     0.002 C 
BRANCH  20  21
HETATM   21  C8  UNL     1       5.659  41.500  -3.846  1.00  0.00     0.020 C 
BRANCH  21  22
HETATM   22  C9  UNL     1       6.871  42.327  -3.530  1.00  0.00     0.121 C 
BRANCH  22  23
HETATM   23  N3  UNL     1       7.802  42.363  -4.651  1.00  0.00    -0.369 N 
ATOM     24  H3  UNL     1       7.568  41.990  -5.572  1.00  0.00     0.161 HD
BRANCH  23  25
HETATM   25  C10 UNL     1       8.961  42.913  -4.387  1.00  0.00     0.161 A 
HETATM   26  N4  UNL     1       9.544  43.937  -5.024  1.00  0.00    -0.279 N 
HETATM   27  N5  UNL     1      10.678  44.334  -4.621  1.00  0.00    -0.296 N 
ATOM     28  H4  UNL     1       9.086  44.387  -5.817  1.00  0.00     0.189 HD
HETATM   29  C11 UNL     1      11.268  43.745  -3.593  1.00  0.00     0.066 A 
ATOM     30  H5  UNL     1      11.139  45.112  -5.092  1.00  0.00     0.187 HD
HETATM   31  C12 UNL     1      12.608  44.083  -2.983  1.00  0.00     0.078 C 
HETATM   32  S1  UNL     1      10.119  42.550  -3.184  1.00  0.00    -0.039 SA
ENDBRANCH  23  25
ENDBRANCH  22  23
ENDBRANCH  21  22
ENDBRANCH  20  21
ENDBRANCH  19  20
ENDBRANCH  18  19
ENDBRANCH  17  18
ENDBRANCH   1  17
TORSDOF 11
ENDMDL
MODEL 4
REMARK VINA RESULT: -7.569998206      4.640      9.982
REMARK  11 active torsions:
REMARK  status: ('A' for Active; 'I' for Inactive)
REMARK       I    between atoms: N1_2  and  C2_4 
REMARK       I    between atoms: C2_4  and  N2_5 
REMARK       I    between atoms: C2_4  and  N6_24 
REMARK    1  A    between atoms: N2_5  and  C3_7 
REMARK    2  A    between atoms: C3_7  and  C4_8 
REMARK    3  A    between atoms: C4_8  and  C5_9 
REMARK    4  A    between atoms: C5_9  and  C6_10 
REMARK    5  A    between atoms: C6_10  and  C7_11 
REMARK    6  A    between atoms: C7_11  and  C8_12 
REMARK    7  A    between atoms: C8_12  and  C9_13 
REMARK    8  A    between atoms: C9_13  and  N3_14 
REMARK    9  A    between atoms: N3_14  and  C10_16 
REMARK   10  A    between atoms: N6_24  and  C13_26 
REMARK   11  A    between atoms: C13_26  and  C14_27 
ROOT
HETATM    1  C3  UNL     1      11.034  40.195   1.013  1.00  0.00     0.138 C 
ENDROOT
BRANCH   1   2
HETATM    2  N2  UNL     1      10.106  39.556   0.128  1.00  0.00    -0.227 N 
HETATM    3  C2  UNL     1       9.066  40.217  -0.589  1.00  0.00     0.669 C 
HETATM    4  N1  UNL     1       8.118  40.787   0.032  1.00  0.00    -0.231 N 
HETATM    5  N6  UNL     1       9.146  40.199  -2.021  1.00  0.00    -0.226 N 
HETATM    6  C1  UNL     1       7.906  40.880   1.438  1.00  0.00     0.165 C 
ATOM      7  H1  UNL     1       7.414  41.239  -0.552  1.00  0.00     0.177 HD
ATOM      8  H6  UNL     1      10.042  40.378  -2.474  1.00  0.00     0.177 HD
ATOM      9  H2  UNL     1      10.197  38.548   0.000  1.00  0.00     0.177 HD
BRANCH   5  10
HETATM   10  C13 UNL     1       7.996  39.937  -2.821  1.00  0.00     0.142 C 
BRANCH  10  11
HETATM   11  C14 UNL     1       7.684  41.047  -3.797  1.00  0.00     0.004 C 
HETATM   12  C15 UNL     1       6.779  40.598  -4.896  1.00  0.00     0.006 C 
HETATM   13  C16 UNL     1       5.578  41.504  -5.062  1.00  0.00     0.000 C 
HETATM   14  C17 UNL     1       4.825  41.643  -3.759  1.00  0.00     0.000 C 
HETATM   15  C18 UNL     1       5.730  42.221  -2.721  1.00  0.00     0.000 C 
HETATM   16  C19 UNL     1       7.172  42.282  -3.137  1.00  0.00     0.006 C 
ENDBRANCH  10  11
ENDBRANCH   5  10
ENDBRANCH   1   2
BRANCH   1  17
HETATM   17  C4  UNL     1      12.260  39.349   1.323  1.00  0.00     0.020 C 
BRANCH  17  18
HETATM   18  C5  UNL     1      13.233  39.461   0.176  1.00  0.00     0.002 C 
BRANCH  18  19
HETATM   19  C6  UNL     1      13.523  40.911  -0.153  1.00  0.00     0.000 C 
BRANCH  19  20
HETATM   20  C7  UNL     1      14.903  41.311   0.278  1.00  0.00     0.002 C 
BRANCH  20  21
HETATM   21  C8  UNL     1      15.379  42.452  -0.564  1.00  0.00     0.020 C 
BRANCH  21  22
HETATM   22  C9  UNL     1      15.093  42.295  -2.029  1.00  0.00     0.121 C 
BRANCH  22  23
HETATM   23  N3  UNL     1      15.004  43.586  -2.699  1.00  0.00    -0.369 N 
ATOM     24  H3  UNL     1      15.774  44.256  -2.705  1.00  0.00     0.161 HD
BRANCH  23  25
HETATM   25  C10 UNL     1      13.860  43.821  -3.292  1.00  0.00     0.161 A 
HETATM   26  N4  UNL     1      13.663  44.270  -4.538  1.00  0.00    -0.279 N 
HETATM   27  N5  UNL     1      12.473  44.438  -4.942  1.00  0.00    -0.296 N 
ATOM     28  H4  UNL     1      14.454  44.473  -5.150  1.00  0.00     0.189 HD
HETATM   29  C11 UNL     1      11.452  44.173  -4.142  1.00  0.00     0.066 A 
ATOM     30  H5  UNL     1      12.302  44.779  -5.887  1.00  0.00     0.187 HD
HETATM   31  C12 UNL     1       9.980  44.314  -4.451  1.00  0.00     0.078 C 
HETATM   32  S1  UNL     1      12.256  43.652  -2.729  1.00  0.00    -0.039 SA
ENDBRANCH  23  25
ENDBRANCH  22  23
ENDBRANCH  21  22
ENDBRANCH  20  21
ENDBRANCH  19  20
ENDBRANCH  18  19
ENDBRANCH  17  18
ENDBRANCH   1  17
TORSDOF 11
ENDMDL
MODEL 5
REMARK VINA RESULT: -7.450829545      1.531      2.147
REMARK  11 active torsions:
REMARK  status: ('A' for Active; 'I' for Inactive)
REMARK       I    between atoms: N1_2  and  C2_4 
REMARK       I    between atoms: C2_4  and  N2_5 
REMARK       I    between atoms: C2_4  and  N6_24 
REMARK    1  A    between atoms: N2_5  and  C3_7 
REMARK    2  A    between atoms: C3_7  and  C4_8 
REMARK    3  A    between atoms: C4_8  and  C5_9 
REMARK    4  A    between atoms: C5_9  and  C6_10 
REMARK    5  A    between atoms: C6_10  and  C7_11 
REMARK    6  A    between atoms: C7_11  and  C8_12 
REMARK    7  A    between atoms: C8_12  and  C9_13 
REMARK    8  A    between atoms: C9_13  and  N3_14 
REMARK    9  A    between atoms: N3_14  and  C10_16 
REMARK   10  A    between atoms: N6_24  and  C13_26 
REMARK   11  A    between atoms: C13_26  and  C14_27 
ROOT
HETATM    1  C3  UNL     1       7.392  41.203  -4.193  1.00  0.00     0.138 C 
ENDROOT
BRANCH   1   2
HETATM    2  N2  UNL     1       8.229  42.288  -3.773  1.00  0.00    -0.227 N 
HETATM    3  C2  UNL     1       9.491  42.149  -3.126  1.00  0.00     0.669 C 
HETATM    4  N1  UNL     1       9.571  41.612  -1.979  1.00  0.00    -0.231 N 
HETATM    5  N6  UNL     1      10.641  42.643  -3.826  1.00  0.00    -0.226 N 
HETATM    6  C1  UNL     1       8.523  41.087  -1.170  1.00  0.00     0.165 C 
ATOM      7  H1  UNL     1      10.509  41.549  -1.584  1.00  0.00     0.177 HD
ATOM      8  H6  UNL     1      10.744  42.449  -4.822  1.00  0.00     0.177 HD
ATOM      9  H2  UNL     1       7.894  43.235  -3.952  1.00  0.00     0.177 HD
BRANCH   5  10
HETATM   10  C13 UNL     1      11.645  43.401  -3.154  1.00  0.00     0.142 C 
BRANCH  10  11
HETATM   11  C14 UNL     1      13.046  42.910  -3.430  1.00  0.00     0.004 C 
HETATM   12  C15 UNL     1      14.083  43.758  -2.772  1.00  0.00     0.006 C 
HETATM   13  C16 UNL     1      15.061  42.945  -1.951  1.00  0.00     0.000 C 
HETATM   14  C17 UNL     1      14.333  42.091  -0.939  1.00  0.00     0.000 C 
HETATM   15  C18 UNL     1      13.402  41.163  -1.648  1.00  0.00     0.000 C 
HETATM   16  C19 UNL     1      13.237  41.466  -3.109  1.00  0.00     0.006 C 
ENDBRANCH  10  11
ENDBRANCH   5  10
ENDBRANCH   1   2
BRANCH   1  17
HETATM   17  C4  UNL     1       5.936  41.599  -4.392  1.00  0.00     0.020 C 
BRANCH  17  18
HETATM   18  C5  UNL     1       5.367  42.047  -3.068  1.00  0.00     0.002 C 
BRANCH  18  19
HETATM   19  C6  UNL     1       3.876  41.795  -3.003  1.00  0.00     0.000 C 
BRANCH  19  20
HETATM   20  C7  UNL     1       3.296  41.551  -4.365  1.00  0.00     0.002 C 
BRANCH  20  21
HETATM   21  C8  UNL     1       2.099  40.661  -4.247  1.00  0.00     0.020 C 
BRANCH  21  22
HETATM   22  C9  UNL     1       1.259  40.919  -3.031  1.00  0.00     0.121 C 
BRANCH  22  23
HETATM   23  N3  UNL     1       0.475  39.746  -2.663  1.00  0.00    -0.369 N 
ATOM     24  H3  UNL     1       0.895  38.914  -2.249  1.00  0.00     0.161 HD
BRANCH  23  25
HETATM   25  C10 UNL     1      -0.808  39.844  -2.905  1.00  0.00     0.161 A 
HETATM   26  N4  UNL     1      -1.454  40.860  -3.492  1.00  0.00    -0.279 N 
HETATM   27  N5  UNL     1      -2.710  40.775  -3.641  1.00  0.00    -0.296 N 
ATOM     28  H4  UNL     1      -0.946  41.685  -3.812  1.00  0.00     0.189 HD
HETATM   29  C11 UNL     1      -3.363  39.701  -3.224  1.00  0.00     0.066 A 
ATOM     30  H5  UNL     1      -3.220  41.537  -4.086  1.00  0.00     0.187 HD
HETATM   31  C12 UNL     1      -4.846  39.432  -3.317  1.00  0.00     0.078 C 
HETATM   32  S1  UNL     1      -2.090  38.763  -2.579  1.00  0.00    -0.039 SA
ENDBRANCH  23  25
ENDBRANCH  22  23
ENDBRANCH  21  22
ENDBRANCH  20  21
ENDBRANCH  19  20
ENDBRANCH  18  19
ENDBRANCH  17  18
ENDBRANCH   1  17
TORSDOF 11
ENDMDL
