MODEL 1
REMARK VINA RESULT: -7.642460312      0.000      0.000
REMARK  11 active torsions:
REMARK  status: ('A' for Active; 'I' for Inactive)
REMARK       I    between atoms: C2_2  and  N1_4 
REMARK    1  A    between atoms: N1_4  and  C3_6 
REMARK    2  A    between atoms: C3_6  and  C4_7 
REMARK    3  A    between atoms: C3_6  and  C8_11 
REMARK    4  A    between atoms: C4_7  and  C5_8 
REMARK       I    between atoms: C8_11  and  N2_13 
REMARK    5  A    between atoms: N2_13  and  C9_15 
REMARK    6  A    between atoms: C9_15  and  C10_16 
REMARK    7  A    between atoms: C9_15  and  C17_27 
REMARK    8  A    between atoms: C10_16  and  O3_17 
REMARK    9  A    between atoms: C10_16  and  C11_19 
REMARK   10  A    between atoms: C11_19  and  N3_20 
REMARK   11  A    between atoms: N3_20  and  C12_22 
ROOT
HETATM    1  C9  UNL     1      10.140  42.450  -3.119  1.00  0.00     0.122 C 
ENDROOT
BRANCH   1   2
HETATM    2  N2  UNL     1      11.425  42.707  -3.736  1.00  0.00    -0.351 N 
HETATM    3  C8  UNL     1      12.166  43.877  -3.425  1.00  0.00     0.240 C 
HETATM    4  O2  UNL     1      11.777  44.746  -2.618  1.00  0.00    -0.271 OA
ATOM      5  H2  UNL     1      11.804  42.036  -4.404  1.00  0.00     0.163 HD
BRANCH   3   6
HETATM    6  C3  UNL     1      13.499  44.102  -4.094  1.00  0.00     0.177 C 
BRANCH   6   7
HETATM    7  N1  UNL     1      13.452  43.475  -5.384  1.00  0.00    -0.348 N 
HETATM    8  C2  UNL     1      14.043  44.078  -6.526  1.00  0.00     0.214 C 
HETATM    9  C1  UNL     1      13.989  43.421  -7.851  1.00  0.00     0.117 C 
HETATM   10  O1  UNL     1      14.620  45.183  -6.414  1.00  0.00    -0.274 OA
ATOM     11  H1  UNL     1      12.982  42.574  -5.483  1.00  0.00     0.163 HD
ENDBRANCH   6   7
BRANCH   6  12
HETATM   12  C4  UNL     1      14.579  43.591  -3.188  1.00  0.00     0.038 C 
BRANCH  12  13
HETATM   13  C5  UNL     1      14.352  42.280  -2.543  1.00  0.00    -0.020 C 
HETATM   14  C6  UNL     1      14.644  42.268  -1.057  1.00  0.00     0.009 C 
HETATM   15  C7  UNL     1      15.025  41.151  -3.248  1.00  0.00     0.009 C 
ENDBRANCH  12  13
ENDBRANCH   6  12
ENDBRANCH   3   6
ENDBRANCH   1   2
BRANCH   1  16
HETATM   16  C10 UNL     1       9.059  42.797  -4.111  1.00  0.00     0.179 C 
BRANCH  16  17
HETATM   17  O3  UNL     1       8.306  43.825  -3.556  1.00  0.00    -0.388 OA
ATOM     18  H3  UNL     1       8.524  44.619  -4.028  1.00  0.00     0.210 HD
ENDBRANCH  16  17
BRANCH  16  19
HETATM   19  C11 UNL     1       8.188  41.606  -4.387  1.00  0.00     0.089 C 
BRANCH  19  20
HETATM   20  N3  UNL     1       6.817  41.923  -4.477  1.00  0.00    -0.395 N 
ATOM     21  H3  UNL     1       6.515  42.877  -4.675  1.00  0.00     0.159 HD
BRANCH  20  22
HETATM   22  C12 UNL     1       5.859  40.878  -4.285  1.00  0.00     0.080 C 
HETATM   23  C13 UNL     1       4.436  41.403  -4.266  1.00  0.00     0.025 C 
HETATM   24  C14 UNL     1       4.217  42.044  -2.936  1.00  0.00     0.002 C 
HETATM   25  C15 UNL     1       5.506  41.824  -2.175  1.00  0.00     0.002 C 
HETATM   26  C16 UNL     1       5.989  40.519  -2.773  1.00  0.00     0.025 C 
ENDBRANCH  20  22
ENDBRANCH  19  20
ENDBRANCH  16  19
ENDBRANCH   1  16
BRANCH   1  27
HETATM   27  C17 UNL     1      10.046  41.065  -2.549  1.00  0.00     0.011 C 
HETATM   28  C18 UNL     1       9.369  41.241  -1.180  1.00  0.00     0.007 C 
HETATM   29  C19 UNL     1       9.014  39.853  -0.750  1.00  0.00     0.000 C 
HETATM   30  C20 UNL     1      10.221  38.981  -0.546  1.00  0.00     0.000 C 
HETATM   31  C21 UNL     1      11.323  39.174  -1.495  1.00  0.00     0.000 C 
HETATM   32  C22 UNL     1      11.349  40.398  -2.314  1.00  0.00     0.007 C 
ENDBRANCH   1  27
TORSDOF 11
ENDMDL
MODEL 2
REMARK VINA RESULT: -7.464910384      2.499      3.184
REMARK  11 active torsions:
REMARK  status: ('A' for Active; 'I' for Inactive)
REMARK       I    between atoms: C2_2  and  N1_4 
REMARK    1  A    between atoms: N1_4  and  C3_6 
REMARK    2  A    between atoms: C3_6  and  C4_7 
REMARK    3  A    between atoms: C3_6  and  C8_11 
REMARK    4  A    between atoms: C4_7  and  C5_8 
REMARK       I    between atoms: C8_11  and  N2_13 
REMARK    5  A    between atoms: N2_13  and  C9_15 
REMARK    6  A    between atoms: C9_15  and  C10_16 
REMARK    7  A    between atoms: C9_15  and  C17_27 
REMARK    8  A    between atoms: C10_16  and  O3_17 
REMARK    9  A    between atoms: C10_16  and  C11_19 
REMARK   10  A    between atoms: C11_19  and  N3_20 
REMARK   11  A    between atoms: N3_20  and  C12_22 
ROOT
HETATM    1  C9  UNL     1       9.486  41.320  -1.972  1.00  0.00     0.122 C 
ENDROOT
BRANCH   1   2
HETATM    2  N2  UNL     1      10.859  40.980  -1.663  1.00  0.00    -0.351 N 
HETATM    3  C8  UNL     1      11.904  41.926  -1.829  1.00  0.00     0.240 C 
HETATM    4  O2  UNL     1      11.720  43.091  -2.239  1.00  0.00    -0.271 OA
ATOM      5  H2  UNL     1      11.080  40.045  -1.321  1.00  0.00     0.163 HD
BRANCH   3   6
HETATM    6  C3  UNL     1      13.319  41.526  -1.497  1.00  0.00     0.177 C 
BRANCH   6   7
HETATM    7  N1  UNL     1      13.775  40.638  -2.528  1.00  0.00    -0.348 N 
HETATM    8  C2  UNL     1      14.982  40.880  -3.236  1.00  0.00     0.214 C 
HETATM    9  C1  UNL     1      15.443  39.958  -4.298  1.00  0.00     0.117 C 
HETATM   10  O1  UNL     1      15.670  41.889  -2.961  1.00  0.00    -0.274 OA
ATOM     11  H1  UNL     1      13.219  39.814  -2.759  1.00  0.00     0.163 HD
ENDBRANCH   6   7
BRANCH   6  12
HETATM   12  C4  UNL     1      13.337  40.942  -0.116  1.00  0.00     0.038 C 
BRANCH  12  13
HETATM   13  C5  UNL     1      14.571  40.242   0.303  1.00  0.00    -0.020 C 
HETATM   14  C6  UNL     1      14.414  38.741   0.428  1.00  0.00     0.009 C 
HETATM   15  C7  UNL     1      15.201  40.835   1.518  1.00  0.00     0.009 C 
ENDBRANCH  12  13
ENDBRANCH   6  12
ENDBRANCH   3   6
ENDBRANCH   1   2
BRANCH   1  16
HETATM   16  C10 UNL     1       9.157  40.777  -3.339  1.00  0.00     0.179 C 
BRANCH  16  17
HETATM   17  O3  UNL     1      10.334  40.787  -4.079  1.00  0.00    -0.388 OA
ATOM     18  H3  UNL     1      10.601  39.883  -4.193  1.00  0.00     0.210 HD
ENDBRANCH  16  17
BRANCH  16  19
HETATM   19  C11 UNL     1       8.115  41.623  -4.011  1.00  0.00     0.089 C 
BRANCH  19  20
HETATM   20  N3  UNL     1       6.835  41.032  -4.022  1.00  0.00    -0.395 N 
ATOM     21  H3  UNL     1       6.728  40.024  -4.136  1.00  0.00     0.159 HD
BRANCH  20  22
HETATM   22  C12 UNL     1       5.689  41.876  -3.870  1.00  0.00     0.080 C 
HETATM   23  C13 UNL     1       5.491  42.317  -2.432  1.00  0.00     0.025 C 
HETATM   24  C14 UNL     1       4.914  41.158  -1.688  1.00  0.00     0.002 C 
HETATM   25  C15 UNL     1       4.728  40.075  -2.728  1.00  0.00     0.002 C 
HETATM   26  C16 UNL     1       4.481  40.896  -3.976  1.00  0.00     0.025 C 
ENDBRANCH  20  22
ENDBRANCH  19  20
ENDBRANCH  16  19
ENDBRANCH   1  16
BRANCH   1  27
HETATM   27  C17 UNL     1       8.536  40.902  -0.887  1.00  0.00     0.011 C 
HETATM   28  C18 UNL     1       9.326  41.070   0.422  1.00  0.00     0.007 C 
HETATM   29  C19 UNL     1       8.301  40.939   1.504  1.00  0.00     0.000 C 
HETATM   30  C20 UNL     1       7.662  39.579   1.537  1.00  0.00     0.000 C 
HETATM   31  C21 UNL     1       7.408  38.955   0.233  1.00  0.00     0.000 C 
HETATM   32  C22 UNL     1       8.095  39.488  -0.956  1.00  0.00     0.007 C 
ENDBRANCH   1  27
TORSDOF 11
ENDMDL
MODEL 3
REMARK VINA RESULT: -7.464781827      1.748      2.365
REMARK  11 active torsions:
REMARK  status: ('A' for Active; 'I' for Inactive)
REMARK       I    between atoms: C2_2  and  N1_4 
REMARK    1  A    between atoms: N1_4  and  C3_6 
REMARK    2  A    between atoms: C3_6  and  C4_7 
REMARK    3  A    between atoms: C3_6  and  C8_11 
REMARK    4  A    between atoms: C4_7  and  C5_8 
REMARK       I    between atoms: C8_11  and  N2_13 
REMARK    5  A    between atoms: N2_13  and  C9_15 
REMARK    6  A    between atoms: C9_15  and  C10_16 
REMARK    7  A    between atoms: C9_15  and  C17_27 
REMARK    8  A    between atoms: C10_16  and  O3_17 
REMARK    9  A    between atoms: C10_16  and  C11_19 
REMARK   10  A    between atoms: C11_19  and  N3_20 
REMARK   11  A    between atoms: N3_20  and  C12_22 
ROOT
HETATM    1  C9  UNL     1       9.115  41.257  -2.667  1.00  0.00     0.122 C 
ENDROOT
BRANCH   1   2
HETATM    2  N2  UNL     1      10.460  41.210  -3.202  1.00  0.00    -0.351 N 
HETATM    3  C8  UNL     1      11.554  41.759  -2.484  1.00  0.00     0.240 C 
HETATM    4  O2  UNL     1      11.440  42.307  -1.368  1.00  0.00    -0.271 OA
ATOM      5  H2  UNL     1      10.624  40.774  -4.109  1.00  0.00     0.163 HD
BRANCH   3   6
HETATM    6  C3  UNL     1      12.936  41.689  -3.082  1.00  0.00     0.177 C 
BRANCH   6   7
HETATM    7  N1  UNL     1      12.917  42.424  -4.314  1.00  0.00    -0.348 N 
HETATM    8  C2  UNL     1      13.795  43.516  -4.540  1.00  0.00     0.214 C 
HETATM    9  C1  UNL     1      13.768  44.268  -5.815  1.00  0.00     0.117 C 
HETATM   10  O1  UNL     1      14.609  43.853  -3.650  1.00  0.00    -0.274 OA
ATOM     11  H1  UNL     1      12.257  42.156  -5.044  1.00  0.00     0.163 HD
ENDBRANCH   6   7
BRANCH   6  12
HETATM   12  C4  UNL     1      13.322  40.246  -3.220  1.00  0.00     0.038 C 
BRANCH  12  13
HETATM   13  C5  UNL     1      14.754  39.914  -3.056  1.00  0.00    -0.020 C 
HETATM   14  C6  UNL     1      15.478  40.792  -2.058  1.00  0.00     0.009 C 
HETATM   15  C7  UNL     1      15.490  39.824  -4.350  1.00  0.00     0.009 C 
ENDBRANCH  12  13
ENDBRANCH   6  12
ENDBRANCH   3   6
ENDBRANCH   1   2
BRANCH   1  16
HETATM   16  C10 UNL     1       8.143  41.163  -3.816  1.00  0.00     0.179 C 
BRANCH  16  17
HETATM   17  O3  UNL     1       8.890  41.166  -4.988  1.00  0.00    -0.388 OA
ATOM     18  H3  UNL     1       8.639  41.939  -5.479  1.00  0.00     0.210 HD
ENDBRANCH  16  17
BRANCH  16  19
HETATM   19  C11 UNL     1       7.192  42.324  -3.804  1.00  0.00     0.089 C 
BRANCH  19  20
HETATM   20  N3  UNL     1       6.106  42.151  -2.921  1.00  0.00    -0.395 N 
ATOM     21  H3  UNL     1       6.039  42.700  -2.065  1.00  0.00     0.159 HD
BRANCH  20  22
HETATM   22  C12 UNL     1       5.101  41.187  -3.251  1.00  0.00     0.080 C 
HETATM   23  C13 UNL     1       3.756  41.833  -3.521  1.00  0.00     0.025 C 
HETATM   24  C14 UNL     1       3.169  42.204  -2.199  1.00  0.00     0.002 C 
HETATM   25  C15 UNL     1       4.164  41.706  -1.173  1.00  0.00     0.002 C 
HETATM   26  C16 UNL     1       4.761  40.512  -1.888  1.00  0.00     0.025 C 
ENDBRANCH  20  22
ENDBRANCH  19  20
ENDBRANCH  16  19
ENDBRANCH   1  16
BRANCH   1  27
HETATM   27  C17 UNL     1       8.897  40.247  -1.579  1.00  0.00     0.011 C 
HETATM   28  C18 UNL     1       8.080  39.121  -2.235  1.00  0.00     0.007 C 
HETATM   29  C19 UNL     1       8.118  37.999  -1.247  1.00  0.00     0.000 C 
HETATM   30  C20 UNL     1       7.444  38.343   0.051  1.00  0.00     0.000 C 
HETATM   31  C21 UNL     1       7.629  39.719   0.527  1.00  0.00     0.000 C 
HETATM   32  C22 UNL     1       8.115  40.739  -0.419  1.00  0.00     0.007 C 
ENDBRANCH   1  27
TORSDOF 11
ENDMDL
MODEL 4
REMARK VINA RESULT: -7.386581214      1.560      2.119
REMARK  11 active torsions:
REMARK  status: ('A' for Active; 'I' for Inactive)
REMARK       I    between atoms: C2_2  and  N1_4 
REMARK    1  A    between atoms: N1_4  and  C3_6 
REMARK    2  A    between atoms: C3_6  and  C4_7 
REMARK    3  A    between atoms: C3_6  and  C8_11 
REMARK    4  A    between atoms: C4_7  and  C5_8 
REMARK       I    between atoms: C8_11  and  N2_13 
REMARK    5  A    between atoms: N2_13  and  C9_15 
REMARK    6  A    between atoms: C9_15  and  C10_16 
REMARK    7  A    between atoms: C9_15  and  C17_27 
REMARK    8  A    between atoms: C10_16  and  O3_17 
REMARK    9  A    between atoms: C10_16  and  C11_19 
REMARK   10  A    between atoms: C11_19  and  N3_20 
REMARK   11  A    between atoms: N3_20  and  C12_22 
ROOT
HETATM    1  C9  UNL     1       8.539  41.839  -2.676  1.00  0.00     0.122 C 
ENDROOT
BRANCH   1   2
HETATM    2  N2  UNL     1       9.965  42.034  -2.836  1.00  0.00    -0.351 N 
HETATM    3  C8  UNL     1      10.495  43.299  -3.202  1.00  0.00     0.240 C 
HETATM    4  O2  UNL     1       9.790  44.309  -3.406  1.00  0.00    -0.271 OA
ATOM      5  H2  UNL     1      10.599  41.251  -2.682  1.00  0.00     0.163 HD
BRANCH   3   6
HETATM    6  C3  UNL     1      11.987  43.454  -3.359  1.00  0.00     0.177 C 
BRANCH   6   7
HETATM    7  N1  UNL     1      12.250  43.773  -4.734  1.00  0.00    -0.348 N 
HETATM    8  C2  UNL     1      13.566  44.042  -5.195  1.00  0.00     0.214 C 
HETATM    9  C1  UNL     1      13.827  44.369  -6.614  1.00  0.00     0.117 C 
HETATM   10  O1  UNL     1      14.525  44.003  -4.390  1.00  0.00    -0.274 OA
ATOM     11  H1  UNL     1      11.474  43.807  -5.395  1.00  0.00     0.163 HD
ENDBRANCH   6   7
BRANCH   6  12
HETATM   12  C4  UNL     1      12.650  42.202  -2.869  1.00  0.00     0.038 C 
BRANCH  12  13
HETATM   13  C5  UNL     1      13.235  42.238  -1.512  1.00  0.00    -0.020 C 
HETATM   14  C6  UNL     1      14.696  42.637  -1.483  1.00  0.00     0.009 C 
HETATM   15  C7  UNL     1      12.987  40.993  -0.729  1.00  0.00     0.009 C 
ENDBRANCH  12  13
ENDBRANCH   6  12
ENDBRANCH   3   6
ENDBRANCH   1   2
BRANCH   1  16
HETATM   16  C10 UNL     1       7.987  41.291  -3.967  1.00  0.00     0.179 C 
BRANCH  16  17
HETATM   17  O3  UNL     1       8.919  41.562  -4.961  1.00  0.00    -0.388 OA
ATOM     18  H3  UNL     1       8.891  40.840  -5.577  1.00  0.00     0.210 HD
ENDBRANCH  16  17
BRANCH  16  19
HETATM   19  C11 UNL     1       6.672  41.935  -4.299  1.00  0.00     0.089 C 
BRANCH  19  20
HETATM   20  N3  UNL     1       5.560  41.116  -4.016  1.00  0.00    -0.395 N 
ATOM     21  H3  UNL     1       5.602  40.109  -4.169  1.00  0.00     0.159 HD
BRANCH  20  22
HETATM   22  C12 UNL     1       4.369  41.729  -3.510  1.00  0.00     0.080 C 
HETATM   23  C13 UNL     1       4.572  42.315  -2.126  1.00  0.00     0.025 C 
HETATM   24  C14 UNL     1       4.569  41.178  -1.158  1.00  0.00     0.002 C 
HETATM   25  C15 UNL     1       4.301  39.948  -1.997  1.00  0.00     0.002 C 
HETATM   26  C16 UNL     1       3.461  40.524  -3.117  1.00  0.00     0.025 C 
ENDBRANCH  20  22
ENDBRANCH  19  20
ENDBRANCH  16  19
ENDBRANCH   1  16
BRANCH   1  27
HETATM   27  C17 UNL     1       8.207  41.027  -1.458  1.00  0.00     0.011 C 
HETATM   28  C18 UNL     1       9.448  41.136  -0.555  1.00  0.00     0.007 C 
HETATM   29  C19 UNL     1       9.008  40.581   0.763  1.00  0.00     0.000 C 
HETATM   30  C20 UNL     1       8.634  39.128   0.687  1.00  0.00     0.000 C 
HETATM   31  C21 UNL     1       7.937  38.705  -0.533  1.00  0.00     0.000 C 
HETATM   32  C22 UNL     1       7.974  39.585  -1.714  1.00  0.00     0.007 C 
ENDBRANCH   1  27
TORSDOF 11
ENDMDL
MODEL 5
REMARK VINA RESULT: -7.310294840      2.716      4.312
REMARK  11 active torsions:
REMARK  status: ('A' for Active; 'I' for Inactive)
REMARK       I    between atoms: C2_2  and  N1_4 
REMARK    1  A    between atoms: N1_4  and  C3_6 
REMARK    2  A    between atoms: C3_6  and  C4_7 
REMARK    3  A    between atoms: C3_6  and  C8_11 
REMARK    4  A    between atoms: C4_7  and  C5_8 
REMARK       I    between atoms: C8_11  and  N2_13 
REMARK    5  A    between atoms: N2_13  and  C9_15 
REMARK    6  A    between atoms: C9_15  and  C10_16 
REMARK    7  A    between atoms: C9_15  and  C17_27 
REMARK    8  A    between atoms: C10_16  and  O3_17 
REMARK    9  A    between atoms: C10_16  and  C11_19 
REMARK   10  A    between atoms: C11_19  and  N3_20 
REMARK   11  A    between atoms: N3_20  and  C12_22 
ROOT
HETATM    1  C9  UNL     1       8.364  40.253  -1.052  1.00  0.00     0.122 C 
ENDROOT
BRANCH   1   2
HETATM    2  N2  UNL     1       9.803  40.403  -1.095  1.00  0.00    -0.351 N 
HETATM    3  C8  UNL     1      10.407  41.486  -1.786  1.00  0.00     0.240 C 
HETATM    4  O2  UNL     1       9.759  42.366  -2.388  1.00  0.00    -0.271 OA
ATOM      5  H2  UNL     1      10.393  39.719  -0.621  1.00  0.00     0.163 HD
BRANCH   3   6
HETATM    6  C3  UNL     1      11.911  41.599  -1.806  1.00  0.00     0.177 C 
BRANCH   6   7
HETATM    7  N1  UNL     1      12.390  41.284  -0.490  1.00  0.00    -0.348 N 
HETATM    8  C2  UNL     1      13.434  40.344  -0.285  1.00  0.00     0.214 C 
HETATM    9  C1  UNL     1      13.921  40.027   1.077  1.00  0.00     0.117 C 
HETATM   10  O1  UNL     1      13.955  39.771  -1.269  1.00  0.00    -0.274 OA
ATOM     11  H1  UNL     1      11.970  41.747   0.317  1.00  0.00     0.163 HD
ENDBRANCH   6   7
BRANCH   6  12
HETATM   12  C4  UNL     1      12.279  42.968  -2.295  1.00  0.00     0.038 C 
BRANCH  12  13
HETATM   13  C5  UNL     1      13.518  43.087  -3.093  1.00  0.00    -0.020 C 
HETATM   14  C6  UNL     1      13.791  41.894  -3.985  1.00  0.00     0.009 C 
HETATM   15  C7  UNL     1      14.711  43.453  -2.278  1.00  0.00     0.009 C 
ENDBRANCH  12  13
ENDBRANCH   6  12
ENDBRANCH   3   6
ENDBRANCH   1   2
BRANCH   1  16
HETATM   16  C10 UNL     1       7.972  39.149  -2.001  1.00  0.00     0.179 C 
BRANCH  16  17
HETATM   17  O3  UNL     1       9.040  38.263  -2.065  1.00  0.00    -0.388 OA
ATOM     18  H3  UNL     1       8.811  37.592  -2.696  1.00  0.00     0.210 HD
ENDBRANCH  16  17
BRANCH  16  19
HETATM   19  C11 UNL     1       7.672  39.701  -3.364  1.00  0.00     0.089 C 
BRANCH  19  20
HETATM   20  N3  UNL     1       6.356  40.190  -3.494  1.00  0.00    -0.395 N 
ATOM     21  H3  UNL     1       5.555  39.577  -3.338  1.00  0.00     0.159 HD
BRANCH  20  22
HETATM   22  C12 UNL     1       6.167  41.563  -3.850  1.00  0.00     0.080 C 
HETATM   23  C13 UNL     1       5.678  42.395  -2.680  1.00  0.00     0.025 C 
HETATM   24  C14 UNL     1       4.227  42.094  -2.497  1.00  0.00     0.002 C 
HETATM   25  C15 UNL     1       3.881  41.132  -3.612  1.00  0.00     0.002 C 
HETATM   26  C16 UNL     1       4.854  41.558  -4.691  1.00  0.00     0.025 C 
ENDBRANCH  20  22
ENDBRANCH  19  20
ENDBRANCH  16  19
ENDBRANCH   1  16
BRANCH   1  27
HETATM   27  C17 UNL     1       7.849  40.088   0.349  1.00  0.00     0.011 C 
HETATM   28  C18 UNL     1       6.386  40.561   0.295  1.00  0.00     0.007 C 
HETATM   29  C19 UNL     1       5.798  40.125   1.599  1.00  0.00     0.000 C 
HETATM   30  C20 UNL     1       6.443  40.793   2.781  1.00  0.00     0.000 C 
HETATM   31  C21 UNL     1       7.892  41.008   2.688  1.00  0.00     0.000 C 
HETATM   32  C22 UNL     1       8.541  40.911   1.368  1.00  0.00     0.007 C 
ENDBRANCH   1  27
TORSDOF 11
ENDMDL
