MODEL 1
REMARK VINA RESULT: -6.445338287      0.000      0.000
REMARK  15 active torsions:
REMARK  status: ('A' for Active; 'I' for Inactive)
REMARK    1  A    between atoms: O1_2  and  C2_3 
REMARK    2  A    between atoms: C2_3  and  C3_5 
REMARK    3  A    between atoms: C3_5  and  C4_6 
REMARK    4  A    between atoms: C4_6  and  C5_7 
REMARK    5  A    between atoms: C5_7  and  C6_8 
REMARK    6  A    between atoms: C6_8  and  C7_9 
REMARK    7  A    between atoms: C7_9  and  C8_10 
REMARK    8  A    between atoms: C9_11  and  C10_12 
REMARK    9  A    between atoms: C10_12  and  C11_13 
REMARK   10  A    between atoms: C11_13  and  C12_14 
REMARK   11  A    between atoms: C12_14  and  C13_15 
REMARK       I    between atoms: C13_15  and  N1_17 
REMARK   12  A    between atoms: N1_17  and  N2_19 
REMARK   13  A    between atoms: N2_19  and  C14_21 
REMARK   14  A    between atoms: C14_21  and  N3_23 
REMARK   15  A    between atoms: N3_23  and  C15_25 
ROOT
HETATM    1  C13 UNL     1      10.304  44.169  -4.138  1.00  0.00     0.236 C 
HETATM    2  O3  UNL     1       9.398  44.847  -4.642  1.00  0.00    -0.272 OA
HETATM    3  N1  UNL     1      10.149  42.731  -4.077  1.00  0.00    -0.268 N 
ATOM      4  H1  UNL     1      10.876  42.132  -3.685  1.00  0.00     0.190 HD
ENDROOT
BRANCH   1   5
HETATM    5  C12 UNL     1      11.555  44.720  -3.577  1.00  0.00     0.105 C 
BRANCH   5   6
HETATM    6  C11 UNL     1      12.761  43.889  -3.640  1.00  0.00     0.013 C 
BRANCH   6   7
HETATM    7  C10 UNL     1      13.445  43.465  -2.398  1.00  0.00     0.028 C 
BRANCH   7   8
HETATM    8  C9  UNL     1      14.851  43.627  -2.225  1.00  0.00    -0.019 C 
HETATM    9  C8  UNL     1      15.615  43.024  -1.348  1.00  0.00     0.046 C 
BRANCH   9  10
HETATM   10  C7  UNL     1      15.134  42.063  -0.379  1.00  0.00    -0.156 C 
BRANCH  10  11
HETATM   11  C6  UNL     1      14.735  41.263   0.427  1.00  0.00     0.085 C 
BRANCH  11  12
HETATM   12  C5  UNL     1      14.040  39.910   0.169  1.00  0.00     0.012 C 
BRANCH  12  13
HETATM   13  C4  UNL     1      12.958  40.138  -0.833  1.00  0.00     0.011 C 
BRANCH  13  14
HETATM   14  C3  UNL     1      13.127  39.387  -2.112  1.00  0.00     0.111 C 
BRANCH  14  15
HETATM   15  C2  UNL     1      12.742  40.062  -3.347  1.00  0.00     0.258 C 
HETATM   16  O2  UNL     1      11.592  40.356  -3.719  1.00  0.00    -0.265 OA
BRANCH  15  17
HETATM   17  O1  UNL     1      13.753  40.475  -4.286  1.00  0.00    -0.326 OA
HETATM   18  C1  UNL     1      15.113  40.297  -3.985  1.00  0.00     0.213 C 
ENDBRANCH  15  17
ENDBRANCH  14  15
ENDBRANCH  13  14
ENDBRANCH  12  13
ENDBRANCH  11  12
ENDBRANCH  10  11
ENDBRANCH   9  10
ENDBRANCH   7   8
ENDBRANCH   6   7
ENDBRANCH   5   6
ENDBRANCH   1   5
BRANCH   3  19
HETATM   19  N2  UNL     1       8.970  42.205  -4.577  1.00  0.00    -0.274 N 
ATOM     20  H2  UNL     1       8.713  42.383  -5.548  1.00  0.00     0.189 HD
BRANCH  19  21
HETATM   21  C14 UNL     1       8.115  41.424  -3.758  1.00  0.00     0.188 C 
HETATM   22  S1  UNL     1       6.585  41.889  -3.516  1.00  0.00    -0.040 SA
BRANCH  21  23
HETATM   23  N3  UNL     1       8.659  40.255  -3.160  1.00  0.00    -0.338 N 
ATOM     24  H3  UNL     1       9.059  39.532  -3.759  1.00  0.00     0.164 HD
BRANCH  23  25
HETATM   25  C15 UNL     1       8.663  40.064  -1.749  1.00  0.00     0.286 C 
HETATM   26  C16 UNL     1       9.407  41.139  -0.986  1.00  0.00     0.054 C 
HETATM   27  C17 UNL     1       9.077  40.911   0.497  1.00  0.00     0.005 C 
HETATM   28  C18 UNL     1       9.679  39.546   0.809  1.00  0.00     0.028 C 
HETATM   29  C19 UNL     1       9.065  38.468  -0.014  1.00  0.00     0.235 C 
HETATM   30  N4  UNL     1       9.180  38.741  -1.440  1.00  0.00    -0.054 N 
ATOM     31  H42 UNL     1       8.732  38.017  -2.003  1.00  0.00     0.279 HD
ATOM     32  H41 UNL     1      10.137  38.620  -1.774  1.00  0.00     0.279 HD
ENDBRANCH  23  25
ENDBRANCH  21  23
ENDBRANCH  19  21
ENDBRANCH   3  19
TORSDOF 15
ENDMDL
MODEL 2
REMARK VINA RESULT: -6.347093047      2.296      3.142
REMARK  15 active torsions:
REMARK  status: ('A' for Active; 'I' for Inactive)
REMARK    1  A    between atoms: O1_2  and  C2_3 
REMARK    2  A    between atoms: C2_3  and  C3_5 
REMARK    3  A    between atoms: C3_5  and  C4_6 
REMARK    4  A    between atoms: C4_6  and  C5_7 
REMARK    5  A    between atoms: C5_7  and  C6_8 
REMARK    6  A    between atoms: C6_8  and  C7_9 
REMARK    7  A    between atoms: C7_9  and  C8_10 
REMARK    8  A    between atoms: C9_11  and  C10_12 
REMARK    9  A    between atoms: C10_12  and  C11_13 
REMARK   10  A    between atoms: C11_13  and  C12_14 
REMARK   11  A    between atoms: C12_14  and  C13_15 
REMARK       I    between atoms: C13_15  and  N1_17 
REMARK   12  A    between atoms: N1_17  and  N2_19 
REMARK   13  A    between atoms: N2_19  and  C14_21 
REMARK   14  A    between atoms: C14_21  and  N3_23 
REMARK   15  A    between atoms: N3_23  and  C15_25 
ROOT
HETATM    1  C13 UNL     1      10.020  43.905  -4.198  1.00  0.00     0.236 C 
HETATM    2  O3  UNL     1       9.031  44.519  -4.623  1.00  0.00    -0.272 OA
HETATM    3  N1  UNL     1       9.989  42.458  -4.178  1.00  0.00    -0.268 N 
ATOM      4  H1  UNL     1      10.786  41.912  -3.851  1.00  0.00     0.190 HD
ENDROOT
BRANCH   1   5
HETATM    5  C12 UNL     1      11.255  44.544  -3.695  1.00  0.00     0.105 C 
BRANCH   5   6
HETATM    6  C11 UNL     1      12.033  43.828  -2.682  1.00  0.00     0.013 C 
BRANCH   6   7
HETATM    7  C10 UNL     1      13.360  43.263  -3.016  1.00  0.00     0.028 C 
BRANCH   7   8
HETATM    8  C9  UNL     1      14.568  43.859  -2.548  1.00  0.00    -0.019 C 
HETATM    9  C8  UNL     1      15.327  43.441  -1.565  1.00  0.00     0.046 C 
BRANCH   9  10
HETATM   10  C7  UNL     1      15.049  42.266  -0.769  1.00  0.00    -0.156 C 
BRANCH  10  11
HETATM   11  C6  UNL     1      14.819  41.288  -0.106  1.00  0.00     0.085 C 
BRANCH  11  12
HETATM   12  C5  UNL     1      13.448  40.705   0.297  1.00  0.00     0.012 C 
BRANCH  12  13
HETATM   13  C4  UNL     1      12.659  40.494  -0.953  1.00  0.00     0.011 C 
BRANCH  13  14
HETATM   14  C3  UNL     1      13.175  39.407  -1.836  1.00  0.00     0.111 C 
BRANCH  14  15
HETATM   15  C2  UNL     1      13.161  39.644  -3.277  1.00  0.00     0.258 C 
HETATM   16  O2  UNL     1      12.213  40.066  -3.962  1.00  0.00    -0.265 OA
BRANCH  15  17
HETATM   17  O1  UNL     1      14.345  39.394  -4.058  1.00  0.00    -0.326 OA
HETATM   18  C1  UNL     1      15.512  40.141  -3.830  1.00  0.00     0.213 C 
ENDBRANCH  15  17
ENDBRANCH  14  15
ENDBRANCH  13  14
ENDBRANCH  12  13
ENDBRANCH  11  12
ENDBRANCH  10  11
ENDBRANCH   9  10
ENDBRANCH   7   8
ENDBRANCH   6   7
ENDBRANCH   5   6
ENDBRANCH   1   5
BRANCH   3  19
HETATM   19  N2  UNL     1       8.828  41.850  -4.623  1.00  0.00    -0.274 N 
ATOM     20  H2  UNL     1       8.692  41.699  -5.623  1.00  0.00     0.189 HD
BRANCH  19  21
HETATM   21  C14 UNL     1       7.826  41.435  -3.710  1.00  0.00     0.188 C 
HETATM   22  S1  UNL     1       8.007  40.056  -2.884  1.00  0.00    -0.040 SA
BRANCH  21  23
HETATM   23  N3  UNL     1       6.673  42.257  -3.575  1.00  0.00    -0.338 N 
ATOM     24  H3  UNL     1       6.747  43.252  -3.787  1.00  0.00     0.164 HD
BRANCH  23  25
HETATM   25  C15 UNL     1       5.420  41.732  -3.153  1.00  0.00     0.286 C 
HETATM   26  C16 UNL     1       4.416  41.563  -4.274  1.00  0.00     0.054 C 
HETATM   27  C17 UNL     1       3.252  40.753  -3.683  1.00  0.00     0.005 C 
HETATM   28  C18 UNL     1       2.674  41.661  -2.604  1.00  0.00     0.028 C 
HETATM   29  C19 UNL     1       3.670  41.962  -1.539  1.00  0.00     0.235 C 
HETATM   30  N4  UNL     1       4.884  42.556  -2.082  1.00  0.00    -0.054 N 
ATOM     31  H42 UNL     1       5.578  42.732  -1.356  1.00  0.00     0.279 HD
ATOM     32  H41 UNL     1       4.733  43.518  -2.384  1.00  0.00     0.279 HD
ENDBRANCH  23  25
ENDBRANCH  21  23
ENDBRANCH  19  21
ENDBRANCH   3  19
TORSDOF 15
ENDMDL
MODEL 3
REMARK VINA RESULT: -6.334745446      1.937      2.502
REMARK  15 active torsions:
REMARK  status: ('A' for Active; 'I' for Inactive)
REMARK    1  A    between atoms: O1_2  and  C2_3 
REMARK    2  A    between atoms: C2_3  and  C3_5 
REMARK    3  A    between atoms: C3_5  and  C4_6 
REMARK    4  A    between atoms: C4_6  and  C5_7 
REMARK    5  A    between atoms: C5_7  and  C6_8 
REMARK    6  A    between atoms: C6_8  and  C7_9 
REMARK    7  A    between atoms: C7_9  and  C8_10 
REMARK    8  A    between atoms: C9_11  and  C10_12 
REMARK    9  A    between atoms: C10_12  and  C11_13 
REMARK   10  A    between atoms: C11_13  and  C12_14 
REMARK   11  A    between atoms: C12_14  and  C13_15 
REMARK       I    between atoms: C13_15  and  N1_17 
REMARK   12  A    between atoms: N1_17  and  N2_19 
REMARK   13  A    between atoms: N2_19  and  C14_21 
REMARK   14  A    between atoms: C14_21  and  N3_23 
REMARK   15  A    between atoms: N3_23  and  C15_25 
ROOT
HETATM    1  C13 UNL     1      10.017  43.949  -3.941  1.00  0.00     0.236 C 
HETATM    2  O3  UNL     1       9.271  44.571  -3.171  1.00  0.00    -0.272 OA
HETATM    3  N1  UNL     1       9.458  42.885  -4.748  1.00  0.00    -0.268 N 
ATOM      4  H1  UNL     1      10.032  42.357  -5.406  1.00  0.00     0.190 HD
ENDROOT
BRANCH   1   5
HETATM    5  C12 UNL     1      11.463  44.207  -4.102  1.00  0.00     0.105 C 
BRANCH   5   6
HETATM    6  C11 UNL     1      12.319  44.082  -2.920  1.00  0.00     0.013 C 
BRANCH   6   7
HETATM    7  C10 UNL     1      13.554  43.268  -2.970  1.00  0.00     0.028 C 
BRANCH   7   8
HETATM    8  C9  UNL     1      14.772  43.716  -2.379  1.00  0.00    -0.019 C 
HETATM    9  C8  UNL     1      15.378  43.208  -1.335  1.00  0.00     0.046 C 
BRANCH   9  10
HETATM   10  C7  UNL     1      14.890  42.070  -0.588  1.00  0.00    -0.156 C 
BRANCH  10  11
HETATM   11  C6  UNL     1      14.484  41.123   0.034  1.00  0.00     0.085 C 
BRANCH  11  12
HETATM   12  C5  UNL     1      14.313  39.666  -0.443  1.00  0.00     0.012 C 
BRANCH  12  13
HETATM   13  C4  UNL     1      13.588  39.697  -1.748  1.00  0.00     0.011 C 
BRANCH  13  14
HETATM   14  C3  UNL     1      12.117  39.465  -1.647  1.00  0.00     0.111 C 
BRANCH  14  15
HETATM   15  C2  UNL     1      11.233  40.488  -2.198  1.00  0.00     0.258 C 
HETATM   16  O2  UNL     1      10.881  40.621  -3.383  1.00  0.00    -0.265 OA
BRANCH  15  17
HETATM   17  O1  UNL     1      10.654  41.481  -1.331  1.00  0.00    -0.326 OA
HETATM   18  C1  UNL     1      10.741  41.339   0.064  1.00  0.00     0.213 C 
ENDBRANCH  15  17
ENDBRANCH  14  15
ENDBRANCH  13  14
ENDBRANCH  12  13
ENDBRANCH  11  12
ENDBRANCH  10  11
ENDBRANCH   9  10
ENDBRANCH   7   8
ENDBRANCH   6   7
ENDBRANCH   5   6
ENDBRANCH   1   5
BRANCH   3  19
HETATM   19  N2  UNL     1       8.110  42.618  -4.586  1.00  0.00    -0.274 N 
ATOM     20  H2  UNL     1       7.421  43.301  -4.903  1.00  0.00     0.189 HD
BRANCH  19  21
HETATM   21  C14 UNL     1       7.673  41.409  -3.988  1.00  0.00     0.188 C 
HETATM   22  S1  UNL     1       7.021  40.245  -4.902  1.00  0.00    -0.040 SA
BRANCH  21  23
HETATM   23  N3  UNL     1       7.812  41.282  -2.578  1.00  0.00    -0.338 N 
ATOM     24  H3  UNL     1       8.706  41.512  -2.146  1.00  0.00     0.164 HD
BRANCH  23  25
HETATM   25  C15 UNL     1       6.739  40.842  -1.753  1.00  0.00     0.286 C 
HETATM   26  C16 UNL     1       5.483  41.678  -1.881  1.00  0.00     0.054 C 
HETATM   27  C17 UNL     1       4.382  40.906  -1.138  1.00  0.00     0.005 C 
HETATM   28  C18 UNL     1       4.847  40.892   0.313  1.00  0.00     0.028 C 
HETATM   29  C19 UNL     1       6.150  40.188   0.471  1.00  0.00     0.235 C 
HETATM   30  N4  UNL     1       7.187  40.767  -0.372  1.00  0.00    -0.054 N 
ATOM     31  H42 UNL     1       8.071  40.264  -0.287  1.00  0.00     0.279 HD
ATOM     32  H41 UNL     1       7.496  41.675  -0.024  1.00  0.00     0.279 HD
ENDBRANCH  23  25
ENDBRANCH  21  23
ENDBRANCH  19  21
ENDBRANCH   3  19
TORSDOF 15
ENDMDL
MODEL 4
REMARK VINA RESULT: -6.249672963      2.490      3.627
REMARK  15 active torsions:
REMARK  status: ('A' for Active; 'I' for Inactive)
REMARK    1  A    between atoms: O1_2  and  C2_3 
REMARK    2  A    between atoms: C2_3  and  C3_5 
REMARK    3  A    between atoms: C3_5  and  C4_6 
REMARK    4  A    between atoms: C4_6  and  C5_7 
REMARK    5  A    between atoms: C5_7  and  C6_8 
REMARK    6  A    between atoms: C6_8  and  C7_9 
REMARK    7  A    between atoms: C7_9  and  C8_10 
REMARK    8  A    between atoms: C9_11  and  C10_12 
REMARK    9  A    between atoms: C10_12  and  C11_13 
REMARK   10  A    between atoms: C11_13  and  C12_14 
REMARK   11  A    between atoms: C12_14  and  C13_15 
REMARK       I    between atoms: C13_15  and  N1_17 
REMARK   12  A    between atoms: N1_17  and  N2_19 
REMARK   13  A    between atoms: N2_19  and  C14_21 
REMARK   14  A    between atoms: C14_21  and  N3_23 
REMARK   15  A    between atoms: N3_23  and  C15_25 
ROOT
HETATM    1  C13 UNL     1       9.911  43.793  -4.197  1.00  0.00     0.236 C 
HETATM    2  O3  UNL     1       9.028  44.530  -4.657  1.00  0.00    -0.272 OA
HETATM    3  N1  UNL     1       9.743  42.358  -4.292  1.00  0.00    -0.268 N 
ATOM      4  H1  UNL     1      10.451  41.714  -3.940  1.00  0.00     0.190 HD
ENDROOT
BRANCH   1   5
HETATM    5  C12 UNL     1      11.147  44.269  -3.541  1.00  0.00     0.105 C 
BRANCH   5   6
HETATM    6  C11 UNL     1      12.403  44.173  -4.289  1.00  0.00     0.013 C 
BRANCH   6   7
HETATM    7  C10 UNL     1      13.553  43.427  -3.731  1.00  0.00     0.028 C 
BRANCH   7   8
HETATM    8  C9  UNL     1      14.121  43.762  -2.467  1.00  0.00    -0.019 C 
HETATM    9  C8  UNL     1      15.064  43.115  -1.827  1.00  0.00     0.046 C 
BRANCH   9  10
HETATM   10  C7  UNL     1      15.702  41.915  -2.321  1.00  0.00    -0.156 C 
BRANCH  10  11
HETATM   11  C6  UNL     1      16.232  40.915  -2.731  1.00  0.00     0.085 C 
BRANCH  11  12
HETATM   12  C5  UNL     1      15.828  40.043  -3.938  1.00  0.00     0.012 C 
BRANCH  12  13
HETATM   13  C4  UNL     1      14.368  40.244  -4.176  1.00  0.00     0.011 C 
BRANCH  13  14
HETATM   14  C3  UNL     1      13.478  39.430  -3.295  1.00  0.00     0.111 C 
BRANCH  14  15
HETATM   15  C2  UNL     1      12.379  40.119  -2.626  1.00  0.00     0.258 C 
HETATM   16  O2  UNL     1      11.234  40.321  -3.070  1.00  0.00    -0.265 OA
BRANCH  15  17
HETATM   17  O1  UNL     1      12.559  40.639  -1.296  1.00  0.00    -0.326 OA
HETATM   18  C1  UNL     1      11.628  41.542  -0.757  1.00  0.00     0.213 C 
ENDBRANCH  15  17
ENDBRANCH  14  15
ENDBRANCH  13  14
ENDBRANCH  12  13
ENDBRANCH  11  12
ENDBRANCH  10  11
ENDBRANCH   9  10
ENDBRANCH   7   8
ENDBRANCH   6   7
ENDBRANCH   5   6
ENDBRANCH   1   5
BRANCH   3  19
HETATM   19  N2  UNL     1       8.578  41.901  -4.883  1.00  0.00    -0.274 N 
ATOM     20  H2  UNL     1       8.483  41.934  -5.898  1.00  0.00     0.189 HD
BRANCH  19  21
HETATM   21  C14 UNL     1       7.514  41.389  -4.097  1.00  0.00     0.188 C 
HETATM   22  S1  UNL     1       7.749  40.080  -3.176  1.00  0.00    -0.040 SA
BRANCH  21  23
HETATM   23  N3  UNL     1       6.258  42.051  -4.173  1.00  0.00    -0.338 N 
ATOM     24  H3  UNL     1       6.164  42.867  -4.778  1.00  0.00     0.164 HD
BRANCH  23  25
HETATM   25  C15 UNL     1       5.129  41.610  -3.428  1.00  0.00     0.286 C 
HETATM   26  C16 UNL     1       3.841  41.584  -4.223  1.00  0.00     0.054 C 
HETATM   27  C17 UNL     1       2.818  40.843  -3.349  1.00  0.00     0.005 C 
HETATM   28  C18 UNL     1       2.651  41.737  -2.126  1.00  0.00     0.028 C 
HETATM   29  C19 UNL     1       3.929  41.898  -1.378  1.00  0.00     0.235 C 
HETATM   30  N4  UNL     1       4.993  42.418  -2.227  1.00  0.00    -0.054 N 
ATOM     31  H42 UNL     1       5.876  42.498  -1.722  1.00  0.00     0.279 HD
ATOM     32  H41 UNL     1       4.855  43.405  -2.447  1.00  0.00     0.279 HD
ENDBRANCH  23  25
ENDBRANCH  21  23
ENDBRANCH  19  21
ENDBRANCH   3  19
TORSDOF 15
ENDMDL
MODEL 5
REMARK VINA RESULT: -6.200301406      2.096      4.013
REMARK  15 active torsions:
REMARK  status: ('A' for Active; 'I' for Inactive)
REMARK    1  A    between atoms: O1_2  and  C2_3 
REMARK    2  A    between atoms: C2_3  and  C3_5 
REMARK    3  A    between atoms: C3_5  and  C4_6 
REMARK    4  A    between atoms: C4_6  and  C5_7 
REMARK    5  A    between atoms: C5_7  and  C6_8 
REMARK    6  A    between atoms: C6_8  and  C7_9 
REMARK    7  A    between atoms: C7_9  and  C8_10 
REMARK    8  A    between atoms: C9_11  and  C10_12 
REMARK    9  A    between atoms: C10_12  and  C11_13 
REMARK   10  A    between atoms: C11_13  and  C12_14 
REMARK   11  A    between atoms: C12_14  and  C13_15 
REMARK       I    between atoms: C13_15  and  N1_17 
REMARK   12  A    between atoms: N1_17  and  N2_19 
REMARK   13  A    between atoms: N2_19  and  C14_21 
REMARK   14  A    between atoms: C14_21  and  N3_23 
REMARK   15  A    between atoms: N3_23  and  C15_25 
ROOT
HETATM    1  C13 UNL     1      12.862  41.109  -3.660  1.00  0.00     0.236 C 
HETATM    2  O3  UNL     1      12.420  39.954  -3.571  1.00  0.00    -0.272 OA
HETATM    3  N1  UNL     1      11.927  42.207  -3.785  1.00  0.00    -0.268 N 
ATOM      4  H1  UNL     1      12.245  43.174  -3.846  1.00  0.00     0.190 HD
ENDROOT
BRANCH   1   5
HETATM    5  C12 UNL     1      14.296  41.463  -3.653  1.00  0.00     0.105 C 
BRANCH   5   6
HETATM    6  C11 UNL     1      14.665  42.825  -3.258  1.00  0.00     0.013 C 
BRANCH   6   7
HETATM    7  C10 UNL     1      14.670  43.217  -1.830  1.00  0.00     0.028 C 
BRANCH   7   8
HETATM    8  C9  UNL     1      15.450  42.515  -0.864  1.00  0.00    -0.019 C 
HETATM    9  C8  UNL     1      15.043  41.563  -0.061  1.00  0.00     0.046 C 
BRANCH   9  10
HETATM   10  C7  UNL     1      13.689  41.055  -0.025  1.00  0.00    -0.156 C 
BRANCH  10  11
HETATM   11  C6  UNL     1      12.563  40.632   0.005  1.00  0.00     0.085 C 
BRANCH  11  12
HETATM   12  C5  UNL     1      11.249  41.385  -0.288  1.00  0.00     0.012 C 
BRANCH  12  13
HETATM   13  C4  UNL     1      10.163  40.728   0.498  1.00  0.00     0.011 C 
BRANCH  13  14
HETATM   14  C3  UNL     1       9.036  40.197  -0.323  1.00  0.00     0.111 C 
BRANCH  14  15
HETATM   15  C2  UNL     1       9.375  39.416  -1.509  1.00  0.00     0.258 C 
HETATM   16  O2  UNL     1       9.011  39.627  -2.680  1.00  0.00    -0.265 OA
BRANCH  15  17
HETATM   17  O1  UNL     1      10.231  38.264  -1.392  1.00  0.00    -0.326 OA
HETATM   18  C1  UNL     1       9.749  37.083  -0.804  1.00  0.00     0.213 C 
ENDBRANCH  15  17
ENDBRANCH  14  15
ENDBRANCH  13  14
ENDBRANCH  12  13
ENDBRANCH  11  12
ENDBRANCH  10  11
ENDBRANCH   9  10
ENDBRANCH   7   8
ENDBRANCH   6   7
ENDBRANCH   5   6
ENDBRANCH   1   5
BRANCH   3  19
HETATM   19  N2  UNL     1      10.581  41.884  -3.818  1.00  0.00    -0.274 N 
ATOM     20  H2  UNL     1      10.301  40.909  -3.922  1.00  0.00     0.189 HD
BRANCH  19  21
HETATM   21  C14 UNL     1       9.587  42.889  -3.710  1.00  0.00     0.188 C 
HETATM   22  S1  UNL     1       9.738  44.267  -4.544  1.00  0.00    -0.040 SA
BRANCH  21  23
HETATM   23  N3  UNL     1       8.489  42.642  -2.840  1.00  0.00    -0.338 N 
ATOM     24  H3  UNL     1       8.654  42.604  -1.834  1.00  0.00     0.164 HD
BRANCH  23  25
HETATM   25  C15 UNL     1       7.168  42.447  -3.332  1.00  0.00     0.286 C 
HETATM   26  C16 UNL     1       6.201  41.910  -2.298  1.00  0.00     0.054 C 
HETATM   27  C17 UNL     1       4.804  42.021  -2.926  1.00  0.00     0.005 C 
HETATM   28  C18 UNL     1       4.856  41.079  -4.123  1.00  0.00     0.028 C 
HETATM   29  C19 UNL     1       5.887  41.495  -5.113  1.00  0.00     0.235 C 
HETATM   30  N4  UNL     1       7.209  41.597  -4.510  1.00  0.00    -0.054 N 
ATOM     31  H42 UNL     1       7.909  41.913  -5.182  1.00  0.00     0.279 HD
ATOM     32  H41 UNL     1       7.603  40.679  -4.302  1.00  0.00     0.279 HD
ENDBRANCH  23  25
ENDBRANCH  21  23
ENDBRANCH  19  21
ENDBRANCH   3  19
TORSDOF 15
ENDMDL
