MODEL 1
REMARK VINA RESULT: -7.803666359      0.000      0.000
REMARK  13 active torsions:
REMARK  status: ('A' for Active; 'I' for Inactive)
REMARK    1  A    between atoms: C1_2  and  C2_5 
REMARK    2  A    between atoms: C4_9  and  N2_10 
REMARK    3  A    between atoms: N2_10  and  C5_12 
REMARK    4  A    between atoms: C5_12  and  C6_13 
REMARK    5  A    between atoms: C6_13  and  C7_14 
REMARK    6  A    between atoms: C7_14  and  N3_15 
REMARK    7  A    between atoms: N3_15  and  C8_17 
REMARK    8  A    between atoms: C10_21  and  N5_22 
REMARK    9  A    between atoms: N5_22  and  C11_24 
REMARK   10  A    between atoms: C11_24  and  C12_25 
REMARK   11  A    between atoms: C18_36  and  N8_37 
REMARK   12  A    between atoms: N8_37  and  C19_38 
REMARK   13  A    between atoms: C19_38  and  C20_39 
ROOT
HETATM    1  N2  UNL     1      26.716   6.200  13.721  1.00  0.00    -0.226 N 
ATOM      2  H2  UNL     1      27.011   6.770  14.514  1.00  0.00     0.177 HD
ENDROOT
BRANCH   1   3
HETATM    3  C4  UNL     1      27.232   6.385  12.530  1.00  0.00     0.680 A 
HETATM    4  N1  UNL     1      28.174   7.320  12.308  1.00  0.00    -0.201 N 
HETATM    5  C3  UNL     1      28.694   7.505  11.085  1.00  0.00     0.127 A 
ATOM      6  H1  UNL     1      28.498   7.898  13.084  1.00  0.00     0.183 HD
HETATM    7  C2  UNL     1      28.282   6.744  10.018  1.00  0.00     0.122 A 
HETATM    8  C18 UNL     1      27.301   5.762  10.225  1.00  0.00     0.208 A 
HETATM    9  N7  UNL     1      26.815   5.633  11.516  1.00  0.00    -0.164 N 
ATOM     10  H7  UNL     1      26.101   4.927  11.697  1.00  0.00     0.187 HD
BRANCH   7  11
HETATM   11  C1  UNL     1      28.885   6.960   8.673  1.00  0.00     0.423 C 
HETATM   12  F1  UNL     1      29.525   5.843   8.216  1.00  0.00    -0.166 F 
HETATM   13  F2  UNL     1      29.864   7.958   8.747  1.00  0.00    -0.166 F 
HETATM   14  F3  UNL     1      27.970   7.407   7.742  1.00  0.00    -0.166 F 
ENDBRANCH   7  11
BRANCH   8  15
HETATM   15  N8  UNL     1      26.918   5.095   9.316  1.00  0.00    -0.402 NA
BRANCH  15  16
HETATM   16  C19 UNL     1      26.465   4.358   8.302  1.00  0.00     0.162 C 
BRANCH  16  17
HETATM   17  C20 UNL     1      25.154   3.593   8.587  1.00  0.00     0.042 C 
HETATM   18  C21 UNL     1      24.387   4.391   9.602  1.00  0.00     0.037 C 
HETATM   19  C22 UNL     1      23.164   3.587  10.060  1.00  0.00     0.168 C 
HETATM   20  O2  UNL     1      23.666   2.442  10.693  1.00  0.00    -0.391 OA
HETATM   21  C23 UNL     1      24.267   1.600   9.756  1.00  0.00     0.168 C 
HETATM   22  C24 UNL     1      25.510   2.254   9.218  1.00  0.00     0.037 C 
ENDBRANCH  16  17
ENDBRANCH  15  16
ENDBRANCH   8  15
ENDBRANCH   1   3
BRANCH   1  23
HETATM   23  C5  UNL     1      25.730   5.181  13.880  1.00  0.00     0.139 C 
BRANCH  23  24
HETATM   24  C6  UNL     1      25.152   5.141  15.281  1.00  0.00     0.040 C 
BRANCH  24  25
HETATM   25  C7  UNL     1      23.839   5.858  15.292  1.00  0.00     0.121 C 
BRANCH  25  26
HETATM   26  N3  UNL     1      24.006   7.161  15.898  1.00  0.00    -0.388 N 
ATOM     27  H3  UNL     1      24.013   7.221  16.917  1.00  0.00     0.159 HD
BRANCH  26  28
HETATM   28  C8  UNL     1      24.160   8.361  15.153  1.00  0.00     0.060 A 
HETATM   29  C9  UNL     1      24.718   9.454  15.782  1.00  0.00     0.136 A 
HETATM   30  N4  UNL     1      24.851  10.594  15.075  1.00  0.00    -0.200 N 
HETATM   31  C10 UNL     1      24.474  10.732  13.795  1.00  0.00     0.677 A 
ATOM     32  H4  UNL     1      25.265  11.401  15.542  1.00  0.00     0.183 HD
HETATM   33  N6  UNL     1      23.930   9.664  13.186  1.00  0.00    -0.200 N 
HETATM   34  C17 UNL     1      23.766   8.482  13.840  1.00  0.00     0.136 A 
ATOM     35  H6  UNL     1      23.635   9.742  12.213  1.00  0.00     0.183 HD
BRANCH  31  36
HETATM   36  N5  UNL     1      24.622  11.861  13.144  1.00  0.00    -0.224 N 
ATOM     37  H5  UNL     1      24.362  12.741  13.591  1.00  0.00     0.177 HD
BRANCH  36  38
HETATM   38  C11 UNL     1      25.152  11.870  11.795  1.00  0.00     0.170 C 
BRANCH  38  39
HETATM   39  C12 UNL     1      26.543  11.264  11.805  1.00  0.00     0.139 C 
HETATM   40  C13 UNL     1      27.465  12.002  10.857  1.00  0.00     0.034 C 
HETATM   41  C14 UNL     1      27.989  11.006   9.840  1.00  0.00     0.005 C 
HETATM   42  C15 UNL     1      26.766  10.381   9.169  1.00  0.00     0.026 C 
HETATM   43  C16 UNL     1      26.003   9.632  10.246  1.00  0.00     0.168 C 
HETATM   44  O1  UNL     1      26.503   9.902  11.510  1.00  0.00    -0.384 OA
ENDBRANCH  38  39
ENDBRANCH  36  38
ENDBRANCH  31  36
ENDBRANCH  26  28
ENDBRANCH  25  26
ENDBRANCH  24  25
ENDBRANCH  23  24
ENDBRANCH   1  23
TORSDOF 13
ENDMDL
MODEL 2
REMARK VINA RESULT: -7.737456967      2.852      5.724
REMARK  13 active torsions:
REMARK  status: ('A' for Active; 'I' for Inactive)
REMARK    1  A    between atoms: C1_2  and  C2_5 
REMARK    2  A    between atoms: C4_9  and  N2_10 
REMARK    3  A    between atoms: N2_10  and  C5_12 
REMARK    4  A    between atoms: C5_12  and  C6_13 
REMARK    5  A    between atoms: C6_13  and  C7_14 
REMARK    6  A    between atoms: C7_14  and  N3_15 
REMARK    7  A    between atoms: N3_15  and  C8_17 
REMARK    8  A    between atoms: C10_21  and  N5_22 
REMARK    9  A    between atoms: N5_22  and  C11_24 
REMARK   10  A    between atoms: C11_24  and  C12_25 
REMARK   11  A    between atoms: C18_36  and  N8_37 
REMARK   12  A    between atoms: N8_37  and  C19_38 
REMARK   13  A    between atoms: C19_38  and  C20_39 
ROOT
HETATM    1  N2  UNL     1      28.253   6.555   9.658  1.00  0.00    -0.226 N 
ATOM      2  H2  UNL     1      28.100   7.402  10.205  1.00  0.00     0.177 HD
ENDROOT
BRANCH   1   3
HETATM    3  C4  UNL     1      27.314   5.647   9.548  1.00  0.00     0.680 A 
HETATM    4  N1  UNL     1      27.178   4.906   8.434  1.00  0.00    -0.201 N 
HETATM    5  C3  UNL     1      26.210   3.981   8.328  1.00  0.00     0.127 A 
ATOM      6  H1  UNL     1      27.821   5.050   7.655  1.00  0.00     0.183 HD
HETATM    7  C2  UNL     1      25.327   3.760   9.358  1.00  0.00     0.122 A 
HETATM    8  C18 UNL     1      25.450   4.520  10.530  1.00  0.00     0.208 A 
HETATM    9  N7  UNL     1      26.473   5.454  10.561  1.00  0.00    -0.164 N 
ATOM     10  H7  UNL     1      26.588   6.021  11.401  1.00  0.00     0.187 HD
BRANCH   7  11
HETATM   11  C1  UNL     1      24.272   2.718   9.221  1.00  0.00     0.423 C 
HETATM   12  F1  UNL     1      24.531   1.624   9.996  1.00  0.00    -0.166 F 
HETATM   13  F2  UNL     1      24.234   2.251   7.901  1.00  0.00    -0.166 F 
HETATM   14  F3  UNL     1      23.005   3.202   9.478  1.00  0.00    -0.166 F 
ENDBRANCH   7  11
BRANCH   8  15
HETATM   15  N8  UNL     1      24.692   4.357  11.434  1.00  0.00    -0.402 NA
BRANCH  15  16
HETATM   16  C19 UNL     1      23.854   4.194  12.457  1.00  0.00     0.162 C 
BRANCH  16  17
HETATM   17  C20 UNL     1      24.198   5.018  13.718  1.00  0.00     0.042 C 
HETATM   18  C21 UNL     1      25.686   4.940  13.906  1.00  0.00     0.037 C 
HETATM   19  C22 UNL     1      26.063   5.584  15.245  1.00  0.00     0.168 C 
HETATM   20  O2  UNL     1      25.457   4.802  16.237  1.00  0.00    -0.391 OA
HETATM   21  C23 UNL     1      24.070   4.957  16.189  1.00  0.00     0.168 C 
HETATM   22  C24 UNL     1      23.541   4.350  14.919  1.00  0.00     0.037 C 
ENDBRANCH  16  17
ENDBRANCH  15  16
ENDBRANCH   8  15
ENDBRANCH   1   3
BRANCH   1  23
HETATM   23  C5  UNL     1      29.494   6.328   8.994  1.00  0.00     0.139 C 
BRANCH  23  24
HETATM   24  C6  UNL     1      30.076   7.593   8.394  1.00  0.00     0.040 C 
BRANCH  24  25
HETATM   25  C7  UNL     1      30.398   8.557   9.492  1.00  0.00     0.121 C 
BRANCH  25  26
HETATM   26  N3  UNL     1      29.689   9.798   9.267  1.00  0.00    -0.388 N 
ATOM     27  H3  UNL     1      30.071  10.454   8.585  1.00  0.00     0.159 HD
BRANCH  26  28
HETATM   28  C8  UNL     1      28.490  10.153   9.944  1.00  0.00     0.060 A 
HETATM   29  C9  UNL     1      27.288   9.909   9.314  1.00  0.00     0.136 A 
HETATM   30  N4  UNL     1      26.154  10.259   9.955  1.00  0.00    -0.200 N 
HETATM   31  C10 UNL     1      26.123  10.833  11.167  1.00  0.00     0.677 A 
ATOM     32  H4  UNL     1      25.266  10.077   9.488  1.00  0.00     0.183 HD
HETATM   33  N6  UNL     1      27.298  11.069  11.776  1.00  0.00    -0.200 N 
HETATM   34  C17 UNL     1      28.481  10.741  11.188  1.00  0.00     0.136 A 
ATOM     35  H6  UNL     1      27.303  11.503  12.699  1.00  0.00     0.183 HD
BRANCH  31  36
HETATM   36  N5  UNL     1      24.996  11.158  11.754  1.00  0.00    -0.224 N 
ATOM     37  H5  UNL     1      24.219  11.514  11.196  1.00  0.00     0.177 HD
BRANCH  36  38
HETATM   38  C11 UNL     1      24.845  11.015  13.189  1.00  0.00     0.170 C 
BRANCH  38  39
HETATM   39  C12 UNL     1      25.015   9.554  13.562  1.00  0.00     0.139 C 
HETATM   40  C13 UNL     1      23.853   9.069  14.405  1.00  0.00     0.034 C 
HETATM   41  C14 UNL     1      24.406   8.566  15.724  1.00  0.00     0.005 C 
HETATM   42  C15 UNL     1      25.190   9.725  16.341  1.00  0.00     0.026 C 
HETATM   43  C16 UNL     1      26.345  10.028  15.404  1.00  0.00     0.168 C 
HETATM   44  O1  UNL     1      26.231   9.336  14.209  1.00  0.00    -0.384 OA
ENDBRANCH  38  39
ENDBRANCH  36  38
ENDBRANCH  31  36
ENDBRANCH  26  28
ENDBRANCH  25  26
ENDBRANCH  24  25
ENDBRANCH  23  24
ENDBRANCH   1  23
TORSDOF 13
ENDMDL
MODEL 3
REMARK VINA RESULT: -7.710827777      2.481      4.330
REMARK  13 active torsions:
REMARK  status: ('A' for Active; 'I' for Inactive)
REMARK    1  A    between atoms: C1_2  and  C2_5 
REMARK    2  A    between atoms: C4_9  and  N2_10 
REMARK    3  A    between atoms: N2_10  and  C5_12 
REMARK    4  A    between atoms: C5_12  and  C6_13 
REMARK    5  A    between atoms: C6_13  and  C7_14 
REMARK    6  A    between atoms: C7_14  and  N3_15 
REMARK    7  A    between atoms: N3_15  and  C8_17 
REMARK    8  A    between atoms: C10_21  and  N5_22 
REMARK    9  A    between atoms: N5_22  and  C11_24 
REMARK   10  A    between atoms: C11_24  and  C12_25 
REMARK   11  A    between atoms: C18_36  and  N8_37 
REMARK   12  A    between atoms: N8_37  and  C19_38 
REMARK   13  A    between atoms: C19_38  and  C20_39 
ROOT
HETATM    1  N2  UNL     1      23.633   4.672  13.896  1.00  0.00    -0.226 N 
ATOM      2  H2  UNL     1      22.643   4.891  14.007  1.00  0.00     0.177 HD
ENDROOT
BRANCH   1   3
HETATM    3  C4  UNL     1      24.154   4.499  12.706  1.00  0.00     0.680 A 
HETATM    4  N1  UNL     1      23.427   4.020  11.681  1.00  0.00    -0.201 N 
HETATM    5  C3  UNL     1      23.970   3.843  10.466  1.00  0.00     0.127 A 
ATOM      6  H1  UNL     1      22.444   3.787  11.829  1.00  0.00     0.183 HD
HETATM    7  C2  UNL     1      25.290   4.147  10.230  1.00  0.00     0.122 A 
HETATM    8  C18 UNL     1      26.068   4.648  11.284  1.00  0.00     0.208 A 
HETATM    9  N7  UNL     1      25.434   4.802  12.506  1.00  0.00    -0.164 N 
ATOM     10  H7  UNL     1      25.974   5.166  13.291  1.00  0.00     0.187 HD
BRANCH   7  11
HETATM   11  C1  UNL     1      25.865   3.954   8.870  1.00  0.00     0.423 C 
HETATM   12  F1  UNL     1      26.444   5.096   8.394  1.00  0.00    -0.166 F 
HETATM   13  F2  UNL     1      24.846   3.637   7.964  1.00  0.00    -0.166 F 
HETATM   14  F3  UNL     1      26.755   2.901   8.810  1.00  0.00    -0.166 F 
ENDBRANCH   7  11
BRANCH   8  15
HETATM   15  N8  UNL     1      27.217   4.910  11.110  1.00  0.00    -0.402 NA
BRANCH  15  16
HETATM   16  C19 UNL     1      28.509   5.183  10.931  1.00  0.00     0.162 C 
BRANCH  16  17
HETATM   17  C20 UNL     1      28.814   6.632  10.493  1.00  0.00     0.042 C 
HETATM   18  C21 UNL     1      29.289   6.574   9.070  1.00  0.00     0.037 C 
HETATM   19  C22 UNL     1      29.782   7.962   8.642  1.00  0.00     0.168 C 
HETATM   20  O2  UNL     1      30.883   8.252   9.458  1.00  0.00    -0.391 OA
HETATM   21  C23 UNL     1      30.464   8.455  10.775  1.00  0.00     0.168 C 
HETATM   22  C24 UNL     1      29.960   7.159  11.346  1.00  0.00     0.037 C 
ENDBRANCH  16  17
ENDBRANCH  15  16
ENDBRANCH   8  15
ENDBRANCH   1   3
BRANCH   1  23
HETATM   23  C5  UNL     1      24.485   4.545  15.033  1.00  0.00     0.139 C 
BRANCH  23  24
HETATM   24  C6  UNL     1      24.061   5.435  16.184  1.00  0.00     0.040 C 
BRANCH  24  25
HETATM   25  C7  UNL     1      23.434   6.680  15.640  1.00  0.00     0.121 C 
BRANCH  25  26
HETATM   26  N3  UNL     1      24.454   7.685  15.436  1.00  0.00    -0.388 N 
ATOM     27  H3  UNL     1      24.879   8.114  16.258  1.00  0.00     0.159 HD
BRANCH  26  28
HETATM   28  C8  UNL     1      24.897   8.108  14.153  1.00  0.00     0.060 A 
HETATM   29  C9  UNL     1      26.243   8.023  13.865  1.00  0.00     0.136 A 
HETATM   30  N4  UNL     1      26.660   8.437  12.652  1.00  0.00    -0.200 N 
HETATM   31  C10 UNL     1      25.845   8.928  11.705  1.00  0.00     0.677 A 
ATOM     32  H4  UNL     1      27.656   8.372  12.440  1.00  0.00     0.183 HD
HETATM   33  N6  UNL     1      24.535   9.010  11.991  1.00  0.00    -0.200 N 
HETATM   34  C17 UNL     1      24.045   8.609  13.196  1.00  0.00     0.136 A 
ATOM     35  H6  UNL     1      23.893   9.379  11.289  1.00  0.00     0.183 HD
BRANCH  31  36
HETATM   36  N5  UNL     1      26.295   9.320  10.537  1.00  0.00    -0.224 N 
ATOM     37  H5  UNL     1      26.540   8.626   9.830  1.00  0.00     0.177 HD
BRANCH  36  38
HETATM   38  C11 UNL     1      26.446  10.732  10.242  1.00  0.00     0.170 C 
BRANCH  38  39
HETATM   39  C12 UNL     1      27.510  10.904   9.175  1.00  0.00     0.139 C 
HETATM   40  C13 UNL     1      28.814  11.381   9.779  1.00  0.00     0.034 C 
HETATM   41  C14 UNL     1      29.184  12.697   9.122  1.00  0.00     0.005 C 
HETATM   42  C15 UNL     1      28.005  13.644   9.344  1.00  0.00     0.026 C 
HETATM   43  C16 UNL     1      26.813  13.046   8.618  1.00  0.00     0.168 C 
HETATM   44  O1  UNL     1      27.079  11.764   8.165  1.00  0.00    -0.384 OA
ENDBRANCH  38  39
ENDBRANCH  36  38
ENDBRANCH  31  36
ENDBRANCH  26  28
ENDBRANCH  25  26
ENDBRANCH  24  25
ENDBRANCH  23  24
ENDBRANCH   1  23
TORSDOF 13
ENDMDL
MODEL 4
REMARK VINA RESULT: -7.695551497      3.043      5.660
REMARK  13 active torsions:
REMARK  status: ('A' for Active; 'I' for Inactive)
REMARK    1  A    between atoms: C1_2  and  C2_5 
REMARK    2  A    between atoms: C4_9  and  N2_10 
REMARK    3  A    between atoms: N2_10  and  C5_12 
REMARK    4  A    between atoms: C5_12  and  C6_13 
REMARK    5  A    between atoms: C6_13  and  C7_14 
REMARK    6  A    between atoms: C7_14  and  N3_15 
REMARK    7  A    between atoms: N3_15  and  C8_17 
REMARK    8  A    between atoms: C10_21  and  N5_22 
REMARK    9  A    between atoms: N5_22  and  C11_24 
REMARK   10  A    between atoms: C11_24  and  C12_25 
REMARK   11  A    between atoms: C18_36  and  N8_37 
REMARK   12  A    between atoms: N8_37  and  C19_38 
REMARK   13  A    between atoms: C19_38  and  C20_39 
ROOT
HETATM    1  N2  UNL     1      28.072   6.678   9.554  1.00  0.00    -0.226 N 
ATOM      2  H2  UNL     1      28.172   7.237  10.402  1.00  0.00     0.177 HD
ENDROOT
BRANCH   1   3
HETATM    3  C4  UNL     1      27.179   5.721   9.482  1.00  0.00     0.680 A 
HETATM    4  N1  UNL     1      27.069   4.941   8.392  1.00  0.00    -0.201 N 
HETATM    5  C3  UNL     1      26.149   3.965   8.325  1.00  0.00     0.127 A 
ATOM      6  H1  UNL     1      27.696   5.093   7.601  1.00  0.00     0.183 HD
HETATM    7  C2  UNL     1      25.289   3.731   9.371  1.00  0.00     0.122 A 
HETATM    8  C18 UNL     1      25.385   4.532  10.519  1.00  0.00     0.208 A 
HETATM    9  N7  UNL     1      26.360   5.516  10.510  1.00  0.00    -0.164 N 
ATOM     10  H7  UNL     1      26.454   6.114  11.331  1.00  0.00     0.187 HD
BRANCH   7  11
HETATM   11  C1  UNL     1      24.286   2.634   9.277  1.00  0.00     0.423 C 
HETATM   12  F1  UNL     1      24.624   1.566  10.060  1.00  0.00    -0.166 F 
HETATM   13  F2  UNL     1      24.238   2.145   7.966  1.00  0.00    -0.166 F 
HETATM   14  F3  UNL     1      23.003   3.055   9.563  1.00  0.00    -0.166 F 
ENDBRANCH   7  11
BRANCH   8  15
HETATM   15  N8  UNL     1      24.645   4.358  11.436  1.00  0.00    -0.402 NA
BRANCH  15  16
HETATM   16  C19 UNL     1      23.836   4.170  12.478  1.00  0.00     0.162 C 
BRANCH  16  17
HETATM   17  C20 UNL     1      24.186   5.001  13.732  1.00  0.00     0.042 C 
HETATM   18  C21 UNL     1      25.672   4.911  13.923  1.00  0.00     0.037 C 
HETATM   19  C22 UNL     1      26.053   5.564  15.258  1.00  0.00     0.168 C 
HETATM   20  O2  UNL     1      25.438   4.797  16.255  1.00  0.00    -0.391 OA
HETATM   21  C23 UNL     1      24.052   4.963  16.204  1.00  0.00     0.168 C 
HETATM   22  C24 UNL     1      23.521   4.350  14.938  1.00  0.00     0.037 C 
ENDBRANCH  16  17
ENDBRANCH  15  16
ENDBRANCH   8  15
ENDBRANCH   1   3
BRANCH   1  23
HETATM   23  C5  UNL     1      28.899   6.917   8.418  1.00  0.00     0.139 C 
BRANCH  23  24
HETATM   24  C6  UNL     1      30.176   7.657   8.769  1.00  0.00     0.040 C 
BRANCH  24  25
HETATM   25  C7  UNL     1      29.832   9.028   9.260  1.00  0.00     0.121 C 
BRANCH  25  26
HETATM   26  N3  UNL     1      30.323   9.194  10.610  1.00  0.00    -0.388 N 
ATOM     27  H3  UNL     1      31.328   9.119  10.770  1.00  0.00     0.159 HD
BRANCH  26  28
HETATM   28  C8  UNL     1      29.483   9.457  11.726  1.00  0.00     0.060 A 
HETATM   29  C9  UNL     1      29.984   9.226  12.990  1.00  0.00     0.136 A 
HETATM   30  N4  UNL     1      29.179   9.465  14.045  1.00  0.00    -0.200 N 
HETATM   31  C10 UNL     1      27.918   9.913  13.941  1.00  0.00     0.677 A 
ATOM     32  H4  UNL     1      29.551   9.295  14.979  1.00  0.00     0.183 HD
HETATM   33  N6  UNL     1      27.435  10.136  12.708  1.00  0.00    -0.200 N 
HETATM   34  C17 UNL     1      28.192   9.916  11.598  1.00  0.00     0.136 A 
ATOM     35  H6  UNL     1      26.479  10.477  12.600  1.00  0.00     0.183 HD
BRANCH  31  36
HETATM   36  N5  UNL     1      27.169  10.132  14.996  1.00  0.00    -0.224 N 
ATOM     37  H5  UNL     1      27.300   9.567  15.836  1.00  0.00     0.177 HD
BRANCH  36  38
HETATM   38  C11 UNL     1      26.158  11.171  14.978  1.00  0.00     0.170 C 
BRANCH  38  39
HETATM   39  C12 UNL     1      24.907  10.656  15.665  1.00  0.00     0.139 C 
HETATM   40  C13 UNL     1      25.041   9.187  16.010  1.00  0.00     0.034 C 
HETATM   41  C14 UNL     1      23.917   8.437  15.323  1.00  0.00     0.005 C 
HETATM   42  C15 UNL     1      24.032   8.745  13.830  1.00  0.00     0.026 C 
HETATM   43  C16 UNL     1      23.805  10.237  13.666  1.00  0.00     0.168 C 
HETATM   44  O1  UNL     1      23.772  10.888  14.889  1.00  0.00    -0.384 OA
ENDBRANCH  38  39
ENDBRANCH  36  38
ENDBRANCH  31  36
ENDBRANCH  26  28
ENDBRANCH  25  26
ENDBRANCH  24  25
ENDBRANCH  23  24
ENDBRANCH   1  23
TORSDOF 13
ENDMDL
MODEL 5
REMARK VINA RESULT: -7.684702069      2.309      3.947
REMARK  13 active torsions:
REMARK  status: ('A' for Active; 'I' for Inactive)
REMARK    1  A    between atoms: C1_2  and  C2_5 
REMARK    2  A    between atoms: C4_9  and  N2_10 
REMARK    3  A    between atoms: N2_10  and  C5_12 
REMARK    4  A    between atoms: C5_12  and  C6_13 
REMARK    5  A    between atoms: C6_13  and  C7_14 
REMARK    6  A    between atoms: C7_14  and  N3_15 
REMARK    7  A    between atoms: N3_15  and  C8_17 
REMARK    8  A    between atoms: C10_21  and  N5_22 
REMARK    9  A    between atoms: N5_22  and  C11_24 
REMARK   10  A    between atoms: C11_24  and  C12_25 
REMARK   11  A    between atoms: C18_36  and  N8_37 
REMARK   12  A    between atoms: N8_37  and  C19_38 
REMARK   13  A    between atoms: C19_38  and  C20_39 
ROOT
HETATM    1  N2  UNL     1      23.980   5.303  13.289  1.00  0.00    -0.226 N 
ATOM      2  H2  UNL     1      23.298   6.056  13.376  1.00  0.00     0.177 HD
ENDROOT
BRANCH   1   3
HETATM    3  C4  UNL     1      24.267   4.788  12.118  1.00  0.00     0.680 A 
HETATM    4  N1  UNL     1      23.534   3.792  11.588  1.00  0.00    -0.201 N 
HETATM    5  C3  UNL     1      23.838   3.268  10.390  1.00  0.00     0.127 A 
ATOM      6  H1  UNL     1      22.733   3.429  12.106  1.00  0.00     0.183 HD
HETATM    7  C2  UNL     1      24.908   3.733   9.665  1.00  0.00     0.122 A 
HETATM    8  C18 UNL     1      25.687   4.771  10.197  1.00  0.00     0.208 A 
HETATM    9  N7  UNL     1      25.308   5.258  11.438  1.00  0.00    -0.164 N 
ATOM     10  H7  UNL     1      25.856   6.014  11.850  1.00  0.00     0.187 HD
BRANCH   7  11
HETATM   11  C1  UNL     1      25.215   3.143   8.332  1.00  0.00     0.423 C 
HETATM   12  F1  UNL     1      24.352   2.135   8.009  1.00  0.00    -0.166 F 
HETATM   13  F2  UNL     1      26.490   2.564   8.351  1.00  0.00    -0.166 F 
HETATM   14  F3  UNL     1      25.253   4.087   7.325  1.00  0.00    -0.166 F 
ENDBRANCH   7  11
BRANCH   8  15
HETATM   15  N8  UNL     1      26.626   5.186   9.594  1.00  0.00    -0.402 NA
BRANCH  15  16
HETATM   16  C19 UNL     1      27.662   5.660   8.902  1.00  0.00     0.162 C 
BRANCH  16  17
HETATM   17  C20 UNL     1      28.278   6.962   9.459  1.00  0.00     0.042 C 
HETATM   18  C21 UNL     1      29.465   7.292   8.601  1.00  0.00     0.037 C 
HETATM   19  C22 UNL     1      30.225   8.472   9.220  1.00  0.00     0.168 C 
HETATM   20  O2  UNL     1      30.695   8.024  10.461  1.00  0.00    -0.391 OA
HETATM   21  C23 UNL     1      29.626   7.839  11.340  1.00  0.00     0.168 C 
HETATM   22  C24 UNL     1      28.783   6.686  10.869  1.00  0.00     0.037 C 
ENDBRANCH  16  17
ENDBRANCH  15  16
ENDBRANCH   8  15
ENDBRANCH   1   3
BRANCH   1  23
HETATM   23  C5  UNL     1      24.647   4.784  14.438  1.00  0.00     0.139 C 
BRANCH  23  24
HETATM   24  C6  UNL     1      23.963   5.170  15.735  1.00  0.00     0.040 C 
BRANCH  24  25
HETATM   25  C7  UNL     1      23.218   6.452  15.537  1.00  0.00     0.121 C 
BRANCH  25  26
HETATM   26  N3  UNL     1      24.061   7.564  15.922  1.00  0.00    -0.388 N 
ATOM     27  H3  UNL     1      24.551   7.509  16.815  1.00  0.00     0.159 HD
BRANCH  26  28
HETATM   28  C8  UNL     1      24.242   8.727  15.125  1.00  0.00     0.060 A 
HETATM   29  C9  UNL     1      24.793   9.845  15.716  1.00  0.00     0.136 A 
HETATM   30  N4  UNL     1      24.951  10.949  14.959  1.00  0.00    -0.200 N 
HETATM   31  C10 UNL     1      24.605  11.029  13.666  1.00  0.00     0.677 A 
ATOM     32  H4  UNL     1      25.360  11.775  15.398  1.00  0.00     0.183 HD
HETATM   33  N6  UNL     1      24.068   9.938  13.095  1.00  0.00    -0.200 N 
HETATM   34  C17 UNL     1      23.879   8.788  13.799  1.00  0.00     0.136 A 
ATOM     35  H6  UNL     1      23.795   9.971  12.112  1.00  0.00     0.183 HD
BRANCH  31  36
HETATM   36  N5  UNL     1      24.776  12.126  12.967  1.00  0.00    -0.224 N 
ATOM     37  H5  UNL     1      24.613  13.034  13.402  1.00  0.00     0.177 HD
BRANCH  36  38
HETATM   38  C11 UNL     1      25.198  12.057  11.581  1.00  0.00     0.170 C 
BRANCH  38  39
HETATM   39  C12 UNL     1      26.665  11.676  11.527  1.00  0.00     0.139 C 
HETATM   40  C13 UNL     1      27.379  12.416  10.415  1.00  0.00     0.034 C 
HETATM   41  C14 UNL     1      27.977  11.388   9.474  1.00  0.00     0.005 C 
HETATM   42  C15 UNL     1      26.824  10.503   9.001  1.00  0.00     0.026 C 
HETATM   43  C16 UNL     1      26.278   9.792  10.227  1.00  0.00     0.168 C 
HETATM   44  O1  UNL     1      26.824  10.297  11.397  1.00  0.00    -0.384 OA
ENDBRANCH  38  39
ENDBRANCH  36  38
ENDBRANCH  31  36
ENDBRANCH  26  28
ENDBRANCH  25  26
ENDBRANCH  24  25
ENDBRANCH  23  24
ENDBRANCH   1  23
TORSDOF 13
ENDMDL
