MODEL 1
REMARK VINA RESULT: -7.471949872      0.000      0.000
REMARK  11 active torsions:
REMARK  status: ('A' for Active; 'I' for Inactive)
REMARK    1  A    between atoms: C2_2  and  N1_3 
REMARK    2  A    between atoms: C3_5  and  N2_7 
REMARK       I    between atoms: N2_7  and  C4_9 
REMARK       I    between atoms: C4_9  and  N3_11 
REMARK    3  A    between atoms: N3_11  and  C5_13 
REMARK    4  A    between atoms: C5_13  and  C6_14 
REMARK    5  A    between atoms: C6_14  and  C7_15 
REMARK    6  A    between atoms: C7_15  and  C8_16 
REMARK    7  A    between atoms: C8_16  and  C9_17 
REMARK    8  A    between atoms: C9_17  and  N4_18 
REMARK       I    between atoms: N4_18  and  C10_20 
REMARK    9  A    between atoms: C10_20  and  C11_22 
REMARK   10  A    between atoms: C17_34  and  C18_35 
REMARK   11  A    between atoms: C18_35  and  O3_37 
ROOT
HETATM    1  N4  UNL     1      27.174   6.278   9.493  1.00  0.00    -0.356 N 
ATOM      2  H4  UNL     1      26.950   7.136   8.988  1.00  0.00     0.162 HD
HETATM    3  C10 UNL     1      27.003   6.242  10.891  1.00  0.00     0.266 C 
HETATM    4  O2  UNL     1      27.261   5.217  11.556  1.00  0.00    -0.266 OA
ENDROOT
BRANCH   1   5
HETATM    5  C9  UNL     1      27.665   5.119   8.744  1.00  0.00     0.123 C 
BRANCH   5   6
HETATM    6  C8  UNL     1      26.555   4.438   8.029  1.00  0.00     0.020 C 
BRANCH   6   7
HETATM    7  C7  UNL     1      25.884   3.347   8.796  1.00  0.00     0.003 C 
BRANCH   7   8
HETATM    8  C6  UNL     1      24.532   2.967   8.294  1.00  0.00     0.020 C 
BRANCH   8   9
HETATM    9  C5  UNL     1      23.409   3.482   9.160  1.00  0.00     0.124 C 
BRANCH   9  10
HETATM   10  N3  UNL     1      23.897   4.371  10.198  1.00  0.00    -0.343 N 
HETATM   11  C4  UNL     1      23.809   4.050  11.578  1.00  0.00     0.322 C 
HETATM   12  N2  UNL     1      24.289   4.936  12.541  1.00  0.00    -0.285 N 
HETATM   13  O1  UNL     1      23.293   2.962  11.904  1.00  0.00    -0.247 OA
ATOM     14  H2  UNL     1      24.706   5.821  12.252  1.00  0.00     0.173 HD
ATOM     15  H3  UNL     1      24.320   5.258   9.926  1.00  0.00     0.164 HD
BRANCH  12  16
HETATM   16  C3  UNL     1      24.203   4.617  13.918  1.00  0.00     0.178 C 
HETATM   17  N1  UNL     1      23.054   4.237  14.388  1.00  0.00    -0.367 N 
ATOM     18  H1  UNL     1      22.233   4.169  13.786  1.00  0.00     0.161 HD
HETATM   19 CL1  UNL     1      25.612   4.737  14.937  1.00  0.00    -0.045 Cl
BRANCH  17  20
HETATM   20  C2  UNL     1      22.982   3.916  15.795  1.00  0.00     0.117 C 
HETATM   21  C1  UNL     1      21.626   4.417  16.283  1.00  0.00     0.026 C 
ENDBRANCH  17  20
ENDBRANCH  12  16
ENDBRANCH   9  10
ENDBRANCH   8   9
ENDBRANCH   7   8
ENDBRANCH   6   7
ENDBRANCH   5   6
ENDBRANCH   1   5
BRANCH   3  22
HETATM   22  C11 UNL     1      26.514   7.424  11.585  1.00  0.00     0.102 C 
HETATM   23  N5  UNL     1      26.727   7.555  12.855  1.00  0.00    -0.299 N 
HETATM   24  N6  UNL     1      26.336   8.600  13.652  1.00  0.00    -0.302 N 
ATOM     25  H5  UNL     1      27.241   6.802  13.311  1.00  0.00     0.186 HD
HETATM   26  C12 UNL     1      26.649   9.953  13.149  1.00  0.00     0.184 C 
HETATM   27  C17 UNL     1      25.676   8.732  14.904  1.00  0.00     0.156 C 
HETATM   28  S1  UNL     1      25.720  10.071  11.598  1.00  0.00    -0.134 SA
HETATM   29  C14 UNL     1      26.169  10.914  14.178  1.00  0.00     0.142 C 
HETATM   30  C13 UNL     1      25.781   8.443  10.821  1.00  0.00     0.140 C 
HETATM   31 CL2  UNL     1      27.432  12.179  14.365  1.00  0.00    -0.120 Cl
HETATM   32  C15 UNL     1      26.049  10.100  15.423  1.00  0.00     0.077 C 
HETATM   33  C16 UNL     1      25.016  10.650  16.359  1.00  0.00     0.036 C 
HETATM   34 CL3  UNL     1      27.623  10.043  16.285  1.00  0.00    -0.116 Cl
BRANCH  27  35
HETATM   35  C18 UNL     1      24.202   8.523  14.813  1.00  0.00     0.140 C 
HETATM   36  C19 UNL     1      23.777   7.578  15.913  1.00  0.00     0.041 C 
BRANCH  35  37
HETATM   37  O3  UNL     1      23.910   7.918  13.586  1.00  0.00    -0.394 OA
ATOM     38  H3  UNL     1      22.999   7.646  13.589  1.00  0.00     0.210 HD
ENDBRANCH  35  37
ENDBRANCH  27  35
ENDBRANCH   3  22
TORSDOF 11
ENDMDL
MODEL 2
REMARK VINA RESULT: -7.364968090      2.506      5.072
REMARK  11 active torsions:
REMARK  status: ('A' for Active; 'I' for Inactive)
REMARK    1  A    between atoms: C2_2  and  N1_3 
REMARK    2  A    between atoms: C3_5  and  N2_7 
REMARK       I    between atoms: N2_7  and  C4_9 
REMARK       I    between atoms: C4_9  and  N3_11 
REMARK    3  A    between atoms: N3_11  and  C5_13 
REMARK    4  A    between atoms: C5_13  and  C6_14 
REMARK    5  A    between atoms: C6_14  and  C7_15 
REMARK    6  A    between atoms: C7_15  and  C8_16 
REMARK    7  A    between atoms: C8_16  and  C9_17 
REMARK    8  A    between atoms: C9_17  and  N4_18 
REMARK       I    between atoms: N4_18  and  C10_20 
REMARK    9  A    between atoms: C10_20  and  C11_22 
REMARK   10  A    between atoms: C17_34  and  C18_35 
REMARK   11  A    between atoms: C18_35  and  O3_37 
ROOT
HETATM    1  N4  UNL     1      23.912   4.432  11.439  1.00  0.00    -0.356 N 
ATOM      2  H4  UNL     1      24.364   5.080  10.794  1.00  0.00     0.162 HD
HETATM    3  C10 UNL     1      24.047   4.641  12.827  1.00  0.00     0.266 C 
HETATM    4  O2  UNL     1      23.512   3.879  13.660  1.00  0.00    -0.266 OA
ENDROOT
BRANCH   1   5
HETATM    5  C9  UNL     1      23.140   3.311  10.899  1.00  0.00     0.123 C 
BRANCH   5   6
HETATM    6  C8  UNL     1      23.999   2.421  10.077  1.00  0.00     0.020 C 
BRANCH   6   7
HETATM    7  C7  UNL     1      23.846   2.583   8.601  1.00  0.00     0.003 C 
BRANCH   7   8
HETATM    8  C6  UNL     1      24.960   3.314   7.931  1.00  0.00     0.020 C 
BRANCH   8   9
HETATM    9  C5  UNL     1      26.066   3.710   8.876  1.00  0.00     0.124 C 
BRANCH   9  10
HETATM   10  N3  UNL     1      26.944   4.702   8.286  1.00  0.00    -0.343 N 
HETATM   11  C4  UNL     1      27.616   5.683   9.063  1.00  0.00     0.322 C 
HETATM   12  N2  UNL     1      28.449   6.619   8.454  1.00  0.00    -0.285 N 
HETATM   13  O1  UNL     1      27.441   5.685  10.299  1.00  0.00    -0.247 OA
ATOM     14  H2  UNL     1      28.576   6.600   7.442  1.00  0.00     0.173 HD
ATOM     15  H3  UNL     1      27.085   4.695   7.276  1.00  0.00     0.164 HD
BRANCH  12  16
HETATM   16  C3  UNL     1      29.120   7.596   9.227  1.00  0.00     0.178 C 
HETATM   17  N1  UNL     1      28.594   8.780   9.310  1.00  0.00    -0.367 N 
ATOM     18  H1  UNL     1      27.721   9.005   8.832  1.00  0.00     0.161 HD
HETATM   19 CL1  UNL     1      30.612   7.201  10.039  1.00  0.00    -0.045 Cl
BRANCH  17  20
HETATM   20  C2  UNL     1      29.291   9.767  10.102  1.00  0.00     0.117 C 
HETATM   21  C1  UNL     1      29.084  11.107   9.404  1.00  0.00     0.026 C 
ENDBRANCH  17  20
ENDBRANCH  12  16
ENDBRANCH   9  10
ENDBRANCH   8   9
ENDBRANCH   7   8
ENDBRANCH   6   7
ENDBRANCH   5   6
ENDBRANCH   1   5
BRANCH   3  22
HETATM   22  C11 UNL     1      24.826   5.771  13.309  1.00  0.00     0.102 C 
HETATM   23  N5  UNL     1      24.319   6.962  13.274  1.00  0.00    -0.299 N 
HETATM   24  N6  UNL     1      24.916   8.124  13.687  1.00  0.00    -0.302 N 
ATOM     25  H5  UNL     1      23.374   7.043  12.898  1.00  0.00     0.186 HD
HETATM   26  C12 UNL     1      25.533   8.096  15.030  1.00  0.00     0.184 C 
HETATM   27  C17 UNL     1      25.107   9.421  13.136  1.00  0.00     0.156 C 
HETATM   28  S1  UNL     1      26.827   6.835  14.892  1.00  0.00    -0.134 SA
HETATM   29  C14 UNL     1      26.083   9.456  15.276  1.00  0.00     0.142 C 
HETATM   30  C13 UNL     1      26.181   5.530  13.826  1.00  0.00     0.140 C 
HETATM   31 CL2  UNL     1      25.680   9.901  16.971  1.00  0.00    -0.120 Cl
HETATM   32  C15 UNL     1      25.356  10.334  14.313  1.00  0.00     0.077 C 
HETATM   33  C16 UNL     1      26.161  11.539  13.931  1.00  0.00     0.036 C 
HETATM   34 CL3  UNL     1      23.804  10.889  15.023  1.00  0.00    -0.116 Cl
BRANCH  27  35
HETATM   35  C18 UNL     1      26.195   9.469  12.118  1.00  0.00     0.140 C 
HETATM   36  C19 UNL     1      25.711  10.264  10.928  1.00  0.00     0.041 C 
BRANCH  35  37
HETATM   37  O3  UNL     1      26.465   8.166  11.686  1.00  0.00    -0.394 OA
ATOM     38  H3  UNL     1      25.724   7.612  11.907  1.00  0.00     0.210 HD
ENDBRANCH  35  37
ENDBRANCH  27  35
ENDBRANCH   3  22
TORSDOF 11
ENDMDL
MODEL 3
REMARK VINA RESULT: -7.343657072      2.470      5.079
REMARK  11 active torsions:
REMARK  status: ('A' for Active; 'I' for Inactive)
REMARK    1  A    between atoms: C2_2  and  N1_3 
REMARK    2  A    between atoms: C3_5  and  N2_7 
REMARK       I    between atoms: N2_7  and  C4_9 
REMARK       I    between atoms: C4_9  and  N3_11 
REMARK    3  A    between atoms: N3_11  and  C5_13 
REMARK    4  A    between atoms: C5_13  and  C6_14 
REMARK    5  A    between atoms: C6_14  and  C7_15 
REMARK    6  A    between atoms: C7_15  and  C8_16 
REMARK    7  A    between atoms: C8_16  and  C9_17 
REMARK    8  A    between atoms: C9_17  and  N4_18 
REMARK       I    between atoms: N4_18  and  C10_20 
REMARK    9  A    between atoms: C10_20  and  C11_22 
REMARK   10  A    between atoms: C17_34  and  C18_35 
REMARK   11  A    between atoms: C18_35  and  O3_37 
ROOT
HETATM    1  N4  UNL     1      23.956   4.427  11.507  1.00  0.00    -0.356 N 
ATOM      2  H4  UNL     1      24.413   5.072  10.862  1.00  0.00     0.162 HD
HETATM    3  C10 UNL     1      24.078   4.643  12.894  1.00  0.00     0.266 C 
HETATM    4  O2  UNL     1      23.537   3.885  13.726  1.00  0.00    -0.266 OA
ENDROOT
BRANCH   1   5
HETATM    5  C9  UNL     1      23.191   3.302  10.965  1.00  0.00     0.123 C 
BRANCH   5   6
HETATM    6  C8  UNL     1      24.033   2.467  10.071  1.00  0.00     0.020 C 
BRANCH   6   7
HETATM    7  C7  UNL     1      23.893   2.760   8.614  1.00  0.00     0.003 C 
BRANCH   7   8
HETATM    8  C6  UNL     1      25.133   3.257   7.952  1.00  0.00     0.020 C 
BRANCH   8   9
HETATM    9  C5  UNL     1      26.144   3.815   8.922  1.00  0.00     0.124 C 
BRANCH   9  10
HETATM   10  N3  UNL     1      26.952   4.856   8.315  1.00  0.00    -0.343 N 
HETATM   11  C4  UNL     1      27.674   5.806   9.084  1.00  0.00     0.322 C 
HETATM   12  N2  UNL     1      28.436   6.790   8.456  1.00  0.00    -0.285 N 
HETATM   13  O1  UNL     1      27.610   5.736  10.327  1.00  0.00    -0.247 OA
ATOM     14  H2  UNL     1      28.473   6.829   7.438  1.00  0.00     0.173 HD
ATOM     15  H3  UNL     1      27.002   4.907   7.297  1.00  0.00     0.164 HD
BRANCH  12  16
HETATM   16  C3  UNL     1      29.159   7.737   9.222  1.00  0.00     0.178 C 
HETATM   17  N1  UNL     1      30.193   7.323   9.890  1.00  0.00    -0.367 N 
ATOM     18  H1  UNL     1      30.482   6.345   9.866  1.00  0.00     0.161 HD
HETATM   19 CL1  UNL     1      28.658   9.406   9.256  1.00  0.00    -0.045 Cl
BRANCH  17  20
HETATM   20  C2  UNL     1      30.920   8.301  10.667  1.00  0.00     0.117 C 
HETATM   21  C1  UNL     1      31.711   7.520  11.711  1.00  0.00     0.026 C 
ENDBRANCH  17  20
ENDBRANCH  12  16
ENDBRANCH   9  10
ENDBRANCH   8   9
ENDBRANCH   7   8
ENDBRANCH   6   7
ENDBRANCH   5   6
ENDBRANCH   1   5
BRANCH   3  22
HETATM   22  C11 UNL     1      24.851   5.777  13.378  1.00  0.00     0.102 C 
HETATM   23  N5  UNL     1      24.340   6.965  13.339  1.00  0.00    -0.299 N 
HETATM   24  N6  UNL     1      24.931   8.130  13.753  1.00  0.00    -0.302 N 
ATOM     25  H5  UNL     1      23.396   7.043  12.959  1.00  0.00     0.186 HD
HETATM   26  C12 UNL     1      25.542   8.107  15.098  1.00  0.00     0.184 C 
HETATM   27  C17 UNL     1      25.119   9.427  13.201  1.00  0.00     0.156 C 
HETATM   28  S1  UNL     1      26.841   6.850  14.967  1.00  0.00    -0.134 SA
HETATM   29  C14 UNL     1      26.087   9.469  15.345  1.00  0.00     0.142 C 
HETATM   30  C13 UNL     1      26.205   5.541  13.900  1.00  0.00     0.140 C 
HETATM   31 CL2  UNL     1      25.675   9.915  17.037  1.00  0.00    -0.120 Cl
HETATM   32  C15 UNL     1      25.360  10.343  14.377  1.00  0.00     0.077 C 
HETATM   33  C16 UNL     1      26.162  11.551  13.997  1.00  0.00     0.036 C 
HETATM   34 CL3  UNL     1      23.803  10.894  15.081  1.00  0.00    -0.116 Cl
BRANCH  27  35
HETATM   35  C18 UNL     1      26.211   9.478  12.187  1.00  0.00     0.140 C 
HETATM   36  C19 UNL     1      25.723  10.255  10.986  1.00  0.00     0.041 C 
BRANCH  35  37
HETATM   37  O3  UNL     1      26.499   8.174  11.770  1.00  0.00    -0.394 OA
ATOM     38  H3  UNL     1      26.193   7.567  12.435  1.00  0.00     0.210 HD
ENDBRANCH  35  37
ENDBRANCH  27  35
ENDBRANCH   3  22
TORSDOF 11
ENDMDL
MODEL 4
REMARK VINA RESULT: -7.074013375      2.535      5.247
REMARK  11 active torsions:
REMARK  status: ('A' for Active; 'I' for Inactive)
REMARK    1  A    between atoms: C2_2  and  N1_3 
REMARK    2  A    between atoms: C3_5  and  N2_7 
REMARK       I    between atoms: N2_7  and  C4_9 
REMARK       I    between atoms: C4_9  and  N3_11 
REMARK    3  A    between atoms: N3_11  and  C5_13 
REMARK    4  A    between atoms: C5_13  and  C6_14 
REMARK    5  A    between atoms: C6_14  and  C7_15 
REMARK    6  A    between atoms: C7_15  and  C8_16 
REMARK    7  A    between atoms: C8_16  and  C9_17 
REMARK    8  A    between atoms: C9_17  and  N4_18 
REMARK       I    between atoms: N4_18  and  C10_20 
REMARK    9  A    between atoms: C10_20  and  C11_22 
REMARK   10  A    between atoms: C17_34  and  C18_35 
REMARK   11  A    between atoms: C18_35  and  O3_37 
ROOT
HETATM    1  N4  UNL     1      23.879   4.431  11.442  1.00  0.00    -0.356 N 
ATOM      2  H4  UNL     1      24.236   5.202  10.878  1.00  0.00     0.162 HD
HETATM    3  C10 UNL     1      23.843   4.567  12.844  1.00  0.00     0.266 C 
HETATM    4  O2  UNL     1      23.414   3.654  13.581  1.00  0.00    -0.266 OA
ENDROOT
BRANCH   1   5
HETATM    5  C9  UNL     1      23.418   3.213  10.772  1.00  0.00     0.123 C 
BRANCH   5   6
HETATM    6  C8  UNL     1      24.511   2.597   9.977  1.00  0.00     0.020 C 
BRANCH   6   7
HETATM    7  C7  UNL     1      24.456   2.867   8.510  1.00  0.00     0.003 C 
BRANCH   7   8
HETATM    8  C6  UNL     1      25.639   3.589   7.961  1.00  0.00     0.020 C 
BRANCH   8   9
HETATM    9  C5  UNL     1      26.457   4.285   9.020  1.00  0.00     0.124 C 
BRANCH   9  10
HETATM   10  N3  UNL     1      27.374   5.249   8.441  1.00  0.00    -0.343 N 
HETATM   11  C4  UNL     1      27.695   6.475   9.082  1.00  0.00     0.322 C 
HETATM   12  N2  UNL     1      28.580   7.373   8.487  1.00  0.00    -0.285 N 
HETATM   13  O1  UNL     1      27.167   6.726  10.184  1.00  0.00    -0.247 OA
ATOM     14  H2  UNL     1      28.998   7.148   7.585  1.00  0.00     0.173 HD
ATOM     15  H3  UNL     1      27.804   5.038   7.541  1.00  0.00     0.164 HD
BRANCH  12  16
HETATM   16  C3  UNL     1      28.902   8.594   9.126  1.00  0.00     0.178 C 
HETATM   17  N1  UNL     1      27.951   9.459   9.308  1.00  0.00    -0.367 N 
ATOM     18  H1  UNL     1      26.996   9.269   9.002  1.00  0.00     0.161 HD
HETATM   19 CL1  UNL     1      30.536   8.910   9.645  1.00  0.00    -0.045 Cl
BRANCH  17  20
HETATM   20  C2  UNL     1      28.295  10.702   9.960  1.00  0.00     0.117 C 
HETATM   21  C1  UNL     1      27.653  11.814   9.137  1.00  0.00     0.026 C 
ENDBRANCH  17  20
ENDBRANCH  12  16
ENDBRANCH   9  10
ENDBRANCH   8   9
ENDBRANCH   7   8
ENDBRANCH   6   7
ENDBRANCH   5   6
ENDBRANCH   1   5
BRANCH   3  22
HETATM   22  C11 UNL     1      24.315   5.799  13.459  1.00  0.00     0.102 C 
HETATM   23  N5  UNL     1      24.804   6.739  12.715  1.00  0.00    -0.299 N 
HETATM   24  N6  UNL     1      25.288   7.952  13.133  1.00  0.00    -0.302 N 
ATOM     25  H5  UNL     1      24.832   6.558  11.711  1.00  0.00     0.186 HD
HETATM   26  C12 UNL     1      24.422   8.713  14.056  1.00  0.00     0.184 C 
HETATM   27  C17 UNL     1      26.465   8.712  12.896  1.00  0.00     0.156 C 
HETATM   28  S1  UNL     1      24.289   7.646  15.514  1.00  0.00    -0.134 SA
HETATM   29  C14 UNL     1      25.125   9.992  14.346  1.00  0.00     0.142 C 
HETATM   30  C13 UNL     1      24.227   5.943  14.919  1.00  0.00     0.140 C 
HETATM   31 CL2  UNL     1      23.898  11.305  14.293  1.00  0.00    -0.120 Cl
HETATM   32  C15 UNL     1      26.105  10.141  13.230  1.00  0.00     0.077 C 
HETATM   33  C16 UNL     1      27.303  10.945  13.635  1.00  0.00     0.036 C 
HETATM   34 CL3  UNL     1      25.332  10.944  11.823  1.00  0.00    -0.116 Cl
BRANCH  27  35
HETATM   35  C18 UNL     1      27.646   8.214  13.659  1.00  0.00     0.140 C 
HETATM   36  C19 UNL     1      28.863   8.279  12.766  1.00  0.00     0.041 C 
BRANCH  35  37
HETATM   37  O3  UNL     1      27.429   6.874  13.998  1.00  0.00    -0.394 OA
ATOM     38  H3  UNL     1      28.186   6.554  14.475  1.00  0.00     0.210 HD
ENDBRANCH  35  37
ENDBRANCH  27  35
ENDBRANCH   3  22
TORSDOF 11
ENDMDL
MODEL 5
REMARK VINA RESULT: -7.011022180      2.212      3.269
REMARK  11 active torsions:
REMARK  status: ('A' for Active; 'I' for Inactive)
REMARK    1  A    between atoms: C2_2  and  N1_3 
REMARK    2  A    between atoms: C3_5  and  N2_7 
REMARK       I    between atoms: N2_7  and  C4_9 
REMARK       I    between atoms: C4_9  and  N3_11 
REMARK    3  A    between atoms: N3_11  and  C5_13 
REMARK    4  A    between atoms: C5_13  and  C6_14 
REMARK    5  A    between atoms: C6_14  and  C7_15 
REMARK    6  A    between atoms: C7_15  and  C8_16 
REMARK    7  A    between atoms: C8_16  and  C9_17 
REMARK    8  A    between atoms: C9_17  and  N4_18 
REMARK       I    between atoms: N4_18  and  C10_20 
REMARK    9  A    between atoms: C10_20  and  C11_22 
REMARK   10  A    between atoms: C17_34  and  C18_35 
REMARK   11  A    between atoms: C18_35  and  O3_37 
ROOT
HETATM    1  N4  UNL     1      27.067   5.009   8.928  1.00  0.00    -0.356 N 
ATOM      2  H4  UNL     1      27.267   5.758   8.265  1.00  0.00     0.162 HD
HETATM    3  C10 UNL     1      27.135   5.280  10.309  1.00  0.00     0.266 C 
HETATM    4  O2  UNL     1      26.898   4.400  11.163  1.00  0.00    -0.266 OA
ENDROOT
BRANCH   1   5
HETATM    5  C9  UNL     1      26.718   3.681   8.418  1.00  0.00     0.123 C 
BRANCH   5   6
HETATM    6  C8  UNL     1      25.559   3.753   7.493  1.00  0.00     0.020 C 
BRANCH   6   7
HETATM    7  C7  UNL     1      24.531   2.688   7.683  1.00  0.00     0.003 C 
BRANCH   7   8
HETATM    8  C6  UNL     1      24.307   2.277   9.099  1.00  0.00     0.020 C 
BRANCH   8   9
HETATM    9  C5  UNL     1      23.226   3.073   9.787  1.00  0.00     0.124 C 
BRANCH   9  10
HETATM   10  N3  UNL     1      23.776   4.184  10.540  1.00  0.00    -0.343 N 
HETATM   11  C4  UNL     1      23.712   4.249  11.957  1.00  0.00     0.322 C 
HETATM   12  N2  UNL     1      24.252   5.338  12.640  1.00  0.00    -0.285 N 
HETATM   13  O1  UNL     1      23.163   3.312  12.571  1.00  0.00    -0.247 OA
ATOM     14  H2  UNL     1      24.695   6.093  12.117  1.00  0.00     0.173 HD
ATOM     15  H3  UNL     1      24.226   4.946  10.033  1.00  0.00     0.164 HD
BRANCH  12  16
HETATM   16  C3  UNL     1      24.190   5.403  14.052  1.00  0.00     0.178 C 
HETATM   17  N1  UNL     1      24.735   4.442  14.734  1.00  0.00    -0.367 N 
ATOM     18  H1  UNL     1      25.197   3.659  14.270  1.00  0.00     0.161 HD
HETATM   19 CL1  UNL     1      23.399   6.744  14.836  1.00  0.00    -0.045 Cl
BRANCH  17  20
HETATM   20  C2  UNL     1      24.663   4.522  16.175  1.00  0.00     0.117 C 
HETATM   21  C1  UNL     1      26.099   4.443  16.684  1.00  0.00     0.026 C 
ENDBRANCH  17  20
ENDBRANCH  12  16
ENDBRANCH   9  10
ENDBRANCH   8   9
ENDBRANCH   7   8
ENDBRANCH   6   7
ENDBRANCH   5   6
ENDBRANCH   1   5
BRANCH   3  22
HETATM   22  C11 UNL     1      27.488   6.618  10.761  1.00  0.00     0.102 C 
HETATM   23  N5  UNL     1      26.582   7.542  10.796  1.00  0.00    -0.299 N 
HETATM   24  N6  UNL     1      26.749   8.844  11.193  1.00  0.00    -0.302 N 
ATOM     25  H5  UNL     1      25.645   7.274  10.496  1.00  0.00     0.186 HD
HETATM   26  C12 UNL     1      27.440   9.046  12.483  1.00  0.00     0.184 C 
HETATM   27  C17 UNL     1      26.411  10.119  10.664  1.00  0.00     0.156 C 
HETATM   28  S1  UNL     1      29.088   8.341  12.214  1.00  0.00    -0.134 SA
HETATM   29  C14 UNL     1      27.479  10.513  12.724  1.00  0.00     0.142 C 
HETATM   30  C13 UNL     1      28.875   6.888  11.165  1.00  0.00     0.140 C 
HETATM   31 CL2  UNL     1      27.080  10.786  14.455  1.00  0.00    -0.120 Cl
HETATM   32  C15 UNL     1      26.407  11.064  11.843  1.00  0.00     0.077 C 
HETATM   33  C16 UNL     1      26.686  12.479  11.433  1.00  0.00     0.036 C 
HETATM   34 CL3  UNL     1      24.822  11.019  12.684  1.00  0.00    -0.116 Cl
BRANCH  27  35
HETATM   35  C18 UNL     1      27.322  10.557   9.567  1.00  0.00     0.140 C 
HETATM   36  C19 UNL     1      26.493  10.861   8.341  1.00  0.00     0.041 C 
BRANCH  35  37
HETATM   37  O3  UNL     1      28.187   9.503   9.254  1.00  0.00    -0.394 OA
ATOM     38  H3  UNL     1      28.998   9.865   8.917  1.00  0.00     0.210 HD
ENDBRANCH  35  37
ENDBRANCH  27  35
ENDBRANCH   3  22
TORSDOF 11
ENDMDL
