MODEL 1
REMARK VINA RESULT: -7.474697235      0.000      0.000
REMARK  10 active torsions:
REMARK  status: ('A' for Active; 'I' for Inactive)
REMARK    1  A    between atoms: C2_2  and  O1_4 
REMARK    2  A    between atoms: O1_4  and  C4_5 
REMARK       I    between atoms: C4_5  and  N1_7 
REMARK    3  A    between atoms: C8_11  and  C9_12 
REMARK    4  A    between atoms: C9_12  and  N2_13 
REMARK       I    between atoms: N2_13  and  C10_15 
REMARK    5  A    between atoms: C10_15  and  C11_17 
REMARK    6  A    between atoms: C11_17  and  N3_18 
REMARK    7  A    between atoms: C11_17  and  C17_29 
REMARK       I    between atoms: N3_18  and  C12_20 
REMARK    8  A    between atoms: C12_20  and  O5_22 
REMARK    9  A    between atoms: O5_22  and  C13_23 
REMARK   10  A    between atoms: C13_23  and  C16_26 
ROOT
HETATM    1  N2  UNL     1      -2.972  18.998  -3.495  1.00  0.00    -0.357 N 
ATOM      2  H2  UNL     1      -3.943  19.069  -3.191  1.00  0.00     0.162 HD
HETATM    3  C10 UNL     1      -2.615  18.139  -4.549  1.00  0.00     0.249 C 
HETATM    4  O3  UNL     1      -1.403  18.075  -4.892  1.00  0.00    -0.271 OA
ENDROOT
BRANCH   3   5
HETATM    5  C11 UNL     1      -3.663  17.333  -5.223  1.00  0.00     0.268 C 
BRANCH   5   6
HETATM    6  N3  UNL     1      -4.978  17.946  -5.021  1.00  0.00    -0.316 N 
HETATM    7  C12 UNL     1      -5.420  19.035  -5.801  1.00  0.00     0.362 C 
HETATM    8  O4  UNL     1      -4.674  19.492  -6.692  1.00  0.00    -0.238 OA
ATOM      9  H3  UNL     1      -5.591  17.576  -4.296  1.00  0.00     0.166 HD
BRANCH   7  10
HETATM   10  O5  UNL     1      -6.655  19.606  -5.606  1.00  0.00    -0.288 OA
BRANCH  10  11
HETATM   11  C13 UNL     1      -6.857  20.868  -5.032  1.00  0.00     0.124 C 
HETATM   12  C14 UNL     1      -5.714  21.372  -4.219  1.00  0.00     0.052 C 
HETATM   13  C15 UNL     1      -8.062  20.734  -4.094  1.00  0.00     0.052 C 
BRANCH  11  14
HETATM   14  C16 UNL     1      -7.223  21.916  -6.046  1.00  0.00     0.387 C 
HETATM   15  F1  UNL     1      -6.255  22.029  -7.024  1.00  0.00    -0.211 F 
HETATM   16  F2  UNL     1      -8.474  21.689  -6.598  1.00  0.00    -0.211 F 
ENDBRANCH  11  14
ENDBRANCH  10  11
ENDBRANCH   7  10
ENDBRANCH   5   6
BRANCH   5  17
HETATM   17  C17 UNL     1      -3.656  15.955  -4.708  1.00  0.00     0.263 C 
HETATM   18  N4  UNL     1      -2.769  14.975  -5.174  1.00  0.00    -0.060 NA
HETATM   19  O6  UNL     1      -4.477  15.634  -3.813  1.00  0.00    -0.274 OA
ENDBRANCH   5  17
ENDBRANCH   3   5
BRANCH   1  20
HETATM   20  C9  UNL     1      -1.936  19.782  -2.847  1.00  0.00     0.148 C 
BRANCH  20  21
HETATM   21  C8  UNL     1      -2.465  21.061  -2.242  1.00  0.00     0.107 C 
HETATM   22  N1  UNL     1      -1.481  22.109  -2.178  1.00  0.00    -0.322 N 
HETATM   23  C4  UNL     1      -1.459  23.303  -2.928  1.00  0.00     0.363 C 
HETATM   24  C5  UNL     1      -0.505  21.723  -1.196  1.00  0.00     0.129 C 
HETATM   25  O2  UNL     1      -2.364  23.582  -3.786  1.00  0.00    -0.238 OA
HETATM   26  C6  UNL     1      -1.399  21.212  -0.067  1.00  0.00     0.022 C 
HETATM   27  C7  UNL     1      -2.693  20.807  -0.746  1.00  0.00     0.029 C 
BRANCH  23  28
HETATM   28  O1  UNL     1      -0.462  24.262  -2.795  1.00  0.00    -0.299 OA
BRANCH  28  29
HETATM   29  C2  UNL     1      -0.678  25.528  -2.196  1.00  0.00     0.125 C 
HETATM   30  C1  UNL     1       0.405  26.504  -2.592  1.00  0.00     0.040 C 
HETATM   31  C3  UNL     1      -0.814  25.417  -0.693  1.00  0.00     0.040 C 
ENDBRANCH  28  29
ENDBRANCH  23  28
ENDBRANCH  20  21
ENDBRANCH   1  20
TORSDOF 10
ENDMDL
MODEL 2
REMARK VINA RESULT: -7.429405382      1.822      2.657
REMARK  10 active torsions:
REMARK  status: ('A' for Active; 'I' for Inactive)
REMARK    1  A    between atoms: C2_2  and  O1_4 
REMARK    2  A    between atoms: O1_4  and  C4_5 
REMARK       I    between atoms: C4_5  and  N1_7 
REMARK    3  A    between atoms: C8_11  and  C9_12 
REMARK    4  A    between atoms: C9_12  and  N2_13 
REMARK       I    between atoms: N2_13  and  C10_15 
REMARK    5  A    between atoms: C10_15  and  C11_17 
REMARK    6  A    between atoms: C11_17  and  N3_18 
REMARK    7  A    between atoms: C11_17  and  C17_29 
REMARK       I    between atoms: N3_18  and  C12_20 
REMARK    8  A    between atoms: C12_20  and  O5_22 
REMARK    9  A    between atoms: O5_22  and  C13_23 
REMARK   10  A    between atoms: C13_23  and  C16_26 
ROOT
HETATM    1  N2  UNL     1      -2.789  19.055  -3.528  1.00  0.00    -0.357 N 
ATOM      2  H2  UNL     1      -3.751  19.184  -3.214  1.00  0.00     0.162 HD
HETATM    3  C10 UNL     1      -2.490  18.149  -4.560  1.00  0.00     0.249 C 
HETATM    4  O3  UNL     1      -1.288  18.015  -4.917  1.00  0.00    -0.271 OA
ENDROOT
BRANCH   3   5
HETATM    5  C11 UNL     1      -3.587  17.378  -5.197  1.00  0.00     0.268 C 
BRANCH   5   6
HETATM    6  N3  UNL     1      -4.875  18.023  -4.934  1.00  0.00    -0.316 N 
HETATM    7  C12 UNL     1      -5.364  19.068  -5.744  1.00  0.00     0.362 C 
HETATM    8  O4  UNL     1      -4.684  19.459  -6.716  1.00  0.00    -0.238 OA
ATOM      9  H3  UNL     1      -5.435  17.707  -4.142  1.00  0.00     0.166 HD
BRANCH   7  10
HETATM   10  O5  UNL     1      -6.574  19.669  -5.491  1.00  0.00    -0.288 OA
BRANCH  10  11
HETATM   11  C13 UNL     1      -6.718  20.983  -5.025  1.00  0.00     0.124 C 
HETATM   12  C14 UNL     1      -5.479  21.579  -4.451  1.00  0.00     0.052 C 
HETATM   13  C15 UNL     1      -7.766  20.937  -3.906  1.00  0.00     0.052 C 
BRANCH  11  14
HETATM   14  C16 UNL     1      -7.258  21.916  -6.073  1.00  0.00     0.387 C 
HETATM   15  F1  UNL     1      -6.387  22.034  -7.138  1.00  0.00    -0.211 F 
HETATM   16  F2  UNL     1      -8.524  21.544  -6.497  1.00  0.00    -0.211 F 
ENDBRANCH  11  14
ENDBRANCH  10  11
ENDBRANCH   7  10
ENDBRANCH   5   6
BRANCH   5  17
HETATM   17  C17 UNL     1      -3.594  15.995  -4.695  1.00  0.00     0.263 C 
HETATM   18  N4  UNL     1      -2.698  15.018  -5.149  1.00  0.00    -0.060 NA
HETATM   19  O6  UNL     1      -4.437  15.666  -3.823  1.00  0.00    -0.274 OA
ENDBRANCH   5  17
ENDBRANCH   3   5
BRANCH   1  20
HETATM   20  C9  UNL     1      -1.706  19.805  -2.918  1.00  0.00     0.148 C 
BRANCH  20  21
HETATM   21  C8  UNL     1      -2.054  20.314  -1.538  1.00  0.00     0.107 C 
HETATM   22  N1  UNL     1      -2.800  21.544  -1.558  1.00  0.00    -0.322 N 
HETATM   23  C4  UNL     1      -4.150  21.728  -1.197  1.00  0.00     0.363 C 
HETATM   24  C5  UNL     1      -1.911  22.578  -2.017  1.00  0.00     0.129 C 
HETATM   25  O2  UNL     1      -4.882  20.760  -0.795  1.00  0.00    -0.238 OA
HETATM   26  C6  UNL     1      -0.647  22.265  -1.217  1.00  0.00     0.022 C 
HETATM   27  C7  UNL     1      -0.753  20.791  -0.877  1.00  0.00     0.029 C 
BRANCH  23  28
HETATM   28  O1  UNL     1      -4.786  22.962  -1.247  1.00  0.00    -0.299 OA
BRANCH  28  29
HETATM   29  C2  UNL     1      -6.173  23.130  -1.013  1.00  0.00     0.125 C 
HETATM   30  C1  UNL     1      -6.781  24.073  -2.024  1.00  0.00     0.040 C 
HETATM   31  C3  UNL     1      -6.449  23.574   0.407  1.00  0.00     0.040 C 
ENDBRANCH  28  29
ENDBRANCH  23  28
ENDBRANCH  20  21
ENDBRANCH   1  20
TORSDOF 10
ENDMDL
MODEL 3
REMARK VINA RESULT: -7.282521439      1.699      2.101
REMARK  10 active torsions:
REMARK  status: ('A' for Active; 'I' for Inactive)
REMARK    1  A    between atoms: C2_2  and  O1_4 
REMARK    2  A    between atoms: O1_4  and  C4_5 
REMARK       I    between atoms: C4_5  and  N1_7 
REMARK    3  A    between atoms: C8_11  and  C9_12 
REMARK    4  A    between atoms: C9_12  and  N2_13 
REMARK       I    between atoms: N2_13  and  C10_15 
REMARK    5  A    between atoms: C10_15  and  C11_17 
REMARK    6  A    between atoms: C11_17  and  N3_18 
REMARK    7  A    between atoms: C11_17  and  C17_29 
REMARK       I    between atoms: N3_18  and  C12_20 
REMARK    8  A    between atoms: C12_20  and  O5_22 
REMARK    9  A    between atoms: O5_22  and  C13_23 
REMARK   10  A    between atoms: C13_23  and  C16_26 
ROOT
HETATM    1  N2  UNL     1      -2.567  18.956  -3.395  1.00  0.00    -0.357 N 
ATOM      2  H2  UNL     1      -3.513  19.109  -3.045  1.00  0.00     0.162 HD
HETATM    3  C10 UNL     1      -2.340  18.095  -4.482  1.00  0.00     0.249 C 
HETATM    4  O3  UNL     1      -1.155  17.928  -4.882  1.00  0.00    -0.271 OA
ENDROOT
BRANCH   3   5
HETATM    5  C11 UNL     1      -3.487  17.408  -5.125  1.00  0.00     0.268 C 
BRANCH   5   6
HETATM    6  N3  UNL     1      -4.734  18.109  -4.811  1.00  0.00    -0.316 N 
HETATM    7  C12 UNL     1      -5.265  19.102  -5.660  1.00  0.00     0.362 C 
HETATM    8  O4  UNL     1      -4.660  19.395  -6.712  1.00  0.00    -0.238 OA
ATOM      9  H3  UNL     1      -5.233  17.872  -3.953  1.00  0.00     0.166 HD
BRANCH   7  10
HETATM   10  O5  UNL     1      -6.435  19.756  -5.359  1.00  0.00    -0.288 OA
BRANCH  10  11
HETATM   11  C13 UNL     1      -6.509  21.102  -4.977  1.00  0.00     0.124 C 
HETATM   12  C14 UNL     1      -5.247  21.873  -5.165  1.00  0.00     0.052 C 
HETATM   13  C15 UNL     1      -6.835  21.115  -3.479  1.00  0.00     0.052 C 
BRANCH  11  14
HETATM   14  C16 UNL     1      -7.627  21.840  -5.660  1.00  0.00     0.387 C 
HETATM   15  F1  UNL     1      -7.167  22.553  -6.750  1.00  0.00    -0.211 F 
HETATM   16  F2  UNL     1      -8.667  20.995  -6.014  1.00  0.00    -0.211 F 
ENDBRANCH  11  14
ENDBRANCH  10  11
ENDBRANCH   7  10
ENDBRANCH   5   6
BRANCH   5  17
HETATM   17  C17 UNL     1      -3.559  16.009  -4.676  1.00  0.00     0.263 C 
HETATM   18  N4  UNL     1      -2.696  15.014  -5.153  1.00  0.00    -0.060 NA
HETATM   19  O6  UNL     1      -4.428  15.683  -3.830  1.00  0.00    -0.274 OA
ENDBRANCH   5  17
ENDBRANCH   3   5
BRANCH   1  20
HETATM   20  C9  UNL     1      -1.435  19.624  -2.779  1.00  0.00     0.148 C 
BRANCH  20  21
HETATM   21  C8  UNL     1      -1.750  21.040  -2.360  1.00  0.00     0.107 C 
HETATM   22  N1  UNL     1      -1.421  21.313  -0.986  1.00  0.00    -0.322 N 
HETATM   23  C4  UNL     1      -0.393  22.149  -0.506  1.00  0.00     0.363 C 
HETATM   24  C5  UNL     1      -2.343  20.571  -0.168  1.00  0.00     0.129 C 
HETATM   25  O2  UNL     1       0.392  22.781  -1.294  1.00  0.00    -0.238 OA
HETATM   26  C6  UNL     1      -3.666  20.844  -0.883  1.00  0.00     0.022 C 
HETATM   27  C7  UNL     1      -3.278  21.181  -2.310  1.00  0.00     0.029 C 
BRANCH  23  28
HETATM   28  O1  UNL     1      -0.152  22.353   0.848  1.00  0.00    -0.299 OA
BRANCH  28  29
HETATM   29  C2  UNL     1      -0.392  23.587   1.501  1.00  0.00     0.125 C 
HETATM   30  C1  UNL     1       0.340  23.649   2.821  1.00  0.00     0.040 C 
HETATM   31  C3  UNL     1      -1.872  23.851   1.666  1.00  0.00     0.040 C 
ENDBRANCH  28  29
ENDBRANCH  23  28
ENDBRANCH  20  21
ENDBRANCH   1  20
TORSDOF 10
ENDMDL
MODEL 4
REMARK VINA RESULT: -7.181683124      1.958      2.881
REMARK  10 active torsions:
REMARK  status: ('A' for Active; 'I' for Inactive)
REMARK    1  A    between atoms: C2_2  and  O1_4 
REMARK    2  A    between atoms: O1_4  and  C4_5 
REMARK       I    between atoms: C4_5  and  N1_7 
REMARK    3  A    between atoms: C8_11  and  C9_12 
REMARK    4  A    between atoms: C9_12  and  N2_13 
REMARK       I    between atoms: N2_13  and  C10_15 
REMARK    5  A    between atoms: C10_15  and  C11_17 
REMARK    6  A    between atoms: C11_17  and  N3_18 
REMARK    7  A    between atoms: C11_17  and  C17_29 
REMARK       I    between atoms: N3_18  and  C12_20 
REMARK    8  A    between atoms: C12_20  and  O5_22 
REMARK    9  A    between atoms: O5_22  and  C13_23 
REMARK   10  A    between atoms: C13_23  and  C16_26 
ROOT
HETATM    1  N2  UNL     1      -2.834  19.099  -3.583  1.00  0.00    -0.357 N 
ATOM      2  H2  UNL     1      -3.803  19.256  -3.307  1.00  0.00     0.162 HD
HETATM    3  C10 UNL     1      -2.519  18.149  -4.570  1.00  0.00     0.249 C 
HETATM    4  O3  UNL     1      -1.308  17.980  -4.880  1.00  0.00    -0.271 OA
ENDROOT
BRANCH   3   5
HETATM    5  C11 UNL     1      -3.607  17.374  -5.216  1.00  0.00     0.268 C 
BRANCH   5   6
HETATM    6  N3  UNL     1      -4.898  18.025  -4.977  1.00  0.00    -0.316 N 
HETATM    7  C12 UNL     1      -5.370  19.068  -5.800  1.00  0.00     0.362 C 
HETATM    8  O4  UNL     1      -4.673  19.452  -6.762  1.00  0.00    -0.238 OA
ATOM      9  H3  UNL     1      -5.472  17.714  -4.193  1.00  0.00     0.166 HD
BRANCH   7  10
HETATM   10  O5  UNL     1      -6.582  19.674  -5.570  1.00  0.00    -0.288 OA
BRANCH  10  11
HETATM   11  C13 UNL     1      -6.739  21.038  -5.290  1.00  0.00     0.124 C 
HETATM   12  C14 UNL     1      -6.560  21.939  -6.463  1.00  0.00     0.052 C 
HETATM   13  C15 UNL     1      -5.660  21.401  -4.263  1.00  0.00     0.052 C 
BRANCH  11  14
HETATM   14  C16 UNL     1      -8.061  21.350  -4.644  1.00  0.00     0.387 C 
HETATM   15  F1  UNL     1      -8.990  21.765  -5.577  1.00  0.00    -0.211 F 
HETATM   16  F2  UNL     1      -8.538  20.285  -3.897  1.00  0.00    -0.211 F 
ENDBRANCH  11  14
ENDBRANCH  10  11
ENDBRANCH   7  10
ENDBRANCH   5   6
BRANCH   5  17
HETATM   17  C17 UNL     1      -3.625  15.996  -4.701  1.00  0.00     0.263 C 
HETATM   18  N4  UNL     1      -2.763  14.998  -5.174  1.00  0.00    -0.060 NA
HETATM   19  O6  UNL     1      -4.446  15.692  -3.799  1.00  0.00    -0.274 OA
ENDBRANCH   5  17
ENDBRANCH   3   5
BRANCH   1  20
HETATM   20  C9  UNL     1      -1.758  19.851  -2.964  1.00  0.00     0.148 C 
BRANCH  20  21
HETATM   21  C8  UNL     1      -2.092  20.299  -1.560  1.00  0.00     0.107 C 
HETATM   22  N1  UNL     1      -2.826  21.535  -1.517  1.00  0.00    -0.322 N 
HETATM   23  C4  UNL     1      -4.172  21.714  -1.138  1.00  0.00     0.363 C 
HETATM   24  C5  UNL     1      -1.931  22.581  -1.934  1.00  0.00     0.129 C 
HETATM   25  O2  UNL     1      -4.911  20.735  -0.776  1.00  0.00    -0.238 OA
HETATM   26  C6  UNL     1      -0.665  22.220  -1.159  1.00  0.00     0.022 C 
HETATM   27  C7  UNL     1      -0.782  20.733  -0.887  1.00  0.00     0.029 C 
BRANCH  23  28
HETATM   28  O1  UNL     1      -4.797  22.955  -1.127  1.00  0.00    -0.299 OA
BRANCH  28  29
HETATM   29  C2  UNL     1      -6.172  23.128  -0.830  1.00  0.00     0.125 C 
HETATM   30  C1  UNL     1      -6.844  23.990  -1.873  1.00  0.00     0.040 C 
HETATM   31  C3  UNL     1      -6.376  23.674   0.566  1.00  0.00     0.040 C 
ENDBRANCH  28  29
ENDBRANCH  23  28
ENDBRANCH  20  21
ENDBRANCH   1  20
TORSDOF 10
ENDMDL
MODEL 5
REMARK VINA RESULT: -7.096606853      3.070      7.515
REMARK  10 active torsions:
REMARK  status: ('A' for Active; 'I' for Inactive)
REMARK    1  A    between atoms: C2_2  and  O1_4 
REMARK    2  A    between atoms: O1_4  and  C4_5 
REMARK       I    between atoms: C4_5  and  N1_7 
REMARK    3  A    between atoms: C8_11  and  C9_12 
REMARK    4  A    between atoms: C9_12  and  N2_13 
REMARK       I    between atoms: N2_13  and  C10_15 
REMARK    5  A    between atoms: C10_15  and  C11_17 
REMARK    6  A    between atoms: C11_17  and  N3_18 
REMARK    7  A    between atoms: C11_17  and  C17_29 
REMARK       I    between atoms: N3_18  and  C12_20 
REMARK    8  A    between atoms: C12_20  and  O5_22 
REMARK    9  A    between atoms: O5_22  and  C13_23 
REMARK   10  A    between atoms: C13_23  and  C16_26 
ROOT
HETATM    1  N2  UNL     1      -4.017  21.625  -3.302  1.00  0.00    -0.357 N 
ATOM      2  H2  UNL     1      -3.337  21.356  -4.013  1.00  0.00     0.162 HD
HETATM    3  C10 UNL     1      -3.618  21.816  -1.968  1.00  0.00     0.249 C 
HETATM    4  O3  UNL     1      -4.490  22.142  -1.117  1.00  0.00    -0.271 OA
ENDROOT
BRANCH   3   5
HETATM    5  C11 UNL     1      -2.193  21.629  -1.597  1.00  0.00     0.268 C 
BRANCH   5   6
HETATM    6  N3  UNL     1      -1.735  20.302  -2.012  1.00  0.00    -0.316 N 
HETATM    7  C12 UNL     1      -0.366  20.004  -2.175  1.00  0.00     0.362 C 
HETATM    8  O4  UNL     1       0.484  20.892  -1.959  1.00  0.00    -0.238 OA
ATOM      9  H3  UNL     1      -2.425  19.572  -2.190  1.00  0.00     0.166 HD
BRANCH   7  10
HETATM   10  O5  UNL     1       0.058  18.756  -2.566  1.00  0.00    -0.288 OA
BRANCH  10  11
HETATM   11  C13 UNL     1       0.045  18.300  -3.891  1.00  0.00     0.124 C 
HETATM   12  C14 UNL     1       0.938  17.137  -4.157  1.00  0.00     0.052 C 
HETATM   13  C15 UNL     1       0.536  19.464  -4.759  1.00  0.00     0.052 C 
BRANCH  11  14
HETATM   14  C16 UNL     1      -1.338  17.962  -4.377  1.00  0.00     0.387 C 
HETATM   15  F1  UNL     1      -1.780  18.879  -5.310  1.00  0.00    -0.211 F 
HETATM   16  F2  UNL     1      -1.415  16.668  -4.866  1.00  0.00    -0.211 F 
ENDBRANCH  11  14
ENDBRANCH  10  11
ENDBRANCH   7  10
ENDBRANCH   5   6
BRANCH   5  17
HETATM   17  C17 UNL     1      -2.019  21.800  -0.146  1.00  0.00     0.263 C 
HETATM   18  N4  UNL     1      -2.105  20.734   0.759  1.00  0.00    -0.060 NA
HETATM   19  O6  UNL     1      -1.784  22.947   0.311  1.00  0.00    -0.274 OA
ENDBRANCH   5  17
ENDBRANCH   3   5
BRANCH   1  20
HETATM   20  C9  UNL     1      -5.414  21.815  -3.650  1.00  0.00     0.148 C 
BRANCH  20  21
HETATM   21  C8  UNL     1      -6.195  20.522  -3.654  1.00  0.00     0.107 C 
HETATM   22  N1  UNL     1      -5.806  19.625  -4.709  1.00  0.00    -0.322 N 
HETATM   23  C4  UNL     1      -5.130  18.395  -4.576  1.00  0.00     0.363 C 
HETATM   24  C5  UNL     1      -6.235  20.210  -5.951  1.00  0.00     0.129 C 
HETATM   25  O2  UNL     1      -4.778  17.934  -3.436  1.00  0.00    -0.238 OA
HETATM   26  C6  UNL     1      -7.647  20.673  -5.593  1.00  0.00     0.022 C 
HETATM   27  C7  UNL     1      -7.632  20.848  -4.087  1.00  0.00     0.029 C 
BRANCH  23  28
HETATM   28  O1  UNL     1      -4.795  17.593  -5.660  1.00  0.00    -0.299 OA
BRANCH  28  29
HETATM   29  C2  UNL     1      -5.143  16.222  -5.747  1.00  0.00     0.125 C 
HETATM   30  C1  UNL     1      -4.142  15.364  -5.008  1.00  0.00     0.040 C 
HETATM   31  C3  UNL     1      -5.309  15.780  -7.184  1.00  0.00     0.040 C 
ENDBRANCH  28  29
ENDBRANCH  23  28
ENDBRANCH  20  21
ENDBRANCH   1  20
TORSDOF 10
ENDMDL
