MODEL 1
REMARK VINA RESULT: -7.062940867      0.000      0.000
REMARK  10 active torsions:
REMARK  status: ('A' for Active; 'I' for Inactive)
REMARK    1  A    between atoms: S1_2  and  C2_3 
REMARK    2  A    between atoms: C2_3  and  C3_4 
REMARK    3  A    between atoms: C3_4  and  C4_5 
REMARK    4  A    between atoms: C4_5  and  O1_6 
REMARK    5  A    between atoms: C4_5  and  N1_8 
REMARK    6  A    between atoms: N1_8  and  C5_9 
REMARK    7  A    between atoms: N1_8  and  C12_21 
REMARK    8  A    between atoms: C8_14  and  C9_15 
REMARK    9  A    between atoms: C9_15  and  C10_16 
REMARK   10  A    between atoms: C15_27  and  C16_28 
ROOT
HETATM    1  N1  UNL     1      -5.272  21.693  -4.448  1.00  0.00    -0.349 N 
ENDROOT
BRANCH   1   2
HETATM    2  C4  UNL     1      -4.375  22.724  -4.668  1.00  0.00     0.115 C 
BRANCH   2   3
HETATM    3  C3  UNL     1      -3.429  23.456  -3.874  1.00  0.00     0.094 C 
BRANCH   3   4
HETATM    4  C2  UNL     1      -2.032  22.900  -3.822  1.00  0.00     0.081 C 
BRANCH   4   5
HETATM    5  S1  UNL     1      -1.704  22.410  -2.104  1.00  0.00    -0.173 SA
HETATM    6  C1  UNL     1      -0.879  20.801  -2.020  1.00  0.00     0.089 C 
ENDBRANCH   4   5
ENDBRANCH   3   4
ENDBRANCH   2   3
BRANCH   2   7
HETATM    7  O1  UNL     1      -4.378  23.147  -5.907  1.00  0.00    -0.349 OA
ATOM      8  H1  UNL     1      -5.238  23.051  -6.300  1.00  0.00     0.219 HD
ENDBRANCH   2   7
ENDBRANCH   1   2
BRANCH   1   9
HETATM    9  C5  UNL     1      -4.895  20.323  -4.775  1.00  0.00     0.148 C 
HETATM   10  C6  UNL     1      -4.109  19.772  -3.605  1.00  0.00     0.087 C 
HETATM   11  N2  UNL     1      -3.410  18.579  -3.854  1.00  0.00    -0.378 N 
HETATM   12  C7  UNL     1      -3.520  17.983  -5.123  1.00  0.00     0.092 C 
ATOM     13  H2  UNL     1      -2.834  18.153  -3.128  1.00  0.00     0.164 HD
HETATM   14  C8  UNL     1      -4.892  17.451  -5.385  1.00  0.00     0.169 C 
HETATM   15  O4  UNL     1      -5.630  18.448  -6.016  1.00  0.00    -0.378 OA
HETATM   16  C11 UNL     1      -6.017  19.413  -5.053  1.00  0.00     0.199 C 
BRANCH  14  17
HETATM   17  C9  UNL     1      -4.804  16.244  -6.264  1.00  0.00     0.150 C 
BRANCH  17  18
HETATM   18  C10 UNL     1      -4.265  15.117  -5.455  1.00  0.00     0.175 C 
HETATM   19  O2  UNL     1      -3.906  14.053  -6.017  1.00  0.00    -0.648 OA
HETATM   20  O3  UNL     1      -4.161  15.240  -4.084  1.00  0.00    -0.648 OA
ENDBRANCH  17  18
ENDBRANCH  14  17
ENDBRANCH   1   9
BRANCH   1  21
HETATM   21  C12 UNL     1      -6.575  21.927  -3.909  1.00  0.00     0.090 C 
HETATM   22  C13 UNL     1      -7.408  22.962  -4.593  1.00  0.00     0.053 C 
HETATM   23  C14 UNL     1      -7.968  23.991  -3.628  1.00  0.00     0.235 C 
HETATM   24  N3  UNL     1      -8.782  23.391  -2.593  1.00  0.00    -0.062 N 
HETATM   25  C15 UNL     1      -8.082  22.269  -2.047  1.00  0.00     0.294 C 
ATOM     26  H32 UNL     1      -9.059  24.063  -1.878  1.00  0.00     0.277 HD
ATOM     27  H31 UNL     1      -9.715  23.145  -2.925  1.00  0.00     0.277 HD
HETATM   28  C17 UNL     1      -6.601  22.258  -2.427  1.00  0.00     0.067 C 
BRANCH  25  29
HETATM   29  C16 UNL     1      -8.253  22.123  -0.547  1.00  0.00     0.415 C 
HETATM   30  F1  UNL     1      -8.893  23.273  -0.109  1.00  0.00    -0.169 F 
HETATM   31  F2  UNL     1      -6.990  22.091   0.018  1.00  0.00    -0.169 F 
HETATM   32  F3  UNL     1      -9.007  21.027  -0.208  1.00  0.00    -0.169 F 
ENDBRANCH  25  29
ENDBRANCH   1  21
TORSDOF 10
ENDMDL
MODEL 2
REMARK VINA RESULT: -6.913549885      1.486      2.312
REMARK  10 active torsions:
REMARK  status: ('A' for Active; 'I' for Inactive)
REMARK    1  A    between atoms: S1_2  and  C2_3 
REMARK    2  A    between atoms: C2_3  and  C3_4 
REMARK    3  A    between atoms: C3_4  and  C4_5 
REMARK    4  A    between atoms: C4_5  and  O1_6 
REMARK    5  A    between atoms: C4_5  and  N1_8 
REMARK    6  A    between atoms: N1_8  and  C5_9 
REMARK    7  A    between atoms: N1_8  and  C12_21 
REMARK    8  A    between atoms: C8_14  and  C9_15 
REMARK    9  A    between atoms: C9_15  and  C10_16 
REMARK   10  A    between atoms: C15_27  and  C16_28 
ROOT
HETATM    1  N1  UNL     1      -5.319  22.071  -4.432  1.00  0.00    -0.349 N 
ENDROOT
BRANCH   1   2
HETATM    2  C4  UNL     1      -4.517  23.145  -4.774  1.00  0.00     0.115 C 
BRANCH   2   3
HETATM    3  C3  UNL     1      -3.748  24.127  -4.062  1.00  0.00     0.094 C 
BRANCH   3   4
HETATM    4  C2  UNL     1      -4.503  25.324  -3.552  1.00  0.00     0.081 C 
BRANCH   4   5
HETATM    5  S1  UNL     1      -4.475  26.584  -4.859  1.00  0.00    -0.173 SA
HETATM    6  C1  UNL     1      -6.001  26.561  -5.833  1.00  0.00     0.089 C 
ENDBRANCH   4   5
ENDBRANCH   3   4
ENDBRANCH   2   3
BRANCH   2   7
HETATM    7  O1  UNL     1      -4.425  23.323  -6.068  1.00  0.00    -0.349 OA
ATOM      8  H1  UNL     1      -3.520  23.292  -6.354  1.00  0.00     0.219 HD
ENDBRANCH   2   7
ENDBRANCH   1   2
BRANCH   1   9
HETATM    9  C5  UNL     1      -4.832  20.711  -4.631  1.00  0.00     0.148 C 
HETATM   10  C6  UNL     1      -3.959  20.359  -3.446  1.00  0.00     0.087 C 
HETATM   11  N2  UNL     1      -3.165  19.210  -3.600  1.00  0.00    -0.378 N 
HETATM   12  C7  UNL     1      -3.265  18.474  -4.795  1.00  0.00     0.092 C 
ATOM     13  H2  UNL     1      -2.528  18.916  -2.860  1.00  0.00     0.164 HD
HETATM   14  C8  UNL     1      -4.591  17.802  -4.939  1.00  0.00     0.169 C 
HETATM   15  O4  UNL     1      -5.438  18.657  -5.637  1.00  0.00    -0.378 OA
HETATM   16  C11 UNL     1      -5.876  19.683  -4.762  1.00  0.00     0.199 C 
BRANCH  14  17
HETATM   17  C9  UNL     1      -4.426  16.518  -5.690  1.00  0.00     0.150 C 
BRANCH  17  18
HETATM   18  C10 UNL     1      -3.727  15.547  -4.805  1.00  0.00     0.175 C 
HETATM   19  O2  UNL     1      -4.227  15.233  -3.697  1.00  0.00    -0.648 OA
HETATM   20  O3  UNL     1      -2.526  14.993  -5.200  1.00  0.00    -0.648 OA
ENDBRANCH  17  18
ENDBRANCH  14  17
ENDBRANCH   1   9
BRANCH   1  21
HETATM   21  C12 UNL     1      -6.629  22.249  -3.888  1.00  0.00     0.090 C 
HETATM   22  C13 UNL     1      -7.470  23.322  -4.500  1.00  0.00     0.053 C 
HETATM   23  C14 UNL     1      -8.049  24.269  -3.466  1.00  0.00     0.235 C 
HETATM   24  N3  UNL     1      -8.864  23.584  -2.486  1.00  0.00    -0.062 N 
HETATM   25  C15 UNL     1      -8.155  22.433  -2.019  1.00  0.00     0.294 C 
ATOM     26  H32 UNL     1      -9.155  24.197  -1.724  1.00  0.00     0.277 HD
ATOM     27  H31 UNL     1      -9.791  23.352  -2.843  1.00  0.00     0.277 HD
HETATM   28  C17 UNL     1      -6.670  22.468  -2.386  1.00  0.00     0.067 C 
BRANCH  25  29
HETATM   29  C16 UNL     1      -8.335  22.173  -0.536  1.00  0.00     0.415 C 
HETATM   30  F1  UNL     1      -7.062  22.088   0.007  1.00  0.00    -0.169 F 
HETATM   31  F2  UNL     1      -8.945  20.939  -0.397  1.00  0.00    -0.169 F 
HETATM   32  F3  UNL     1      -9.031  23.176   0.093  1.00  0.00    -0.169 F 
ENDBRANCH  25  29
ENDBRANCH   1  21
TORSDOF 10
ENDMDL
MODEL 3
REMARK VINA RESULT: -6.880277135      2.348      3.087
REMARK  10 active torsions:
REMARK  status: ('A' for Active; 'I' for Inactive)
REMARK    1  A    between atoms: S1_2  and  C2_3 
REMARK    2  A    between atoms: C2_3  and  C3_4 
REMARK    3  A    between atoms: C3_4  and  C4_5 
REMARK    4  A    between atoms: C4_5  and  O1_6 
REMARK    5  A    between atoms: C4_5  and  N1_8 
REMARK    6  A    between atoms: N1_8  and  C5_9 
REMARK    7  A    between atoms: N1_8  and  C12_21 
REMARK    8  A    between atoms: C8_14  and  C9_15 
REMARK    9  A    between atoms: C9_15  and  C10_16 
REMARK   10  A    between atoms: C15_27  and  C16_28 
ROOT
HETATM    1  N1  UNL     1      -3.783  20.427  -2.602  1.00  0.00    -0.349 N 
ENDROOT
BRANCH   1   2
HETATM    2  C4  UNL     1      -2.499  20.159  -2.163  1.00  0.00     0.115 C 
BRANCH   2   3
HETATM    3  C3  UNL     1      -1.170  20.476  -2.605  1.00  0.00     0.094 C 
BRANCH   3   4
HETATM    4  C2  UNL     1      -0.115  19.435  -2.345  1.00  0.00     0.081 C 
BRANCH   4   5
HETATM    5  S1  UNL     1       0.219  18.593  -3.919  1.00  0.00    -0.173 SA
HETATM    6  C1  UNL     1      -0.416  19.540  -5.324  1.00  0.00     0.089 C 
ENDBRANCH   4   5
ENDBRANCH   3   4
ENDBRANCH   2   3
BRANCH   2   7
HETATM    7  O1  UNL     1      -2.473  19.436  -1.071  1.00  0.00    -0.349 OA
ATOM      8  H1  UNL     1      -2.266  19.971  -0.313  1.00  0.00     0.219 HD
ENDBRANCH   2   7
ENDBRANCH   1   2
BRANCH   1   9
HETATM    9  C5  UNL     1      -4.361  19.634  -3.681  1.00  0.00     0.148 C 
HETATM   10  C6  UNL     1      -4.306  20.466  -4.942  1.00  0.00     0.087 C 
HETATM   11  N2  UNL     1      -5.082  19.993  -6.014  1.00  0.00    -0.378 N 
HETATM   12  C7  UNL     1      -5.801  18.794  -5.851  1.00  0.00     0.092 C 
ATOM     13  H2  UNL     1      -5.122  20.507  -6.894  1.00  0.00     0.164 HD
HETATM   14  C8  UNL     1      -4.904  17.605  -5.731  1.00  0.00     0.169 C 
HETATM   15  O4  UNL     1      -4.643  17.392  -4.382  1.00  0.00    -0.378 OA
HETATM   16  C11 UNL     1      -3.694  18.348  -3.941  1.00  0.00     0.199 C 
BRANCH  14  17
HETATM   17  C9  UNL     1      -5.579  16.405  -6.319  1.00  0.00     0.150 C 
BRANCH  17  18
HETATM   18  C10 UNL     1      -4.680  15.232  -6.141  1.00  0.00     0.175 C 
HETATM   19  O2  UNL     1      -4.051  14.767  -7.124  1.00  0.00    -0.648 OA
HETATM   20  O3  UNL     1      -4.539  14.653  -4.897  1.00  0.00    -0.648 OA
ENDBRANCH  17  18
ENDBRANCH  14  17
ENDBRANCH   1   9
BRANCH   1  21
HETATM   21  C12 UNL     1      -4.573  21.474  -2.033  1.00  0.00     0.090 C 
HETATM   22  C13 UNL     1      -3.944  22.268  -0.934  1.00  0.00     0.053 C 
HETATM   23  C14 UNL     1      -4.824  22.356   0.298  1.00  0.00     0.235 C 
HETATM   24  N3  UNL     1      -6.113  22.950   0.015  1.00  0.00    -0.062 N 
HETATM   25  C15 UNL     1      -6.657  22.335  -1.156  1.00  0.00     0.294 C 
ATOM     26  H32 UNL     1      -6.748  22.902   0.812  1.00  0.00     0.277 HD
ATOM     27  H31 UNL     1      -6.064  23.966  -0.065  1.00  0.00     0.277 HD
HETATM   28  C17 UNL     1      -5.937  21.038  -1.528  1.00  0.00     0.067 C 
BRANCH  25  29
HETATM   29  C16 UNL     1      -8.156  22.115  -1.080  1.00  0.00     0.415 C 
HETATM   30  F1  UNL     1      -8.452  21.107  -1.985  1.00  0.00    -0.169 F 
HETATM   31  F2  UNL     1      -8.773  23.276  -1.510  1.00  0.00    -0.169 F 
HETATM   32  F3  UNL     1      -8.569  21.735   0.173  1.00  0.00    -0.169 F 
ENDBRANCH  25  29
ENDBRANCH   1  21
TORSDOF 10
ENDMDL
MODEL 4
REMARK VINA RESULT: -6.742350395      4.169      5.970
REMARK  10 active torsions:
REMARK  status: ('A' for Active; 'I' for Inactive)
REMARK    1  A    between atoms: S1_2  and  C2_3 
REMARK    2  A    between atoms: C2_3  and  C3_4 
REMARK    3  A    between atoms: C3_4  and  C4_5 
REMARK    4  A    between atoms: C4_5  and  O1_6 
REMARK    5  A    between atoms: C4_5  and  N1_8 
REMARK    6  A    between atoms: N1_8  and  C5_9 
REMARK    7  A    between atoms: N1_8  and  C12_21 
REMARK    8  A    between atoms: C8_14  and  C9_15 
REMARK    9  A    between atoms: C9_15  and  C10_16 
REMARK   10  A    between atoms: C15_27  and  C16_28 
ROOT
HETATM    1  N1  UNL     1      -3.752  20.408  -3.233  1.00  0.00    -0.349 N 
ENDROOT
BRANCH   1   2
HETATM    2  C4  UNL     1      -4.254  21.662  -2.933  1.00  0.00     0.115 C 
BRANCH   2   3
HETATM    3  C3  UNL     1      -5.383  22.174  -2.208  1.00  0.00     0.094 C 
BRANCH   3   4
HETATM    4  C2  UNL     1      -6.508  22.734  -3.035  1.00  0.00     0.081 C 
BRANCH   4   5
HETATM    5  S1  UNL     1      -7.717  21.402  -3.284  1.00  0.00    -0.173 SA
HETATM    6  C1  UNL     1      -8.466  21.487  -4.930  1.00  0.00     0.089 C 
ENDBRANCH   4   5
ENDBRANCH   3   4
ENDBRANCH   2   3
BRANCH   2   7
HETATM    7  O1  UNL     1      -3.529  22.635  -3.425  1.00  0.00    -0.349 OA
ATOM      8  H1  UNL     1      -3.780  22.827  -4.321  1.00  0.00     0.219 HD
ENDBRANCH   2   7
ENDBRANCH   1   2
BRANCH   1   9
HETATM    9  C5  UNL     1      -4.462  19.548  -4.172  1.00  0.00     0.148 C 
HETATM   10  C6  UNL     1      -4.677  20.339  -5.444  1.00  0.00     0.087 C 
HETATM   11  N2  UNL     1      -5.599  19.788  -6.350  1.00  0.00    -0.378 N 
HETATM   12  C7  UNL     1      -6.207  18.560  -6.033  1.00  0.00     0.092 C 
ATOM     13  H2  UNL     1      -5.823  20.269  -7.221  1.00  0.00     0.164 HD
HETATM   14  C8  UNL     1      -5.236  17.424  -6.044  1.00  0.00     0.169 C 
HETATM   15  O4  UNL     1      -4.731  17.272  -4.757  1.00  0.00    -0.378 OA
HETATM   16  C11 UNL     1      -3.777  18.292  -4.514  1.00  0.00     0.199 C 
BRANCH  14  17
HETATM   17  C9  UNL     1      -5.932  16.171  -6.474  1.00  0.00     0.150 C 
BRANCH  17  18
HETATM   18  C10 UNL     1      -4.953  15.052  -6.416  1.00  0.00     0.175 C 
HETATM   19  O2  UNL     1      -4.100  14.914  -7.328  1.00  0.00    -0.648 OA
HETATM   20  O3  UNL     1      -4.983  14.162  -5.361  1.00  0.00    -0.648 OA
ENDBRANCH  17  18
ENDBRANCH  14  17
ENDBRANCH   1   9
BRANCH   1  21
HETATM   21  C12 UNL     1      -2.546  19.916  -2.642  1.00  0.00     0.090 C 
HETATM   22  C13 UNL     1      -2.060  20.625  -1.420  1.00  0.00     0.053 C 
HETATM   23  C14 UNL     1      -0.604  21.036  -1.526  1.00  0.00     0.235 C 
HETATM   24  N3  UNL     1       0.274  19.909  -1.753  1.00  0.00    -0.062 N 
HETATM   25  C15 UNL     1      -0.273  19.101  -2.799  1.00  0.00     0.294 C 
ATOM     26  H32 UNL     1       1.234  20.195  -1.943  1.00  0.00     0.277 HD
ATOM     27  H31 UNL     1       0.451  19.375  -0.901  1.00  0.00     0.277 HD
HETATM   28  C17 UNL     1      -1.364  19.825  -3.591  1.00  0.00     0.067 C 
BRANCH  25  29
HETATM   29  C16 UNL     1       0.777  18.529  -3.732  1.00  0.00     0.415 C 
HETATM   30  F1  UNL     1       1.331  17.438  -3.080  1.00  0.00    -0.169 F 
HETATM   31  F2  UNL     1       1.765  19.485  -3.888  1.00  0.00    -0.169 F 
HETATM   32  F3  UNL     1       0.248  18.121  -4.932  1.00  0.00    -0.169 F 
ENDBRANCH  25  29
ENDBRANCH   1  21
TORSDOF 10
ENDMDL
MODEL 5
REMARK VINA RESULT: -6.683321775      3.236      4.890
REMARK  10 active torsions:
REMARK  status: ('A' for Active; 'I' for Inactive)
REMARK    1  A    between atoms: S1_2  and  C2_3 
REMARK    2  A    between atoms: C2_3  and  C3_4 
REMARK    3  A    between atoms: C3_4  and  C4_5 
REMARK    4  A    between atoms: C4_5  and  O1_6 
REMARK    5  A    between atoms: C4_5  and  N1_8 
REMARK    6  A    between atoms: N1_8  and  C5_9 
REMARK    7  A    between atoms: N1_8  and  C12_21 
REMARK    8  A    between atoms: C8_14  and  C9_15 
REMARK    9  A    between atoms: C9_15  and  C10_16 
REMARK   10  A    between atoms: C15_27  and  C16_28 
ROOT
HETATM    1  N1  UNL     1      -5.452  20.411  -4.513  1.00  0.00    -0.349 N 
ENDROOT
BRANCH   1   2
HETATM    2  C4  UNL     1      -5.507  19.677  -5.685  1.00  0.00     0.115 C 
BRANCH   2   3
HETATM    3  C3  UNL     1      -5.900  18.345  -6.051  1.00  0.00     0.094 C 
BRANCH   3   4
HETATM    4  C2  UNL     1      -4.912  17.252  -5.746  1.00  0.00     0.081 C 
BRANCH   4   5
HETATM    5  S1  UNL     1      -5.379  15.803  -6.737  1.00  0.00    -0.173 SA
HETATM    6  C1  UNL     1      -4.631  14.288  -6.088  1.00  0.00     0.089 C 
ENDBRANCH   4   5
ENDBRANCH   3   4
ENDBRANCH   2   3
BRANCH   2   7
HETATM    7  O1  UNL     1      -5.104  20.354  -6.731  1.00  0.00    -0.349 OA
ATOM      8  H1  UNL     1      -4.249  20.057  -7.021  1.00  0.00     0.219 HD
ENDBRANCH   2   7
ENDBRANCH   1   2
BRANCH   1   9
HETATM    9  C5  UNL     1      -4.270  20.331  -3.662  1.00  0.00     0.148 C 
HETATM   10  C6  UNL     1      -4.682  19.666  -2.368  1.00  0.00     0.087 C 
HETATM   11  N2  UNL     1      -3.758  19.768  -1.314  1.00  0.00    -0.378 N 
HETATM   12  C7  UNL     1      -2.539  20.432  -1.546  1.00  0.00     0.092 C 
ATOM     13  H2  UNL     1      -3.967  19.370  -0.399  1.00  0.00     0.164 HD
HETATM   14  C8  UNL     1      -1.657  19.685  -2.493  1.00  0.00     0.169 C 
HETATM   15  O4  UNL     1      -1.915  20.144  -3.780  1.00  0.00    -0.378 OA
HETATM   16  C11 UNL     1      -3.137  19.585  -4.231  1.00  0.00     0.199 C 
BRANCH  14  17
HETATM   17  C9  UNL     1      -0.222  19.927  -2.140  1.00  0.00     0.150 C 
BRANCH  17  18
HETATM   18  C10 UNL     1       0.627  19.190  -3.115  1.00  0.00     0.175 C 
HETATM   19  O2  UNL     1       1.192  19.809  -4.051  1.00  0.00    -0.648 OA
HETATM   20  O3  UNL     1       0.794  17.825  -2.993  1.00  0.00    -0.648 OA
ENDBRANCH  17  18
ENDBRANCH  14  17
ENDBRANCH   1   9
BRANCH   1  21
HETATM   21  C12 UNL     1      -6.530  21.253  -4.098  1.00  0.00     0.090 C 
HETATM   22  C13 UNL     1      -7.912  20.770  -4.397  1.00  0.00     0.053 C 
HETATM   23  C14 UNL     1      -8.753  21.814  -5.107  1.00  0.00     0.235 C 
HETATM   24  N3  UNL     1      -8.875  23.037  -4.345  1.00  0.00    -0.062 N 
HETATM   25  C15 UNL     1      -7.579  23.423  -3.880  1.00  0.00     0.294 C 
ATOM     26  H32 UNL     1      -9.337  23.779  -4.870  1.00  0.00     0.277 HD
ATOM     27  H31 UNL     1      -9.554  22.958  -3.587  1.00  0.00     0.277 HD
HETATM   28  C17 UNL     1      -6.451  22.683  -4.602  1.00  0.00     0.067 C 
BRANCH  25  29
HETATM   29  C16 UNL     1      -7.346  24.921  -3.914  1.00  0.00     0.415 C 
HETATM   30  F1  UNL     1      -6.017  25.106  -4.265  1.00  0.00    -0.169 F 
HETATM   31  F2  UNL     1      -7.524  25.403  -2.629  1.00  0.00    -0.169 F 
HETATM   32  F3  UNL     1      -8.150  25.557  -4.828  1.00  0.00    -0.169 F 
ENDBRANCH  25  29
ENDBRANCH   1  21
TORSDOF 10
ENDMDL
