MODEL 1
REMARK VINA RESULT: -8.955206265      0.000      0.000
REMARK  8 active torsions:
REMARK  status: ('A' for Active; 'I' for Inactive)
REMARK    1  A    between atoms: C2_2  and  N1_3 
REMARK    2  A    between atoms: C2_2  and  C7_13 
REMARK       I    between atoms: N1_3  and  C3_5 
REMARK    3  A    between atoms: C3_5  and  C4_7 
REMARK       I    between atoms: C7_13  and  N3_15 
REMARK    4  A    between atoms: N3_15  and  C8_17 
REMARK    5  A    between atoms: C8_17  and  C9_18 
REMARK    6  A    between atoms: C8_17  and  C11_23 
REMARK    7  A    between atoms: C9_18  and  C10_19 
REMARK       I    between atoms: C11_23  and  N4_25 
REMARK    8  A    between atoms: N4_25  and  C12_27 
ROOT
HETATM    1  C12 UNL     1      -1.154  18.803  -4.474  1.00  0.00     0.122 C 
HETATM    2  C13 UNL     1      -0.468  19.910  -5.168  1.00  0.00     0.091 C 
HETATM    3  N5  UNL     1       0.060  20.793  -5.736  1.00  0.00    -0.195 NA
HETATM    4  C14 UNL     1      -1.229  19.147  -3.005  1.00  0.00     0.046 C 
HETATM    5  C15 UNL     1       0.116  19.592  -2.497  1.00  0.00     0.004 C 
HETATM    6  C16 UNL     1       1.295  18.960  -3.133  1.00  0.00     0.000 C 
HETATM    7  C17 UNL     1       1.074  17.775  -3.987  1.00  0.00     0.004 C 
HETATM    8  C18 UNL     1      -0.287  17.604  -4.593  1.00  0.00     0.046 C 
ENDROOT
BRANCH   1   9
HETATM    9  N4  UNL     1      -2.479  18.621  -4.997  1.00  0.00    -0.337 N 
HETATM   10  C11 UNL     1      -3.214  17.427  -5.087  1.00  0.00     0.242 C 
HETATM   11  O4  UNL     1      -2.682  16.377  -4.659  1.00  0.00    -0.271 OA
ATOM     12  H4  UNL     1      -2.942  19.460  -5.346  1.00  0.00     0.164 HD
BRANCH  10  13
HETATM   13  C8  UNL     1      -4.554  17.383  -5.647  1.00  0.00     0.185 C 
BRANCH  13  14
HETATM   14  N3  UNL     1      -5.332  18.468  -4.971  1.00  0.00    -0.346 N 
HETATM   15  C7  UNL     1      -5.452  19.741  -5.536  1.00  0.00     0.240 C 
HETATM   16  O3  UNL     1      -4.901  19.990  -6.629  1.00  0.00    -0.271 OA
ATOM     17  H3  UNL     1      -5.785  18.274  -4.078  1.00  0.00     0.163 HD
BRANCH  15  18
HETATM   18  C2  UNL     1      -6.224  20.797  -4.855  1.00  0.00     0.172 C 
HETATM   19  C1  UNL     1      -7.652  20.300  -4.751  1.00  0.00     0.042 C 
BRANCH  18  20
HETATM   20  N1  UNL     1      -5.732  20.943  -3.477  1.00  0.00    -0.342 N 
HETATM   21  C3  UNL     1      -4.414  21.334  -3.168  1.00  0.00     0.277 C 
HETATM   22  O1  UNL     1      -3.566  21.583  -4.071  1.00  0.00    -0.265 OA
ATOM     23  H1  UNL     1      -6.376  20.752  -2.709  1.00  0.00     0.163 HD
BRANCH  21  24
HETATM   24  C4  UNL     1      -3.977  21.467  -1.789  1.00  0.00     0.159 A 
HETATM   25  C5  UNL     1      -4.768  21.190  -0.679  1.00  0.00     0.132 A 
HETATM   26  N2  UNL     1      -4.031  21.427   0.394  1.00  0.00    -0.354 N 
HETATM   27  C6  UNL     1      -2.844  21.832  -0.030  1.00  0.00     0.234 A 
ATOM     28  H2  UNL     1      -4.323  21.319   1.365  1.00  0.00     0.166 HD
HETATM   29  O2  UNL     1      -2.810  21.856  -1.335  1.00  0.00    -0.299 OA
ENDBRANCH  21  24
ENDBRANCH  18  20
ENDBRANCH  15  18
ENDBRANCH  13  14
BRANCH  13  30
HETATM   30  C9  UNL     1      -5.375  16.174  -5.448  1.00  0.00     0.152 C 
BRANCH  30  31
HETATM   31  C10 UNL     1      -5.439  15.116  -6.461  1.00  0.00     0.390 C 
HETATM   32  F1  UNL     1      -6.791  14.666  -6.455  1.00  0.00    -0.171 F 
HETATM   33  F2  UNL     1      -5.170  15.448  -7.746  1.00  0.00    -0.171 F 
HETATM   34  F3  UNL     1      -4.781  13.926  -6.073  1.00  0.00    -0.171 F 
ENDBRANCH  30  31
ENDBRANCH  13  30
ENDBRANCH  10  13
ENDBRANCH   1   9
TORSDOF 8
ENDMDL
MODEL 2
REMARK VINA RESULT: -8.719628984      2.464      3.399
REMARK  8 active torsions:
REMARK  status: ('A' for Active; 'I' for Inactive)
REMARK    1  A    between atoms: C2_2  and  N1_3 
REMARK    2  A    between atoms: C2_2  and  C7_13 
REMARK       I    between atoms: N1_3  and  C3_5 
REMARK    3  A    between atoms: C3_5  and  C4_7 
REMARK       I    between atoms: C7_13  and  N3_15 
REMARK    4  A    between atoms: N3_15  and  C8_17 
REMARK    5  A    between atoms: C8_17  and  C9_18 
REMARK    6  A    between atoms: C8_17  and  C11_23 
REMARK    7  A    between atoms: C9_18  and  C10_19 
REMARK       I    between atoms: C11_23  and  N4_25 
REMARK    8  A    between atoms: N4_25  and  C12_27 
ROOT
HETATM    1  C12 UNL     1      -1.199  18.848  -4.545  1.00  0.00     0.122 C 
HETATM    2  C13 UNL     1      -0.442  19.887  -5.268  1.00  0.00     0.091 C 
HETATM    3  N5  UNL     1       0.145  20.716  -5.860  1.00  0.00    -0.195 NA
HETATM    4  C14 UNL     1      -1.310  19.272  -3.099  1.00  0.00     0.046 C 
HETATM    5  C15 UNL     1       0.034  19.686  -2.564  1.00  0.00     0.004 C 
HETATM    6  C16 UNL     1       1.206  18.972  -3.123  1.00  0.00     0.000 C 
HETATM    7  C17 UNL     1       0.963  17.754  -3.923  1.00  0.00     0.004 C 
HETATM    8  C18 UNL     1      -0.382  17.610  -4.570  1.00  0.00     0.046 C 
ENDROOT
BRANCH   1   9
HETATM    9  N4  UNL     1      -2.511  18.695  -5.107  1.00  0.00    -0.337 N 
HETATM   10  C11 UNL     1      -3.352  17.572  -5.040  1.00  0.00     0.242 C 
HETATM   11  O4  UNL     1      -2.942  16.568  -4.412  1.00  0.00    -0.271 OA
ATOM     12  H4  UNL     1      -2.877  19.498  -5.618  1.00  0.00     0.164 HD
BRANCH  10  13
HETATM   13  C8  UNL     1      -4.666  17.548  -5.662  1.00  0.00     0.185 C 
BRANCH  13  14
HETATM   14  N3  UNL     1      -5.493  18.567  -4.944  1.00  0.00    -0.346 N 
HETATM   15  C7  UNL     1      -5.641  19.867  -5.438  1.00  0.00     0.240 C 
HETATM   16  O3  UNL     1      -5.075  20.196  -6.501  1.00  0.00    -0.271 OA
ATOM     17  H3  UNL     1      -5.960  18.308  -4.075  1.00  0.00     0.163 HD
BRANCH  15  18
HETATM   18  C2  UNL     1      -6.463  20.857  -4.716  1.00  0.00     0.172 C 
HETATM   19  C1  UNL     1      -6.007  20.836  -3.271  1.00  0.00     0.042 C 
BRANCH  18  20
HETATM   20  N1  UNL     1      -6.160  22.202  -5.228  1.00  0.00    -0.342 N 
HETATM   21  C3  UNL     1      -7.134  23.211  -5.363  1.00  0.00     0.277 C 
HETATM   22  O1  UNL     1      -8.342  23.014  -5.050  1.00  0.00    -0.265 OA
ATOM     23  H1  UNL     1      -5.199  22.415  -5.498  1.00  0.00     0.163 HD
BRANCH  21  24
HETATM   24  C4  UNL     1      -6.784  24.526  -5.871  1.00  0.00     0.159 A 
HETATM   25  C5  UNL     1      -5.695  24.791  -6.695  1.00  0.00     0.132 A 
HETATM   26  N2  UNL     1      -5.702  26.090  -6.946  1.00  0.00    -0.354 N 
HETATM   27  C6  UNL     1      -6.743  26.605  -6.310  1.00  0.00     0.234 A 
ATOM     28  H2  UNL     1      -5.032  26.599  -7.521  1.00  0.00     0.166 HD
HETATM   29  O2  UNL     1      -7.391  25.671  -5.666  1.00  0.00    -0.299 OA
ENDBRANCH  21  24
ENDBRANCH  18  20
ENDBRANCH  15  18
ENDBRANCH  13  14
BRANCH  13  30
HETATM   30  C9  UNL     1      -5.471  16.315  -5.591  1.00  0.00     0.152 C 
BRANCH  30  31
HETATM   31  C10 UNL     1      -5.311  15.237  -6.572  1.00  0.00     0.390 C 
HETATM   32  F1  UNL     1      -6.573  14.577  -6.621  1.00  0.00    -0.171 F 
HETATM   33  F2  UNL     1      -5.028  15.579  -7.852  1.00  0.00    -0.171 F 
HETATM   34  F3  UNL     1      -4.496  14.178  -6.114  1.00  0.00    -0.171 F 
ENDBRANCH  30  31
ENDBRANCH  13  30
ENDBRANCH  10  13
ENDBRANCH   1   9
TORSDOF 8
ENDMDL
MODEL 3
REMARK VINA RESULT: -8.313800931      2.174      2.362
REMARK  8 active torsions:
REMARK  status: ('A' for Active; 'I' for Inactive)
REMARK    1  A    between atoms: C2_2  and  N1_3 
REMARK    2  A    between atoms: C2_2  and  C7_13 
REMARK       I    between atoms: N1_3  and  C3_5 
REMARK    3  A    between atoms: C3_5  and  C4_7 
REMARK       I    between atoms: C7_13  and  N3_15 
REMARK    4  A    between atoms: N3_15  and  C8_17 
REMARK    5  A    between atoms: C8_17  and  C9_18 
REMARK    6  A    between atoms: C8_17  and  C11_23 
REMARK    7  A    between atoms: C9_18  and  C10_19 
REMARK       I    between atoms: C11_23  and  N4_25 
REMARK    8  A    between atoms: N4_25  and  C12_27 
ROOT
HETATM    1  C12 UNL     1      -1.586  19.078  -4.601  1.00  0.00     0.122 C 
HETATM    2  C13 UNL     1      -0.686  20.070  -5.219  1.00  0.00     0.091 C 
HETATM    3  N5  UNL     1       0.018  20.860  -5.731  1.00  0.00    -0.195 NA
HETATM    4  C14 UNL     1      -2.012  19.610  -3.253  1.00  0.00     0.046 C 
HETATM    5  C15 UNL     1      -0.818  20.084  -2.469  1.00  0.00     0.004 C 
HETATM    6  C16 UNL     1       0.446  19.348  -2.699  1.00  0.00     0.000 C 
HETATM    7  C17 UNL     1       0.383  18.069  -3.435  1.00  0.00     0.004 C 
HETATM    8  C18 UNL     1      -0.785  17.854  -4.349  1.00  0.00     0.046 C 
ENDROOT
BRANCH   1   9
HETATM    9  N4  UNL     1      -2.742  18.862  -5.424  1.00  0.00    -0.337 N 
HETATM   10  C11 UNL     1      -3.982  18.320  -5.044  1.00  0.00     0.242 C 
HETATM   11  O4  UNL     1      -4.133  17.983  -3.847  1.00  0.00    -0.271 OA
ATOM     12  H4  UNL     1      -2.653  19.134  -6.402  1.00  0.00     0.164 HD
BRANCH  10  13
HETATM   13  C8  UNL     1      -5.075  18.150  -5.987  1.00  0.00     0.185 C 
BRANCH  13  14
HETATM   14  N3  UNL     1      -6.142  19.116  -5.576  1.00  0.00    -0.346 N 
HETATM   15  C7  UNL     1      -5.970  20.497  -5.715  1.00  0.00     0.240 C 
HETATM   16  O3  UNL     1      -4.907  20.946  -6.191  1.00  0.00    -0.271 OA
ATOM     17  H3  UNL     1      -7.014  18.759  -5.186  1.00  0.00     0.163 HD
BRANCH  15  18
HETATM   18  C2  UNL     1      -7.034  21.432  -5.306  1.00  0.00     0.172 C 
HETATM   19  C1  UNL     1      -8.351  20.810  -5.724  1.00  0.00     0.042 C 
BRANCH  18  20
HETATM   20  N1  UNL     1      -7.063  21.520  -3.838  1.00  0.00    -0.342 N 
HETATM   21  C3  UNL     1      -7.820  22.481  -3.139  1.00  0.00     0.277 C 
HETATM   22  O1  UNL     1      -8.526  23.338  -3.743  1.00  0.00    -0.265 OA
ATOM     23  H1  UNL     1      -6.508  20.853  -3.301  1.00  0.00     0.163 HD
BRANCH  21  24
HETATM   24  C4  UNL     1      -7.817  22.524  -1.688  1.00  0.00     0.159 A 
HETATM   25  C5  UNL     1      -6.673  22.609  -0.901  1.00  0.00     0.132 A 
HETATM   26  N2  UNL     1      -7.068  22.625   0.362  1.00  0.00    -0.354 N 
HETATM   27  C6  UNL     1      -8.390  22.553   0.358  1.00  0.00     0.234 A 
ATOM     28  H2  UNL     1      -6.467  22.682   1.183  1.00  0.00     0.166 HD
HETATM   29  O2  UNL     1      -8.840  22.493  -0.867  1.00  0.00    -0.299 OA
ENDBRANCH  21  24
ENDBRANCH  18  20
ENDBRANCH  15  18
ENDBRANCH  13  14
BRANCH  13  30
HETATM   30  C9  UNL     1      -5.770  16.851  -6.053  1.00  0.00     0.152 C 
BRANCH  30  31
HETATM   31  C10 UNL     1      -5.115  15.658  -6.598  1.00  0.00     0.390 C 
HETATM   32  F1  UNL     1      -5.981  14.572  -6.283  1.00  0.00    -0.171 F 
HETATM   33  F2  UNL     1      -4.920  15.595  -7.937  1.00  0.00    -0.171 F 
HETATM   34  F3  UNL     1      -3.963  15.272  -5.876  1.00  0.00    -0.171 F 
ENDBRANCH  30  31
ENDBRANCH  13  30
ENDBRANCH  10  13
ENDBRANCH   1   9
TORSDOF 8
ENDMDL
MODEL 4
REMARK VINA RESULT: -8.255063507      2.280      2.758
REMARK  8 active torsions:
REMARK  status: ('A' for Active; 'I' for Inactive)
REMARK    1  A    between atoms: C2_2  and  N1_3 
REMARK    2  A    between atoms: C2_2  and  C7_13 
REMARK       I    between atoms: N1_3  and  C3_5 
REMARK    3  A    between atoms: C3_5  and  C4_7 
REMARK       I    between atoms: C7_13  and  N3_15 
REMARK    4  A    between atoms: N3_15  and  C8_17 
REMARK    5  A    between atoms: C8_17  and  C9_18 
REMARK    6  A    between atoms: C8_17  and  C11_23 
REMARK    7  A    between atoms: C9_18  and  C10_19 
REMARK       I    between atoms: C11_23  and  N4_25 
REMARK    8  A    between atoms: N4_25  and  C12_27 
ROOT
HETATM    1  C12 UNL     1      -1.376  19.016  -4.662  1.00  0.00     0.122 C 
HETATM    2  C13 UNL     1      -0.519  20.023  -5.316  1.00  0.00     0.091 C 
HETATM    3  N5  UNL     1       0.148  20.826  -5.855  1.00  0.00    -0.195 NA
HETATM    4  C14 UNL     1      -1.620  19.463  -3.239  1.00  0.00     0.046 C 
HETATM    5  C15 UNL     1      -0.325  19.846  -2.575  1.00  0.00     0.004 C 
HETATM    6  C16 UNL     1       0.875  19.091  -3.005  1.00  0.00     0.000 C 
HETATM    7  C17 UNL     1       0.678  17.870  -3.812  1.00  0.00     0.004 C 
HETATM    8  C18 UNL     1      -0.598  17.754  -4.590  1.00  0.00     0.046 C 
ENDROOT
BRANCH   1   9
HETATM    9  N4  UNL     1      -2.629  18.892  -5.352  1.00  0.00    -0.337 N 
HETATM   10  C11 UNL     1      -3.634  17.931  -5.149  1.00  0.00     0.242 C 
HETATM   11  O4  UNL     1      -3.451  17.068  -4.259  1.00  0.00    -0.271 OA
ATOM     12  H4  UNL     1      -2.811  19.585  -6.077  1.00  0.00     0.164 HD
BRANCH  10  13
HETATM   13  C8  UNL     1      -4.862  17.918  -5.928  1.00  0.00     0.185 C 
BRANCH  13  14
HETATM   14  N3  UNL     1      -5.761  18.947  -5.318  1.00  0.00    -0.346 N 
HETATM   15  C7  UNL     1      -5.812  20.255  -5.810  1.00  0.00     0.240 C 
HETATM   16  O3  UNL     1      -5.095  20.583  -6.779  1.00  0.00    -0.271 OA
ATOM     17  H3  UNL     1      -6.349  18.688  -4.527  1.00  0.00     0.163 HD
BRANCH  15  18
HETATM   18  C2  UNL     1      -6.706  21.255  -5.197  1.00  0.00     0.172 C 
HETATM   19  C1  UNL     1      -7.216  20.653  -3.903  1.00  0.00     0.042 C 
BRANCH  18  20
HETATM   20  N1  UNL     1      -5.921  22.441  -4.823  1.00  0.00    -0.342 N 
HETATM   21  C3  UNL     1      -5.993  23.662  -5.522  1.00  0.00     0.277 C 
HETATM   22  O1  UNL     1      -6.746  23.810  -6.526  1.00  0.00    -0.265 OA
ATOM     23  H1  UNL     1      -5.295  22.376  -4.021  1.00  0.00     0.163 HD
BRANCH  21  24
HETATM   24  C4  UNL     1      -5.199  24.807  -5.111  1.00  0.00     0.159 A 
HETATM   25  C5  UNL     1      -4.260  24.791  -4.086  1.00  0.00     0.132 A 
HETATM   26  N2  UNL     1      -3.747  26.008  -4.008  1.00  0.00    -0.354 N 
HETATM   27  C6  UNL     1      -4.338  26.741  -4.937  1.00  0.00     0.234 A 
ATOM     28  H2  UNL     1      -3.030  26.321  -3.354  1.00  0.00     0.166 HD
HETATM   29  O2  UNL     1      -5.208  26.025  -5.598  1.00  0.00    -0.299 OA
ENDBRANCH  21  24
ENDBRANCH  18  20
ENDBRANCH  15  18
ENDBRANCH  13  14
BRANCH  13  30
HETATM   30  C9  UNL     1      -5.681  16.692  -5.952  1.00  0.00     0.152 C 
BRANCH  30  31
HETATM   31  C10 UNL     1      -5.266  15.508  -6.711  1.00  0.00     0.390 C 
HETATM   32  F1  UNL     1      -6.354  14.593  -6.612  1.00  0.00    -0.171 F 
HETATM   33  F2  UNL     1      -5.029  15.652  -8.036  1.00  0.00    -0.171 F 
HETATM   34  F3  UNL     1      -4.254  14.757  -6.070  1.00  0.00    -0.171 F 
ENDBRANCH  30  31
ENDBRANCH  13  30
ENDBRANCH  10  13
ENDBRANCH   1   9
TORSDOF 8
ENDMDL
MODEL 5
REMARK VINA RESULT: -8.170013466      2.476      3.602
REMARK  8 active torsions:
REMARK  status: ('A' for Active; 'I' for Inactive)
REMARK    1  A    between atoms: C2_2  and  N1_3 
REMARK    2  A    between atoms: C2_2  and  C7_13 
REMARK       I    between atoms: N1_3  and  C3_5 
REMARK    3  A    between atoms: C3_5  and  C4_7 
REMARK       I    between atoms: C7_13  and  N3_15 
REMARK    4  A    between atoms: N3_15  and  C8_17 
REMARK    5  A    between atoms: C8_17  and  C9_18 
REMARK    6  A    between atoms: C8_17  and  C11_23 
REMARK    7  A    between atoms: C9_18  and  C10_19 
REMARK       I    between atoms: C11_23  and  N4_25 
REMARK    8  A    between atoms: N4_25  and  C12_27 
ROOT
HETATM    1  C12 UNL     1      -2.000  19.643  -3.332  1.00  0.00     0.122 C 
HETATM    2  C13 UNL     1      -1.527  20.838  -4.057  1.00  0.00     0.091 C 
HETATM    3  N5  UNL     1      -1.163  21.783  -4.654  1.00  0.00    -0.195 NA
HETATM    4  C14 UNL     1      -2.480  20.085  -1.969  1.00  0.00     0.046 C 
HETATM    5  C15 UNL     1      -1.458  20.969  -1.309  1.00  0.00     0.004 C 
HETATM    6  C16 UNL     1      -0.041  20.677  -1.625  1.00  0.00     0.000 C 
HETATM    7  C17 UNL     1       0.271  19.406  -2.312  1.00  0.00     0.004 C 
HETATM    8  C18 UNL     1      -0.822  18.767  -3.112  1.00  0.00     0.046 C 
ENDROOT
BRANCH   1   9
HETATM    9  N4  UNL     1      -3.075  19.012  -4.043  1.00  0.00    -0.337 N 
HETATM   10  C11 UNL     1      -3.029  17.832  -4.805  1.00  0.00     0.242 C 
HETATM   11  O4  UNL     1      -1.935  17.228  -4.887  1.00  0.00    -0.271 OA
ATOM     12  H4  UNL     1      -3.981  19.475  -3.990  1.00  0.00     0.164 HD
BRANCH  10  13
HETATM   13  C8  UNL     1      -4.201  17.301  -5.483  1.00  0.00     0.185 C 
BRANCH  13  14
HETATM   14  N3  UNL     1      -5.340  18.204  -5.129  1.00  0.00    -0.346 N 
HETATM   15  C7  UNL     1      -5.519  19.437  -5.763  1.00  0.00     0.240 C 
HETATM   16  O3  UNL     1      -4.716  19.804  -6.646  1.00  0.00    -0.271 OA
ATOM     17  H3  UNL     1      -6.001  17.913  -4.409  1.00  0.00     0.163 HD
BRANCH  15  18
HETATM   18  C2  UNL     1      -6.650  20.313  -5.401  1.00  0.00     0.172 C 
HETATM   19  C1  UNL     1      -6.824  20.207  -3.900  1.00  0.00     0.042 C 
BRANCH  18  20
HETATM   20  N1  UNL     1      -6.288  21.710  -5.681  1.00  0.00    -0.342 N 
HETATM   21  C3  UNL     1      -7.241  22.741  -5.806  1.00  0.00     0.277 C 
HETATM   22  O1  UNL     1      -8.479  22.519  -5.686  1.00  0.00    -0.265 OA
ATOM     23  H1  UNL     1      -5.301  21.944  -5.789  1.00  0.00     0.163 HD
BRANCH  21  24
HETATM   24  C4  UNL     1      -6.833  24.108  -6.080  1.00  0.00     0.159 A 
HETATM   25  C5  UNL     1      -5.734  24.465  -6.856  1.00  0.00     0.132 A 
HETATM   26  N2  UNL     1      -5.684  25.786  -6.876  1.00  0.00    -0.354 N 
HETATM   27  C6  UNL     1      -6.699  26.227  -6.150  1.00  0.00     0.234 A 
ATOM     28  H2  UNL     1      -4.993  26.358  -7.360  1.00  0.00     0.166 HD
HETATM   29  O2  UNL     1      -7.387  25.224  -5.673  1.00  0.00    -0.299 OA
ENDBRANCH  21  24
ENDBRANCH  18  20
ENDBRANCH  15  18
ENDBRANCH  13  14
BRANCH  13  30
HETATM   30  C9  UNL     1      -4.685  15.954  -5.128  1.00  0.00     0.152 C 
BRANCH  30  31
HETATM   31  C10 UNL     1      -5.198  15.032  -6.146  1.00  0.00     0.390 C 
HETATM   32  F1  UNL     1      -4.413  13.850  -6.018  1.00  0.00    -0.171 F 
HETATM   33  F2  UNL     1      -6.487  14.627  -6.047  1.00  0.00    -0.171 F 
HETATM   34  F3  UNL     1      -4.862  15.409  -7.466  1.00  0.00    -0.171 F 
ENDBRANCH  30  31
ENDBRANCH  13  30
ENDBRANCH  10  13
ENDBRANCH   1   9
TORSDOF 8
ENDMDL
