MODEL 1
REMARK VINA RESULT: -8.258877813      0.000      0.000
REMARK  7 active torsions:
REMARK  status: ('A' for Active; 'I' for Inactive)
REMARK    1  A    between atoms: N1_2  and  C2_3 
REMARK    2  A    between atoms: N1_2  and  C8_13 
REMARK    3  A    between atoms: C2_3  and  C3_4 
REMARK       I    between atoms: C3_4  and  N2_6 
REMARK       I    between atoms: N2_6  and  C4_8 
REMARK    4  A    between atoms: C4_8  and  C5_10 
REMARK    5  A    between atoms: C8_13  and  C9_14 
REMARK    6  A    between atoms: C8_13  and  C13_30 
REMARK    7  A    between atoms: C10_17  and  C11_18 
ROOT
HETATM    1  C8  UNL     1      -2.258  19.821  -2.894  1.00  0.00     0.202 C 
ENDROOT
BRANCH   1   2
HETATM    2  N1  UNL     1      -3.273  20.441  -3.677  1.00  0.00    -0.394 N 
HETATM    3  C1  UNL     1      -3.259  21.853  -3.787  1.00  0.00     0.144 C 
BRANCH   2   4
HETATM    4  C2  UNL     1      -4.541  19.808  -3.602  1.00  0.00     0.220 C 
BRANCH   4   5
HETATM    5  C3  UNL     1      -4.756  18.629  -4.469  1.00  0.00     0.241 C 
HETATM    6  O1  UNL     1      -5.240  18.851  -5.611  1.00  0.00    -0.271 OA
HETATM    7  N2  UNL     1      -4.448  17.313  -4.068  1.00  0.00    -0.296 N 
HETATM    8  C4  UNL     1      -4.567  16.124  -4.777  1.00  0.00     0.228 C 
ATOM      9  H2  UNL     1      -4.083  17.221  -3.120  1.00  0.00     0.171 HD
HETATM   10  O2  UNL     1      -4.205  15.035  -4.208  1.00  0.00    -0.273 OA
BRANCH   8  11
HETATM   11  C5  UNL     1      -5.077  15.972  -6.148  1.00  0.00     0.078 A 
HETATM   12  C6  UNL     1      -6.195  14.984  -6.384  1.00  0.00     0.015 A 
HETATM   13  C7  UNL     1      -4.770  14.684  -6.841  1.00  0.00     0.015 A 
ENDBRANCH   8  11
ENDBRANCH   4   5
ENDBRANCH   2   4
ENDBRANCH   1   2
BRANCH   1  14
HETATM   14  C9  UNL     1      -1.945  20.665  -1.690  1.00  0.00     0.109 A 
HETATM   15  N3  UNL     1      -2.544  20.491  -0.485  1.00  0.00    -0.340 N 
HETATM   16  C10 UNL     1      -2.064  21.406   0.374  1.00  0.00     0.096 A 
ATOM     17  H3  UNL     1      -3.244  19.783  -0.267  1.00  0.00     0.167 HD
HETATM   18  C12 UNL     1      -1.153  22.140  -0.350  1.00  0.00     0.123 A 
HETATM   19  N8  UNL     1      -1.081  21.677  -1.637  1.00  0.00    -0.352 N 
ATOM     20  H8  UNL     1      -0.493  22.031  -2.392  1.00  0.00     0.166 HD
BRANCH  16  21
HETATM   21  C11 UNL     1      -2.441  21.585   1.786  1.00  0.00     0.165 A 
HETATM   22  N4  UNL     1      -3.445  20.977   2.423  1.00  0.00    -0.267 N 
HETATM   23  N5  UNL     1      -3.437  21.421   3.687  1.00  0.00    -0.227 N 
ATOM     24  H4  UNL     1      -4.097  20.302   2.022  1.00  0.00     0.190 HD
HETATM   25  N6  UNL     1      -2.462  22.281   3.854  1.00  0.00    -0.227 N 
ATOM     26  H5  UNL     1      -4.092  21.132   4.413  1.00  0.00     0.210 HD
HETATM   27  N7  UNL     1      -1.850  22.382   2.687  1.00  0.00    -0.267 N 
ATOM     28  H6  UNL     1      -2.224  22.775   4.714  1.00  0.00     0.210 HD
ATOM     29  H7  UNL     1      -1.046  22.980   2.498  1.00  0.00     0.190 HD
ENDBRANCH  16  21
ENDBRANCH   1  14
BRANCH   1  30
HETATM   30  C13 UNL     1      -1.038  19.482  -3.693  1.00  0.00     0.215 C 
HETATM   31 CL1  UNL     1      -0.561  20.654  -4.905  1.00  0.00    -0.081 Cl
HETATM   32 CL2  UNL     1      -1.349  17.912  -4.566  1.00  0.00    -0.081 Cl
HETATM   33 CL3  UNL     1       0.377  19.109  -2.655  1.00  0.00    -0.081 Cl
ENDBRANCH   1  30
TORSDOF 7
ENDMDL
MODEL 2
REMARK VINA RESULT: -8.220583676      3.096      4.736
REMARK  7 active torsions:
REMARK  status: ('A' for Active; 'I' for Inactive)
REMARK    1  A    between atoms: N1_2  and  C2_3 
REMARK    2  A    between atoms: N1_2  and  C8_13 
REMARK    3  A    between atoms: C2_3  and  C3_4 
REMARK       I    between atoms: C3_4  and  N2_6 
REMARK       I    between atoms: N2_6  and  C4_8 
REMARK    4  A    between atoms: C4_8  and  C5_10 
REMARK    5  A    between atoms: C8_13  and  C9_14 
REMARK    6  A    between atoms: C8_13  and  C13_30 
REMARK    7  A    between atoms: C10_17  and  C11_18 
ROOT
HETATM    1  C8  UNL     1      -3.407  20.986  -3.848  1.00  0.00     0.202 C 
ENDROOT
BRANCH   1   2
HETATM    2  N1  UNL     1      -4.506  20.506  -3.081  1.00  0.00    -0.394 N 
HETATM    3  C1  UNL     1      -4.232  19.900  -1.832  1.00  0.00     0.144 C 
BRANCH   2   4
HETATM    4  C2  UNL     1      -5.564  19.955  -3.852  1.00  0.00     0.220 C 
BRANCH   4   5
HETATM    5  C3  UNL     1      -5.269  18.719  -4.609  1.00  0.00     0.241 C 
HETATM    6  O1  UNL     1      -5.389  18.784  -5.863  1.00  0.00    -0.271 OA
HETATM    7  N2  UNL     1      -4.873  17.515  -3.993  1.00  0.00    -0.296 N 
HETATM    8  C4  UNL     1      -4.540  16.295  -4.570  1.00  0.00     0.228 C 
ATOM      9  H2  UNL     1      -4.825  17.542  -2.974  1.00  0.00     0.171 HD
HETATM   10  O2  UNL     1      -4.189  15.331  -3.802  1.00  0.00    -0.273 OA
BRANCH   8  11
HETATM   11  C5  UNL     1      -4.541  15.979  -6.007  1.00  0.00     0.078 A 
HETATM   12  C6  UNL     1      -5.798  15.388  -6.602  1.00  0.00     0.015 A 
HETATM   13  C7  UNL     1      -4.554  14.532  -6.378  1.00  0.00     0.015 A 
ENDBRANCH   8  11
ENDBRANCH   4   5
ENDBRANCH   2   4
ENDBRANCH   1   2
BRANCH   1  14
HETATM   14  C9  UNL     1      -2.124  20.384  -3.348  1.00  0.00     0.109 A 
HETATM   15  N3  UNL     1      -1.536  19.304  -3.922  1.00  0.00    -0.340 N 
HETATM   16  C10 UNL     1      -0.421  19.001  -3.237  1.00  0.00     0.096 A 
ATOM     17  H3  UNL     1      -1.884  18.804  -4.739  1.00  0.00     0.167 HD
HETATM   18  C12 UNL     1      -0.351  19.934  -2.229  1.00  0.00     0.123 A 
HETATM   19  N8  UNL     1      -1.414  20.794  -2.298  1.00  0.00    -0.352 N 
ATOM     20  H8  UNL     1      -1.619  21.580  -1.680  1.00  0.00     0.166 HD
BRANCH  16  21
HETATM   21  C11 UNL     1       0.519  17.902  -3.509  1.00  0.00     0.165 A 
HETATM   22  N4  UNL     1       0.540  17.124  -4.595  1.00  0.00    -0.267 N 
HETATM   23  N5  UNL     1       1.549  16.256  -4.439  1.00  0.00    -0.227 N 
ATOM     24  H4  UNL     1      -0.093  17.181  -5.393  1.00  0.00     0.190 HD
HETATM   25  N6  UNL     1       2.152  16.470  -3.296  1.00  0.00    -0.227 N 
ATOM     26  H5  UNL     1       1.810  15.536  -5.112  1.00  0.00     0.210 HD
HETATM   27  N7  UNL     1       1.520  17.480  -2.724  1.00  0.00    -0.267 N 
ATOM     28  H6  UNL     1       2.951  15.958  -2.922  1.00  0.00     0.210 HD
ATOM     29  H7  UNL     1       1.759  17.880  -1.817  1.00  0.00     0.190 HD
ENDBRANCH  16  21
ENDBRANCH   1  14
BRANCH   1  30
HETATM   30  C13 UNL     1      -3.356  22.481  -3.912  1.00  0.00     0.215 C 
HETATM   31 CL1  UNL     1      -3.818  23.330  -2.451  1.00  0.00    -0.081 Cl
HETATM   32 CL2  UNL     1      -4.489  23.033  -5.229  1.00  0.00    -0.081 Cl
HETATM   33 CL3  UNL     1      -1.757  23.087  -4.456  1.00  0.00    -0.081 Cl
ENDBRANCH   1  30
TORSDOF 7
ENDMDL
MODEL 3
REMARK VINA RESULT: -8.201541924      4.448      5.215
REMARK  7 active torsions:
REMARK  status: ('A' for Active; 'I' for Inactive)
REMARK    1  A    between atoms: N1_2  and  C2_3 
REMARK    2  A    between atoms: N1_2  and  C8_13 
REMARK    3  A    between atoms: C2_3  and  C3_4 
REMARK       I    between atoms: C3_4  and  N2_6 
REMARK       I    between atoms: N2_6  and  C4_8 
REMARK    4  A    between atoms: C4_8  and  C5_10 
REMARK    5  A    between atoms: C8_13  and  C9_14 
REMARK    6  A    between atoms: C8_13  and  C13_30 
REMARK    7  A    between atoms: C10_17  and  C11_18 
ROOT
HETATM    1  C8  UNL     1      -5.874  21.711  -3.840  1.00  0.00     0.202 C 
ENDROOT
BRANCH   1   2
HETATM    2  N1  UNL     1      -5.278  20.461  -3.509  1.00  0.00    -0.394 N 
HETATM    3  C1  UNL     1      -5.081  20.159  -2.140  1.00  0.00     0.144 C 
BRANCH   2   4
HETATM    4  C2  UNL     1      -4.279  20.027  -4.420  1.00  0.00     0.220 C 
BRANCH   4   5
HETATM    5  C3  UNL     1      -4.452  18.685  -5.017  1.00  0.00     0.241 C 
HETATM    6  O1  UNL     1      -4.785  18.647  -6.232  1.00  0.00    -0.271 OA
HETATM    7  N2  UNL     1      -4.264  17.490  -4.292  1.00  0.00    -0.296 N 
HETATM    8  C4  UNL     1      -4.363  16.172  -4.721  1.00  0.00     0.228 C 
ATOM      9  H2  UNL     1      -4.020  17.611  -3.309  1.00  0.00     0.171 HD
HETATM   10  O2  UNL     1      -4.129  15.236  -3.878  1.00  0.00    -0.273 OA
BRANCH   8  11
HETATM   11  C5  UNL     1      -4.714  15.718  -6.076  1.00  0.00     0.078 A 
HETATM   12  C6  UNL     1      -6.000  14.947  -6.255  1.00  0.00     0.015 A 
HETATM   13  C7  UNL     1      -4.645  14.248  -6.332  1.00  0.00     0.015 A 
ENDBRANCH   8  11
ENDBRANCH   4   5
ENDBRANCH   2   4
ENDBRANCH   1   2
BRANCH   1  14
HETATM   14  C9  UNL     1      -6.512  22.320  -2.623  1.00  0.00     0.109 A 
HETATM   15  N3  UNL     1      -7.632  21.821  -2.043  1.00  0.00    -0.340 N 
HETATM   16  C10 UNL     1      -7.958  22.593  -0.993  1.00  0.00     0.096 A 
ATOM     17  H3  UNL     1      -8.143  20.995  -2.353  1.00  0.00     0.167 HD
HETATM   18  C12 UNL     1      -6.997  23.577  -0.955  1.00  0.00     0.123 A 
HETATM   19  N8  UNL     1      -6.097  23.406  -1.973  1.00  0.00    -0.352 N 
ATOM     20  H8  UNL     1      -5.285  23.985  -2.188  1.00  0.00     0.166 HD
BRANCH  16  21
HETATM   21  C11 UNL     1      -9.103  22.422  -0.084  1.00  0.00     0.165 A 
HETATM   22  N4  UNL     1      -9.628  21.263   0.323  1.00  0.00    -0.267 N 
HETATM   23  N5  UNL     1     -10.649  21.557   1.139  1.00  0.00    -0.227 N 
ATOM     24  H4  UNL     1      -9.310  20.329   0.062  1.00  0.00     0.190 HD
HETATM   25  N6  UNL     1     -10.774  22.857   1.251  1.00  0.00    -0.227 N 
ATOM     26  H5  UNL     1     -11.242  20.871   1.605  1.00  0.00     0.210 HD
HETATM   27  N7  UNL     1      -9.825  23.388   0.500  1.00  0.00    -0.267 N 
ATOM     28  H6  UNL     1     -11.466  23.358   1.807  1.00  0.00     0.210 HD
ATOM     29  H7  UNL     1      -9.665  24.389   0.382  1.00  0.00     0.190 HD
ENDBRANCH  16  21
ENDBRANCH   1  14
BRANCH   1  30
HETATM   30  C13 UNL     1      -6.818  21.612  -4.998  1.00  0.00     0.215 C 
HETATM   31 CL1  UNL     1      -7.716  20.114  -5.133  1.00  0.00    -0.081 Cl
HETATM   32 CL2  UNL     1      -5.855  21.797  -6.535  1.00  0.00    -0.081 Cl
HETATM   33 CL3  UNL     1      -7.969  22.987  -5.059  1.00  0.00    -0.081 Cl
ENDBRANCH   1  30
TORSDOF 7
ENDMDL
MODEL 4
REMARK VINA RESULT: -8.040306475      4.450      5.181
REMARK  7 active torsions:
REMARK  status: ('A' for Active; 'I' for Inactive)
REMARK    1  A    between atoms: N1_2  and  C2_3 
REMARK    2  A    between atoms: N1_2  and  C8_13 
REMARK    3  A    between atoms: C2_3  and  C3_4 
REMARK       I    between atoms: C3_4  and  N2_6 
REMARK       I    between atoms: N2_6  and  C4_8 
REMARK    4  A    between atoms: C4_8  and  C5_10 
REMARK    5  A    between atoms: C8_13  and  C9_14 
REMARK    6  A    between atoms: C8_13  and  C13_30 
REMARK    7  A    between atoms: C10_17  and  C11_18 
ROOT
HETATM    1  C8  UNL     1      -5.848  21.752  -3.822  1.00  0.00     0.202 C 
ENDROOT
BRANCH   1   2
HETATM    2  N1  UNL     1      -5.307  20.465  -3.545  1.00  0.00    -0.394 N 
HETATM    3  C1  UNL     1      -5.144  20.089  -2.189  1.00  0.00     0.144 C 
BRANCH   2   4
HETATM    4  C2  UNL     1      -4.310  20.037  -4.460  1.00  0.00     0.220 C 
BRANCH   4   5
HETATM    5  C3  UNL     1      -4.473  18.690  -5.049  1.00  0.00     0.241 C 
HETATM    6  O1  UNL     1      -4.805  18.642  -6.264  1.00  0.00    -0.271 OA
HETATM    7  N2  UNL     1      -4.274  17.501  -4.316  1.00  0.00    -0.296 N 
HETATM    8  C4  UNL     1      -4.363  16.180  -4.737  1.00  0.00     0.228 C 
ATOM      9  H2  UNL     1      -4.031  17.631  -3.334  1.00  0.00     0.171 HD
HETATM   10  O2  UNL     1      -4.121  15.251  -3.888  1.00  0.00    -0.273 OA
BRANCH   8  11
HETATM   11  C5  UNL     1      -4.710  15.715  -6.088  1.00  0.00     0.078 A 
HETATM   12  C6  UNL     1      -5.985  14.922  -6.260  1.00  0.00     0.015 A 
HETATM   13  C7  UNL     1      -4.619  14.245  -6.339  1.00  0.00     0.015 A 
ENDBRANCH   8  11
ENDBRANCH   4   5
ENDBRANCH   2   4
ENDBRANCH   1   2
BRANCH   1  14
HETATM   14  C9  UNL     1      -6.466  22.333  -2.581  1.00  0.00     0.109 A 
HETATM   15  N3  UNL     1      -7.619  21.867  -2.037  1.00  0.00    -0.340 N 
HETATM   16  C10 UNL     1      -7.915  22.602  -0.952  1.00  0.00     0.096 A 
ATOM     17  H3  UNL     1      -8.170  21.087  -2.394  1.00  0.00     0.167 HD
HETATM   18  C12 UNL     1      -6.903  23.529  -0.856  1.00  0.00     0.123 A 
HETATM   19  N8  UNL     1      -6.002  23.361  -1.873  1.00  0.00    -0.352 N 
ATOM     20  H8  UNL     1      -5.157  23.905  -2.050  1.00  0.00     0.166 HD
BRANCH  16  21
HETATM   21  C11 UNL     1      -9.078  22.448  -0.064  1.00  0.00     0.165 A 
HETATM   22  N4  UNL     1      -9.792  23.433   0.488  1.00  0.00    -0.267 N 
HETATM   23  N5  UNL     1     -10.756  22.859   1.221  1.00  0.00    -0.227 N 
ATOM     24  H4  UNL     1      -9.633  24.434   0.374  1.00  0.00     0.190 HD
HETATM   25  N6  UNL     1     -10.663  21.554   1.141  1.00  0.00    -0.227 N 
ATOM     26  H5  UNL     1     -11.458  23.363   1.761  1.00  0.00     0.210 HD
HETATM   27  N7  UNL     1      -9.633  21.301   0.352  1.00  0.00    -0.267 N 
ATOM     28  H6  UNL     1     -11.266  20.870   1.597  1.00  0.00     0.210 HD
ATOM     29  H7  UNL     1      -9.308  20.369   0.097  1.00  0.00     0.190 HD
ENDBRANCH  16  21
ENDBRANCH   1  14
BRANCH   1  30
HETATM   30  C13 UNL     1      -6.789  21.745  -4.986  1.00  0.00     0.215 C 
HETATM   31 CL1  UNL     1      -8.003  23.009  -5.002  1.00  0.00    -0.081 Cl
HETATM   32 CL2  UNL     1      -7.677  20.153  -4.989  1.00  0.00    -0.081 Cl
HETATM   33 CL3  UNL     1      -5.928  21.746  -6.560  1.00  0.00    -0.081 Cl
ENDBRANCH   1  30
TORSDOF 7
ENDMDL
MODEL 5
REMARK VINA RESULT: -7.795655225      4.890      7.181
REMARK  7 active torsions:
REMARK  status: ('A' for Active; 'I' for Inactive)
REMARK    1  A    between atoms: N1_2  and  C2_3 
REMARK    2  A    between atoms: N1_2  and  C8_13 
REMARK    3  A    between atoms: C2_3  and  C3_4 
REMARK       I    between atoms: C3_4  and  N2_6 
REMARK       I    between atoms: N2_6  and  C4_8 
REMARK    4  A    between atoms: C4_8  and  C5_10 
REMARK    5  A    between atoms: C8_13  and  C9_14 
REMARK    6  A    between atoms: C8_13  and  C13_30 
REMARK    7  A    between atoms: C10_17  and  C11_18 
ROOT
HETATM    1  C8  UNL     1      -6.182  21.711  -5.150  1.00  0.00     0.202 C 
ENDROOT
BRANCH   1   2
HETATM    2  N1  UNL     1      -5.473  21.034  -4.117  1.00  0.00    -0.394 N 
HETATM    3  C1  UNL     1      -5.410  21.645  -2.842  1.00  0.00     0.144 C 
BRANCH   2   4
HETATM    4  C2  UNL     1      -4.320  20.333  -4.559  1.00  0.00     0.220 C 
BRANCH   4   5
HETATM    5  C3  UNL     1      -4.529  18.974  -5.104  1.00  0.00     0.241 C 
HETATM    6  O1  UNL     1      -4.797  18.895  -6.333  1.00  0.00    -0.271 OA
HETATM    7  N2  UNL     1      -4.440  17.807  -4.317  1.00  0.00    -0.296 N 
HETATM    8  C4  UNL     1      -4.582  16.477  -4.692  1.00  0.00     0.228 C 
ATOM      9  H2  UNL     1      -4.243  17.963  -3.328  1.00  0.00     0.171 HD
HETATM   10  O2  UNL     1      -4.441  15.571  -3.797  1.00  0.00    -0.273 OA
BRANCH   8  11
HETATM   11  C5  UNL     1      -4.882  15.977  -6.042  1.00  0.00     0.078 A 
HETATM   12  C6  UNL     1      -6.014  14.988  -6.198  1.00  0.00     0.015 A 
HETATM   13  C7  UNL     1      -4.558  14.544  -6.318  1.00  0.00     0.015 A 
ENDBRANCH   8  11
ENDBRANCH   4   5
ENDBRANCH   2   4
ENDBRANCH   1   2
BRANCH   1  14
HETATM   14  C9  UNL     1      -5.532  23.035  -5.442  1.00  0.00     0.109 A 
HETATM   15  N3  UNL     1      -5.777  23.751  -6.568  1.00  0.00    -0.340 N 
HETATM   16  C10 UNL     1      -5.036  24.870  -6.541  1.00  0.00     0.096 A 
ATOM     17  H3  UNL     1      -6.419  23.482  -7.314  1.00  0.00     0.167 HD
HETATM   18  C12 UNL     1      -4.333  24.811  -5.360  1.00  0.00     0.123 A 
HETATM   19  N8  UNL     1      -4.643  23.665  -4.676  1.00  0.00    -0.352 N 
ATOM     20  H8  UNL     1      -4.273  23.360  -3.776  1.00  0.00     0.166 HD
BRANCH  16  21
HETATM   21  C11 UNL     1      -4.985  25.929  -7.562  1.00  0.00     0.165 A 
HETATM   22  N4  UNL     1      -5.703  27.055  -7.575  1.00  0.00    -0.267 N 
HETATM   23  N5  UNL     1      -5.350  27.735  -8.675  1.00  0.00    -0.227 N 
ATOM     24  H4  UNL     1      -6.391  27.344  -6.878  1.00  0.00     0.190 HD
HETATM   25  N6  UNL     1      -4.439  27.069  -9.341  1.00  0.00    -0.227 N 
ATOM     26  H5  UNL     1      -5.734  28.639  -8.952  1.00  0.00     0.210 HD
HETATM   27  N7  UNL     1      -4.215  25.960  -8.658  1.00  0.00    -0.267 N 
ATOM     28  H6  UNL     1      -3.993  27.352 -10.213  1.00  0.00     0.210 HD
ATOM     29  H7  UNL     1      -3.552  25.233  -8.927  1.00  0.00     0.190 HD
ENDBRANCH  16  21
ENDBRANCH   1  14
BRANCH   1  30
HETATM   30  C13 UNL     1      -7.645  21.838  -4.859  1.00  0.00     0.215 C 
HETATM   31 CL1  UNL     1      -8.339  20.592  -3.841  1.00  0.00    -0.081 Cl
HETATM   32 CL2  UNL     1      -8.546  21.795  -6.443  1.00  0.00    -0.081 Cl
HETATM   33 CL3  UNL     1      -8.069  23.444  -4.181  1.00  0.00    -0.081 Cl
ENDBRANCH   1  30
TORSDOF 7
ENDMDL
