MODEL 1
REMARK VINA RESULT: -7.405831772      0.000      0.000
REMARK  10 active torsions:
REMARK  status: ('A' for Active; 'I' for Inactive)
REMARK    1  A    between atoms: C2_2  and  C4_4 
REMARK    2  A    between atoms: C4_4  and  N1_5 
REMARK    3  A    between atoms: C4_4  and  C13_23 
REMARK       I    between atoms: N1_5  and  C5_7 
REMARK    4  A    between atoms: C5_7  and  C6_9 
REMARK    5  A    between atoms: C6_9  and  N2_10 
REMARK    6  A    between atoms: C6_9  and  C12_19 
REMARK       I    between atoms: N2_10  and  C7_12 
REMARK    7  A    between atoms: C7_12  and  C8_14 
REMARK    8  A    between atoms: C8_14  and  C9_15 
REMARK    9  A    between atoms: C13_23  and  O4_24 
REMARK   10  A    between atoms: C13_23  and  N3_26 
ROOT
HETATM    1  N1  UNL     1      21.757  -1.946   3.028  1.00  0.00    -0.347 N 
ATOM      2  H1  UNL     1      20.890  -1.480   3.296  1.00  0.00     0.163 HD
HETATM    3  C5  UNL     1      22.894  -1.768   3.817  1.00  0.00     0.250 C 
HETATM    4  O1  UNL     1      23.954  -2.367   3.386  1.00  0.00    -0.271 OA
ENDROOT
BRANCH   1   5
HETATM    5  C4  UNL     1      21.771  -2.795   1.809  1.00  0.00     0.162 C 
BRANCH   5   6
HETATM    6  C2  UNL     1      21.723  -4.194   2.301  1.00  0.00     0.008 C 
HETATM    7  C1  UNL     1      21.771  -5.312   1.337  1.00  0.00     0.012 C 
HETATM    8  C3  UNL     1      20.583  -4.450   3.262  1.00  0.00     0.012 C 
ENDBRANCH   5   6
BRANCH   5   9
HETATM    9  C13 UNL     1      22.843  -2.350   0.919  1.00  0.00     0.138 C 
BRANCH   9  10
HETATM   10  O4  UNL     1      23.889  -3.260   0.769  1.00  0.00    -0.348 OA
ATOM     11  H4  UNL     1      24.204  -3.357  -0.122  1.00  0.00     0.219 HD
ENDBRANCH   9  10
BRANCH   9  12
HETATM   12  N3  UNL     1      22.551  -1.713  -0.287  1.00  0.00    -0.355 N 
HETATM   13  C14 UNL     1      22.969  -0.393  -0.516  1.00  0.00     0.082 C 
HETATM   14  C15 UNL     1      24.007   0.149   0.410  1.00  0.00     0.032 C 
HETATM   15  C16 UNL     1      21.696   0.444  -0.252  1.00  0.00     0.027 C 
HETATM   16  C17 UNL     1      20.606  -0.589  -0.006  1.00  0.00     0.027 C 
HETATM   17  C18 UNL     1      21.229  -1.750  -0.807  1.00  0.00     0.082 C 
HETATM   18  C19 UNL     1      21.102  -1.330  -2.242  1.00  0.00     0.032 C 
ENDBRANCH   9  12
ENDBRANCH   5   9
ENDBRANCH   1   5
BRANCH   3  19
HETATM   19  C6  UNL     1      23.035  -0.996   5.063  1.00  0.00     0.285 C 
BRANCH  19  20
HETATM   20  N2  UNL     1      22.620   0.403   4.909  1.00  0.00    -0.340 N 
HETATM   21  C7  UNL     1      23.454   1.345   4.287  1.00  0.00     0.221 C 
HETATM   22  O2  UNL     1      24.567   1.020   3.815  1.00  0.00    -0.274 OA
ATOM     23  H2  UNL     1      21.708   0.697   5.260  1.00  0.00     0.163 HD
BRANCH  21  24
HETATM   24  C8  UNL     1      23.029   2.758   4.175  1.00  0.00     0.134 C 
BRANCH  24  25
HETATM   25  C9  UNL     1      21.622   2.810   3.679  1.00  0.00     0.132 C 
HETATM   26  C10 UNL     1      21.422   3.716   2.458  1.00  0.00     0.058 C 
HETATM   27  C11 UNL     1      20.277   2.693   2.327  1.00  0.00     0.170 C 
HETATM   28  O3  UNL     1      21.127   1.751   2.960  1.00  0.00    -0.385 OA
ENDBRANCH  24  25
ENDBRANCH  21  24
ENDBRANCH  19  20
BRANCH  19  29
HETATM   29  C12 UNL     1      22.441  -1.552   6.280  1.00  0.00     0.416 C 
HETATM   30  F1  UNL     1      21.709  -2.712   6.069  1.00  0.00    -0.168 F 
HETATM   31  F2  UNL     1      21.650  -0.655   6.974  1.00  0.00    -0.168 F 
HETATM   32  F3  UNL     1      23.441  -1.930   7.191  1.00  0.00    -0.168 F 
ENDBRANCH  19  29
ENDBRANCH   3  19
TORSDOF 10
ENDMDL
MODEL 2
REMARK VINA RESULT: -7.234502630      2.009      5.427
REMARK  10 active torsions:
REMARK  status: ('A' for Active; 'I' for Inactive)
REMARK    1  A    between atoms: C2_2  and  C4_4 
REMARK    2  A    between atoms: C4_4  and  N1_5 
REMARK    3  A    between atoms: C4_4  and  C13_23 
REMARK       I    between atoms: N1_5  and  C5_7 
REMARK    4  A    between atoms: C5_7  and  C6_9 
REMARK    5  A    between atoms: C6_9  and  N2_10 
REMARK    6  A    between atoms: C6_9  and  C12_19 
REMARK       I    between atoms: N2_10  and  C7_12 
REMARK    7  A    between atoms: C7_12  and  C8_14 
REMARK    8  A    between atoms: C8_14  and  C9_15 
REMARK    9  A    between atoms: C13_23  and  O4_24 
REMARK   10  A    between atoms: C13_23  and  N3_26 
ROOT
HETATM    1  N1  UNL     1      22.087   0.546   2.868  1.00  0.00    -0.347 N 
ATOM      2  H1  UNL     1      21.200   0.832   3.285  1.00  0.00     0.163 HD
HETATM    3  C5  UNL     1      22.590  -0.725   3.150  1.00  0.00     0.250 C 
HETATM    4  O1  UNL     1      23.731  -0.990   2.608  1.00  0.00    -0.271 OA
ENDROOT
BRANCH   1   5
HETATM    5  C4  UNL     1      22.803   1.496   1.980  1.00  0.00     0.162 C 
BRANCH   5   6
HETATM    6  C2  UNL     1      23.531   2.416   2.888  1.00  0.00     0.008 C 
HETATM    7  C1  UNL     1      24.995   2.294   3.038  1.00  0.00     0.012 C 
HETATM    8  C3  UNL     1      22.922   2.493   4.271  1.00  0.00     0.012 C 
ENDBRANCH   5   6
BRANCH   5   9
HETATM    9  C13 UNL     1      21.877   2.014   0.974  1.00  0.00     0.138 C 
BRANCH   9  10
HETATM   10  O4  UNL     1      21.534   3.356   1.136  1.00  0.00    -0.348 OA
ATOM     11  H4  UNL     1      20.762   3.629   0.654  1.00  0.00     0.219 HD
ENDBRANCH   9  10
BRANCH   9  12
HETATM   12  N3  UNL     1      22.033   1.693  -0.375  1.00  0.00    -0.355 N 
HETATM   13  C14 UNL     1      21.330   0.618  -0.939  1.00  0.00     0.082 C 
HETATM   14  C15 UNL     1      20.183   0.082  -0.148  1.00  0.00     0.032 C 
HETATM   15  C16 UNL     1      22.375  -0.521  -0.981  1.00  0.00     0.027 C 
HETATM   16  C17 UNL     1      23.667   0.132  -0.513  1.00  0.00     0.027 C 
HETATM   17  C18 UNL     1      23.337   1.580  -0.930  1.00  0.00     0.082 C 
HETATM   18  C19 UNL     1      23.386   1.562  -2.429  1.00  0.00     0.032 C 
ENDBRANCH   9  12
ENDBRANCH   5   9
ENDBRANCH   1   5
BRANCH   3  19
HETATM   19  C6  UNL     1      21.989  -1.788   3.975  1.00  0.00     0.285 C 
BRANCH  19  20
HETATM   20  N2  UNL     1      22.206  -3.126   3.413  1.00  0.00    -0.340 N 
HETATM   21  C7  UNL     1      21.471  -3.579   2.306  1.00  0.00     0.221 C 
HETATM   22  O2  UNL     1      20.627  -2.847   1.740  1.00  0.00    -0.274 OA
ATOM     23  H2  UNL     1      22.904  -3.739   3.835  1.00  0.00     0.163 HD
BRANCH  21  24
HETATM   24  C8  UNL     1      21.681  -4.945   1.779  1.00  0.00     0.134 C 
BRANCH  24  25
HETATM   25  C9  UNL     1      20.761  -5.888   2.481  1.00  0.00     0.132 C 
HETATM   26  C10 UNL     1      21.478  -7.002   3.254  1.00  0.00     0.058 C 
HETATM   27  C11 UNL     1      20.139  -6.860   4.004  1.00  0.00     0.170 C 
HETATM   28  O3  UNL     1      20.153  -5.488   3.644  1.00  0.00    -0.385 OA
ENDBRANCH  24  25
ENDBRANCH  21  24
ENDBRANCH  19  20
BRANCH  19  29
HETATM   29  C12 UNL     1      22.302  -1.799   5.405  1.00  0.00     0.416 C 
HETATM   30  F1  UNL     1      23.662  -1.827   5.682  1.00  0.00    -0.168 F 
HETATM   31  F2  UNL     1      21.692  -2.827   6.099  1.00  0.00    -0.168 F 
HETATM   32  F3  UNL     1      21.842  -0.624   6.021  1.00  0.00    -0.168 F 
ENDBRANCH  19  29
ENDBRANCH   3  19
TORSDOF 10
ENDMDL
MODEL 3
REMARK VINA RESULT: -7.051850289      3.185      6.868
REMARK  10 active torsions:
REMARK  status: ('A' for Active; 'I' for Inactive)
REMARK    1  A    between atoms: C2_2  and  C4_4 
REMARK    2  A    between atoms: C4_4  and  N1_5 
REMARK    3  A    between atoms: C4_4  and  C13_23 
REMARK       I    between atoms: N1_5  and  C5_7 
REMARK    4  A    between atoms: C5_7  and  C6_9 
REMARK    5  A    between atoms: C6_9  and  N2_10 
REMARK    6  A    between atoms: C6_9  and  C12_19 
REMARK       I    between atoms: N2_10  and  C7_12 
REMARK    7  A    between atoms: C7_12  and  C8_14 
REMARK    8  A    between atoms: C8_14  and  C9_15 
REMARK    9  A    between atoms: C13_23  and  O4_24 
REMARK   10  A    between atoms: C13_23  and  N3_26 
ROOT
HETATM    1  N1  UNL     1      23.660  -0.280   1.119  1.00  0.00    -0.347 N 
ATOM      2  H1  UNL     1      24.368  -0.976   0.882  1.00  0.00     0.163 HD
HETATM    3  C5  UNL     1      22.363  -0.440   0.632  1.00  0.00     0.250 C 
HETATM    4  O1  UNL     1      21.541   0.504   0.952  1.00  0.00    -0.271 OA
ENDROOT
BRANCH   1   5
HETATM    5  C4  UNL     1      24.043   0.874   1.972  1.00  0.00     0.162 C 
BRANCH   5   6
HETATM    6  C2  UNL     1      25.195   1.508   1.286  1.00  0.00     0.008 C 
HETATM    7  C1  UNL     1      25.210   2.970   1.077  1.00  0.00     0.012 C 
HETATM    8  C3  UNL     1      25.548   0.843  -0.026  1.00  0.00     0.012 C 
ENDBRANCH   5   6
BRANCH   5   9
HETATM    9  C13 UNL     1      24.148   0.436   3.363  1.00  0.00     0.138 C 
BRANCH   9  10
HETATM   10  O4  UNL     1      24.698   1.380   4.230  1.00  0.00    -0.348 OA
ATOM     11  H4  UNL     1      25.617   1.250   4.427  1.00  0.00     0.219 HD
ENDBRANCH   9  10
BRANCH   9  12
HETATM   12  N3  UNL     1      23.106  -0.263   3.974  1.00  0.00    -0.355 N 
HETATM   13  C14 UNL     1      22.018   0.424   4.533  1.00  0.00     0.082 C 
HETATM   14  C15 UNL     1      21.859   1.856   4.139  1.00  0.00     0.032 C 
HETATM   15  C16 UNL     1      22.332   0.440   6.046  1.00  0.00     0.027 C 
HETATM   16  C17 UNL     1      23.591  -0.405   6.181  1.00  0.00     0.027 C 
HETATM   17  C18 UNL     1      23.396  -1.278   4.925  1.00  0.00     0.082 C 
HETATM   18  C19 UNL     1      22.242  -2.175   5.264  1.00  0.00     0.032 C 
ENDBRANCH   9  12
ENDBRANCH   5   9
ENDBRANCH   1   5
BRANCH   3  19
HETATM   19  C6  UNL     1      21.818  -1.536  -0.189  1.00  0.00     0.285 C 
BRANCH  19  20
HETATM   20  N2  UNL     1      20.917  -2.413   0.569  1.00  0.00    -0.340 N 
HETATM   21  C7  UNL     1      21.397  -3.230   1.604  1.00  0.00     0.221 C 
HETATM   22  O2  UNL     1      22.603  -3.218   1.938  1.00  0.00    -0.274 OA
ATOM     23  H2  UNL     1      19.923  -2.428   0.339  1.00  0.00     0.163 HD
BRANCH  21  24
HETATM   24  C8  UNL     1      20.476  -4.132   2.330  1.00  0.00     0.134 C 
BRANCH  24  25
HETATM   25  C9  UNL     1      21.241  -5.310   2.836  1.00  0.00     0.132 C 
HETATM   26  C10 UNL     1      20.439  -6.218   3.776  1.00  0.00     0.058 C 
HETATM   27  C11 UNL     1      21.488  -7.174   3.175  1.00  0.00     0.170 C 
HETATM   28  O3  UNL     1      21.452  -6.379   2.002  1.00  0.00    -0.385 OA
ENDBRANCH  24  25
ENDBRANCH  21  24
ENDBRANCH  19  20
BRANCH  19  29
HETATM   29  C12 UNL     1      21.201  -1.187  -1.469  1.00  0.00     0.416 C 
HETATM   30  F1  UNL     1      19.982  -0.535  -1.346  1.00  0.00    -0.168 F 
HETATM   31  F2  UNL     1      21.038  -2.264  -2.320  1.00  0.00    -0.168 F 
HETATM   32  F3  UNL     1      22.011  -0.286  -2.179  1.00  0.00    -0.168 F 
ENDBRANCH  19  29
ENDBRANCH   3  19
TORSDOF 10
ENDMDL
MODEL 4
REMARK VINA RESULT: -7.041310293      2.860      6.284
REMARK  10 active torsions:
REMARK  status: ('A' for Active; 'I' for Inactive)
REMARK    1  A    between atoms: C2_2  and  C4_4 
REMARK    2  A    between atoms: C4_4  and  N1_5 
REMARK    3  A    between atoms: C4_4  and  C13_23 
REMARK       I    between atoms: N1_5  and  C5_7 
REMARK    4  A    between atoms: C5_7  and  C6_9 
REMARK    5  A    between atoms: C6_9  and  N2_10 
REMARK    6  A    between atoms: C6_9  and  C12_19 
REMARK       I    between atoms: N2_10  and  C7_12 
REMARK    7  A    between atoms: C7_12  and  C8_14 
REMARK    8  A    between atoms: C8_14  and  C9_15 
REMARK    9  A    between atoms: C13_23  and  O4_24 
REMARK   10  A    between atoms: C13_23  and  N3_26 
ROOT
HETATM    1  N1  UNL     1      22.146  -0.655   2.699  1.00  0.00    -0.347 N 
ATOM      2  H1  UNL     1      21.244  -1.109   2.849  1.00  0.00     0.163 HD
HETATM    3  C5  UNL     1      22.809  -0.851   1.487  1.00  0.00     0.250 C 
HETATM    4  O1  UNL     1      23.959  -0.268   1.396  1.00  0.00    -0.271 OA
ENDROOT
BRANCH   1   5
HETATM    5  C4  UNL     1      22.714   0.192   3.778  1.00  0.00     0.162 C 
BRANCH   5   6
HETATM    6  C2  UNL     1      23.285  -0.755   4.766  1.00  0.00     0.008 C 
HETATM    7  C1  UNL     1      22.462  -1.872   5.274  1.00  0.00     0.012 C 
HETATM    8  C3  UNL     1      23.925  -0.067   5.952  1.00  0.00     0.012 C 
ENDBRANCH   5   6
BRANCH   5   9
HETATM    9  C13 UNL     1      21.725   1.191   4.183  1.00  0.00     0.138 C 
BRANCH   9  10
HETATM   10  O4  UNL     1      21.224   1.022   5.474  1.00  0.00    -0.348 OA
ATOM     11  H4  UNL     1      21.290   1.791   6.028  1.00  0.00     0.219 HD
ENDBRANCH   9  10
BRANCH   9  12
HETATM   12  N3  UNL     1      21.911   2.541   3.887  1.00  0.00    -0.355 N 
HETATM   13  C14 UNL     1      21.361   3.098   2.722  1.00  0.00     0.082 C 
HETATM   14  C15 UNL     1      20.310   2.295   2.030  1.00  0.00     0.032 C 
HETATM   15  C16 UNL     1      22.557   3.153   1.744  1.00  0.00     0.027 C 
HETATM   16  C17 UNL     1      23.748   2.699   2.574  1.00  0.00     0.027 C 
HETATM   17  C18 UNL     1      23.211   3.111   3.960  1.00  0.00     0.082 C 
HETATM   18  C19 UNL     1      23.245   4.611   3.948  1.00  0.00     0.032 C 
ENDBRANCH   9  12
ENDBRANCH   5   9
ENDBRANCH   1   5
BRANCH   3  19
HETATM   19  C6  UNL     1      22.369  -1.625   0.313  1.00  0.00     0.285 C 
BRANCH  19  20
HETATM   20  N2  UNL     1      21.798  -2.926   0.679  1.00  0.00    -0.340 N 
HETATM   21  C7  UNL     1      22.619  -4.003   1.049  1.00  0.00     0.221 C 
HETATM   22  O2  UNL     1      23.864  -3.883   1.110  1.00  0.00    -0.274 OA
ATOM     23  H2  UNL     1      20.785  -3.051   0.664  1.00  0.00     0.163 HD
BRANCH  21  24
HETATM   24  C8  UNL     1      22.023  -5.316   1.379  1.00  0.00     0.134 C 
BRANCH  24  25
HETATM   25  C9  UNL     1      20.938  -5.124   2.386  1.00  0.00     0.132 C 
HETATM   26  C10 UNL     1      20.931  -6.173   3.505  1.00  0.00     0.058 C 
HETATM   27  C11 UNL     1      20.264  -4.950   4.166  1.00  0.00     0.170 C 
HETATM   28  O3  UNL     1      21.069  -4.135   3.329  1.00  0.00    -0.385 OA
ENDBRANCH  24  25
ENDBRANCH  21  24
ENDBRANCH  19  20
BRANCH  19  29
HETATM   29  C12 UNL     1      21.493  -0.958  -0.652  1.00  0.00     0.416 C 
HETATM   30  F1  UNL     1      22.106   0.076  -1.346  1.00  0.00    -0.168 F 
HETATM   31  F2  UNL     1      20.319  -0.480  -0.100  1.00  0.00    -0.168 F 
HETATM   32  F3  UNL     1      21.083  -1.857  -1.650  1.00  0.00    -0.168 F 
ENDBRANCH  19  29
ENDBRANCH   3  19
TORSDOF 10
ENDMDL
MODEL 5
REMARK VINA RESULT: -7.027695907      2.038      3.777
REMARK  10 active torsions:
REMARK  status: ('A' for Active; 'I' for Inactive)
REMARK    1  A    between atoms: C2_2  and  C4_4 
REMARK    2  A    between atoms: C4_4  and  N1_5 
REMARK    3  A    between atoms: C4_4  and  C13_23 
REMARK       I    between atoms: N1_5  and  C5_7 
REMARK    4  A    between atoms: C5_7  and  C6_9 
REMARK    5  A    between atoms: C6_9  and  N2_10 
REMARK    6  A    between atoms: C6_9  and  C12_19 
REMARK       I    between atoms: N2_10  and  C7_12 
REMARK    7  A    between atoms: C7_12  and  C8_14 
REMARK    8  A    between atoms: C8_14  and  C9_15 
REMARK    9  A    between atoms: C13_23  and  O4_24 
REMARK   10  A    between atoms: C13_23  and  N3_26 
ROOT
HETATM    1  N1  UNL     1      22.541  -1.275   1.183  1.00  0.00    -0.347 N 
ATOM      2  H1  UNL     1      22.230  -0.578   1.861  1.00  0.00     0.163 HD
HETATM    3  C5  UNL     1      22.649  -2.607   1.582  1.00  0.00     0.250 C 
HETATM    4  O1  UNL     1      23.081  -3.414   0.671  1.00  0.00    -0.271 OA
ENDROOT
BRANCH   1   5
HETATM    5  C4  UNL     1      22.865  -0.839  -0.199  1.00  0.00     0.162 C 
BRANCH   5   6
HETATM    6  C2  UNL     1      23.874   0.238  -0.049  1.00  0.00     0.008 C 
HETATM    7  C1  UNL     1      25.220   0.069  -0.632  1.00  0.00     0.012 C 
HETATM    8  C3  UNL     1      24.037   0.707   1.381  1.00  0.00     0.012 C 
ENDBRANCH   5   6
BRANCH   5   9
HETATM    9  C13 UNL     1      21.625  -0.605  -0.939  1.00  0.00     0.138 C 
BRANCH   9  10
HETATM   10  O4  UNL     1      20.546  -0.201  -0.153  1.00  0.00    -0.348 OA
ATOM     11  H4  UNL     1      19.977   0.441  -0.561  1.00  0.00     0.219 HD
ENDBRANCH   9  10
BRANCH   9  12
HETATM   12  N3  UNL     1      21.638   0.067  -2.161  1.00  0.00    -0.355 N 
HETATM   13  C14 UNL     1      21.088   1.353  -2.274  1.00  0.00     0.082 C 
HETATM   14  C15 UNL     1      20.825   2.081  -0.997  1.00  0.00     0.032 C 
HETATM   15  C16 UNL     1      19.698   1.103  -2.905  1.00  0.00     0.027 C 
HETATM   16  C17 UNL     1      19.680  -0.389  -3.204  1.00  0.00     0.027 C 
HETATM   17  C18 UNL     1      21.202  -0.597  -3.340  1.00  0.00     0.082 C 
HETATM   18  C19 UNL     1      21.564   0.090  -4.623  1.00  0.00     0.032 C 
ENDBRANCH   9  12
ENDBRANCH   5   9
ENDBRANCH   1   5
BRANCH   3  19
HETATM   19  C6  UNL     1      22.334  -3.202   2.892  1.00  0.00     0.285 C 
BRANCH  19  20
HETATM   20  N2  UNL     1      22.059  -2.190   3.919  1.00  0.00    -0.340 N 
HETATM   21  C7  UNL     1      23.101  -1.504   4.562  1.00  0.00     0.221 C 
HETATM   22  O2  UNL     1      24.300  -1.708   4.262  1.00  0.00    -0.274 OA
ATOM     23  H2  UNL     1      21.092  -1.981   4.170  1.00  0.00     0.163 HD
BRANCH  21  24
HETATM   24  C8  UNL     1      22.801  -0.513   5.619  1.00  0.00     0.134 C 
BRANCH  24  25
HETATM   25  C9  UNL     1      22.003   0.605   5.032  1.00  0.00     0.132 C 
HETATM   26  C10 UNL     1      22.816   1.877   4.762  1.00  0.00     0.058 C 
HETATM   27  C11 UNL     1      21.663   1.973   3.743  1.00  0.00     0.170 C 
HETATM   28  O3  UNL     1      21.660   0.555   3.705  1.00  0.00    -0.385 OA
ENDBRANCH  24  25
ENDBRANCH  21  24
ENDBRANCH  19  20
BRANCH  19  29
HETATM   29  C12 UNL     1      21.304  -4.241   2.939  1.00  0.00     0.416 C 
HETATM   30  F1  UNL     1      21.744  -5.488   2.515  1.00  0.00    -0.168 F 
HETATM   31  F2  UNL     1      20.158  -3.919   2.237  1.00  0.00    -0.168 F 
HETATM   32  F3  UNL     1      20.872  -4.451   4.259  1.00  0.00    -0.168 F 
ENDBRANCH  19  29
ENDBRANCH   3  19
TORSDOF 10
ENDMDL
