MODEL 1
REMARK VINA RESULT: -6.994379551      0.000      0.000
REMARK  11 active torsions:
REMARK  status: ('A' for Active; 'I' for Inactive)
REMARK    1  A    between atoms: C2_2  and  N1_3 
REMARK    2  A    between atoms: N2_6  and  C5_7 
REMARK    3  A    between atoms: C5_7  and  C6_8 
REMARK    4  A    between atoms: C6_8  and  O1_9 
REMARK    5  A    between atoms: C6_8  and  C8_14 
REMARK    6  A    between atoms: O1_9  and  C7_10 
REMARK       I    between atoms: C8_14  and  N3_16 
REMARK    7  A    between atoms: C12_20  and  C13_21 
REMARK    8  A    between atoms: C13_21  and  O3_22 
REMARK    9  A    between atoms: C14_24  and  C15_25 
REMARK   10  A    between atoms: C15_25  and  O4_26 
REMARK   11  A    between atoms: N4_28  and  O5_30 
ROOT
HETATM    1  C8  UNL     1      22.022  -0.472   2.167  1.00  0.00     0.251 C 
HETATM    2  O2  UNL     1      21.980   0.718   1.778  1.00  0.00    -0.270 OA
HETATM    3  N3  UNL     1      22.122  -0.897   3.514  1.00  0.00    -0.337 N 
HETATM    4  C9  UNL     1      22.224  -2.288   3.811  1.00  0.00     0.127 C 
HETATM    5  C10 UNL     1      21.840  -2.587   5.267  1.00  0.00     0.020 C 
HETATM    6  C11 UNL     1      22.864  -1.798   6.057  1.00  0.00     0.011 C 
HETATM    7  C12 UNL     1      22.456  -0.344   5.917  1.00  0.00     0.040 C 
HETATM    8  C14 UNL     1      22.120   0.103   4.560  1.00  0.00     0.169 C 
ENDROOT
BRANCH   1   9
HETATM    9  C6  UNL     1      21.958  -1.509   1.037  1.00  0.00     0.251 C 
BRANCH   9  10
HETATM   10  C5  UNL     1      21.315  -0.790  -0.086  1.00  0.00     0.314 C 
BRANCH  10  11
HETATM   11  N2  UNL     1      21.941  -0.750  -1.359  1.00  0.00     0.094 N 
HETATM   12  C4  UNL     1      21.058  -1.581  -2.220  1.00  0.00     0.292 C 
HETATM   13  C3  UNL     1      19.970  -0.701  -2.800  1.00  0.00     0.147 C 
HETATM   14  N1  UNL     1      20.589   0.083  -3.819  1.00  0.00    -0.409 N 
HETATM   15  C17 UNL     1      21.797   0.686  -3.379  1.00  0.00     0.147 C 
HETATM   16  C16 UNL     1      22.008   0.579  -1.880  1.00  0.00     0.292 C 
BRANCH  14  17
HETATM   17  C2  UNL     1      19.747   0.824  -4.677  1.00  0.00     0.112 C 
HETATM   18  C1  UNL     1      19.000   1.954  -3.978  1.00  0.00     0.026 C 
ENDBRANCH  14  17
ENDBRANCH  10  11
ENDBRANCH   9  10
BRANCH   9  19
HETATM   19  O1  UNL     1      23.282  -1.769   0.698  1.00  0.00    -0.281 OA
BRANCH  19  20
HETATM   20  C7  UNL     1      23.522  -3.131   0.529  1.00  0.00     0.525 C 
HETATM   21  F1  UNL     1      24.718  -3.258  -0.145  1.00  0.00    -0.144 F 
HETATM   22  F2  UNL     1      22.559  -3.823  -0.119  1.00  0.00    -0.144 F 
HETATM   23  F3  UNL     1      23.727  -3.756   1.754  1.00  0.00    -0.144 F 
ENDBRANCH  19  20
ENDBRANCH   9  19
ENDBRANCH   1   9
BRANCH   8  24
HETATM   24  C15 UNL     1      22.887   1.318   4.137  1.00  0.00     0.159 C 
HETATM   25  N4  UNL     1      24.075   1.346   3.714  1.00  0.00    -0.249 N 
ATOM     26  H4  UNL     1      24.406   2.281   3.480  1.00  0.00     0.196 HD
BRANCH  24  27
HETATM   27  O4  UNL     1      22.254   2.576   4.204  1.00  0.00    -0.347 OA
ATOM     28  H4  UNL     1      22.694   3.329   3.826  1.00  0.00     0.219 HD
ENDBRANCH  24  27
BRANCH  25  29
HETATM   29  O5  UNL     1      24.984   0.387   3.512  1.00  0.00    -0.288 OA
ATOM     30  H5  UNL     1      25.887   0.410   3.216  1.00  0.00     0.244 HD
ENDBRANCH  25  29
ENDBRANCH   8  24
BRANCH   7  31
HETATM   31  C13 UNL     1      23.512   0.441   6.657  1.00  0.00     0.171 C 
BRANCH  31  32
HETATM   32  O3  UNL     1      24.783  -0.025   6.489  1.00  0.00    -0.400 OA
ATOM     33  H3  UNL     1      25.344   0.081   7.249  1.00  0.00     0.209 HD
ENDBRANCH  31  32
ENDBRANCH   7  31
TORSDOF 11
ENDMDL
MODEL 2
REMARK VINA RESULT: -6.738490574      3.740      6.125
REMARK  11 active torsions:
REMARK  status: ('A' for Active; 'I' for Inactive)
REMARK    1  A    between atoms: C2_2  and  N1_3 
REMARK    2  A    between atoms: N2_6  and  C5_7 
REMARK    3  A    between atoms: C5_7  and  C6_8 
REMARK    4  A    between atoms: C6_8  and  O1_9 
REMARK    5  A    between atoms: C6_8  and  C8_14 
REMARK    6  A    between atoms: O1_9  and  C7_10 
REMARK       I    between atoms: C8_14  and  N3_16 
REMARK    7  A    between atoms: C12_20  and  C13_21 
REMARK    8  A    between atoms: C13_21  and  O3_22 
REMARK    9  A    between atoms: C14_24  and  C15_25 
REMARK   10  A    between atoms: C15_25  and  O4_26 
REMARK   11  A    between atoms: N4_28  and  O5_30 
ROOT
HETATM    1  C8  UNL     1      23.510   0.009   3.276  1.00  0.00     0.251 C 
HETATM    2  O2  UNL     1      24.721  -0.076   3.587  1.00  0.00    -0.270 OA
HETATM    3  N3  UNL     1      22.969   0.871   2.292  1.00  0.00    -0.337 N 
HETATM    4  C9  UNL     1      21.559   0.910   2.083  1.00  0.00     0.127 C 
HETATM    5  C10 UNL     1      21.205   1.496   0.710  1.00  0.00     0.020 C 
HETATM    6  C11 UNL     1      21.770   2.900   0.783  1.00  0.00     0.011 C 
HETATM    7  C12 UNL     1      23.274   2.740   0.677  1.00  0.00     0.040 C 
HETATM    8  C14 UNL     1      23.873   1.697   1.519  1.00  0.00     0.169 C 
ENDROOT
BRANCH   1   9
HETATM    9  C6  UNL     1      22.587  -0.926   4.069  1.00  0.00     0.251 C 
BRANCH   9  10
HETATM   10  C5  UNL     1      22.520  -2.158   3.251  1.00  0.00     0.314 C 
BRANCH  10  11
HETATM   11  N2  UNL     1      21.263  -2.726   2.919  1.00  0.00     0.094 N 
HETATM   12  C4  UNL     1      21.482  -3.317   1.571  1.00  0.00     0.292 C 
HETATM   13  C3  UNL     1      22.003  -4.730   1.736  1.00  0.00     0.147 C 
HETATM   14  N1  UNL     1      20.889  -5.524   2.141  1.00  0.00    -0.409 N 
HETATM   15  C17 UNL     1      20.163  -4.933   3.209  1.00  0.00     0.147 C 
HETATM   16  C16 UNL     1      20.880  -3.751   3.837  1.00  0.00     0.292 C 
BRANCH  14  17
HETATM   17  C2  UNL     1      21.050  -6.927   2.139  1.00  0.00     0.112 C 
HETATM   18  C1  UNL     1      21.774  -7.463   3.370  1.00  0.00     0.026 C 
ENDBRANCH  14  17
ENDBRANCH  10  11
ENDBRANCH   9  10
BRANCH   9  19
HETATM   19  O1  UNL     1      23.272  -1.211   5.247  1.00  0.00    -0.281 OA
BRANCH  19  20
HETATM   20  C7  UNL     1      22.540  -0.855   6.377  1.00  0.00     0.525 C 
HETATM   21  F1  UNL     1      23.405  -0.221   7.244  1.00  0.00    -0.144 F 
HETATM   22  F2  UNL     1      21.914  -1.866   7.017  1.00  0.00    -0.144 F 
HETATM   23  F3  UNL     1      21.576   0.098   6.066  1.00  0.00    -0.144 F 
ENDBRANCH  19  20
ENDBRANCH   9  19
ENDBRANCH   1   9
BRANCH   8  24
HETATM   24  C15 UNL     1      24.992   2.206   2.374  1.00  0.00     0.159 C 
HETATM   25  N4  UNL     1      26.212   1.898   2.276  1.00  0.00    -0.249 N 
ATOM     26  H4  UNL     1      26.809   2.359   2.961  1.00  0.00     0.196 HD
BRANCH  24  27
HETATM   27  O4  UNL     1      24.695   3.119   3.406  1.00  0.00    -0.347 OA
ATOM     28  H4  UNL     1      25.299   3.835   3.569  1.00  0.00     0.219 HD
ENDBRANCH  24  27
BRANCH  25  29
HETATM   29  O5  UNL     1      26.873   1.084   1.447  1.00  0.00    -0.288 OA
ATOM     30  H5  UNL     1      27.790   1.022   1.204  1.00  0.00     0.244 HD
ENDBRANCH  25  29
ENDBRANCH   8  24
BRANCH   7  31
HETATM   31  C13 UNL     1      23.835   4.135   0.810  1.00  0.00     0.171 C 
BRANCH  31  32
HETATM   32  O3  UNL     1      23.075   4.980   1.564  1.00  0.00    -0.400 OA
ATOM     33  H3  UNL     1      23.482   5.819   1.746  1.00  0.00     0.209 HD
ENDBRANCH  31  32
ENDBRANCH   7  31
TORSDOF 11
ENDMDL
MODEL 3
REMARK VINA RESULT: -6.704409364      3.614      6.360
REMARK  11 active torsions:
REMARK  status: ('A' for Active; 'I' for Inactive)
REMARK    1  A    between atoms: C2_2  and  N1_3 
REMARK    2  A    between atoms: N2_6  and  C5_7 
REMARK    3  A    between atoms: C5_7  and  C6_8 
REMARK    4  A    between atoms: C6_8  and  O1_9 
REMARK    5  A    between atoms: C6_8  and  C8_14 
REMARK    6  A    between atoms: O1_9  and  C7_10 
REMARK       I    between atoms: C8_14  and  N3_16 
REMARK    7  A    between atoms: C12_20  and  C13_21 
REMARK    8  A    between atoms: C13_21  and  O3_22 
REMARK    9  A    between atoms: C14_24  and  C15_25 
REMARK   10  A    between atoms: C15_25  and  O4_26 
REMARK   11  A    between atoms: N4_28  and  O5_30 
ROOT
HETATM    1  C8  UNL     1      23.878   0.249   2.425  1.00  0.00     0.251 C 
HETATM    2  O2  UNL     1      24.859   0.198   3.202  1.00  0.00    -0.270 OA
HETATM    3  N3  UNL     1      23.895   0.758   1.105  1.00  0.00    -0.337 N 
HETATM    4  C9  UNL     1      22.686   0.813   0.351  1.00  0.00     0.127 C 
HETATM    5  C10 UNL     1      22.960   0.920  -1.155  1.00  0.00     0.020 C 
HETATM    6  C11 UNL     1      23.719   2.227  -1.271  1.00  0.00     0.011 C 
HETATM    7  C12 UNL     1      25.102   1.945  -0.719  1.00  0.00     0.040 C 
HETATM    8  C14 UNL     1      25.154   1.215   0.553  1.00  0.00     0.169 C 
ENDROOT
BRANCH   1   9
HETATM    9  C6  UNL     1      22.573  -0.301   3.020  1.00  0.00     0.251 C 
BRANCH   9  10
HETATM   10  C5  UNL     1      22.591  -1.741   2.675  1.00  0.00     0.314 C 
BRANCH  10  11
HETATM   11  N2  UNL     1      21.373  -2.449   2.505  1.00  0.00     0.094 N 
HETATM   12  C4  UNL     1      21.520  -3.103   1.177  1.00  0.00     0.292 C 
HETATM   13  C3  UNL     1      22.198  -4.444   1.365  1.00  0.00     0.147 C 
HETATM   14  N1  UNL     1      21.215  -5.314   1.926  1.00  0.00    -0.409 N 
HETATM   15  C17 UNL     1      20.538  -4.728   3.027  1.00  0.00     0.147 C 
HETATM   16  C16 UNL     1      21.187  -3.444   3.513  1.00  0.00     0.292 C 
BRANCH  14  17
HETATM   17  C2  UNL     1      21.519  -6.692   1.985  1.00  0.00     0.112 C 
HETATM   18  C1  UNL     1      21.507  -7.262   3.399  1.00  0.00     0.026 C 
ENDBRANCH  14  17
ENDBRANCH  10  11
ENDBRANCH   9  10
BRANCH   9  19
HETATM   19  O1  UNL     1      22.711  -0.172   4.398  1.00  0.00    -0.281 OA
BRANCH  19  20
HETATM   20  C7  UNL     1      21.925   0.858   4.908  1.00  0.00     0.525 C 
HETATM   21  F1  UNL     1      22.767   1.909   5.206  1.00  0.00    -0.144 F 
HETATM   22  F2  UNL     1      21.180   0.551   5.992  1.00  0.00    -0.144 F 
HETATM   23  F3  UNL     1      21.060   1.352   3.937  1.00  0.00    -0.144 F 
ENDBRANCH  19  20
ENDBRANCH   9  19
ENDBRANCH   1   9
BRANCH   8  24
HETATM   24  C15 UNL     1      25.971   1.911   1.597  1.00  0.00     0.159 C 
HETATM   25  N4  UNL     1      27.145   1.614   1.952  1.00  0.00    -0.249 N 
ATOM     26  H4  UNL     1      27.518   2.219   2.683  1.00  0.00     0.196 HD
BRANCH  24  27
HETATM   27  O4  UNL     1      25.409   3.011   2.274  1.00  0.00    -0.347 OA
ATOM     28  H4  UNL     1      25.417   3.015   3.225  1.00  0.00     0.219 HD
ENDBRANCH  24  27
BRANCH  25  29
HETATM   29  O5  UNL     1      27.994   0.660   1.557  1.00  0.00    -0.288 OA
ATOM     30  H5  UNL     1      27.873  -0.257   1.341  1.00  0.00     0.244 HD
ENDBRANCH  25  29
ENDBRANCH   8  24
BRANCH   7  31
HETATM   31  C13 UNL     1      25.834   3.264  -0.782  1.00  0.00     0.171 C 
BRANCH  31  32
HETATM   32  O3  UNL     1      25.059   4.354  -0.509  1.00  0.00    -0.400 OA
ATOM     33  H3  UNL     1      25.442   4.963   0.111  1.00  0.00     0.209 HD
ENDBRANCH  31  32
ENDBRANCH   7  31
TORSDOF 11
ENDMDL
MODEL 4
REMARK VINA RESULT: -6.700504577      4.133      5.983
REMARK  11 active torsions:
REMARK  status: ('A' for Active; 'I' for Inactive)
REMARK    1  A    between atoms: C2_2  and  N1_3 
REMARK    2  A    between atoms: N2_6  and  C5_7 
REMARK    3  A    between atoms: C5_7  and  C6_8 
REMARK    4  A    between atoms: C6_8  and  O1_9 
REMARK    5  A    between atoms: C6_8  and  C8_14 
REMARK    6  A    between atoms: O1_9  and  C7_10 
REMARK       I    between atoms: C8_14  and  N3_16 
REMARK    7  A    between atoms: C12_20  and  C13_21 
REMARK    8  A    between atoms: C13_21  and  O3_22 
REMARK    9  A    between atoms: C14_24  and  C15_25 
REMARK   10  A    between atoms: C15_25  and  O4_26 
REMARK   11  A    between atoms: N4_28  and  O5_30 
ROOT
HETATM    1  C8  UNL     1      23.565   0.420   3.215  1.00  0.00     0.251 C 
HETATM    2  O2  UNL     1      24.603   0.031   2.630  1.00  0.00    -0.270 OA
HETATM    3  N3  UNL     1      23.013   1.721   3.137  1.00  0.00    -0.337 N 
HETATM    4  C9  UNL     1      21.858   2.047   3.908  1.00  0.00     0.127 C 
HETATM    5  C10 UNL     1      21.134   3.281   3.352  1.00  0.00     0.020 C 
HETATM    6  C11 UNL     1      22.179   4.371   3.474  1.00  0.00     0.011 C 
HETATM    7  C12 UNL     1      23.195   4.086   2.386  1.00  0.00     0.040 C 
HETATM    8  C14 UNL     1      23.644   2.694   2.270  1.00  0.00     0.169 C 
ENDROOT
BRANCH   1   9
HETATM    9  C6  UNL     1      22.885  -0.653   4.075  1.00  0.00     0.251 C 
BRANCH   9  10
HETATM   10  C5  UNL     1      22.832  -1.847   3.201  1.00  0.00     0.314 C 
BRANCH  10  11
HETATM   11  N2  UNL     1      21.581  -2.417   2.847  1.00  0.00     0.094 N 
HETATM   12  C4  UNL     1      21.809  -2.962   1.482  1.00  0.00     0.292 C 
HETATM   13  C3  UNL     1      22.344  -4.374   1.602  1.00  0.00     0.147 C 
HETATM   14  N1  UNL     1      21.238  -5.192   1.979  1.00  0.00    -0.409 N 
HETATM   15  C17 UNL     1      20.503  -4.643   3.063  1.00  0.00     0.147 C 
HETATM   16  C16 UNL     1      21.206  -3.475   3.731  1.00  0.00     0.292 C 
BRANCH  14  17
HETATM   17  C2  UNL     1      21.414  -6.592   1.933  1.00  0.00     0.112 C 
HETATM   18  C1  UNL     1      21.602  -7.233   3.303  1.00  0.00     0.026 C 
ENDBRANCH  14  17
ENDBRANCH  10  11
ENDBRANCH   9  10
BRANCH   9  19
HETATM   19  O1  UNL     1      23.769  -0.907   5.119  1.00  0.00    -0.281 OA
BRANCH  19  20
HETATM   20  C7  UNL     1      23.139  -0.861   6.361  1.00  0.00     0.525 C 
HETATM   21  F1  UNL     1      21.846  -0.429   6.151  1.00  0.00    -0.144 F 
HETATM   22  F2  UNL     1      23.732  -0.085   7.295  1.00  0.00    -0.144 F 
HETATM   23  F3  UNL     1      23.012  -2.136   6.902  1.00  0.00    -0.144 F 
ENDBRANCH  19  20
ENDBRANCH   9  19
ENDBRANCH   1   9
BRANCH   8  24
HETATM   24  C15 UNL     1      25.135   2.553   2.310  1.00  0.00     0.159 C 
HETATM   25  N4  UNL     1      25.881   2.199   1.356  1.00  0.00    -0.249 N 
ATOM     26  H4  UNL     1      26.871   2.167   1.598  1.00  0.00     0.196 HD
BRANCH  24  27
HETATM   27  O4  UNL     1      25.810   2.834   3.515  1.00  0.00    -0.347 OA
ATOM     28  H4  UNL     1      26.711   3.132   3.474  1.00  0.00     0.219 HD
ENDBRANCH  24  27
BRANCH  25  29
HETATM   29  O5  UNL     1      25.625   1.856   0.089  1.00  0.00    -0.288 OA
ATOM     30  H5  UNL     1      25.237   1.082  -0.300  1.00  0.00     0.244 HD
ENDBRANCH  25  29
ENDBRANCH   8  24
BRANCH   7  31
HETATM   31  C13 UNL     1      24.264   5.140   2.549  1.00  0.00     0.171 C 
BRANCH  31  32
HETATM   32  O3  UNL     1      24.461   5.550   3.836  1.00  0.00    -0.400 OA
ATOM     33  H3  UNL     1      24.875   6.400   3.919  1.00  0.00     0.209 HD
ENDBRANCH  31  32
ENDBRANCH   7  31
TORSDOF 11
ENDMDL
MODEL 5
REMARK VINA RESULT: -6.603527676      3.708      6.010
REMARK  11 active torsions:
REMARK  status: ('A' for Active; 'I' for Inactive)
REMARK    1  A    between atoms: C2_2  and  N1_3 
REMARK    2  A    between atoms: N2_6  and  C5_7 
REMARK    3  A    between atoms: C5_7  and  C6_8 
REMARK    4  A    between atoms: C6_8  and  O1_9 
REMARK    5  A    between atoms: C6_8  and  C8_14 
REMARK    6  A    between atoms: O1_9  and  C7_10 
REMARK       I    between atoms: C8_14  and  N3_16 
REMARK    7  A    between atoms: C12_20  and  C13_21 
REMARK    8  A    between atoms: C13_21  and  O3_22 
REMARK    9  A    between atoms: C14_24  and  C15_25 
REMARK   10  A    between atoms: C15_25  and  O4_26 
REMARK   11  A    between atoms: N4_28  and  O5_30 
ROOT
HETATM    1  C8  UNL     1      23.414   0.258   3.174  1.00  0.00     0.251 C 
HETATM    2  O2  UNL     1      24.647   0.421   3.318  1.00  0.00    -0.270 OA
HETATM    3  N3  UNL     1      22.564   1.055   2.370  1.00  0.00    -0.337 N 
HETATM    4  C9  UNL     1      21.162   0.795   2.347  1.00  0.00     0.127 C 
HETATM    5  C10 UNL     1      20.494   1.398   1.104  1.00  0.00     0.020 C 
HETATM    6  C11 UNL     1      20.756   2.882   1.264  1.00  0.00     0.011 C 
HETATM    7  C12 UNL     1      22.227   3.072   0.952  1.00  0.00     0.040 C 
HETATM    8  C14 UNL     1      23.149   2.124   1.588  1.00  0.00     0.169 C 
ENDROOT
BRANCH   1   9
HETATM    9  C6  UNL     1      22.836  -0.922   3.967  1.00  0.00     0.251 C 
BRANCH   9  10
HETATM   10  C5  UNL     1      22.790  -2.034   2.991  1.00  0.00     0.314 C 
BRANCH  10  11
HETATM   11  N2  UNL     1      21.545  -2.604   2.617  1.00  0.00     0.094 N 
HETATM   12  C4  UNL     1      21.825  -3.250   1.306  1.00  0.00     0.292 C 
HETATM   13  C3  UNL     1      22.323  -4.659   1.552  1.00  0.00     0.147 C 
HETATM   14  N1  UNL     1      21.181  -5.427   1.931  1.00  0.00    -0.409 N 
HETATM   15  C17 UNL     1      20.409  -4.788   2.936  1.00  0.00     0.147 C 
HETATM   16  C16 UNL     1      21.105  -3.589   3.554  1.00  0.00     0.292 C 
BRANCH  14  17
HETATM   17  C2  UNL     1      21.328  -6.830   1.992  1.00  0.00     0.112 C 
HETATM   18  C1  UNL     1      21.548  -7.364   3.403  1.00  0.00     0.026 C 
ENDBRANCH  14  17
ENDBRANCH  10  11
ENDBRANCH   9  10
BRANCH   9  19
HETATM   19  O1  UNL     1      23.789  -1.221   4.936  1.00  0.00    -0.281 OA
BRANCH  19  20
HETATM   20  C7  UNL     1      23.310  -1.007   6.225  1.00  0.00     0.525 C 
HETATM   21  F1  UNL     1      24.251  -0.253   6.895  1.00  0.00    -0.144 F 
HETATM   22  F2  UNL     1      23.025  -2.117   6.940  1.00  0.00    -0.144 F 
HETATM   23  F3  UNL     1      22.162  -0.221   6.207  1.00  0.00    -0.144 F 
ENDBRANCH  19  20
ENDBRANCH   9  19
ENDBRANCH   1   9
BRANCH   8  24
HETATM   24  C15 UNL     1      24.251   2.797   2.347  1.00  0.00     0.159 C 
HETATM   25  N4  UNL     1      24.147   3.381   3.461  1.00  0.00    -0.249 N 
ATOM     26  H4  UNL     1      25.024   3.775   3.802  1.00  0.00     0.196 HD
BRANCH  24  27
HETATM   27  O4  UNL     1      25.548   2.803   1.796  1.00  0.00    -0.347 OA
ATOM     28  H4  UNL     1      26.280   3.040   2.353  1.00  0.00     0.219 HD
ENDBRANCH  24  27
BRANCH  25  29
HETATM   29  O5  UNL     1      23.111   3.585   4.280  1.00  0.00    -0.288 OA
ATOM     30  H5  UNL     1      23.025   4.056   5.101  1.00  0.00     0.244 HD
ENDBRANCH  25  29
ENDBRANCH   8  24
BRANCH   7  31
HETATM   31  C13 UNL     1      22.496   4.542   1.169  1.00  0.00     0.171 C 
BRANCH  31  32
HETATM   32  O3  UNL     1      21.755   5.110   2.164  1.00  0.00    -0.400 OA
ATOM     33  H3  UNL     1      21.654   4.569   2.938  1.00  0.00     0.209 HD
ENDBRANCH  31  32
ENDBRANCH   7  31
TORSDOF 11
ENDMDL
