MODEL 1
REMARK VINA RESULT: -7.772798252      0.000      0.000
REMARK  10 active torsions:
REMARK  status: ('A' for Active; 'I' for Inactive)
REMARK    1  A    between atoms: C2_2  and  O1_3 
REMARK    2  A    between atoms: O1_3  and  C3_4 
REMARK       I    between atoms: C3_4  and  N1_6 
REMARK       I    between atoms: N2_9  and  C6_10 
REMARK    3  A    between atoms: C6_10  and  C7_12 
REMARK    4  A    between atoms: C7_12  and  O4_14 
REMARK    5  A    between atoms: O4_14  and  C9_15 
REMARK    6  A    between atoms: C9_15  and  C11_17 
REMARK    7  A    between atoms: C11_17  and  O5_18 
REMARK    8  A    between atoms: C11_17  and  N3_20 
REMARK       I    between atoms: N3_20  and  C12_22 
REMARK       I    between atoms: C12_22  and  N4_24 
REMARK    9  A    between atoms: N4_24  and  C13_26 
REMARK   10  A    between atoms: C13_26  and  C14_27 
ROOT
HETATM    1  O4  UNL     1      23.678   0.534   3.685  1.00  0.00    -0.368 OA
ENDROOT
BRANCH   1   2
HETATM    2  C7  UNL     1      23.587   1.290   2.527  1.00  0.00     0.210 C 
HETATM    3  C8  UNL     1      24.886   2.077   2.441  1.00  0.00     0.050 C 
BRANCH   2   4
HETATM    4  C6  UNL     1      23.438   0.511   1.309  1.00  0.00     0.248 C 
HETATM    5  N2  UNL     1      22.629   0.945   0.240  1.00  0.00    -0.347 N 
HETATM    6  C5  UNL     1      21.924   2.193   0.357  1.00  0.00     0.146 C 
HETATM    7  C15 UNL     1      22.504   0.128  -0.985  1.00  0.00     0.146 C 
HETATM    8  C4  UNL     1      20.715   2.309  -0.494  1.00  0.00     0.148 C 
HETATM    9  N1  UNL     1      20.459   1.251  -1.411  1.00  0.00    -0.325 N 
HETATM   10  C3  UNL     1      19.686   1.436  -2.601  1.00  0.00     0.362 C 
HETATM   11  C16 UNL     1      20.991  -0.071  -1.150  1.00  0.00     0.148 C 
HETATM   12  O2  UNL     1      19.184   2.549  -2.908  1.00  0.00    -0.238 OA
HETATM   13  O3  UNL     1      24.049  -0.580   1.211  1.00  0.00    -0.270 OA
BRANCH  10  14
HETATM   14  O1  UNL     1      19.452   0.386  -3.476  1.00  0.00    -0.304 OA
BRANCH  14  15
HETATM   15  C2  UNL     1      19.946   0.375  -4.780  1.00  0.00     0.176 C 
HETATM   16  C1  UNL     1      21.461   0.147  -4.812  1.00  0.00     0.034 C 
ENDBRANCH  14  15
ENDBRANCH  10  14
ENDBRANCH   2   4
ENDBRANCH   1   2
BRANCH   1  17
HETATM   17  C9  UNL     1      22.532  -0.091   4.062  1.00  0.00     0.167 C 
HETATM   18  C10 UNL     1      21.886   0.570   5.290  1.00  0.00     0.044 C 
BRANCH  17  19
HETATM   19  C11 UNL     1      22.870  -1.525   4.411  1.00  0.00     0.250 C 
BRANCH  19  20
HETATM   20  O5  UNL     1      24.240  -1.701   4.591  1.00  0.00    -0.374 OA
ATOM     21  H5  UNL     1      24.533  -2.540   4.256  1.00  0.00     0.212 HD
ENDBRANCH  19  20
BRANCH  19  22
HETATM   22  N3  UNL     1      22.342  -2.393   3.389  1.00  0.00    -0.314 N 
HETATM   23  C12 UNL     1      21.525  -3.502   3.672  1.00  0.00     0.318 C 
HETATM   24  O6  UNL     1      21.210  -3.802   4.842  1.00  0.00    -0.247 OA
HETATM   25  N4  UNL     1      21.043  -4.308   2.608  1.00  0.00    -0.335 N 
ATOM     26  H4  UNL     1      21.294  -4.079   1.646  1.00  0.00     0.164 HD
ATOM     27  H3  UNL     1      22.573  -2.194   2.416  1.00  0.00     0.166 HD
BRANCH  25  28
HETATM   28  C13 UNL     1      20.200  -5.453   2.879  1.00  0.00     0.241 C 
BRANCH  28  29
HETATM   29  C14 UNL     1      20.906  -6.684   2.367  1.00  0.00     0.403 C 
HETATM   30  F1  UNL     1      21.604  -7.354   3.328  1.00  0.00    -0.169 F 
HETATM   31  F2  UNL     1      19.923  -7.475   1.765  1.00  0.00    -0.169 F 
HETATM   32  F3  UNL     1      21.767  -6.245   1.356  1.00  0.00    -0.169 F 
ENDBRANCH  28  29
ENDBRANCH  25  28
ENDBRANCH  19  22
ENDBRANCH  17  19
ENDBRANCH   1  17
TORSDOF 10
ENDMDL
MODEL 2
REMARK VINA RESULT: -7.689906943      1.111      1.285
REMARK  10 active torsions:
REMARK  status: ('A' for Active; 'I' for Inactive)
REMARK    1  A    between atoms: C2_2  and  O1_3 
REMARK    2  A    between atoms: O1_3  and  C3_4 
REMARK       I    between atoms: C3_4  and  N1_6 
REMARK       I    between atoms: N2_9  and  C6_10 
REMARK    3  A    between atoms: C6_10  and  C7_12 
REMARK    4  A    between atoms: C7_12  and  O4_14 
REMARK    5  A    between atoms: O4_14  and  C9_15 
REMARK    6  A    between atoms: C9_15  and  C11_17 
REMARK    7  A    between atoms: C11_17  and  O5_18 
REMARK    8  A    between atoms: C11_17  and  N3_20 
REMARK       I    between atoms: N3_20  and  C12_22 
REMARK       I    between atoms: C12_22  and  N4_24 
REMARK    9  A    between atoms: N4_24  and  C13_26 
REMARK   10  A    between atoms: C13_26  and  C14_27 
ROOT
HETATM    1  O4  UNL     1      23.058   0.477   4.687  1.00  0.00    -0.368 OA
ENDROOT
BRANCH   1   2
HETATM    2  C7  UNL     1      22.654   1.247   3.608  1.00  0.00     0.210 C 
HETATM    3  C8  UNL     1      23.060   2.675   3.940  1.00  0.00     0.050 C 
BRANCH   2   4
HETATM    4  C6  UNL     1      23.265   0.878   2.342  1.00  0.00     0.248 C 
HETATM    5  N2  UNL     1      22.539   0.878   1.134  1.00  0.00    -0.347 N 
HETATM    6  C5  UNL     1      21.150   1.249   1.153  1.00  0.00     0.146 C 
HETATM    7  C15 UNL     1      23.194   0.500  -0.136  1.00  0.00     0.146 C 
HETATM    8  C4  UNL     1      20.343   0.706   0.032  1.00  0.00     0.148 C 
HETATM    9  N1  UNL     1      21.039   0.001  -0.989  1.00  0.00    -0.325 N 
HETATM   10  C3  UNL     1      20.529  -0.121  -2.321  1.00  0.00     0.362 C 
HETATM   11  C16 UNL     1      22.311  -0.625  -0.693  1.00  0.00     0.148 C 
HETATM   12  O2  UNL     1      19.432   0.389  -2.669  1.00  0.00    -0.238 OA
HETATM   13  O3  UNL     1      24.476   0.548   2.327  1.00  0.00    -0.270 OA
BRANCH  10  14
HETATM   14  O1  UNL     1      21.228  -0.816  -3.296  1.00  0.00    -0.304 OA
BRANCH  14  15
HETATM   15  C2  UNL     1      21.717  -0.200  -4.448  1.00  0.00     0.176 C 
HETATM   16  C1  UNL     1      22.470   1.094  -4.124  1.00  0.00     0.034 C 
ENDBRANCH  14  15
ENDBRANCH  10  14
ENDBRANCH   2   4
ENDBRANCH   1   2
BRANCH   1  17
HETATM   17  C9  UNL     1      22.238  -0.560   4.999  1.00  0.00     0.167 C 
HETATM   18  C10 UNL     1      21.797  -0.529   6.471  1.00  0.00     0.044 C 
BRANCH  17  19
HETATM   19  C11 UNL     1      22.993  -1.849   4.752  1.00  0.00     0.250 C 
BRANCH  19  20
HETATM   20  O5  UNL     1      24.347  -1.616   4.524  1.00  0.00    -0.374 OA
ATOM     21  H5  UNL     1      24.893  -2.244   4.983  1.00  0.00     0.212 HD
ENDBRANCH  19  20
BRANCH  19  22
HETATM   22  N3  UNL     1      22.373  -2.552   3.656  1.00  0.00    -0.314 N 
HETATM   23  C12 UNL     1      21.527  -3.661   3.837  1.00  0.00     0.318 C 
HETATM   24  O6  UNL     1      21.266  -4.107   4.974  1.00  0.00    -0.247 OA
HETATM   25  N4  UNL     1      20.954  -4.298   2.707  1.00  0.00    -0.335 N 
ATOM     26  H4  UNL     1      21.159  -3.948   1.771  1.00  0.00     0.164 HD
ATOM     27  H3  UNL     1      22.556  -2.229   2.706  1.00  0.00     0.166 HD
BRANCH  25  28
HETATM   28  C13 UNL     1      20.081  -5.440   2.873  1.00  0.00     0.241 C 
BRANCH  28  29
HETATM   29  C14 UNL     1      20.823  -6.667   2.403  1.00  0.00     0.403 C 
HETATM   30  F1  UNL     1      21.558  -7.269   3.379  1.00  0.00    -0.169 F 
HETATM   31  F2  UNL     1      19.859  -7.518   1.853  1.00  0.00    -0.169 F 
HETATM   32  F3  UNL     1      21.651  -6.243   1.359  1.00  0.00    -0.169 F 
ENDBRANCH  28  29
ENDBRANCH  25  28
ENDBRANCH  19  22
ENDBRANCH  17  19
ENDBRANCH   1  17
TORSDOF 10
ENDMDL
MODEL 3
REMARK VINA RESULT: -7.681695839      3.290      6.157
REMARK  10 active torsions:
REMARK  status: ('A' for Active; 'I' for Inactive)
REMARK    1  A    between atoms: C2_2  and  O1_3 
REMARK    2  A    between atoms: O1_3  and  C3_4 
REMARK       I    between atoms: C3_4  and  N1_6 
REMARK       I    between atoms: N2_9  and  C6_10 
REMARK    3  A    between atoms: C6_10  and  C7_12 
REMARK    4  A    between atoms: C7_12  and  O4_14 
REMARK    5  A    between atoms: O4_14  and  C9_15 
REMARK    6  A    between atoms: C9_15  and  C11_17 
REMARK    7  A    between atoms: C11_17  and  O5_18 
REMARK    8  A    between atoms: C11_17  and  N3_20 
REMARK       I    between atoms: N3_20  and  C12_22 
REMARK       I    between atoms: C12_22  and  N4_24 
REMARK    9  A    between atoms: N4_24  and  C13_26 
REMARK   10  A    between atoms: C13_26  and  C14_27 
ROOT
HETATM    1  O4  UNL     1      23.854   1.428   0.429  1.00  0.00    -0.368 OA
ENDROOT
BRANCH   1   2
HETATM    2  C7  UNL     1      23.030   0.431  -0.069  1.00  0.00     0.210 C 
HETATM    3  C8  UNL     1      23.058   0.586  -1.582  1.00  0.00     0.050 C 
BRANCH   2   4
HETATM    4  C6  UNL     1      23.452  -0.920   0.263  1.00  0.00     0.248 C 
HETATM    5  N2  UNL     1      22.575  -1.851   0.854  1.00  0.00    -0.347 N 
HETATM    6  C5  UNL     1      21.224  -1.454   1.144  1.00  0.00     0.146 C 
HETATM    7  C15 UNL     1      23.036  -3.218   1.175  1.00  0.00     0.146 C 
HETATM    8  C4  UNL     1      20.563  -2.229   2.223  1.00  0.00     0.148 C 
HETATM    9  N1  UNL     1      21.273  -3.342   2.754  1.00  0.00    -0.325 N 
HETATM   10  C3  UNL     1      20.612  -4.444   3.384  1.00  0.00     0.362 C 
HETATM   11  C16 UNL     1      22.718  -3.381   2.667  1.00  0.00     0.148 C 
HETATM   12  O2  UNL     1      19.360  -4.495   3.506  1.00  0.00    -0.238 OA
HETATM   13  O3  UNL     1      24.633  -1.264   0.015  1.00  0.00    -0.270 OA
BRANCH  10  14
HETATM   14  O1  UNL     1      21.330  -5.515   3.894  1.00  0.00    -0.304 OA
BRANCH  14  15
HETATM   15  C2  UNL     1      21.225  -6.804   3.370  1.00  0.00     0.176 C 
HETATM   16  C1  UNL     1      21.256  -6.799   1.839  1.00  0.00     0.034 C 
ENDBRANCH  14  15
ENDBRANCH  10  14
ENDBRANCH   2   4
ENDBRANCH   1   2
BRANCH   1  17
HETATM   17  C9  UNL     1      23.542   1.868   1.677  1.00  0.00     0.167 C 
HETATM   18  C10 UNL     1      22.951   3.287   1.660  1.00  0.00     0.044 C 
BRANCH  17  19
HETATM   19  C11 UNL     1      24.811   1.887   2.501  1.00  0.00     0.250 C 
BRANCH  19  20
HETATM   20  O5  UNL     1      25.709   0.907   2.085  1.00  0.00    -0.374 OA
ATOM     21  H5  UNL     1      25.720   0.165   2.678  1.00  0.00     0.212 HD
ENDBRANCH  19  20
BRANCH  19  22
HETATM   22  N3  UNL     1      24.467   1.749   3.894  1.00  0.00    -0.314 N 
HETATM   23  C12 UNL     1      24.184   0.509   4.495  1.00  0.00     0.318 C 
HETATM   24  O6  UNL     1      24.213  -0.556   3.844  1.00  0.00    -0.247 OA
HETATM   25  N4  UNL     1      23.855   0.456   5.874  1.00  0.00    -0.335 N 
ATOM     26  H4  UNL     1      23.824   1.317   6.420  1.00  0.00     0.164 HD
ATOM     27  H3  UNL     1      24.427   2.589   4.470  1.00  0.00     0.166 HD
BRANCH  25  28
HETATM   28  C13 UNL     1      23.561  -0.810   6.510  1.00  0.00     0.241 C 
BRANCH  28  29
HETATM   29  C14 UNL     1      22.062  -0.971   6.562  1.00  0.00     0.403 C 
HETATM   30  F1  UNL     1      21.379   0.136   6.153  1.00  0.00    -0.169 F 
HETATM   31  F2  UNL     1      21.764  -2.101   5.795  1.00  0.00    -0.169 F 
HETATM   32  F3  UNL     1      21.750  -1.273   7.892  1.00  0.00    -0.169 F 
ENDBRANCH  28  29
ENDBRANCH  25  28
ENDBRANCH  19  22
ENDBRANCH  17  19
ENDBRANCH   1  17
TORSDOF 10
ENDMDL
MODEL 4
REMARK VINA RESULT: -7.350135076      2.564      3.221
REMARK  10 active torsions:
REMARK  status: ('A' for Active; 'I' for Inactive)
REMARK    1  A    between atoms: C2_2  and  O1_3 
REMARK    2  A    between atoms: O1_3  and  C3_4 
REMARK       I    between atoms: C3_4  and  N1_6 
REMARK       I    between atoms: N2_9  and  C6_10 
REMARK    3  A    between atoms: C6_10  and  C7_12 
REMARK    4  A    between atoms: C7_12  and  O4_14 
REMARK    5  A    between atoms: O4_14  and  C9_15 
REMARK    6  A    between atoms: C9_15  and  C11_17 
REMARK    7  A    between atoms: C11_17  and  O5_18 
REMARK    8  A    between atoms: C11_17  and  N3_20 
REMARK       I    between atoms: N3_20  and  C12_22 
REMARK       I    between atoms: C12_22  and  N4_24 
REMARK    9  A    between atoms: N4_24  and  C13_26 
REMARK   10  A    between atoms: C13_26  and  C14_27 
ROOT
HETATM    1  O4  UNL     1      23.874   0.416   3.584  1.00  0.00    -0.368 OA
ENDROOT
BRANCH   1   2
HETATM    2  C7  UNL     1      23.892   1.706   3.076  1.00  0.00     0.210 C 
HETATM    3  C8  UNL     1      25.352   2.015   2.782  1.00  0.00     0.050 C 
BRANCH   2   4
HETATM    4  C6  UNL     1      23.129   1.882   1.852  1.00  0.00     0.248 C 
HETATM    5  N2  UNL     1      22.056   2.792   1.767  1.00  0.00    -0.347 N 
HETATM    6  C5  UNL     1      21.700   3.565   2.926  1.00  0.00     0.146 C 
HETATM    7  C15 UNL     1      21.303   2.948   0.505  1.00  0.00     0.146 C 
HETATM    8  C4  UNL     1      20.295   4.043   2.951  1.00  0.00     0.148 C 
HETATM    9  N1  UNL     1      19.505   3.801   1.792  1.00  0.00    -0.325 N 
HETATM   10  C3  UNL     1      18.369   4.606   1.457  1.00  0.00     0.362 C 
HETATM   11  C16 UNL     1      19.842   2.706   0.906  1.00  0.00     0.148 C 
HETATM   12  O2  UNL     1      18.002   5.577   2.169  1.00  0.00    -0.238 OA
HETATM   13  O3  UNL     1      23.436   1.202   0.844  1.00  0.00    -0.270 OA
BRANCH  10  14
HETATM   14  O1  UNL     1      17.616   4.346   0.322  1.00  0.00    -0.304 OA
BRANCH  14  15
HETATM   15  C2  UNL     1      16.231   4.511   0.289  1.00  0.00     0.176 C 
HETATM   16  C1  UNL     1      15.709   4.638  -1.145  1.00  0.00     0.034 C 
ENDBRANCH  14  15
ENDBRANCH  10  14
ENDBRANCH   2   4
ENDBRANCH   1   2
BRANCH   1  17
HETATM   17  C9  UNL     1      22.660  -0.021   4.011  1.00  0.00     0.167 C 
HETATM   18  C10 UNL     1      22.122   0.812   5.185  1.00  0.00     0.044 C 
BRANCH  17  19
HETATM   19  C11 UNL     1      22.812  -1.456   4.471  1.00  0.00     0.250 C 
BRANCH  19  20
HETATM   20  O5  UNL     1      24.128  -1.747   4.822  1.00  0.00    -0.374 OA
ATOM     21  H5  UNL     1      24.378  -2.623   4.551  1.00  0.00     0.212 HD
ENDBRANCH  19  20
BRANCH  19  22
HETATM   22  N3  UNL     1      22.320  -2.333   3.439  1.00  0.00    -0.314 N 
HETATM   23  C12 UNL     1      21.524  -3.462   3.707  1.00  0.00     0.318 C 
HETATM   24  O6  UNL     1      21.199  -3.773   4.872  1.00  0.00    -0.247 OA
HETATM   25  N4  UNL     1      21.078  -4.276   2.634  1.00  0.00    -0.335 N 
ATOM     26  H4  UNL     1      21.336  -4.038   1.677  1.00  0.00     0.164 HD
ATOM     27  H3  UNL     1      22.559  -2.126   2.470  1.00  0.00     0.166 HD
BRANCH  25  28
HETATM   28  C13 UNL     1      20.257  -5.441   2.890  1.00  0.00     0.241 C 
BRANCH  28  29
HETATM   29  C14 UNL     1      20.985  -6.650   2.356  1.00  0.00     0.403 C 
HETATM   30  F1  UNL     1      21.760  -7.277   3.285  1.00  0.00    -0.169 F 
HETATM   31  F2  UNL     1      20.004  -7.488   1.818  1.00  0.00    -0.169 F 
HETATM   32  F3  UNL     1      21.772  -6.191   1.294  1.00  0.00    -0.169 F 
ENDBRANCH  28  29
ENDBRANCH  25  28
ENDBRANCH  19  22
ENDBRANCH  17  19
ENDBRANCH   1  17
TORSDOF 10
ENDMDL
MODEL 5
REMARK VINA RESULT: -7.300219300      3.764      6.453
REMARK  10 active torsions:
REMARK  status: ('A' for Active; 'I' for Inactive)
REMARK    1  A    between atoms: C2_2  and  O1_3 
REMARK    2  A    between atoms: O1_3  and  C3_4 
REMARK       I    between atoms: C3_4  and  N1_6 
REMARK       I    between atoms: N2_9  and  C6_10 
REMARK    3  A    between atoms: C6_10  and  C7_12 
REMARK    4  A    between atoms: C7_12  and  O4_14 
REMARK    5  A    between atoms: O4_14  and  C9_15 
REMARK    6  A    between atoms: C9_15  and  C11_17 
REMARK    7  A    between atoms: C11_17  and  O5_18 
REMARK    8  A    between atoms: C11_17  and  N3_20 
REMARK       I    between atoms: N3_20  and  C12_22 
REMARK       I    between atoms: C12_22  and  N4_24 
REMARK    9  A    between atoms: N4_24  and  C13_26 
REMARK   10  A    between atoms: C13_26  and  C14_27 
ROOT
HETATM    1  O4  UNL     1      23.960   0.498   4.315  1.00  0.00    -0.368 OA
ENDROOT
BRANCH   1   2
HETATM    2  C7  UNL     1      24.393   1.028   3.110  1.00  0.00     0.210 C 
HETATM    3  C8  UNL     1      23.327   0.662   2.088  1.00  0.00     0.050 C 
BRANCH   2   4
HETATM    4  C6  UNL     1      24.553   2.473   3.110  1.00  0.00     0.248 C 
HETATM    5  N2  UNL     1      25.701   3.096   2.582  1.00  0.00    -0.347 N 
HETATM    6  C5  UNL     1      26.748   2.280   2.029  1.00  0.00     0.146 C 
HETATM    7  C15 UNL     1      25.829   4.568   2.595  1.00  0.00     0.146 C 
HETATM    8  C4  UNL     1      28.092   2.911   2.021  1.00  0.00     0.148 C 
HETATM    9  N1  UNL     1      28.175   4.272   2.429  1.00  0.00    -0.325 N 
HETATM   10  C3  UNL     1      29.233   5.136   2.005  1.00  0.00     0.362 C 
HETATM   11  C16 UNL     1      27.164   4.822   3.308  1.00  0.00     0.148 C 
HETATM   12  O2  UNL     1      30.155   4.745   1.243  1.00  0.00    -0.238 OA
HETATM   13  O3  UNL     1      23.641   3.183   3.598  1.00  0.00    -0.270 OA
BRANCH  10  14
HETATM   14  O1  UNL     1      29.290   6.458   2.420  1.00  0.00    -0.304 OA
BRANCH  14  15
HETATM   15  C2  UNL     1      30.196   6.902   3.384  1.00  0.00     0.176 C 
HETATM   16  C1  UNL     1      29.504   7.205   4.716  1.00  0.00     0.034 C 
ENDBRANCH  14  15
ENDBRANCH  10  14
ENDBRANCH   2   4
ENDBRANCH   1   2
BRANCH   1  17
HETATM   17  C9  UNL     1      22.707  -0.030   4.299  1.00  0.00     0.167 C 
HETATM   18  C10 UNL     1      21.744   0.730   5.225  1.00  0.00     0.044 C 
BRANCH  17  19
HETATM   19  C11 UNL     1      22.796  -1.465   4.775  1.00  0.00     0.250 C 
BRANCH  19  20
HETATM   20  O5  UNL     1      24.078  -1.782   5.219  1.00  0.00    -0.374 OA
ATOM     21  H5  UNL     1      24.170  -1.639   6.154  1.00  0.00     0.212 HD
ENDBRANCH  19  20
BRANCH  19  22
HETATM   22  N3  UNL     1      22.360  -2.338   3.713  1.00  0.00    -0.314 N 
HETATM   23  C12 UNL     1      21.526  -3.450   3.928  1.00  0.00     0.318 C 
HETATM   24  O6  UNL     1      21.115  -3.749   5.068  1.00  0.00    -0.247 OA
HETATM   25  N4  UNL     1      21.140  -4.260   2.829  1.00  0.00    -0.335 N 
ATOM     26  H4  UNL     1      21.470  -4.031   1.891  1.00  0.00     0.164 HD
ATOM     27  H3  UNL     1      22.671  -2.139   2.762  1.00  0.00     0.166 HD
BRANCH  25  28
HETATM   28  C13 UNL     1      20.282  -5.408   3.031  1.00  0.00     0.241 C 
BRANCH  28  29
HETATM   29  C14 UNL     1      20.964  -6.612   2.428  1.00  0.00     0.403 C 
HETATM   30  F1  UNL     1      21.724  -7.311   3.317  1.00  0.00    -0.169 F 
HETATM   31  F2  UNL     1      19.951  -7.388   1.857  1.00  0.00    -0.169 F 
HETATM   32  F3  UNL     1      21.757  -6.125   1.383  1.00  0.00    -0.169 F 
ENDBRANCH  28  29
ENDBRANCH  25  28
ENDBRANCH  19  22
ENDBRANCH  17  19
ENDBRANCH   1  17
TORSDOF 10
ENDMDL
