MODEL 1
REMARK VINA RESULT: -7.955401584      0.000      0.000
REMARK  9 active torsions:
REMARK  status: ('A' for Active; 'I' for Inactive)
REMARK    1  A    between atoms: O1_2  and  C2_3 
REMARK    2  A    between atoms: C2_3  and  C3_4 
REMARK    3  A    between atoms: C3_4  and  N1_5 
REMARK    4  A    between atoms: C3_4  and  C7_18 
REMARK       I    between atoms: N1_5  and  C4_7 
REMARK       I    between atoms: C4_7  and  N2_9 
REMARK    5  A    between atoms: N2_9  and  C5_11 
REMARK       I    between atoms: C7_18  and  N5_20 
REMARK    6  A    between atoms: N5_20  and  C8_22 
REMARK    7  A    between atoms: C11_25  and  C12_26 
REMARK    8  A    between atoms: C12_26  and  O4_27 
REMARK    9  A    between atoms: O4_27  and  C13_28 
ROOT
HETATM    1  C3  UNL     1      23.902   1.788   3.256  1.00  0.00     0.202 C 
ENDROOT
BRANCH   1   2
HETATM    2  C2  UNL     1      23.397   1.412   4.655  1.00  0.00     0.202 C 
BRANCH   2   3
HETATM    3  O1  UNL     1      24.258   0.479   5.180  1.00  0.00    -0.393 OA
HETATM    4  C1  UNL     1      23.669  -0.292   6.170  1.00  0.00     0.201 C 
ENDBRANCH   2   3
ENDBRANCH   1   2
BRANCH   1   5
HETATM    5  N1  UNL     1      25.339   2.013   3.354  1.00  0.00    -0.327 N 
HETATM    6  C4  UNL     1      25.893   3.163   2.764  1.00  0.00     0.323 C 
HETATM    7  O2  UNL     1      25.188   4.022   2.147  1.00  0.00    -0.247 OA
HETATM    8  N2  UNL     1      27.293   3.384   2.854  1.00  0.00    -0.288 N 
ATOM      9  H2  UNL     1      27.758   3.553   3.746  1.00  0.00     0.172 HD
ATOM     10  H1  UNL     1      25.934   1.345   3.843  1.00  0.00     0.165 HD
BRANCH   8  11
HETATM   11  C5  UNL     1      27.955   3.358   1.718  1.00  0.00     0.168 A 
HETATM   12  N3  UNL     1      28.420   2.319   1.026  1.00  0.00    -0.279 N 
HETATM   13  N4  UNL     1      29.039   2.529  -0.061  1.00  0.00    -0.303 N 
ATOM     14  H3  UNL     1      28.280   1.368   1.366  1.00  0.00     0.189 HD
HETATM   15  C6  UNL     1      29.219   3.766  -0.501  1.00  0.00     0.160 A 
ATOM     16  H4  UNL     1      29.400   1.741  -0.599  1.00  0.00     0.186 HD
HETATM   17  S1  UNL     1      28.452   4.674   0.727  1.00  0.00    -0.046 SA
ENDBRANCH   8  11
ENDBRANCH   1   5
BRANCH   1  18
HETATM   18  C7  UNL     1      23.670   0.606   2.388  1.00  0.00     0.242 C 
HETATM   19  O3  UNL     1      24.474   0.457   1.411  1.00  0.00    -0.271 OA
HETATM   20  N5  UNL     1      22.615  -0.330   2.604  1.00  0.00    -0.355 N 
ATOM     21  H5  UNL     1      21.962  -0.219   3.381  1.00  0.00     0.162 HD
BRANCH  20  22
HETATM   22  C8  UNL     1      22.501  -1.438   1.686  1.00  0.00     0.084 C 
HETATM   23  C9  UNL     1      21.089  -1.841   1.416  1.00  0.00     0.026 C 
HETATM   24  C10 UNL     1      20.806  -3.309   1.611  1.00  0.00     0.009 C 
HETATM   25  C11 UNL     1      21.793  -4.232   0.982  1.00  0.00     0.010 C 
HETATM   26  C14 UNL     1      23.208  -3.642   1.002  1.00  0.00     0.009 C 
HETATM   27  C15 UNL     1      23.235  -2.673   2.167  1.00  0.00     0.026 C 
BRANCH  25  28
HETATM   28  C12 UNL     1      21.896  -5.524   1.756  1.00  0.00     0.182 C 
BRANCH  28  29
HETATM   29  O4  UNL     1      21.178  -5.656   2.883  1.00  0.00    -0.297 OA
BRANCH  29  30
HETATM   30  C13 UNL     1      20.640  -6.835   3.251  1.00  0.00     0.524 C 
HETATM   31  F1  UNL     1      19.917  -6.805   4.397  1.00  0.00    -0.144 F 
HETATM   32  F2  UNL     1      21.670  -7.774   3.482  1.00  0.00    -0.144 F 
HETATM   33  F3  UNL     1      19.907  -7.439   2.209  1.00  0.00    -0.144 F 
ENDBRANCH  29  30
ENDBRANCH  28  29
ENDBRANCH  25  28
ENDBRANCH  20  22
ENDBRANCH   1  18
TORSDOF 9
ENDMDL
MODEL 2
REMARK VINA RESULT: -7.589223139      1.011      1.275
REMARK  9 active torsions:
REMARK  status: ('A' for Active; 'I' for Inactive)
REMARK    1  A    between atoms: O1_2  and  C2_3 
REMARK    2  A    between atoms: C2_3  and  C3_4 
REMARK    3  A    between atoms: C3_4  and  N1_5 
REMARK    4  A    between atoms: C3_4  and  C7_18 
REMARK       I    between atoms: N1_5  and  C4_7 
REMARK       I    between atoms: C4_7  and  N2_9 
REMARK    5  A    between atoms: N2_9  and  C5_11 
REMARK       I    between atoms: C7_18  and  N5_20 
REMARK    6  A    between atoms: N5_20  and  C8_22 
REMARK    7  A    between atoms: C11_25  and  C12_26 
REMARK    8  A    between atoms: C12_26  and  O4_27 
REMARK    9  A    between atoms: O4_27  and  C13_28 
ROOT
HETATM    1  C3  UNL     1      24.035   2.111   2.913  1.00  0.00     0.202 C 
ENDROOT
BRANCH   1   2
HETATM    2  C2  UNL     1      23.315   1.952   4.258  1.00  0.00     0.202 C 
BRANCH   2   3
HETATM    3  O1  UNL     1      22.049   2.468   4.125  1.00  0.00    -0.393 OA
HETATM    4  C1  UNL     1      22.042   3.718   3.526  1.00  0.00     0.201 C 
ENDBRANCH   2   3
ENDBRANCH   1   2
BRANCH   1   5
HETATM    5  N1  UNL     1      25.457   2.264   3.191  1.00  0.00    -0.327 N 
HETATM    6  C4  UNL     1      26.073   3.504   2.942  1.00  0.00     0.323 C 
HETATM    7  O2  UNL     1      25.436   4.503   2.484  1.00  0.00    -0.247 OA
HETATM    8  N2  UNL     1      27.460   3.656   3.209  1.00  0.00    -0.288 N 
ATOM      9  H2  UNL     1      27.838   3.597   4.154  1.00  0.00     0.172 HD
ATOM     10  H1  UNL     1      25.998   1.483   3.561  1.00  0.00     0.165 HD
BRANCH   8  11
HETATM   11  C5  UNL     1      28.227   3.877   2.164  1.00  0.00     0.168 A 
HETATM   12  N3  UNL     1      28.725   3.019   1.275  1.00  0.00    -0.279 N 
HETATM   13  N4  UNL     1      29.452   3.459   0.334  1.00  0.00    -0.303 N 
ATOM     14  H3  UNL     1      28.525   2.022   1.352  1.00  0.00     0.189 HD
HETATM   15  C6  UNL     1      29.710   4.755   0.236  1.00  0.00     0.160 A 
ATOM     16  H4  UNL     1      29.839   2.811  -0.352  1.00  0.00     0.186 HD
HETATM   17  S1  UNL     1      28.855   5.369   1.582  1.00  0.00    -0.046 SA
ENDBRANCH   8  11
ENDBRANCH   1   5
BRANCH   1  18
HETATM   18  C7  UNL     1      23.835   0.840   2.171  1.00  0.00     0.242 C 
HETATM   19  O3  UNL     1      24.726   0.545   1.308  1.00  0.00    -0.271 OA
HETATM   20  N5  UNL     1      22.721  -0.025   2.383  1.00  0.00    -0.355 N 
ATOM     21  H5  UNL     1      22.000   0.202   3.069  1.00  0.00     0.162 HD
BRANCH  20  22
HETATM   22  C8  UNL     1      22.648  -1.233   1.597  1.00  0.00     0.084 C 
HETATM   23  C9  UNL     1      21.258  -1.587   1.182  1.00  0.00     0.026 C 
HETATM   24  C10 UNL     1      20.846  -3.000   1.509  1.00  0.00     0.009 C 
HETATM   25  C11 UNL     1      21.838  -4.050   1.136  1.00  0.00     0.010 C 
HETATM   26  C14 UNL     1      23.277  -3.542   1.284  1.00  0.00     0.009 C 
HETATM   27  C15 UNL     1      23.221  -2.436   2.318  1.00  0.00     0.026 C 
BRANCH  25  28
HETATM   28  C12 UNL     1      21.743  -5.237   2.065  1.00  0.00     0.182 C 
BRANCH  28  29
HETATM   29  O4  UNL     1      20.532  -5.612   2.506  1.00  0.00    -0.297 OA
BRANCH  29  30
HETATM   30  C13 UNL     1      20.270  -6.881   2.876  1.00  0.00     0.524 C 
HETATM   31  F1  UNL     1      19.621  -7.014   4.058  1.00  0.00    -0.144 F 
HETATM   32  F2  UNL     1      21.482  -7.589   3.032  1.00  0.00    -0.144 F 
HETATM   33  F3  UNL     1      19.620  -7.612   1.860  1.00  0.00    -0.144 F 
ENDBRANCH  29  30
ENDBRANCH  28  29
ENDBRANCH  25  28
ENDBRANCH  20  22
ENDBRANCH   1  18
TORSDOF 9
ENDMDL
MODEL 3
REMARK VINA RESULT: -7.479565238      3.067      4.469
REMARK  9 active torsions:
REMARK  status: ('A' for Active; 'I' for Inactive)
REMARK    1  A    between atoms: O1_2  and  C2_3 
REMARK    2  A    between atoms: C2_3  and  C3_4 
REMARK    3  A    between atoms: C3_4  and  N1_5 
REMARK    4  A    between atoms: C3_4  and  C7_18 
REMARK       I    between atoms: N1_5  and  C4_7 
REMARK       I    between atoms: C4_7  and  N2_9 
REMARK    5  A    between atoms: N2_9  and  C5_11 
REMARK       I    between atoms: C7_18  and  N5_20 
REMARK    6  A    between atoms: N5_20  and  C8_22 
REMARK    7  A    between atoms: C11_25  and  C12_26 
REMARK    8  A    between atoms: C12_26  and  O4_27 
REMARK    9  A    between atoms: O4_27  and  C13_28 
ROOT
HETATM    1  C3  UNL     1      23.585   2.168   1.127  1.00  0.00     0.202 C 
ENDROOT
BRANCH   1   2
HETATM    2  C2  UNL     1      22.570   3.116   0.476  1.00  0.00     0.202 C 
BRANCH   2   3
HETATM    3  O1  UNL     1      21.330   2.531   0.558  1.00  0.00    -0.393 OA
HETATM    4  C1  UNL     1      20.332   3.438   0.877  1.00  0.00     0.201 C 
ENDBRANCH   2   3
ENDBRANCH   1   2
BRANCH   1   5
HETATM    5  N1  UNL     1      23.376   2.223   2.568  1.00  0.00    -0.327 N 
HETATM    6  C4  UNL     1      24.197   1.452   3.410  1.00  0.00     0.323 C 
HETATM    7  O2  UNL     1      25.122   0.704   2.962  1.00  0.00    -0.247 OA
HETATM    8  N2  UNL     1      23.994   1.500   4.815  1.00  0.00    -0.288 N 
ATOM      9  H2  UNL     1      24.151   2.351   5.354  1.00  0.00     0.172 HD
ATOM     10  H1  UNL     1      22.644   2.815   2.962  1.00  0.00     0.165 HD
BRANCH   8  11
HETATM   11  C5  UNL     1      23.592   0.382   5.378  1.00  0.00     0.168 A 
HETATM   12  N3  UNL     1      23.958  -0.170   6.533  1.00  0.00    -0.279 N 
HETATM   13  N4  UNL     1      23.433  -1.270   6.885  1.00  0.00    -0.303 N 
ATOM     14  H3  UNL     1      24.652   0.285   7.126  1.00  0.00     0.189 HD
HETATM   15  C6  UNL     1      22.532  -1.859   6.112  1.00  0.00     0.160 A 
ATOM     16  H4  UNL     1      23.706  -1.702   7.767  1.00  0.00     0.186 HD
HETATM   17  S1  UNL     1      22.442  -0.762   4.805  1.00  0.00    -0.046 SA
ENDBRANCH   8  11
ENDBRANCH   1   5
BRANCH   1  18
HETATM   18  C7  UNL     1      23.253   0.800   0.657  1.00  0.00     0.242 C 
HETATM   19  O3  UNL     1      23.765   0.447  -0.456  1.00  0.00    -0.271 OA
HETATM   20  N5  UNL     1      22.410  -0.095   1.380  1.00  0.00    -0.355 N 
ATOM     21  H5  UNL     1      21.991   0.178   2.270  1.00  0.00     0.162 HD
BRANCH  20  22
HETATM   22  C8  UNL     1      22.169  -1.400   0.811  1.00  0.00     0.084 C 
HETATM   23  C9  UNL     1      20.779  -1.896   1.034  1.00  0.00     0.026 C 
HETATM   24  C10 UNL     1      20.693  -3.276   1.635  1.00  0.00     0.009 C 
HETATM   25  C11 UNL     1      21.568  -4.300   0.995  1.00  0.00     0.010 C 
HETATM   26  C14 UNL     1      22.880  -3.684   0.494  1.00  0.00     0.009 C 
HETATM   27  C15 UNL     1      23.113  -2.456   1.350  1.00  0.00     0.026 C 
BRANCH  25  28
HETATM   28  C12 UNL     1      21.985  -5.355   1.991  1.00  0.00     0.182 C 
BRANCH  28  29
HETATM   29  O4  UNL     1      21.163  -5.630   3.015  1.00  0.00    -0.297 OA
BRANCH  29  30
HETATM   30  C13 UNL     1      20.681  -6.871   3.229  1.00  0.00     0.524 C 
HETATM   31  F1  UNL     1      19.858  -6.993   4.299  1.00  0.00    -0.144 F 
HETATM   32  F2  UNL     1      21.751  -7.759   3.475  1.00  0.00    -0.144 F 
HETATM   33  F3  UNL     1      20.089  -7.422   2.073  1.00  0.00    -0.144 F 
ENDBRANCH  29  30
ENDBRANCH  28  29
ENDBRANCH  25  28
ENDBRANCH  20  22
ENDBRANCH   1  18
TORSDOF 9
ENDMDL
MODEL 4
REMARK VINA RESULT: -7.326211998      1.199      1.592
REMARK  9 active torsions:
REMARK  status: ('A' for Active; 'I' for Inactive)
REMARK    1  A    between atoms: O1_2  and  C2_3 
REMARK    2  A    between atoms: C2_3  and  C3_4 
REMARK    3  A    between atoms: C3_4  and  N1_5 
REMARK    4  A    between atoms: C3_4  and  C7_18 
REMARK       I    between atoms: N1_5  and  C4_7 
REMARK       I    between atoms: C4_7  and  N2_9 
REMARK    5  A    between atoms: N2_9  and  C5_11 
REMARK       I    between atoms: C7_18  and  N5_20 
REMARK    6  A    between atoms: N5_20  and  C8_22 
REMARK    7  A    between atoms: C11_25  and  C12_26 
REMARK    8  A    between atoms: C12_26  and  O4_27 
REMARK    9  A    between atoms: O4_27  and  C13_28 
ROOT
HETATM    1  C3  UNL     1      23.334   0.761   4.668  1.00  0.00     0.202 C 
ENDROOT
BRANCH   1   2
HETATM    2  C2  UNL     1      23.448   0.057   6.026  1.00  0.00     0.202 C 
BRANCH   2   3
HETATM    3  O1  UNL     1      22.245  -0.551   6.291  1.00  0.00    -0.393 OA
HETATM    4  C1  UNL     1      22.385  -1.707   7.042  1.00  0.00     0.201 C 
ENDBRANCH   2   3
ENDBRANCH   1   2
BRANCH   1   5
HETATM    5  N1  UNL     1      24.545   1.548   4.479  1.00  0.00    -0.327 N 
HETATM    6  C4  UNL     1      24.695   2.302   3.301  1.00  0.00     0.323 C 
HETATM    7  O2  UNL     1      23.810   2.327   2.389  1.00  0.00    -0.247 OA
HETATM    8  N2  UNL     1      25.876   3.068   3.112  1.00  0.00    -0.288 N 
ATOM      9  H2  UNL     1      26.109   3.860   3.711  1.00  0.00     0.172 HD
ATOM     10  H1  UNL     1      25.275   1.553   5.192  1.00  0.00     0.165 HD
BRANCH   8  11
HETATM   11  C5  UNL     1      26.651   2.695   2.117  1.00  0.00     0.168 A 
HETATM   12  N3  UNL     1      27.314   1.555   1.934  1.00  0.00    -0.279 N 
HETATM   13  N4  UNL     1      28.012   1.408   0.886  1.00  0.00    -0.303 N 
ATOM     14  H3  UNL     1      27.261   0.810   2.629  1.00  0.00     0.189 HD
HETATM   15  C6  UNL     1      28.079   2.377  -0.015  1.00  0.00     0.160 A 
ATOM     16  H4  UNL     1      28.525   0.539   0.735  1.00  0.00     0.186 HD
HETATM   17  S1  UNL     1      27.079   3.566   0.696  1.00  0.00    -0.046 SA
ENDBRANCH   8  11
ENDBRANCH   1   5
BRANCH   1  18
HETATM   18  C7  UNL     1      23.301  -0.306   3.637  1.00  0.00     0.242 C 
HETATM   19  O3  UNL     1      24.209  -1.197   3.718  1.00  0.00    -0.271 OA
HETATM   20  N5  UNL     1      22.325  -0.362   2.597  1.00  0.00    -0.355 N 
ATOM     21  H5  UNL     1      21.596   0.347   2.520  1.00  0.00     0.162 HD
BRANCH  20  22
HETATM   22  C8  UNL     1      22.404  -1.456   1.659  1.00  0.00     0.084 C 
HETATM   23  C9  UNL     1      21.071  -1.911   1.165  1.00  0.00     0.026 C 
HETATM   24  C10 UNL     1      20.825  -3.392   1.294  1.00  0.00     0.009 C 
HETATM   25  C11 UNL     1      21.938  -4.262   0.816  1.00  0.00     0.010 C 
HETATM   26  C14 UNL     1      23.306  -3.615   1.065  1.00  0.00     0.009 C 
HETATM   27  C15 UNL     1      23.108  -2.669   2.233  1.00  0.00     0.026 C 
BRANCH  25  28
HETATM   28  C12 UNL     1      21.975  -5.564   1.579  1.00  0.00     0.182 C 
BRANCH  28  29
HETATM   29  O4  UNL     1      21.183  -5.699   2.655  1.00  0.00    -0.297 OA
BRANCH  29  30
HETATM   30  C13 UNL     1      20.639  -6.884   2.995  1.00  0.00     0.524 C 
HETATM   31  F1  UNL     1      19.871  -7.460   2.039  1.00  0.00    -0.144 F 
HETATM   32  F2  UNL     1      19.786  -6.711   4.108  1.00  0.00    -0.144 F 
HETATM   33  F3  UNL     1      21.598  -7.793   3.487  1.00  0.00    -0.144 F 
ENDBRANCH  29  30
ENDBRANCH  28  29
ENDBRANCH  25  28
ENDBRANCH  20  22
ENDBRANCH   1  18
TORSDOF 9
ENDMDL
MODEL 5
REMARK VINA RESULT: -7.268079766      1.469      1.513
REMARK  9 active torsions:
REMARK  status: ('A' for Active; 'I' for Inactive)
REMARK    1  A    between atoms: O1_2  and  C2_3 
REMARK    2  A    between atoms: C2_3  and  C3_4 
REMARK    3  A    between atoms: C3_4  and  N1_5 
REMARK    4  A    between atoms: C3_4  and  C7_18 
REMARK       I    between atoms: N1_5  and  C4_7 
REMARK       I    between atoms: C4_7  and  N2_9 
REMARK    5  A    between atoms: N2_9  and  C5_11 
REMARK       I    between atoms: C7_18  and  N5_20 
REMARK    6  A    between atoms: N5_20  and  C8_22 
REMARK    7  A    between atoms: C11_25  and  C12_26 
REMARK    8  A    between atoms: C12_26  and  O4_27 
REMARK    9  A    between atoms: O4_27  and  C13_28 
ROOT
HETATM    1  C3  UNL     1      23.712   2.413   2.569  1.00  0.00     0.202 C 
ENDROOT
BRANCH   1   2
HETATM    2  C2  UNL     1      22.446   2.599   3.416  1.00  0.00     0.202 C 
BRANCH   2   3
HETATM    3  O1  UNL     1      22.681   2.054   4.655  1.00  0.00    -0.393 OA
HETATM    4  C1  UNL     1      21.702   1.148   5.033  1.00  0.00     0.201 C 
ENDBRANCH   2   3
ENDBRANCH   1   2
BRANCH   1   5
HETATM    5  N1  UNL     1      24.843   2.873   3.365  1.00  0.00    -0.327 N 
HETATM    6  C4  UNL     1      25.589   3.979   2.919  1.00  0.00     0.323 C 
HETATM    7  O2  UNL     1      25.314   4.600   1.845  1.00  0.00    -0.247 OA
HETATM    8  N2  UNL     1      26.695   4.427   3.690  1.00  0.00    -0.288 N 
ATOM      9  H2  UNL     1      26.580   4.815   4.625  1.00  0.00     0.172 HD
ATOM     10  H1  UNL     1      25.091   2.398   4.233  1.00  0.00     0.165 HD
BRANCH   8  11
HETATM   11  C5  UNL     1      27.876   4.312   3.123  1.00  0.00     0.168 A 
HETATM   12  N3  UNL     1      28.663   3.245   3.003  1.00  0.00    -0.279 N 
HETATM   13  N4  UNL     1      29.778   3.364   2.410  1.00  0.00    -0.303 N 
ATOM     14  H3  UNL     1      28.374   2.344   3.383  1.00  0.00     0.189 HD
HETATM   15  C6  UNL     1      30.152   4.536   1.917  1.00  0.00     0.160 A 
ATOM     16  H4  UNL     1      30.389   2.554   2.312  1.00  0.00     0.186 HD
HETATM   17  S1  UNL     1      28.818   5.518   2.337  1.00  0.00    -0.046 SA
ENDBRANCH   8  11
ENDBRANCH   1   5
BRANCH   1  18
HETATM   18  C7  UNL     1      23.860   0.954   2.340  1.00  0.00     0.242 C 
HETATM   19  O3  UNL     1      24.927   0.419   2.787  1.00  0.00    -0.271 OA
HETATM   20  N5  UNL     1      22.886   0.165   1.659  1.00  0.00    -0.355 N 
ATOM     21  H5  UNL     1      22.029   0.583   1.294  1.00  0.00     0.162 HD
BRANCH  20  22
HETATM   22  C8  UNL     1      23.152  -1.246   1.505  1.00  0.00     0.084 C 
HETATM   23  C9  UNL     1      22.721  -1.789   0.183  1.00  0.00     0.026 C 
HETATM   24  C10 UNL     1      21.844  -3.012   0.262  1.00  0.00     0.009 C 
HETATM   25  C11 UNL     1      22.326  -4.078   1.187  1.00  0.00     0.010 C 
HETATM   26  C14 UNL     1      23.046  -3.484   2.403  1.00  0.00     0.009 C 
HETATM   27  C15 UNL     1      22.483  -2.087   2.574  1.00  0.00     0.026 C 
BRANCH  25  28
HETATM   28  C12 UNL     1      21.170  -4.862   1.759  1.00  0.00     0.182 C 
BRANCH  28  29
HETATM   29  O4  UNL     1      21.315  -5.429   2.967  1.00  0.00    -0.297 OA
BRANCH  29  30
HETATM   30  C13 UNL     1      21.021  -6.726   3.186  1.00  0.00     0.524 C 
HETATM   31  F1  UNL     1      20.278  -6.970   4.292  1.00  0.00    -0.144 F 
HETATM   32  F2  UNL     1      22.215  -7.458   3.366  1.00  0.00    -0.144 F 
HETATM   33  F3  UNL     1      20.453  -7.345   2.052  1.00  0.00    -0.144 F 
ENDBRANCH  29  30
ENDBRANCH  28  29
ENDBRANCH  25  28
ENDBRANCH  20  22
ENDBRANCH   1  18
TORSDOF 9
ENDMDL
