MODEL 1
REMARK VINA RESULT: -6.987709171      0.000      0.000
REMARK  9 active torsions:
REMARK  status: ('A' for Active; 'I' for Inactive)
REMARK    1  A    between atoms: C3_3  and  N1_4 
REMARK    2  A    between atoms: C3_3  and  C16_27 
REMARK    3  A    between atoms: N1_4  and  C4_6 
REMARK    4  A    between atoms: C4_6  and  C5_7 
REMARK    5  A    between atoms: C7_10  and  N2_11 
REMARK       I    between atoms: N2_11  and  C8_13 
REMARK    6  A    between atoms: C8_13  and  C9_15 
REMARK    7  A    between atoms: C9_15  and  O3_17 
REMARK    8  A    between atoms: O3_17  and  C10_18 
REMARK    9  A    between atoms: C14_23  and  C15_24 
ROOT
HETATM    1  C5  UNL     1      23.562  -0.318   0.454  1.00  0.00     0.100 C 
HETATM    2  S1  UNL     1      22.985   0.188   2.094  1.00  0.00    -0.133 SA
HETATM    3  C6  UNL     1      23.578   1.904   1.984  1.00  0.00     0.165 C 
HETATM    4  C7  UNL     1      24.338   2.301   3.218  1.00  0.00     0.119 C 
HETATM    5  C12 UNL     1      25.666   2.794   2.727  1.00  0.00     0.047 C 
HETATM    6  C13 UNL     1      25.842   2.060   1.393  1.00  0.00     0.121 C 
HETATM    7  N3  UNL     1      24.540   1.806   0.960  1.00  0.00    -0.383 N 
HETATM    8  C14 UNL     1      24.216   0.936  -0.045  1.00  0.00     0.197 C 
ENDROOT
BRANCH   1   9
HETATM    9  C4  UNL     1      22.319  -0.657  -0.375  1.00  0.00     0.137 C 
BRANCH   9  10
HETATM   10  N1  UNL     1      22.180  -2.065  -0.555  1.00  0.00    -0.385 N 
ATOM     11  H1  UNL     1      22.233  -2.468  -1.491  1.00  0.00     0.159 HD
BRANCH  10  12
HETATM   12  C3  UNL     1      21.963  -2.929   0.597  1.00  0.00     0.108 C 
HETATM   13  C2  UNL     1      20.838  -2.864   1.240  1.00  0.00     0.003 C 
HETATM   14  C1  UNL     1      20.473  -3.662   2.410  1.00  0.00     0.038 C 
BRANCH  12  15
HETATM   15  C16 UNL     1      23.071  -3.835   0.947  1.00  0.00     0.431 C 
HETATM   16  F1  UNL     1      22.591  -5.136   0.743  1.00  0.00    -0.165 F 
HETATM   17  F2  UNL     1      23.534  -3.657   2.209  1.00  0.00    -0.165 F 
HETATM   18  F3  UNL     1      24.153  -3.636   0.058  1.00  0.00    -0.165 F 
ENDBRANCH  12  15
ENDBRANCH  10  12
ENDBRANCH   9  10
ENDBRANCH   1   9
BRANCH   8  19
HETATM   19  C15 UNL     1      25.347   0.561  -0.911  1.00  0.00     0.197 C 
HETATM   20  O4  UNL     1      25.987  -0.528  -0.644  1.00  0.00    -0.646 OA
HETATM   21  O5  UNL     1      25.830   1.238  -1.999  1.00  0.00    -0.646 OA
ENDBRANCH   8  19
BRANCH   4  22
HETATM   22  N2  UNL     1      24.468   1.209   4.156  1.00  0.00    -0.345 N 
HETATM   23  C8  UNL     1      23.547   1.110   5.230  1.00  0.00     0.317 C 
HETATM   24  O1  UNL     1      22.631   1.958   5.364  1.00  0.00    -0.262 OA
ATOM     25  H2  UNL     1      25.212   0.519   4.047  1.00  0.00     0.163 HD
BRANCH  23  26
HETATM   26  C9  UNL     1      23.613   0.036   6.217  1.00  0.00     0.351 C 
HETATM   27  O2  UNL     1      24.726  -0.347   6.678  1.00  0.00    -0.254 OA
BRANCH  26  28
HETATM   28  O3  UNL     1      22.485  -0.600   6.689  1.00  0.00    -0.314 OA
BRANCH  28  29
HETATM   29  C10 UNL     1      22.170  -1.952   6.456  1.00  0.00     0.175 C 
HETATM   30  C11 UNL     1      22.246  -2.222   4.988  1.00  0.00     0.034 C 
ENDBRANCH  28  29
ENDBRANCH  26  28
ENDBRANCH  23  26
ENDBRANCH   4  22
TORSDOF 9
ENDMDL
MODEL 2
REMARK VINA RESULT: -6.936675627      3.329      4.871
REMARK  9 active torsions:
REMARK  status: ('A' for Active; 'I' for Inactive)
REMARK    1  A    between atoms: C3_3  and  N1_4 
REMARK    2  A    between atoms: C3_3  and  C16_27 
REMARK    3  A    between atoms: N1_4  and  C4_6 
REMARK    4  A    between atoms: C4_6  and  C5_7 
REMARK    5  A    between atoms: C7_10  and  N2_11 
REMARK       I    between atoms: N2_11  and  C8_13 
REMARK    6  A    between atoms: C8_13  and  C9_15 
REMARK    7  A    between atoms: C9_15  and  O3_17 
REMARK    8  A    between atoms: O3_17  and  C10_18 
REMARK    9  A    between atoms: C14_23  and  C15_24 
ROOT
HETATM    1  C5  UNL     1      21.747  -0.518   2.129  1.00  0.00     0.100 C 
HETATM    2  S1  UNL     1      21.387   1.159   1.548  1.00  0.00    -0.133 SA
HETATM    3  C6  UNL     1      22.947   1.898   2.119  1.00  0.00     0.165 C 
HETATM    4  C7  UNL     1      22.704   3.173   2.875  1.00  0.00     0.119 C 
HETATM    5  C12 UNL     1      23.390   2.990   4.196  1.00  0.00     0.047 C 
HETATM    6  C13 UNL     1      23.398   1.468   4.379  1.00  0.00     0.121 C 
HETATM    7  N3  UNL     1      23.370   0.960   3.079  1.00  0.00    -0.383 N 
HETATM    8  C14 UNL     1      23.094  -0.343   2.765  1.00  0.00     0.197 C 
ENDROOT
BRANCH   1   9
HETATM    9  C4  UNL     1      21.838  -1.413   0.889  1.00  0.00     0.137 C 
BRANCH   9  10
HETATM   10  N1  UNL     1      20.871  -2.462   0.930  1.00  0.00    -0.385 N 
ATOM     11  H1  UNL     1      19.973  -2.346   0.462  1.00  0.00     0.159 HD
BRANCH  10  12
HETATM   12  C3  UNL     1      21.166  -3.696   1.643  1.00  0.00     0.108 C 
HETATM   13  C2  UNL     1      20.469  -4.012   2.691  1.00  0.00     0.003 C 
HETATM   14  C1  UNL     1      20.644  -5.211   3.508  1.00  0.00     0.038 C 
BRANCH  12  15
HETATM   15  C16 UNL     1      22.264  -4.514   1.097  1.00  0.00     0.431 C 
HETATM   16  F1  UNL     1      22.346  -4.199  -0.266  1.00  0.00    -0.165 F 
HETATM   17  F2  UNL     1      22.096  -5.844   1.301  1.00  0.00    -0.165 F 
HETATM   18  F3  UNL     1      23.488  -4.136   1.696  1.00  0.00    -0.165 F 
ENDBRANCH  12  15
ENDBRANCH  10  12
ENDBRANCH   9  10
ENDBRANCH   1   9
BRANCH   8  19
HETATM   19  C15 UNL     1      23.199  -1.276   3.900  1.00  0.00     0.197 C 
HETATM   20  O4  UNL     1      24.359  -1.766   4.185  1.00  0.00    -0.646 OA
HETATM   21  O5  UNL     1      22.194  -1.710   4.723  1.00  0.00    -0.646 OA
ENDBRANCH   8  19
BRANCH   4  22
HETATM   22  N2  UNL     1      21.297   3.464   3.020  1.00  0.00    -0.345 N 
HETATM   23  C8  UNL     1      20.825   4.764   2.703  1.00  0.00     0.317 C 
HETATM   24  O1  UNL     1      21.619   5.649   2.300  1.00  0.00    -0.262 OA
ATOM     25  H2  UNL     1      20.651   2.745   3.347  1.00  0.00     0.163 HD
BRANCH  23  26
HETATM   26  C9  UNL     1      19.417   5.133   2.824  1.00  0.00     0.351 C 
HETATM   27  O2  UNL     1      19.080   6.191   3.427  1.00  0.00    -0.254 OA
BRANCH  26  28
HETATM   28  O3  UNL     1      18.406   4.362   2.294  1.00  0.00    -0.314 OA
BRANCH  28  29
HETATM   29  C10 UNL     1      17.849   4.537   1.014  1.00  0.00     0.175 C 
HETATM   30  C11 UNL     1      16.360   4.581   1.134  1.00  0.00     0.034 C 
ENDBRANCH  28  29
ENDBRANCH  26  28
ENDBRANCH  23  26
ENDBRANCH   4  22
TORSDOF 9
ENDMDL
MODEL 3
REMARK VINA RESULT: -6.710246642      3.335      5.445
REMARK  9 active torsions:
REMARK  status: ('A' for Active; 'I' for Inactive)
REMARK    1  A    between atoms: C3_3  and  N1_4 
REMARK    2  A    between atoms: C3_3  and  C16_27 
REMARK    3  A    between atoms: N1_4  and  C4_6 
REMARK    4  A    between atoms: C4_6  and  C5_7 
REMARK    5  A    between atoms: C7_10  and  N2_11 
REMARK       I    between atoms: N2_11  and  C8_13 
REMARK    6  A    between atoms: C8_13  and  C9_15 
REMARK    7  A    between atoms: C9_15  and  O3_17 
REMARK    8  A    between atoms: O3_17  and  C10_18 
REMARK    9  A    between atoms: C14_23  and  C15_24 
ROOT
HETATM    1  C5  UNL     1      22.195  -1.908   3.095  1.00  0.00     0.100 C 
HETATM    2  S1  UNL     1      22.054  -0.600   1.850  1.00  0.00    -0.133 SA
HETATM    3  C6  UNL     1      23.350   0.469   2.546  1.00  0.00     0.165 C 
HETATM    4  C7  UNL     1      22.884   1.892   2.659  1.00  0.00     0.119 C 
HETATM    5  C12 UNL     1      23.103   2.271   4.093  1.00  0.00     0.047 C 
HETATM    6  C13 UNL     1      23.040   0.926   4.825  1.00  0.00     0.121 C 
HETATM    7  N3  UNL     1      23.432  -0.011   3.868  1.00  0.00    -0.383 N 
HETATM    8  C14 UNL     1      23.264  -1.363   3.996  1.00  0.00     0.197 C 
ENDROOT
BRANCH   1   9
HETATM    9  C4  UNL     1      22.677  -3.168   2.371  1.00  0.00     0.137 C 
BRANCH   9  10
HETATM   10  N1  UNL     1      21.584  -3.909   1.831  1.00  0.00    -0.385 N 
ATOM     11  H1  UNL     1      21.103  -3.574   0.996  1.00  0.00     0.159 HD
BRANCH  10  12
HETATM   12  C3  UNL     1      21.154  -5.144   2.471  1.00  0.00     0.108 C 
HETATM   13  C2  UNL     1      20.548  -5.092   3.617  1.00  0.00     0.003 C 
HETATM   14  C1  UNL     1      20.059  -6.238   4.381  1.00  0.00     0.038 C 
BRANCH  12  15
HETATM   15  C16 UNL     1      21.448  -6.390   1.741  1.00  0.00     0.431 C 
HETATM   16  F1  UNL     1      22.264  -7.155   2.585  1.00  0.00    -0.165 F 
HETATM   17  F2  UNL     1      22.024  -6.181   0.531  1.00  0.00    -0.165 F 
HETATM   18  F3  UNL     1      20.253  -7.116   1.530  1.00  0.00    -0.165 F 
ENDBRANCH  12  15
ENDBRANCH  10  12
ENDBRANCH   9  10
ENDBRANCH   1   9
BRANCH   8  19
HETATM   19  C15 UNL     1      22.988  -1.812   5.372  1.00  0.00     0.197 C 
HETATM   20  O4  UNL     1      21.935  -2.528   5.583  1.00  0.00    -0.646 OA
HETATM   21  O5  UNL     1      23.727  -1.562   6.498  1.00  0.00    -0.646 OA
ENDBRANCH   8  19
BRANCH   4  22
HETATM   22  N2  UNL     1      21.507   2.051   2.250  1.00  0.00    -0.345 N 
HETATM   23  C8  UNL     1      21.131   3.215   1.533  1.00  0.00     0.317 C 
HETATM   24  O1  UNL     1      21.983   4.095   1.255  1.00  0.00    -0.262 OA
ATOM     25  H2  UNL     1      20.815   1.336   2.475  1.00  0.00     0.163 HD
BRANCH  23  26
HETATM   26  C9  UNL     1      19.760   3.447   1.086  1.00  0.00     0.351 C 
HETATM   27  O2  UNL     1      19.381   3.058  -0.054  1.00  0.00    -0.254 OA
BRANCH  26  28
HETATM   28  O3  UNL     1      18.829   4.089   1.873  1.00  0.00    -0.314 OA
BRANCH  28  29
HETATM   29  C10 UNL     1      17.985   5.126   1.435  1.00  0.00     0.175 C 
HETATM   30  C11 UNL     1      16.600   4.589   1.270  1.00  0.00     0.034 C 
ENDBRANCH  28  29
ENDBRANCH  26  28
ENDBRANCH  23  26
ENDBRANCH   4  22
TORSDOF 9
ENDMDL
MODEL 4
REMARK VINA RESULT: -6.700038862      2.954      5.295
REMARK  9 active torsions:
REMARK  status: ('A' for Active; 'I' for Inactive)
REMARK    1  A    between atoms: C3_3  and  N1_4 
REMARK    2  A    between atoms: C3_3  and  C16_27 
REMARK    3  A    between atoms: N1_4  and  C4_6 
REMARK    4  A    between atoms: C4_6  and  C5_7 
REMARK    5  A    between atoms: C7_10  and  N2_11 
REMARK       I    between atoms: N2_11  and  C8_13 
REMARK    6  A    between atoms: C8_13  and  C9_15 
REMARK    7  A    between atoms: C9_15  and  O3_17 
REMARK    8  A    between atoms: O3_17  and  C10_18 
REMARK    9  A    between atoms: C14_23  and  C15_24 
ROOT
HETATM    1  C5  UNL     1      22.129  -1.865   3.141  1.00  0.00     0.100 C 
HETATM    2  S1  UNL     1      21.950  -0.528   1.931  1.00  0.00    -0.133 SA
HETATM    3  C6  UNL     1      23.279   0.516   2.603  1.00  0.00     0.165 C 
HETATM    4  C7  UNL     1      22.828   1.939   2.765  1.00  0.00     0.119 C 
HETATM    5  C12 UNL     1      23.103   2.283   4.199  1.00  0.00     0.047 C 
HETATM    6  C13 UNL     1      23.059   0.922   4.902  1.00  0.00     0.121 C 
HETATM    7  N3  UNL     1      23.408   0.005   3.909  1.00  0.00    -0.383 N 
HETATM    8  C14 UNL     1      23.234  -1.348   4.012  1.00  0.00     0.197 C 
ENDROOT
BRANCH   1   9
HETATM    9  C4  UNL     1      22.574  -3.112   2.370  1.00  0.00     0.137 C 
BRANCH   9  10
HETATM   10  N1  UNL     1      21.455  -3.848   1.878  1.00  0.00    -0.385 N 
ATOM     11  H1  UNL     1      20.913  -3.488   1.092  1.00  0.00     0.159 HD
BRANCH  10  12
HETATM   12  C3  UNL     1      21.086  -5.113   2.497  1.00  0.00     0.108 C 
HETATM   13  C2  UNL     1      20.477  -5.110   3.642  1.00  0.00     0.003 C 
HETATM   14  C1  UNL     1      20.044  -6.291   4.386  1.00  0.00     0.038 C 
BRANCH  12  15
HETATM   15  C16 UNL     1      21.443  -6.330   1.747  1.00  0.00     0.431 C 
HETATM   16  F1  UNL     1      22.287  -7.072   2.585  1.00  0.00    -0.165 F 
HETATM   17  F2  UNL     1      22.018  -6.073   0.546  1.00  0.00    -0.165 F 
HETATM   18  F3  UNL     1      20.285  -7.107   1.514  1.00  0.00    -0.165 F 
ENDBRANCH  12  15
ENDBRANCH  10  12
ENDBRANCH   9  10
ENDBRANCH   1   9
BRANCH   8  19
HETATM   19  C15 UNL     1      23.008  -1.828   5.387  1.00  0.00     0.197 C 
HETATM   20  O4  UNL     1      21.980  -2.575   5.613  1.00  0.00    -0.646 OA
HETATM   21  O5  UNL     1      23.769  -1.576   6.498  1.00  0.00    -0.646 OA
ENDBRANCH   8  19
BRANCH   4  22
HETATM   22  N2  UNL     1      21.438   2.116   2.413  1.00  0.00    -0.345 N 
HETATM   23  C8  UNL     1      20.982   3.404   2.033  1.00  0.00     0.317 C 
HETATM   24  O1  UNL     1      21.776   4.377   2.001  1.00  0.00    -0.262 OA
ATOM     25  H2  UNL     1      20.793   1.326   2.439  1.00  0.00     0.163 HD
BRANCH  23  26
HETATM   26  C9  UNL     1      19.593   3.662   1.663  1.00  0.00     0.351 C 
HETATM   27  O2  UNL     1      18.799   4.202   2.484  1.00  0.00    -0.254 OA
BRANCH  26  28
HETATM   28  O3  UNL     1      19.090   3.337   0.422  1.00  0.00    -0.314 OA
BRANCH  28  29
HETATM   29  C10 UNL     1      19.777   3.511  -0.794  1.00  0.00     0.175 C 
HETATM   30  C11 UNL     1      20.120   2.169  -1.354  1.00  0.00     0.034 C 
ENDBRANCH  28  29
ENDBRANCH  26  28
ENDBRANCH  23  26
ENDBRANCH   4  22
TORSDOF 9
ENDMDL
MODEL 5
REMARK VINA RESULT: -6.633243328      3.485      5.016
REMARK  9 active torsions:
REMARK  status: ('A' for Active; 'I' for Inactive)
REMARK    1  A    between atoms: C3_3  and  N1_4 
REMARK    2  A    between atoms: C3_3  and  C16_27 
REMARK    3  A    between atoms: N1_4  and  C4_6 
REMARK    4  A    between atoms: C4_6  and  C5_7 
REMARK    5  A    between atoms: C7_10  and  N2_11 
REMARK       I    between atoms: N2_11  and  C8_13 
REMARK    6  A    between atoms: C8_13  and  C9_15 
REMARK    7  A    between atoms: C9_15  and  O3_17 
REMARK    8  A    between atoms: O3_17  and  C10_18 
REMARK    9  A    between atoms: C14_23  and  C15_24 
ROOT
HETATM    1  C5  UNL     1      21.722  -0.495   2.098  1.00  0.00     0.100 C 
HETATM    2  S1  UNL     1      21.397   1.186   1.507  1.00  0.00    -0.133 SA
HETATM    3  C6  UNL     1      22.982   1.891   2.055  1.00  0.00     0.165 C 
HETATM    4  C7  UNL     1      22.780   3.177   2.804  1.00  0.00     0.119 C 
HETATM    5  C12 UNL     1      23.476   2.987   4.119  1.00  0.00     0.047 C 
HETATM    6  C13 UNL     1      23.447   1.467   4.314  1.00  0.00     0.121 C 
HETATM    7  N3  UNL     1      23.392   0.949   3.019  1.00  0.00    -0.383 N 
HETATM    8  C14 UNL     1      23.080  -0.349   2.718  1.00  0.00     0.197 C 
ENDROOT
BRANCH   1   9
HETATM    9  C4  UNL     1      21.777  -1.402   0.864  1.00  0.00     0.137 C 
BRANCH   9  10
HETATM   10  N1  UNL     1      20.827  -2.463   0.955  1.00  0.00    -0.385 N 
ATOM     11  H1  UNL     1      19.903  -2.357   0.536  1.00  0.00     0.159 HD
BRANCH  10  12
HETATM   12  C3  UNL     1      21.176  -3.696   1.645  1.00  0.00     0.108 C 
HETATM   13  C2  UNL     1      20.485  -4.068   2.677  1.00  0.00     0.003 C 
HETATM   14  C1  UNL     1      20.712  -5.275   3.471  1.00  0.00     0.038 C 
BRANCH  12  15
HETATM   15  C16 UNL     1      22.320  -4.446   1.095  1.00  0.00     0.431 C 
HETATM   16  F1  UNL     1      21.994  -5.803   1.219  1.00  0.00    -0.165 F 
HETATM   17  F2  UNL     1      23.498  -4.149   1.698  1.00  0.00    -0.165 F 
HETATM   18  F3  UNL     1      22.459  -4.165  -0.284  1.00  0.00    -0.165 F 
ENDBRANCH  12  15
ENDBRANCH  10  12
ENDBRANCH   9  10
ENDBRANCH   1   9
BRANCH   8  19
HETATM   19  C15 UNL     1      23.175  -1.275   3.859  1.00  0.00     0.197 C 
HETATM   20  O4  UNL     1      24.333  -1.757   4.162  1.00  0.00    -0.646 OA
HETATM   21  O5  UNL     1      22.161  -1.711   4.671  1.00  0.00    -0.646 OA
ENDBRANCH   8  19
BRANCH   4  22
HETATM   22  N2  UNL     1      21.382   3.504   2.962  1.00  0.00    -0.345 N 
HETATM   23  C8  UNL     1      20.976   4.859   2.864  1.00  0.00     0.317 C 
HETATM   24  O1  UNL     1      21.819   5.762   2.641  1.00  0.00    -0.262 OA
ATOM     25  H2  UNL     1      20.696   2.771   3.143  1.00  0.00     0.163 HD
BRANCH  23  26
HETATM   26  C9  UNL     1      19.581   5.268   3.012  1.00  0.00     0.351 C 
HETATM   27  O2  UNL     1      18.664   4.662   2.391  1.00  0.00    -0.254 OA
BRANCH  26  28
HETATM   28  O3  UNL     1      19.204   6.317   3.824  1.00  0.00    -0.314 OA
BRANCH  28  29
HETATM   29  C10 UNL     1      18.737   7.561   3.363  1.00  0.00     0.175 C 
HETATM   30  C11 UNL     1      18.004   8.245   4.471  1.00  0.00     0.034 C 
ENDBRANCH  28  29
ENDBRANCH  26  28
ENDBRANCH  23  26
ENDBRANCH   4  22
TORSDOF 9
ENDMDL
