MODEL 1
REMARK VINA RESULT: -7.425845891      0.000      0.000
REMARK  6 active torsions:
REMARK  status: ('A' for Active; 'I' for Inactive)
REMARK    1  A    between atoms: N1_2  and  C3_4 
REMARK    2  A    between atoms: C3_4  and  C4_5 
REMARK    3  A    between atoms: C4_5  and  C5_6 
REMARK    4  A    between atoms: C5_6  and  O1_7 
REMARK    5  A    between atoms: O1_7  and  C6_8 
REMARK    6  A    between atoms: C7_9  and  C8_10 
REMARK       I    between atoms: C8_10  and  N2_12 
REMARK       I    between atoms: C9_14  and  N4_16 
REMARK       I    between atoms: C10_18  and  N6_20 
ROOT
HETATM    1  C6  UNL     1     -11.852 -24.494   4.189  1.00  0.00     0.121 A 
HETATM    2  C7  UNL     1     -10.596 -24.965   4.461  1.00  0.00     0.137 A 
HETATM    3  N7  UNL     1     -10.288 -24.473   5.704  1.00  0.00    -0.343 N 
ATOM      4  H7  UNL     1      -9.410 -24.644   6.196  1.00  0.00     0.167 HD
HETATM    5  C13 UNL     1     -11.299 -23.736   6.182  1.00  0.00     0.100 A 
HETATM    6 BR1  UNL     1     -11.376 -22.825   7.876  1.00  0.00    -0.030 Br
HETATM    7  C14 UNL     1     -12.314 -23.716   5.266  1.00  0.00     0.080 A 
HETATM    8 BR2  UNL     1     -14.013 -22.832   5.388  1.00  0.00    -0.045 Br
ENDROOT
BRANCH   2   9
HETATM    9  C8  UNL     1      -9.720 -25.834   3.672  1.00  0.00     0.277 C 
HETATM   10  O2  UNL     1      -9.066 -26.775   4.143  1.00  0.00    -0.266 OA
HETATM   11  N2  UNL     1      -9.593 -25.606   2.277  1.00  0.00    -0.295 N 
HETATM   12  C9  UNL     1     -10.156 -26.376   1.398  1.00  0.00     0.197 C 
ATOM     13  H2  UNL     1      -9.042 -24.810   1.956  1.00  0.00     0.171 HD
HETATM   14  N3  UNL     1     -10.915 -27.472   1.886  1.00  0.00    -0.063 NA
HETATM   15  N4  UNL     1     -10.043 -26.164   0.011  1.00  0.00    -0.304 N 
HETATM   16  C10 UNL     1      -9.048 -25.520  -0.484  1.00  0.00     0.192 C 
ATOM     17  H4  UNL     1     -10.764 -26.529  -0.612  1.00  0.00     0.171 HD
HETATM   18  N5  UNL     1      -8.010 -24.984   0.326  1.00  0.00    -0.063 NA
HETATM   19  N6  UNL     1      -8.986 -25.337  -1.907  1.00  0.00    -0.364 N 
HETATM   20  C11 UNL     1      -9.934 -24.478  -2.592  1.00  0.00     0.151 C 
HETATM   21  C12 UNL     1      -7.945 -26.040  -2.615  1.00  0.00     0.151 C 
ENDBRANCH   2   9
BRANCH   1  22
HETATM   22  O1  UNL     1     -12.626 -24.685   3.066  1.00  0.00    -0.347 OA
BRANCH  22  23
HETATM   23  C5  UNL     1     -13.675 -25.566   2.882  1.00  0.00     0.177 C 
BRANCH  23  24
HETATM   24  C4  UNL     1     -14.579 -25.349   1.712  1.00  0.00     0.057 C 
BRANCH  24  25
HETATM   25  C3  UNL     1     -13.867 -25.760   0.448  1.00  0.00     0.273 C 
BRANCH  25  26
HETATM   26  N1  UNL     1     -14.549 -25.336  -0.745  1.00  0.00     0.080 N 
HETATM   27  C1  UNL     1     -15.974 -25.532  -0.523  1.00  0.00     0.309 C 
HETATM   28  C2  UNL     1     -14.190 -26.111  -1.907  1.00  0.00     0.309 C 
ENDBRANCH  25  26
ENDBRANCH  24  25
ENDBRANCH  23  24
ENDBRANCH  22  23
ENDBRANCH   1  22
TORSDOF 6
ENDMDL
MODEL 2
REMARK VINA RESULT: -6.961972436      4.336      7.523
REMARK  6 active torsions:
REMARK  status: ('A' for Active; 'I' for Inactive)
REMARK    1  A    between atoms: N1_2  and  C3_4 
REMARK    2  A    between atoms: C3_4  and  C4_5 
REMARK    3  A    between atoms: C4_5  and  C5_6 
REMARK    4  A    between atoms: C5_6  and  O1_7 
REMARK    5  A    between atoms: O1_7  and  C6_8 
REMARK    6  A    between atoms: C7_9  and  C8_10 
REMARK       I    between atoms: C8_10  and  N2_12 
REMARK       I    between atoms: C9_14  and  N4_16 
REMARK       I    between atoms: C10_18  and  N6_20 
ROOT
HETATM    1  C6  UNL     1      -9.618 -28.523  -0.097  1.00  0.00     0.121 A 
HETATM    2  C7  UNL     1      -9.749 -27.162  -0.167  1.00  0.00     0.137 A 
HETATM    3  N7  UNL     1     -10.530 -26.931  -1.272  1.00  0.00    -0.343 N 
ATOM      4  H7  UNL     1     -10.813 -26.008  -1.601  1.00  0.00     0.167 HD
HETATM    5  C13 UNL     1     -10.869 -28.087  -1.857  1.00  0.00     0.100 A 
HETATM    6 BR1  UNL     1     -11.950 -28.320  -3.432  1.00  0.00    -0.030 Br
HETATM    7  C14 UNL     1     -10.320 -29.125  -1.157  1.00  0.00     0.080 A 
HETATM    8 BR2  UNL     1     -10.457 -31.007  -1.510  1.00  0.00    -0.045 Br
ENDROOT
BRANCH   2   9
HETATM    9  C8  UNL     1      -9.233 -26.115   0.717  1.00  0.00     0.277 C 
HETATM   10  O2  UNL     1      -8.143 -25.546   0.560  1.00  0.00    -0.266 OA
HETATM   11  N2  UNL     1     -10.009 -25.707   1.833  1.00  0.00    -0.295 N 
HETATM   12  C9  UNL     1     -10.649 -24.579   1.854  1.00  0.00     0.197 C 
ATOM     13  H2  UNL     1     -10.066 -26.322   2.645  1.00  0.00     0.171 HD
HETATM   14  N3  UNL     1     -10.544 -23.752   0.705  1.00  0.00    -0.063 NA
HETATM   15  N4  UNL     1     -11.424 -24.159   2.951  1.00  0.00    -0.304 N 
HETATM   16  C10 UNL     1     -11.196 -24.602   4.135  1.00  0.00     0.192 C 
ATOM     17  H4  UNL     1     -12.181 -23.492   2.803  1.00  0.00     0.171 HD
HETATM   18  N5  UNL     1     -10.159 -25.534   4.411  1.00  0.00    -0.063 NA
HETATM   19  N6  UNL     1     -12.021 -24.137   5.214  1.00  0.00    -0.364 N 
HETATM   20  C11 UNL     1     -13.419 -24.511   5.302  1.00  0.00     0.151 C 
HETATM   21  C12 UNL     1     -11.396 -23.288   6.199  1.00  0.00     0.151 C 
ENDBRANCH   2   9
BRANCH   1  22
HETATM   22  O1  UNL     1      -8.924 -29.281   0.819  1.00  0.00    -0.347 OA
BRANCH  22  23
HETATM   23  C5  UNL     1      -9.254 -29.563   2.131  1.00  0.00     0.177 C 
BRANCH  23  24
HETATM   24  C4  UNL     1      -8.150 -29.620   3.137  1.00  0.00     0.057 C 
BRANCH  24  25
HETATM   25  C3  UNL     1      -7.419 -28.301   3.151  1.00  0.00     0.273 C 
BRANCH  25  26
HETATM   26  N1  UNL     1      -6.027 -28.428   2.813  1.00  0.00     0.080 N 
HETATM   27  C1  UNL     1      -5.283 -27.541   3.695  1.00  0.00     0.309 C 
HETATM   28  C2  UNL     1      -5.735 -28.023   1.459  1.00  0.00     0.309 C 
ENDBRANCH  25  26
ENDBRANCH  24  25
ENDBRANCH  23  24
ENDBRANCH  22  23
ENDBRANCH   1  22
TORSDOF 6
ENDMDL
MODEL 3
REMARK VINA RESULT: -6.906760233      3.744      7.294
REMARK  6 active torsions:
REMARK  status: ('A' for Active; 'I' for Inactive)
REMARK    1  A    between atoms: N1_2  and  C3_4 
REMARK    2  A    between atoms: C3_4  and  C4_5 
REMARK    3  A    between atoms: C4_5  and  C5_6 
REMARK    4  A    between atoms: C5_6  and  O1_7 
REMARK    5  A    between atoms: O1_7  and  C6_8 
REMARK    6  A    between atoms: C7_9  and  C8_10 
REMARK       I    between atoms: C8_10  and  N2_12 
REMARK       I    between atoms: C9_14  and  N4_16 
REMARK       I    between atoms: C10_18  and  N6_20 
ROOT
HETATM    1  C6  UNL     1     -11.280 -25.411  -0.601  1.00  0.00     0.121 A 
HETATM    2  C7  UNL     1     -12.087 -26.052   0.301  1.00  0.00     0.137 A 
HETATM    3  N7  UNL     1     -13.200 -26.421  -0.411  1.00  0.00    -0.343 N 
ATOM      4  H7  UNL     1     -14.000 -26.921  -0.021  1.00  0.00     0.167 HD
HETATM    5  C13 UNL     1     -13.092 -26.033  -1.688  1.00  0.00     0.100 A 
HETATM    6 BR1  UNL     1     -14.373 -26.303  -3.099  1.00  0.00    -0.030 Br
HETATM    7  C14 UNL     1     -11.898 -25.391  -1.865  1.00  0.00     0.080 A 
HETATM    8 BR2  UNL     1     -11.184 -24.618  -3.469  1.00  0.00    -0.045 Br
ENDROOT
BRANCH   2   9
HETATM    9  C8  UNL     1     -11.872 -26.350   1.718  1.00  0.00     0.277 C 
HETATM   10  O2  UNL     1     -11.222 -27.319   2.134  1.00  0.00    -0.266 OA
HETATM   11  N2  UNL     1     -12.432 -25.491   2.699  1.00  0.00    -0.295 N 
HETATM   12  C9  UNL     1     -11.709 -24.655   3.379  1.00  0.00     0.197 C 
ATOM     13  H2  UNL     1     -13.436 -25.531   2.875  1.00  0.00     0.171 HD
HETATM   14  N3  UNL     1     -10.317 -24.628   3.104  1.00  0.00    -0.063 NA
HETATM   15  N4  UNL     1     -12.247 -23.794   4.354  1.00  0.00    -0.304 N 
HETATM   16  C10 UNL     1     -13.346 -24.077   4.956  1.00  0.00     0.192 C 
ATOM     17  H4  UNL     1     -11.756 -22.931   4.586  1.00  0.00     0.171 HD
HETATM   18  N5  UNL     1     -14.081 -25.262   4.680  1.00  0.00    -0.063 NA
HETATM   19  N6  UNL     1     -13.846 -23.161   5.942  1.00  0.00    -0.364 N 
HETATM   20  C11 UNL     1     -14.345 -21.853   5.562  1.00  0.00     0.151 C 
HETATM   21  C12 UNL     1     -13.828 -23.600   7.316  1.00  0.00     0.151 C 
ENDBRANCH   2   9
BRANCH   1  22
HETATM   22  O1  UNL     1     -10.045 -24.835  -0.403  1.00  0.00    -0.347 OA
BRANCH  22  23
HETATM   23  C5  UNL     1      -8.794 -25.400  -0.565  1.00  0.00     0.177 C 
BRANCH  23  24
HETATM   24  C4  UNL     1      -7.866 -25.401   0.606  1.00  0.00     0.057 C 
BRANCH  24  25
HETATM   25  C3  UNL     1      -7.831 -26.780   1.215  1.00  0.00     0.273 C 
BRANCH  25  26
HETATM   26  N1  UNL     1      -7.625 -26.761   2.638  1.00  0.00     0.080 N 
HETATM   27  C1  UNL     1      -6.213 -26.496   2.869  1.00  0.00     0.309 C 
HETATM   28  C2  UNL     1      -7.929 -28.021   3.271  1.00  0.00     0.309 C 
ENDBRANCH  25  26
ENDBRANCH  24  25
ENDBRANCH  23  24
ENDBRANCH  22  23
ENDBRANCH   1  22
TORSDOF 6
ENDMDL
MODEL 4
REMARK VINA RESULT: -6.853240546      2.277      3.176
REMARK  6 active torsions:
REMARK  status: ('A' for Active; 'I' for Inactive)
REMARK    1  A    between atoms: N1_2  and  C3_4 
REMARK    2  A    between atoms: C3_4  and  C4_5 
REMARK    3  A    between atoms: C4_5  and  C5_6 
REMARK    4  A    between atoms: C5_6  and  O1_7 
REMARK    5  A    between atoms: O1_7  and  C6_8 
REMARK    6  A    between atoms: C7_9  and  C8_10 
REMARK       I    between atoms: C8_10  and  N2_12 
REMARK       I    between atoms: C9_14  and  N4_16 
REMARK       I    between atoms: C10_18  and  N6_20 
ROOT
HETATM    1  C6  UNL     1     -12.798 -24.330   4.811  1.00  0.00     0.121 A 
HETATM    2  C7  UNL     1     -11.492 -24.229   4.412  1.00  0.00     0.137 A 
HETATM    3  N7  UNL     1     -10.828 -23.687   5.484  1.00  0.00    -0.343 N 
ATOM      4  H7  UNL     1      -9.829 -23.483   5.506  1.00  0.00     0.167 HD
HETATM    5  C13 UNL     1     -11.675 -23.465   6.497  1.00  0.00     0.100 A 
HETATM    6 BR1  UNL     1     -11.255 -22.720   8.222  1.00  0.00    -0.030 Br
HETATM    7  C14 UNL     1     -12.933 -23.852   6.127  1.00  0.00     0.080 A 
HETATM    8 BR2  UNL     1     -14.554 -23.779   7.152  1.00  0.00    -0.045 Br
ENDROOT
BRANCH   2   9
HETATM    9  C8  UNL     1     -10.854 -24.620   3.153  1.00  0.00     0.277 C 
HETATM   10  O2  UNL     1     -10.737 -23.874   2.171  1.00  0.00    -0.266 OA
HETATM   11  N2  UNL     1     -10.329 -25.932   3.023  1.00  0.00    -0.295 N 
HETATM   12  C9  UNL     1      -9.054 -26.171   3.051  1.00  0.00     0.197 C 
ATOM     13  H2  UNL     1     -10.975 -26.712   2.902  1.00  0.00     0.171 HD
HETATM   14  N3  UNL     1      -8.189 -25.059   3.221  1.00  0.00    -0.063 NA
HETATM   15  N4  UNL     1      -8.515 -27.465   2.925  1.00  0.00    -0.304 N 
HETATM   16  C10 UNL     1      -9.164 -28.400   2.330  1.00  0.00     0.192 C 
ATOM     17  H4  UNL     1      -7.593 -27.664   3.313  1.00  0.00     0.171 HD
HETATM   18  N5  UNL     1     -10.453 -28.193   1.768  1.00  0.00    -0.063 NA
HETATM   19  N6  UNL     1      -8.562 -29.700   2.231  1.00  0.00    -0.364 N 
HETATM   20  C11 UNL     1      -8.372 -30.527   3.408  1.00  0.00     0.151 C 
HETATM   21  C12 UNL     1      -8.161 -30.140   0.918  1.00  0.00     0.151 C 
ENDBRANCH   2   9
BRANCH   1  22
HETATM   22  O1  UNL     1     -13.885 -24.801   4.110  1.00  0.00    -0.347 OA
BRANCH  22  23
HETATM   23  C5  UNL     1     -13.922 -25.774   3.129  1.00  0.00     0.177 C 
BRANCH  23  24
HETATM   24  C4  UNL     1     -14.385 -25.380   1.764  1.00  0.00     0.057 C 
BRANCH  24  25
HETATM   25  C3  UNL     1     -13.357 -25.805   0.746  1.00  0.00     0.273 C 
BRANCH  25  26
HETATM   26  N1  UNL     1     -13.917 -26.027  -0.559  1.00  0.00     0.080 N 
HETATM   27  C1  UNL     1     -13.102 -25.290  -1.513  1.00  0.00     0.309 C 
HETATM   28  C2  UNL     1     -15.268 -25.537  -0.686  1.00  0.00     0.309 C 
ENDBRANCH  25  26
ENDBRANCH  24  25
ENDBRANCH  23  24
ENDBRANCH  22  23
ENDBRANCH   1  22
TORSDOF 6
ENDMDL
MODEL 5
REMARK VINA RESULT: -6.798688052      3.305      5.950
REMARK  6 active torsions:
REMARK  status: ('A' for Active; 'I' for Inactive)
REMARK    1  A    between atoms: N1_2  and  C3_4 
REMARK    2  A    between atoms: C3_4  and  C4_5 
REMARK    3  A    between atoms: C4_5  and  C5_6 
REMARK    4  A    between atoms: C5_6  and  O1_7 
REMARK    5  A    between atoms: O1_7  and  C6_8 
REMARK    6  A    between atoms: C7_9  and  C8_10 
REMARK       I    between atoms: C8_10  and  N2_12 
REMARK       I    between atoms: C9_14  and  N4_16 
REMARK       I    between atoms: C10_18  and  N6_20 
ROOT
HETATM    1  C6  UNL     1     -10.417 -25.273   0.236  1.00  0.00     0.121 A 
HETATM    2  C7  UNL     1      -9.746 -26.043   1.149  1.00  0.00     0.137 A 
HETATM    3  N7  UNL     1      -8.585 -26.418   0.520  1.00  0.00    -0.343 N 
ATOM      4  H7  UNL     1      -7.862 -27.003   0.938  1.00  0.00     0.167 HD
HETATM    5  C13 UNL     1      -8.535 -25.908  -0.716  1.00  0.00     0.100 A 
HETATM    6 BR1  UNL     1      -7.127 -26.131  -2.011  1.00  0.00    -0.030 Br
HETATM    7  C14 UNL     1      -9.666 -25.176  -0.949  1.00  0.00     0.080 A 
HETATM    8 BR2  UNL     1     -10.158 -24.211  -2.533  1.00  0.00    -0.045 Br
ENDROOT
BRANCH   2   9
HETATM    9  C8  UNL     1     -10.100 -26.405   2.523  1.00  0.00     0.277 C 
HETATM   10  O2  UNL     1      -9.628 -27.377   3.130  1.00  0.00    -0.266 OA
HETATM   11  N2  UNL     1     -11.040 -25.610   3.227  1.00  0.00    -0.295 N 
HETATM   12  C9  UNL     1     -10.684 -24.790   4.168  1.00  0.00     0.197 C 
ATOM     13  H2  UNL     1     -12.028 -25.685   2.986  1.00  0.00     0.171 HD
HETATM   14  N3  UNL     1      -9.300 -24.714   4.474  1.00  0.00    -0.063 NA
HETATM   15  N4  UNL     1     -11.603 -23.993   4.877  1.00  0.00    -0.304 N 
HETATM   16  C10 UNL     1     -12.837 -24.333   4.980  1.00  0.00     0.192 C 
ATOM     17  H4  UNL     1     -11.282 -23.130   5.316  1.00  0.00     0.171 HD
HETATM   18  N5  UNL     1     -13.350 -25.521   4.392  1.00  0.00    -0.063 NA
HETATM   19  N6  UNL     1     -13.727 -23.479   5.715  1.00  0.00    -0.364 N 
HETATM   20  C11 UNL     1     -14.090 -22.168   5.214  1.00  0.00     0.151 C 
HETATM   21  C12 UNL     1     -14.239 -23.986   6.965  1.00  0.00     0.151 C 
ENDBRANCH   2   9
BRANCH   1  22
HETATM   22  O1  UNL     1     -11.641 -24.655   0.356  1.00  0.00    -0.347 OA
BRANCH  22  23
HETATM   23  C5  UNL     1     -12.895 -25.232   0.422  1.00  0.00     0.177 C 
BRANCH  23  24
HETATM   24  C4  UNL     1     -13.255 -26.253  -0.608  1.00  0.00     0.057 C 
BRANCH  24  25
HETATM   25  C3  UNL     1     -14.195 -25.638  -1.614  1.00  0.00     0.273 C 
BRANCH  25  26
HETATM   26  N1  UNL     1     -13.949 -26.085  -2.959  1.00  0.00     0.080 N 
HETATM   27  C1  UNL     1     -15.150 -26.768  -3.415  1.00  0.00     0.309 C 
HETATM   28  C2  UNL     1     -12.863 -27.029  -3.051  1.00  0.00     0.309 C 
ENDBRANCH  25  26
ENDBRANCH  24  25
ENDBRANCH  23  24
ENDBRANCH  22  23
ENDBRANCH   1  22
TORSDOF 6
ENDMDL
