MODEL 1
REMARK VINA RESULT: -6.514933967      0.000      0.000
REMARK  7 active torsions:
REMARK  status: ('A' for Active; 'I' for Inactive)
REMARK    1  A    between atoms: C2_2  and  N1_3 
REMARK    2  A    between atoms: N1_3  and  C3_5 
REMARK    3  A    between atoms: N1_3  and  C6_9 
REMARK    4  A    between atoms: C3_5  and  C4_6 
REMARK    5  A    between atoms: C4_6  and  O1_7 
REMARK    6  A    between atoms: C6_9  and  C7_10 
REMARK       I    between atoms: C7_10  and  N2_12 
REMARK    7  A    between atoms: C9_17  and  N4_18 
ROOT
HETATM    1  C7  UNL     1      -9.961 -26.788   1.320  1.00  0.00     0.250 C 
HETATM    2  O2  UNL     1      -9.463 -25.905   0.578  1.00  0.00    -0.271 OA
HETATM    3  N2  UNL     1     -10.901 -26.356   2.247  1.00  0.00    -0.310 N 
ATOM      4  H2  UNL     1     -10.482 -26.325   3.177  1.00  0.00     0.170 HD
HETATM    5  C8  UNL     1     -12.069 -26.000   2.306  1.00  0.00     0.143 A 
HETATM    6  N3  UNL     1     -12.585 -25.643   3.531  1.00  0.00    -0.175 N 
ATOM      7  H3  UNL     1     -11.972 -25.688   4.344  1.00  0.00     0.186 HD
HETATM    8  C9  UNL     1     -13.839 -25.242   3.709  1.00  0.00     0.678 A 
HETATM    9  N5  UNL     1     -14.665 -25.176   2.651  1.00  0.00    -0.184 N 
ATOM     10  H5  UNL     1     -15.627 -24.869   2.793  1.00  0.00     0.185 HD
HETATM   11  C10 UNL     1     -14.263 -25.502   1.416  1.00  0.00     0.117 A 
HETATM   12 BR2  UNL     1     -15.439 -25.406  -0.081  1.00  0.00    -0.029 Br
HETATM   13  C11 UNL     1     -12.934 -25.921   1.254  1.00  0.00     0.090 A 
HETATM   14 BR3  UNL     1     -12.391 -26.381  -0.525  1.00  0.00    -0.044 Br
ENDROOT
BRANCH   1  15
HETATM   15  C6  UNL     1      -9.643 -28.216   1.303  1.00  0.00     0.354 C 
BRANCH  15  16
HETATM   16  N1  UNL     1      -8.495 -28.681   2.003  1.00  0.00    -0.001 N 
HETATM   17 BR1  UNL     1      -7.522 -29.633   0.577  1.00  0.00     0.165 Br
BRANCH  16  18
HETATM   18  C2  UNL     1      -8.714 -29.750   2.937  1.00  0.00     0.247 C 
HETATM   19  C1  UNL     1      -7.392 -30.407   3.310  1.00  0.00     0.036 C 
ENDBRANCH  16  18
BRANCH  16  20
HETATM   20  C3  UNL     1      -7.570 -27.681   2.398  1.00  0.00     0.278 C 
BRANCH  20  21
HETATM   21  C4  UNL     1      -6.377 -27.430   1.580  1.00  0.00     0.196 C 
BRANCH  21  22
HETATM   22  O1  UNL     1      -5.150 -27.443   2.218  1.00  0.00    -0.394 OA
HETATM   23  C5  UNL     1      -5.261 -27.400   3.623  1.00  0.00     0.201 C 
ENDBRANCH  21  22
ENDBRANCH  20  21
ENDBRANCH  16  20
ENDBRANCH  15  16
ENDBRANCH   1  15
BRANCH   8  24
HETATM   24  N4  UNL     1     -14.292 -24.910   4.888  1.00  0.00    -0.234 N 
ATOM     25  H42 UNL     1     -15.287 -25.016   5.083  1.00  0.00     0.174 HD
ATOM     26  H41 UNL     1     -13.677 -24.547   5.616  1.00  0.00     0.174 HD
ENDBRANCH   8  24
TORSDOF 7
ENDMDL
MODEL 2
REMARK VINA RESULT: -6.475946228      1.700      1.982
REMARK  7 active torsions:
REMARK  status: ('A' for Active; 'I' for Inactive)
REMARK    1  A    between atoms: C2_2  and  N1_3 
REMARK    2  A    between atoms: N1_3  and  C3_5 
REMARK    3  A    between atoms: N1_3  and  C6_9 
REMARK    4  A    between atoms: C3_5  and  C4_6 
REMARK    5  A    between atoms: C4_6  and  O1_7 
REMARK    6  A    between atoms: C6_9  and  C7_10 
REMARK       I    between atoms: C7_10  and  N2_12 
REMARK    7  A    between atoms: C9_17  and  N4_18 
ROOT
HETATM    1  C7  UNL     1     -10.171 -26.000   0.326  1.00  0.00     0.250 C 
HETATM    2  O2  UNL     1      -9.933 -25.004  -0.402  1.00  0.00    -0.271 OA
HETATM    3  N2  UNL     1     -11.037 -25.791   1.392  1.00  0.00    -0.310 N 
ATOM      4  H2  UNL     1     -10.509 -25.738   2.263  1.00  0.00     0.170 HD
HETATM    5  C8  UNL     1     -12.230 -25.651   1.620  1.00  0.00     0.143 A 
HETATM    6  N3  UNL     1     -12.629 -25.457   2.923  1.00  0.00    -0.175 N 
ATOM      7  H3  UNL     1     -11.913 -25.437   3.649  1.00  0.00     0.186 HD
HETATM    8  C9  UNL     1     -13.897 -25.294   3.284  1.00  0.00     0.678 A 
HETATM    9  N5  UNL     1     -14.857 -25.318   2.343  1.00  0.00    -0.184 N 
ATOM     10  H5  UNL     1     -15.829 -25.194   2.626  1.00  0.00     0.185 HD
HETATM   11  C10 UNL     1     -14.576 -25.500   1.047  1.00  0.00     0.117 A 
HETATM   12 BR2  UNL     1     -15.941 -25.532  -0.282  1.00  0.00    -0.029 Br
HETATM   13  C11 UNL     1     -13.229 -25.669   0.691  1.00  0.00     0.090 A 
HETATM   14 BR3  UNL     1     -12.860 -25.929  -1.170  1.00  0.00    -0.044 Br
ENDROOT
BRANCH   1  15
HETATM   15  C6  UNL     1      -9.623 -27.346   0.160  1.00  0.00     0.354 C 
BRANCH  15  16
HETATM   16  N1  UNL     1      -8.541 -27.762   0.986  1.00  0.00    -0.001 N 
HETATM   17 BR1  UNL     1      -7.097 -27.983  -0.339  1.00  0.00     0.165 Br
BRANCH  16  18
HETATM   18  C2  UNL     1      -8.626 -29.096   1.514  1.00  0.00     0.247 C 
HETATM   19  C1  UNL     1     -10.081 -29.506   1.686  1.00  0.00     0.036 C 
ENDBRANCH  16  18
BRANCH  16  20
HETATM   20  C3  UNL     1      -8.017 -26.773   1.856  1.00  0.00     0.278 C 
BRANCH  20  21
HETATM   21  C4  UNL     1      -8.261 -26.871   3.300  1.00  0.00     0.196 C 
BRANCH  21  22
HETATM   22  O1  UNL     1      -9.520 -26.530   3.760  1.00  0.00    -0.394 OA
HETATM   23  C5  UNL     1      -9.519 -25.361   4.548  1.00  0.00     0.201 C 
ENDBRANCH  21  22
ENDBRANCH  20  21
ENDBRANCH  16  20
ENDBRANCH  15  16
ENDBRANCH   1  15
BRANCH   8  24
HETATM   24  N4  UNL     1     -14.238 -25.112   4.531  1.00  0.00    -0.234 N 
ATOM     25  H42 UNL     1     -13.507 -24.968   5.228  1.00  0.00     0.174 HD
ATOM     26  H41 UNL     1     -15.214 -25.109   4.826  1.00  0.00     0.174 HD
ENDBRANCH   8  24
TORSDOF 7
ENDMDL
MODEL 3
REMARK VINA RESULT: -6.358621312      4.059      7.612
REMARK  7 active torsions:
REMARK  status: ('A' for Active; 'I' for Inactive)
REMARK    1  A    between atoms: C2_2  and  N1_3 
REMARK    2  A    between atoms: N1_3  and  C3_5 
REMARK    3  A    between atoms: N1_3  and  C6_9 
REMARK    4  A    between atoms: C3_5  and  C4_6 
REMARK    5  A    between atoms: C4_6  and  O1_7 
REMARK    6  A    between atoms: C6_9  and  C7_10 
REMARK       I    between atoms: C7_10  and  N2_12 
REMARK    7  A    between atoms: C9_17  and  N4_18 
ROOT
HETATM    1  C7  UNL     1     -12.757 -24.978   4.201  1.00  0.00     0.250 C 
HETATM    2  O2  UNL     1     -13.540 -25.945   4.027  1.00  0.00    -0.271 OA
HETATM    3  N2  UNL     1     -11.400 -25.256   4.094  1.00  0.00    -0.310 N 
ATOM      4  H2  UNL     1     -10.980 -25.293   5.023  1.00  0.00     0.170 HD
HETATM    5  C8  UNL     1     -10.549 -25.470   3.244  1.00  0.00     0.143 A 
HETATM    6  N3  UNL     1      -9.257 -25.709   3.656  1.00  0.00    -0.175 N 
ATOM      7  H3  UNL     1      -9.060 -25.700   4.656  1.00  0.00     0.186 HD
HETATM    8  C9  UNL     1      -8.254 -25.953   2.819  1.00  0.00     0.678 A 
HETATM    9  N5  UNL     1      -8.492 -25.970   1.496  1.00  0.00    -0.184 N 
ATOM     10  H5  UNL     1      -7.719 -26.156   0.857  1.00  0.00     0.185 HD
HETATM   11  C10 UNL     1      -9.712 -25.749   0.991  1.00  0.00     0.117 A 
HETATM   12 BR2  UNL     1     -10.042 -25.775  -0.886  1.00  0.00    -0.029 Br
HETATM   13  C11 UNL     1     -10.754 -25.495   1.896  1.00  0.00     0.090 A 
HETATM   14 BR3  UNL     1     -12.487 -25.182   1.142  1.00  0.00    -0.044 Br
ENDROOT
BRANCH   1  15
HETATM   15  C6  UNL     1     -13.138 -23.599   4.507  1.00  0.00     0.354 C 
BRANCH  15  16
HETATM   16  N1  UNL     1     -13.309 -23.211   5.865  1.00  0.00    -0.001 N 
HETATM   17 BR1  UNL     1     -14.339 -21.541   5.671  1.00  0.00     0.165 Br
BRANCH  16  18
HETATM   18  C2  UNL     1     -12.135 -22.725   6.537  1.00  0.00     0.247 C 
HETATM   19  C1  UNL     1     -11.788 -23.624   7.715  1.00  0.00     0.036 C 
ENDBRANCH  16  18
BRANCH  16  20
HETATM   20  C3  UNL     1     -14.179 -24.026   6.632  1.00  0.00     0.278 C 
BRANCH  20  21
HETATM   21  C4  UNL     1     -15.409 -23.453   7.192  1.00  0.00     0.196 C 
BRANCH  21  22
HETATM   22  O1  UNL     1     -15.784 -23.858   8.461  1.00  0.00    -0.394 OA
HETATM   23  C5  UNL     1     -17.104 -23.486   8.788  1.00  0.00     0.201 C 
ENDBRANCH  21  22
ENDBRANCH  20  21
ENDBRANCH  16  20
ENDBRANCH  15  16
ENDBRANCH   1  15
BRANCH   8  24
HETATM   24  N4  UNL     1      -7.042 -26.177   3.247  1.00  0.00    -0.234 N 
ATOM     25  H42 UNL     1      -6.609 -25.505   3.881  1.00  0.00     0.174 HD
ATOM     26  H41 UNL     1      -6.518 -27.005   2.965  1.00  0.00     0.174 HD
ENDBRANCH   8  24
TORSDOF 7
ENDMDL
MODEL 4
REMARK VINA RESULT: -6.344754540      4.169      6.880
REMARK  7 active torsions:
REMARK  status: ('A' for Active; 'I' for Inactive)
REMARK    1  A    between atoms: C2_2  and  N1_3 
REMARK    2  A    between atoms: N1_3  and  C3_5 
REMARK    3  A    between atoms: N1_3  and  C6_9 
REMARK    4  A    between atoms: C3_5  and  C4_6 
REMARK    5  A    between atoms: C4_6  and  O1_7 
REMARK    6  A    between atoms: C6_9  and  C7_10 
REMARK       I    between atoms: C7_10  and  N2_12 
REMARK    7  A    between atoms: C9_17  and  N4_18 
ROOT
HETATM    1  C7  UNL     1     -13.042 -24.796   3.989  1.00  0.00     0.250 C 
HETATM    2  O2  UNL     1     -13.497 -25.922   4.310  1.00  0.00    -0.271 OA
HETATM    3  N2  UNL     1     -11.919 -24.796   3.170  1.00  0.00    -0.310 N 
ATOM      4  H2  UNL     1     -11.090 -24.570   3.720  1.00  0.00     0.170 HD
HETATM    5  C8  UNL     1     -11.607 -24.979   2.003  1.00  0.00     0.143 A 
HETATM    6  N3  UNL     1     -10.281 -24.859   1.652  1.00  0.00    -0.175 N 
ATOM      7  H3  UNL     1      -9.609 -24.622   2.381  1.00  0.00     0.186 HD
HETATM    8  C9  UNL     1      -9.832 -25.036   0.414  1.00  0.00     0.678 A 
HETATM    9  N5  UNL     1     -10.701 -25.348  -0.562  1.00  0.00    -0.184 N 
ATOM     10  H5  UNL     1     -10.351 -25.481  -1.511  1.00  0.00     0.185 HD
HETATM   11  C10 UNL     1     -12.012 -25.488  -0.328  1.00  0.00     0.117 A 
HETATM   12 BR2  UNL     1     -13.239 -25.931  -1.717  1.00  0.00    -0.029 Br
HETATM   13  C11 UNL     1     -12.461 -25.296   0.988  1.00  0.00     0.090 A 
HETATM   14 BR3  UNL     1     -14.342 -25.503   1.289  1.00  0.00    -0.044 Br
ENDROOT
BRANCH   1  15
HETATM   15  C6  UNL     1     -13.576 -23.497   4.395  1.00  0.00     0.354 C 
BRANCH  15  16
HETATM   16  N1  UNL     1     -13.282 -23.001   5.696  1.00  0.00    -0.001 N 
HETATM   17 BR1  UNL     1     -14.617 -23.953   6.792  1.00  0.00     0.165 Br
BRANCH  16  18
HETATM   18  C2  UNL     1     -13.652 -21.636   5.951  1.00  0.00     0.247 C 
HETATM   19  C1  UNL     1     -15.159 -21.464   5.830  1.00  0.00     0.036 C 
ENDBRANCH  16  18
BRANCH  16  20
HETATM   20  C3  UNL     1     -12.054 -23.434   6.256  1.00  0.00     0.278 C 
BRANCH  20  21
HETATM   21  C4  UNL     1     -12.042 -24.084   7.572  1.00  0.00     0.196 C 
BRANCH  21  22
HETATM   22  O1  UNL     1     -11.610 -23.335   8.652  1.00  0.00    -0.394 OA
HETATM   23  C5  UNL     1     -10.837 -22.219   8.271  1.00  0.00     0.201 C 
ENDBRANCH  21  22
ENDBRANCH  20  21
ENDBRANCH  16  20
ENDBRANCH  15  16
ENDBRANCH   1  15
BRANCH   8  24
HETATM   24  N4  UNL     1      -8.565 -24.915   0.121  1.00  0.00    -0.234 N 
ATOM     25  H42 UNL     1      -8.108 -24.015   0.264  1.00  0.00     0.174 HD
ATOM     26  H41 UNL     1      -8.024 -25.696  -0.248  1.00  0.00     0.174 HD
ENDBRANCH   8  24
TORSDOF 7
ENDMDL
MODEL 5
REMARK VINA RESULT: -6.307014574      1.629      2.304
REMARK  7 active torsions:
REMARK  status: ('A' for Active; 'I' for Inactive)
REMARK    1  A    between atoms: C2_2  and  N1_3 
REMARK    2  A    between atoms: N1_3  and  C3_5 
REMARK    3  A    between atoms: N1_3  and  C6_9 
REMARK    4  A    between atoms: C3_5  and  C4_6 
REMARK    5  A    between atoms: C4_6  and  O1_7 
REMARK    6  A    between atoms: C6_9  and  C7_10 
REMARK       I    between atoms: C7_10  and  N2_12 
REMARK    7  A    between atoms: C9_17  and  N4_18 
ROOT
HETATM    1  C7  UNL     1      -9.958 -25.932   0.954  1.00  0.00     0.250 C 
HETATM    2  O2  UNL     1      -9.668 -24.934   0.247  1.00  0.00    -0.271 OA
HETATM    3  N2  UNL     1     -10.904 -25.727   1.950  1.00  0.00    -0.310 N 
ATOM      4  H2  UNL     1     -10.444 -25.674   2.859  1.00  0.00     0.170 HD
HETATM    5  C8  UNL     1     -12.111 -25.591   2.087  1.00  0.00     0.143 A 
HETATM    6  N3  UNL     1     -12.609 -25.401   3.356  1.00  0.00    -0.175 N 
ATOM      7  H3  UNL     1     -11.951 -25.379   4.135  1.00  0.00     0.186 HD
HETATM    8  C9  UNL     1     -13.902 -25.242   3.619  1.00  0.00     0.678 A 
HETATM    9  N5  UNL     1     -14.787 -25.268   2.608  1.00  0.00    -0.184 N 
ATOM     10  H5  UNL     1     -15.778 -25.147   2.815  1.00  0.00     0.185 HD
HETATM   11  C10 UNL     1     -14.406 -25.447   1.337  1.00  0.00     0.117 A 
HETATM   12 BR2  UNL     1     -15.666 -25.481  -0.093  1.00  0.00    -0.029 Br
HETATM   13  C11 UNL     1     -13.036 -25.611   1.085  1.00  0.00     0.090 A 
HETATM   14 BR3  UNL     1     -12.525 -25.867  -0.744  1.00  0.00    -0.044 Br
ENDROOT
BRANCH   1  15
HETATM   15  C6  UNL     1      -9.395 -27.276   0.829  1.00  0.00     0.354 C 
BRANCH  15  16
HETATM   16  N1  UNL     1      -8.056 -27.511   1.251  1.00  0.00    -0.001 N 
HETATM   17 BR1  UNL     1      -7.972 -26.443   2.908  1.00  0.00     0.165 Br
BRANCH  16  18
HETATM   18  C2  UNL     1      -7.027 -26.878   0.473  1.00  0.00     0.247 C 
HETATM   19  C1  UNL     1      -6.244 -25.895   1.331  1.00  0.00     0.036 C 
ENDBRANCH  16  18
BRANCH  16  20
HETATM   20  C3  UNL     1      -7.779 -28.823   1.712  1.00  0.00     0.278 C 
BRANCH  20  21
HETATM   21  C4  UNL     1      -8.770 -29.532   2.529  1.00  0.00     0.196 C 
BRANCH  21  22
HETATM   22  O1  UNL     1      -8.302 -30.465   3.437  1.00  0.00    -0.394 OA
HETATM   23  C5  UNL     1      -6.896 -30.575   3.435  1.00  0.00     0.201 C 
ENDBRANCH  21  22
ENDBRANCH  20  21
ENDBRANCH  16  20
ENDBRANCH  15  16
ENDBRANCH   1  15
BRANCH   8  24
HETATM   24  N4  UNL     1     -14.337 -25.063   4.837  1.00  0.00    -0.234 N 
ATOM     25  H42 UNL     1     -14.681 -24.142   5.109  1.00  0.00     0.174 HD
ATOM     26  H41 UNL     1     -14.341 -25.818   5.522  1.00  0.00     0.174 HD
ENDBRANCH   8  24
TORSDOF 7
ENDMDL
