MODEL 1
REMARK VINA RESULT: -8.349593439      0.000      0.000
REMARK  10 active torsions:
REMARK  status: ('A' for Active; 'I' for Inactive)
REMARK    1  A    between atoms: C5_5  and  S1_6 
REMARK    2  A    between atoms: S1_6  and  N1_9 
REMARK    3  A    between atoms: N1_9  and  C6_11 
REMARK    4  A    between atoms: C11_16  and  C12_17 
REMARK    5  A    between atoms: C12_17  and  O3_19 
REMARK    6  A    between atoms: O3_19  and  C13_20 
REMARK    7  A    between atoms: C13_20  and  C14_21 
REMARK    8  A    between atoms: C15_24  and  C16_25 
REMARK    9  A    between atoms: C19_28  and  O4_29 
REMARK   10  A    between atoms: O4_29  and  C20_30 
ROOT
HETATM    1  C12 UNL     1      -3.573  -1.075  14.601  1.00  0.00     0.149 C 
HETATM    2  S2  UNL     1      -4.808  -1.409  15.642  1.00  0.00    -0.052 SA
ENDROOT
BRANCH   1   3
HETATM    3  C11 UNL     1      -2.587  -2.170  14.435  1.00  0.00     0.036 A 
HETATM    4  C6  UNL     1      -1.358  -2.111  15.054  1.00  0.00     0.056 A 
HETATM    5  C7  UNL     1      -0.475  -3.150  14.872  1.00  0.00     0.031 A 
HETATM    6  C8  UNL     1      -0.839  -4.218  14.080  1.00  0.00     0.002 A 
HETATM    7  C9  UNL     1      -2.060  -4.296  13.454  1.00  0.00     0.001 A 
HETATM    8  C10 UNL     1      -2.931  -3.244  13.649  1.00  0.00     0.017 A 
BRANCH   4   9
HETATM    9  N1  UNL     1      -1.050  -0.973  15.849  1.00  0.00    -0.280 N 
ATOM     10  H1  UNL     1      -0.754  -0.131  15.355  1.00  0.00     0.179 HD
BRANCH   9  11
HETATM   11  S1  UNL     1      -1.126  -0.878  17.544  1.00  0.00     0.263 S 
HETATM   12  O1  UNL     1      -1.448  -2.254  18.109  1.00  0.00    -0.200 OA
HETATM   13  O2  UNL     1      -2.306  -0.014  17.970  1.00  0.00    -0.200 OA
BRANCH  11  14
HETATM   14  C5  UNL     1       0.276  -0.238  18.312  1.00  0.00     0.079 A 
HETATM   15  C4  UNL     1       0.413  -0.264  19.670  1.00  0.00     0.026 A 
HETATM   16  C3  UNL     1       1.539   0.249  20.279  1.00  0.00     0.008 A 
HETATM   17  C2  UNL     1       2.549   0.801  19.537  1.00  0.00    -0.062 A 
HETATM   18  C1  UNL     1       3.765   1.356  20.214  1.00  0.00     0.048 C 
HETATM   19  C24 UNL     1       2.424   0.836  18.164  1.00  0.00     0.008 A 
HETATM   20  C23 UNL     1       1.303   0.324  17.545  1.00  0.00     0.026 A 
ENDBRANCH  11  14
ENDBRANCH   9  11
ENDBRANCH   4   9
ENDBRANCH   1   3
BRANCH   1  21
HETATM   21  O3  UNL     1      -3.470   0.122  13.943  1.00  0.00    -0.332 OA
BRANCH  21  22
HETATM   22  C13 UNL     1      -4.126   1.307  14.298  1.00  0.00     0.263 C 
BRANCH  22  23
HETATM   23  C14 UNL     1      -3.172   2.289  14.930  1.00  0.00     0.172 A 
HETATM   24  N2  UNL     1      -2.426   2.102  16.031  1.00  0.00    -0.321 N 
HETATM   25  C15 UNL     1      -1.723   3.212  16.252  1.00  0.00     0.137 A 
ATOM     26  H2  UNL     1      -2.403   1.257  16.600  1.00  0.00     0.169 HD
HETATM   27  N3  UNL     1      -2.061   4.061  15.266  1.00  0.00    -0.242 N 
HETATM   28  O5  UNL     1      -2.928   3.497  14.481  1.00  0.00    -0.220 OA
ATOM     29  H3  UNL     1      -1.692   5.005  15.153  1.00  0.00     0.196 HD
BRANCH  25  30
HETATM   30  C16 UNL     1      -0.767   3.496  17.331  1.00  0.00     0.010 A 
HETATM   31  C17 UNL     1      -1.115   3.237  18.625  1.00  0.00     0.018 A 
HETATM   32  C18 UNL     1      -0.272   3.480  19.666  1.00  0.00     0.038 A 
HETATM   33  C19 UNL     1       0.988   4.007  19.440  1.00  0.00     0.074 A 
HETATM   34  C21 UNL     1       1.345   4.271  18.139  1.00  0.00     0.038 A 
HETATM   35  C22 UNL     1       0.467   4.015  17.079  1.00  0.00     0.018 A 
BRANCH  33  36
HETATM   36  O4  UNL     1       1.778   4.222  20.547  1.00  0.00    -0.290 OA
BRANCH  36  37
HETATM   37  C20 UNL     1       2.835   5.103  20.696  1.00  0.00     0.505 C 
HETATM   38  F1  UNL     1       3.809   4.773  19.771  1.00  0.00    -0.184 F 
HETATM   39  F2  UNL     1       3.341   5.133  21.980  1.00  0.00    -0.184 F 
ENDBRANCH  36  37
ENDBRANCH  33  36
ENDBRANCH  25  30
ENDBRANCH  22  23
ENDBRANCH  21  22
ENDBRANCH   1  21
TORSDOF 10
ENDMDL
MODEL 2
REMARK VINA RESULT: -8.145541909      0.527      1.284
REMARK  10 active torsions:
REMARK  status: ('A' for Active; 'I' for Inactive)
REMARK    1  A    between atoms: C5_5  and  S1_6 
REMARK    2  A    between atoms: S1_6  and  N1_9 
REMARK    3  A    between atoms: N1_9  and  C6_11 
REMARK    4  A    between atoms: C11_16  and  C12_17 
REMARK    5  A    between atoms: C12_17  and  O3_19 
REMARK    6  A    between atoms: O3_19  and  C13_20 
REMARK    7  A    between atoms: C13_20  and  C14_21 
REMARK    8  A    between atoms: C15_24  and  C16_25 
REMARK    9  A    between atoms: C19_28  and  O4_29 
REMARK   10  A    between atoms: O4_29  and  C20_30 
ROOT
HETATM    1  C12 UNL     1      -3.634  -1.230  14.724  1.00  0.00     0.149 C 
HETATM    2  S2  UNL     1      -4.735  -1.554  15.908  1.00  0.00    -0.052 SA
ENDROOT
BRANCH   1   3
HETATM    3  C11 UNL     1      -2.607  -2.281  14.527  1.00  0.00     0.036 A 
HETATM    4  C6  UNL     1      -1.351  -2.152  15.077  1.00  0.00     0.056 A 
HETATM    5  C7  UNL     1      -0.430  -3.152  14.868  1.00  0.00     0.031 A 
HETATM    6  C8  UNL     1      -0.784  -4.253  14.118  1.00  0.00     0.002 A 
HETATM    7  C9  UNL     1      -2.032  -4.403  13.561  1.00  0.00     0.001 A 
HETATM    8  C10 UNL     1      -2.941  -3.388  13.782  1.00  0.00     0.017 A 
BRANCH   4   9
HETATM    9  N1  UNL     1      -1.056  -0.983  15.832  1.00  0.00    -0.280 N 
ATOM     10  H1  UNL     1      -0.769  -0.156  15.308  1.00  0.00     0.179 HD
BRANCH   9  11
HETATM   11  S1  UNL     1      -1.133  -0.830  17.522  1.00  0.00     0.263 S 
HETATM   12  O1  UNL     1      -1.480  -2.180  18.133  1.00  0.00    -0.200 OA
HETATM   13  O2  UNL     1      -2.297   0.070  17.917  1.00  0.00    -0.200 OA
BRANCH  11  14
HETATM   14  C5  UNL     1       0.280  -0.190  18.271  1.00  0.00     0.079 A 
HETATM   15  C4  UNL     1       1.308   0.315  17.528  1.00  0.00     0.026 A 
HETATM   16  C3  UNL     1       2.436   0.826  18.135  1.00  0.00     0.008 A 
HETATM   17  C2  UNL     1       2.556   0.840  19.498  1.00  0.00    -0.062 A 
HETATM   18  C1  UNL     1       3.788   1.398  20.141  1.00  0.00     0.048 C 
HETATM   19  C24 UNL     1       1.526   0.333  20.263  1.00  0.00     0.008 A 
HETATM   20  C23 UNL     1       0.393  -0.180  19.666  1.00  0.00     0.026 A 
ENDBRANCH  11  14
ENDBRANCH   9  11
ENDBRANCH   4   9
ENDBRANCH   1   3
BRANCH   1  21
HETATM   21  O3  UNL     1      -3.668  -0.079  13.983  1.00  0.00    -0.332 OA
BRANCH  21  22
HETATM   22  C13 UNL     1      -4.319   1.106  14.347  1.00  0.00     0.263 C 
BRANCH  22  23
HETATM   23  C14 UNL     1      -3.336   2.138  14.838  1.00  0.00     0.172 A 
HETATM   24  N2  UNL     1      -2.498   2.029  15.882  1.00  0.00    -0.321 N 
HETATM   25  C15 UNL     1      -1.801   3.160  15.978  1.00  0.00     0.137 A 
ATOM     26  H2  UNL     1      -2.410   1.219  16.495  1.00  0.00     0.169 HD
HETATM   27  N3  UNL     1      -2.237   3.944  14.977  1.00  0.00    -0.242 N 
HETATM   28  O5  UNL     1      -3.156   3.321  14.301  1.00  0.00    -0.220 OA
ATOM     29  H3  UNL     1      -1.899   4.885  14.778  1.00  0.00     0.196 HD
BRANCH  25  30
HETATM   30  C16 UNL     1      -0.765   3.523  16.954  1.00  0.00     0.010 A 
HETATM   31  C17 UNL     1       0.434   4.007  16.515  1.00  0.00     0.018 A 
HETATM   32  C18 UNL     1       1.431   4.360  17.372  1.00  0.00     0.038 A 
HETATM   33  C19 UNL     1       1.259   4.236  18.740  1.00  0.00     0.074 A 
HETATM   34  C21 UNL     1       0.054   3.748  19.188  1.00  0.00     0.038 A 
HETATM   35  C22 UNL     1      -0.963   3.390  18.295  1.00  0.00     0.018 A 
BRANCH  33  36
HETATM   36  O4  UNL     1       2.317   4.615  19.535  1.00  0.00    -0.290 OA
BRANCH  36  37
HETATM   37  C20 UNL     1       2.406   4.602  20.916  1.00  0.00     0.505 C 
HETATM   38  F1  UNL     1       1.224   5.100  21.433  1.00  0.00    -0.184 F 
HETATM   39  F2  UNL     1       3.502   5.291  21.395  1.00  0.00    -0.184 F 
ENDBRANCH  36  37
ENDBRANCH  33  36
ENDBRANCH  25  30
ENDBRANCH  22  23
ENDBRANCH  21  22
ENDBRANCH   1  21
TORSDOF 10
ENDMDL
MODEL 3
REMARK VINA RESULT: -7.782026400      1.463      1.993
REMARK  10 active torsions:
REMARK  status: ('A' for Active; 'I' for Inactive)
REMARK    1  A    between atoms: C5_5  and  S1_6 
REMARK    2  A    between atoms: S1_6  and  N1_9 
REMARK    3  A    between atoms: N1_9  and  C6_11 
REMARK    4  A    between atoms: C11_16  and  C12_17 
REMARK    5  A    between atoms: C12_17  and  O3_19 
REMARK    6  A    between atoms: O3_19  and  C13_20 
REMARK    7  A    between atoms: C13_20  and  C14_21 
REMARK    8  A    between atoms: C15_24  and  C16_25 
REMARK    9  A    between atoms: C19_28  and  O4_29 
REMARK   10  A    between atoms: O4_29  and  C20_30 
ROOT
HETATM    1  C12 UNL     1      -5.598  -0.991  14.357  1.00  0.00     0.149 C 
HETATM    2  S2  UNL     1      -7.229  -0.802  14.514  1.00  0.00    -0.052 SA
ENDROOT
BRANCH   1   3
HETATM    3  C11 UNL     1      -5.141  -2.399  14.279  1.00  0.00     0.036 A 
HETATM    4  C6  UNL     1      -3.901  -2.764  14.755  1.00  0.00     0.056 A 
HETATM    5  C7  UNL     1      -3.519  -4.083  14.662  1.00  0.00     0.031 A 
HETATM    6  C8  UNL     1      -4.379  -5.000  14.098  1.00  0.00     0.002 A 
HETATM    7  C9  UNL     1      -5.620  -4.657  13.617  1.00  0.00     0.001 A 
HETATM    8  C10 UNL     1      -5.985  -3.330  13.720  1.00  0.00     0.017 A 
BRANCH   4   9
HETATM    9  N1  UNL     1      -3.064  -1.761  15.316  1.00  0.00    -0.280 N 
ATOM     10  H1  UNL     1      -2.563  -1.159  14.661  1.00  0.00     0.179 HD
BRANCH   9  11
HETATM   11  S1  UNL     1      -2.816  -1.465  16.970  1.00  0.00     0.263 S 
HETATM   12  O1  UNL     1      -3.113  -2.734  17.756  1.00  0.00    -0.200 OA
HETATM   13  O2  UNL     1      -3.839  -0.460  17.484  1.00  0.00    -0.200 OA
BRANCH  11  14
HETATM   14  C5  UNL     1      -1.258  -0.863  17.388  1.00  0.00     0.079 A 
HETATM   15  C4  UNL     1      -0.396  -0.405  16.433  1.00  0.00     0.026 A 
HETATM   16  C3  UNL     1       0.850   0.076  16.774  1.00  0.00     0.008 A 
HETATM   17  C2  UNL     1       1.257   0.106  18.081  1.00  0.00    -0.062 A 
HETATM   18  C1  UNL     1       2.614   0.632  18.435  1.00  0.00     0.048 C 
HETATM   19  C24 UNL     1       0.399  -0.354  19.058  1.00  0.00     0.008 A 
HETATM   20  C23 UNL     1      -0.851  -0.836  18.727  1.00  0.00     0.026 A 
ENDBRANCH  11  14
ENDBRANCH   9  11
ENDBRANCH   4   9
ENDBRANCH   1   3
BRANCH   1  21
HETATM   21  O3  UNL     1      -4.737   0.073  14.302  1.00  0.00    -0.332 OA
BRANCH  21  22
HETATM   22  C13 UNL     1      -5.064   1.402  14.596  1.00  0.00     0.263 C 
BRANCH  22  23
HETATM   23  C14 UNL     1      -3.840   2.189  14.993  1.00  0.00     0.172 A 
HETATM   24  N2  UNL     1      -3.145   2.085  16.137  1.00  0.00    -0.321 N 
HETATM   25  C15 UNL     1      -2.138   2.956  16.094  1.00  0.00     0.137 A 
ATOM     26  H2  UNL     1      -3.353   1.449  16.907  1.00  0.00     0.169 HD
HETATM   27  N3  UNL     1      -2.244   3.579  14.908  1.00  0.00    -0.242 N 
HETATM   28  O5  UNL     1      -3.267   3.111  14.258  1.00  0.00    -0.220 OA
ATOM     29  H3  UNL     1      -1.618   4.309  14.570  1.00  0.00     0.196 HD
BRANCH  25  30
HETATM   30  C16 UNL     1      -1.103   3.217  17.104  1.00  0.00     0.010 A 
HETATM   31  C17 UNL     1      -1.351   2.924  18.414  1.00  0.00     0.018 A 
HETATM   32  C18 UNL     1      -0.431   3.144  19.393  1.00  0.00     0.038 A 
HETATM   33  C19 UNL     1       0.807   3.682  19.085  1.00  0.00     0.074 A 
HETATM   34  C21 UNL     1       1.063   3.980  17.767  1.00  0.00     0.038 A 
HETATM   35  C22 UNL     1       0.107   3.748  16.771  1.00  0.00     0.018 A 
BRANCH  33  36
HETATM   36  O4  UNL     1       1.679   3.873  20.134  1.00  0.00    -0.290 OA
BRANCH  36  37
HETATM   37  C20 UNL     1       2.696   4.804  20.252  1.00  0.00     0.505 C 
HETATM   38  F1  UNL     1       3.760   4.387  19.473  1.00  0.00    -0.184 F 
HETATM   39  F2  UNL     1       3.080   5.025  21.560  1.00  0.00    -0.184 F 
ENDBRANCH  36  37
ENDBRANCH  33  36
ENDBRANCH  25  30
ENDBRANCH  22  23
ENDBRANCH  21  22
ENDBRANCH   1  21
TORSDOF 10
ENDMDL
MODEL 4
REMARK VINA RESULT: -7.755869464      2.039      3.001
REMARK  10 active torsions:
REMARK  status: ('A' for Active; 'I' for Inactive)
REMARK    1  A    between atoms: C5_5  and  S1_6 
REMARK    2  A    between atoms: S1_6  and  N1_9 
REMARK    3  A    between atoms: N1_9  and  C6_11 
REMARK    4  A    between atoms: C11_16  and  C12_17 
REMARK    5  A    between atoms: C12_17  and  O3_19 
REMARK    6  A    between atoms: O3_19  and  C13_20 
REMARK    7  A    between atoms: C13_20  and  C14_21 
REMARK    8  A    between atoms: C15_24  and  C16_25 
REMARK    9  A    between atoms: C19_28  and  O4_29 
REMARK   10  A    between atoms: O4_29  and  C20_30 
ROOT
HETATM    1  C12 UNL     1      -4.375  -0.809  13.807  1.00  0.00     0.149 C 
HETATM    2  S2  UNL     1      -3.211  -0.424  12.705  1.00  0.00    -0.052 SA
ENDROOT
BRANCH   1   3
HETATM    3  C11 UNL     1      -5.030  -2.121  13.587  1.00  0.00     0.036 A 
HETATM    4  C6  UNL     1      -4.628  -3.235  14.288  1.00  0.00     0.056 A 
HETATM    5  C7  UNL     1      -5.263  -4.432  14.051  1.00  0.00     0.031 A 
HETATM    6  C8  UNL     1      -6.281  -4.487  13.123  1.00  0.00     0.002 A 
HETATM    7  C9  UNL     1      -6.698  -3.387  12.412  1.00  0.00     0.001 A 
HETATM    8  C10 UNL     1      -6.048  -2.196  12.665  1.00  0.00     0.017 A 
BRANCH   4   9
HETATM    9  N1  UNL     1      -3.564  -3.104  15.224  1.00  0.00    -0.280 N 
ATOM     10  H1  UNL     1      -3.802  -2.726  16.141  1.00  0.00     0.179 HD
BRANCH   9  11
HETATM   11  S1  UNL     1      -1.937  -3.515  14.962  1.00  0.00     0.263 S 
HETATM   12  O1  UNL     1      -1.733  -3.844  13.490  1.00  0.00    -0.200 OA
HETATM   13  O2  UNL     1      -1.598  -4.812  15.686  1.00  0.00    -0.200 OA
BRANCH  11  14
HETATM   14  C5  UNL     1      -0.787  -2.336  15.467  1.00  0.00     0.079 A 
HETATM   15  C4  UNL     1       0.551  -2.521  15.266  1.00  0.00     0.026 A 
HETATM   16  C3  UNL     1       1.466  -1.572  15.672  1.00  0.00     0.008 A 
HETATM   17  C2  UNL     1       1.057  -0.421  16.289  1.00  0.00    -0.062 A 
HETATM   18  C1  UNL     1       2.064   0.599  16.725  1.00  0.00     0.048 C 
HETATM   19  C24 UNL     1      -0.291  -0.220  16.500  1.00  0.00     0.008 A 
HETATM   20  C23 UNL     1      -1.215  -1.161  16.097  1.00  0.00     0.026 A 
ENDBRANCH  11  14
ENDBRANCH   9  11
ENDBRANCH   4   9
ENDBRANCH   1   3
BRANCH   1  21
HETATM   21  O3  UNL     1      -4.709   0.021  14.845  1.00  0.00    -0.332 OA
BRANCH  21  22
HETATM   22  C13 UNL     1      -5.019   1.382  14.733  1.00  0.00     0.263 C 
BRANCH  22  23
HETATM   23  C14 UNL     1      -3.850   2.243  15.139  1.00  0.00     0.172 A 
HETATM   24  N2  UNL     1      -3.020   2.047  16.176  1.00  0.00    -0.321 N 
HETATM   25  C15 UNL     1      -2.125   3.033  16.186  1.00  0.00     0.137 A 
ATOM     26  H2  UNL     1      -3.067   1.276  16.842  1.00  0.00     0.169 HD
HETATM   27  N3  UNL     1      -2.434   3.818  15.139  1.00  0.00    -0.242 N 
HETATM   28  O5  UNL     1      -3.469   3.334  14.521  1.00  0.00    -0.220 OA
ATOM     29  H3  UNL     1      -1.933   4.665  14.873  1.00  0.00     0.196 HD
BRANCH  25  30
HETATM   30  C16 UNL     1      -1.014   3.259  17.121  1.00  0.00     0.010 A 
HETATM   31  C17 UNL     1      -1.123   2.829  18.412  1.00  0.00     0.018 A 
HETATM   32  C18 UNL     1      -0.127   3.010  19.323  1.00  0.00     0.038 A 
HETATM   33  C19 UNL     1       1.048   3.647  18.962  1.00  0.00     0.074 A 
HETATM   34  C21 UNL     1       1.164   4.082  17.663  1.00  0.00     0.038 A 
HETATM   35  C22 UNL     1       0.131   3.889  16.737  1.00  0.00     0.018 A 
BRANCH  33  36
HETATM   36  O4  UNL     1       2.003   3.789  19.943  1.00  0.00    -0.290 OA
BRANCH  36  37
HETATM   37  C20 UNL     1       2.786   4.893  20.232  1.00  0.00     0.505 C 
HETATM   38  F1  UNL     1       3.927   4.833  19.453  1.00  0.00    -0.184 F 
HETATM   39  F2  UNL     1       3.091   5.005  21.574  1.00  0.00    -0.184 F 
ENDBRANCH  36  37
ENDBRANCH  33  36
ENDBRANCH  25  30
ENDBRANCH  22  23
ENDBRANCH  21  22
ENDBRANCH   1  21
TORSDOF 10
ENDMDL
MODEL 5
REMARK VINA RESULT: -7.619002001      2.003      4.415
REMARK  10 active torsions:
REMARK  status: ('A' for Active; 'I' for Inactive)
REMARK    1  A    between atoms: C5_5  and  S1_6 
REMARK    2  A    between atoms: S1_6  and  N1_9 
REMARK    3  A    between atoms: N1_9  and  C6_11 
REMARK    4  A    between atoms: C11_16  and  C12_17 
REMARK    5  A    between atoms: C12_17  and  O3_19 
REMARK    6  A    between atoms: O3_19  and  C13_20 
REMARK    7  A    between atoms: C13_20  and  C14_21 
REMARK    8  A    between atoms: C15_24  and  C16_25 
REMARK    9  A    between atoms: C19_28  and  O4_29 
REMARK   10  A    between atoms: O4_29  and  C20_30 
ROOT
HETATM    1  C12 UNL     1      -3.440  -1.887  15.616  1.00  0.00     0.149 C 
HETATM    2  S2  UNL     1      -3.364  -2.442  17.167  1.00  0.00    -0.052 SA
ENDROOT
BRANCH   1   3
HETATM    3  C11 UNL     1      -4.775  -1.397  15.196  1.00  0.00     0.036 A 
HETATM    4  C6  UNL     1      -4.903  -0.225  14.484  1.00  0.00     0.056 A 
HETATM    5  C7  UNL     1      -6.162   0.191  14.116  1.00  0.00     0.031 A 
HETATM    6  C8  UNL     1      -7.257  -0.569  14.466  1.00  0.00     0.002 A 
HETATM    7  C9  UNL     1      -7.152  -1.741  15.176  1.00  0.00     0.001 A 
HETATM    8  C10 UNL     1      -5.881  -2.141  15.536  1.00  0.00     0.017 A 
BRANCH   4   9
HETATM    9  N1  UNL     1      -3.729   0.510  14.166  1.00  0.00    -0.280 N 
ATOM     10  H1  UNL     1      -3.021   0.030  13.610  1.00  0.00     0.179 HD
BRANCH   9  11
HETATM   11  S1  UNL     1      -3.389   2.111  14.622  1.00  0.00     0.263 S 
HETATM   12  O1  UNL     1      -4.687   2.905  14.670  1.00  0.00    -0.200 OA
HETATM   13  O2  UNL     1      -2.567   2.803  13.542  1.00  0.00    -0.200 OA
BRANCH  11  14
HETATM   14  C5  UNL     1      -2.533   2.291  16.105  1.00  0.00     0.079 A 
HETATM   15  C4  UNL     1      -2.567   1.320  17.065  1.00  0.00     0.026 A 
HETATM   16  C3  UNL     1      -1.879   1.471  18.250  1.00  0.00     0.008 A 
HETATM   17  C2  UNL     1      -1.143   2.598  18.497  1.00  0.00    -0.062 A 
HETATM   18  C1  UNL     1      -0.401   2.746  19.790  1.00  0.00     0.048 C 
HETATM   19  C24 UNL     1      -1.099   3.589  17.538  1.00  0.00     0.008 A 
HETATM   20  C23 UNL     1      -1.783   3.448  16.348  1.00  0.00     0.026 A 
ENDBRANCH  11  14
ENDBRANCH   9  11
ENDBRANCH   4   9
ENDBRANCH   1   3
BRANCH   1  21
HETATM   21  O3  UNL     1      -2.352  -1.881  14.783  1.00  0.00    -0.332 OA
BRANCH  21  22
HETATM   22  C13 UNL     1      -1.271  -2.767  14.848  1.00  0.00     0.263 C 
BRANCH  22  23
HETATM   23  C14 UNL     1      -0.050  -2.097  15.425  1.00  0.00     0.172 A 
HETATM   24  N2  UNL     1      -0.014  -0.980  16.170  1.00  0.00    -0.321 N 
HETATM   25  C15 UNL     1       1.257  -0.724  16.476  1.00  0.00     0.137 A 
ATOM     26  H2  UNL     1      -0.820  -0.424  16.453  1.00  0.00     0.169 HD
HETATM   27  N3  UNL     1       1.976  -1.704  15.902  1.00  0.00    -0.242 N 
HETATM   28  O5  UNL     1       1.182  -2.519  15.276  1.00  0.00    -0.220 OA
ATOM     29  H3  UNL     1       2.991  -1.793  15.950  1.00  0.00     0.196 HD
BRANCH  25  30
HETATM   30  C16 UNL     1       1.808   0.383  17.271  1.00  0.00     0.010 A 
HETATM   31  C17 UNL     1       2.201   0.157  18.559  1.00  0.00     0.018 A 
HETATM   32  C18 UNL     1       2.718   1.143  19.342  1.00  0.00     0.038 A 
HETATM   33  C19 UNL     1       2.864   2.428  18.849  1.00  0.00     0.074 A 
HETATM   34  C21 UNL     1       2.470   2.662  17.553  1.00  0.00     0.038 A 
HETATM   35  C22 UNL     1       1.940   1.638  16.759  1.00  0.00     0.018 A 
BRANCH  33  36
HETATM   36  O4  UNL     1       3.395   3.365  19.707  1.00  0.00    -0.290 OA
BRANCH  36  37
HETATM   37  C20 UNL     1       2.870   4.590  20.079  1.00  0.00     0.505 C 
HETATM   38  F1  UNL     1       3.241   5.528  19.133  1.00  0.00    -0.184 F 
HETATM   39  F2  UNL     1       3.242   4.976  21.352  1.00  0.00    -0.184 F 
ENDBRANCH  36  37
ENDBRANCH  33  36
ENDBRANCH  25  30
ENDBRANCH  22  23
ENDBRANCH  21  22
ENDBRANCH   1  21
TORSDOF 10
ENDMDL
