MODEL 1
REMARK VINA RESULT: -7.681876545      0.000      0.000
REMARK  12 active torsions:
REMARK  status: ('A' for Active; 'I' for Inactive)
REMARK    1  A    between atoms: O1_2  and  C2_3 
REMARK       I    between atoms: C2_3  and  N1_5 
REMARK    2  A    between atoms: N1_5  and  C3_6 
REMARK    3  A    between atoms: N1_5  and  C11_20 
REMARK    4  A    between atoms: C3_6  and  C4_7 
REMARK    5  A    between atoms: C6_9  and  O3_10 
REMARK    6  A    between atoms: O3_10  and  C7_11 
REMARK    7  A    between atoms: C10_17  and  O4_18 
REMARK    8  A    between atoms: C14_23  and  C15_24 
REMARK    9  A    between atoms: C15_24  and  C16_25 
REMARK   10  A    between atoms: C20_31  and  C21_32 
REMARK   11  A    between atoms: C21_32  and  O7_35 
REMARK   12  A    between atoms: O7_35  and  C24_36 
ROOT
HETATM    1  C11 UNL     1       0.623  -0.786  18.200  1.00  0.00     0.044 A 
HETATM    2  C12 UNL     1       0.964  -0.496  16.867  1.00  0.00     0.031 A 
HETATM    3  C13 UNL     1       0.228  -0.987  15.812  1.00  0.00     0.009 A 
HETATM    4  C14 UNL     1      -0.882  -1.790  16.018  1.00  0.00    -0.056 A 
HETATM    5  C26 UNL     1      -1.220  -2.081  17.321  1.00  0.00     0.009 A 
HETATM    6  C27 UNL     1      -0.478  -1.586  18.389  1.00  0.00     0.031 A 
ENDROOT
BRANCH   1   7
HETATM    7  N1  UNL     1       1.396  -0.199  19.234  1.00  0.00    -0.268 N 
HETATM    8  C2  UNL     1       2.435  -1.054  19.737  1.00  0.00     0.371 C 
HETATM    9  O2  UNL     1       3.103  -0.762  20.779  1.00  0.00    -0.238 OA
BRANCH   8  10
HETATM   10  O1  UNL     1       2.786  -2.247  19.137  1.00  0.00    -0.308 OA
HETATM   11  C1  UNL     1       2.769  -3.454  19.867  1.00  0.00     0.215 C 
ENDBRANCH   8  10
BRANCH   7  12
HETATM   12  C3  UNL     1       1.242   1.111  19.717  1.00  0.00     0.117 C 
BRANCH  12  13
HETATM   13  C4  UNL     1       1.932   2.241  19.143  1.00  0.00     0.016 A 
HETATM   14  C5  UNL     1       1.265   3.012  18.159  1.00  0.00     0.052 A 
HETATM   15  C6  UNL     1       1.766   4.139  17.606  1.00  0.00     0.079 A 
HETATM   16  C8  UNL     1       3.009   4.575  18.021  1.00  0.00     0.040 A 
HETATM   17  C9  UNL     1       3.721   3.880  18.974  1.00  0.00     0.040 A 
HETATM   18  C10 UNL     1       3.145   2.721  19.506  1.00  0.00     0.077 A 
BRANCH  15  19
HETATM   19  O3  UNL     1       1.120   4.920  16.637  1.00  0.00    -0.255 OA
BRANCH  19  20
HETATM   20  C7  UNL     1      -0.122   4.453  16.097  1.00  0.00     0.530 C 
HETATM   21  F1  UNL     1      -1.169   4.641  16.976  1.00  0.00    -0.144 F 
HETATM   22  F2  UNL     1      -0.385   5.231  14.980  1.00  0.00    -0.144 F 
HETATM   23  F3  UNL     1      -0.029   3.147  15.681  1.00  0.00    -0.144 F 
ENDBRANCH  19  20
ENDBRANCH  15  19
BRANCH  18  24
HETATM   24  O4  UNL     1       3.919   2.084  20.446  1.00  0.00    -0.360 OA
ATOM     25  H4  UNL     1       4.830   1.874  20.280  1.00  0.00     0.217 HD
ENDBRANCH  18  24
ENDBRANCH  12  13
ENDBRANCH   7  12
ENDBRANCH   1   7
BRANCH   4  26
HETATM   26  C15 UNL     1      -1.685  -2.278  14.841  1.00  0.00     0.073 C 
BRANCH  26  27
HETATM   27  C16 UNL     1      -3.052  -2.577  15.286  1.00  0.00     0.161 C 
HETATM   28  O5  UNL     1      -3.500  -3.680  14.508  1.00  0.00    -0.348 OA
HETATM   29  C17 UNL     1      -4.882  -3.593  14.539  1.00  0.00     0.158 C 
HETATM   30  C18 UNL     1      -5.565  -4.169  13.325  1.00  0.00     0.078 C 
HETATM   31  C19 UNL     1      -5.450  -4.295  15.780  1.00  0.00     0.078 C 
HETATM   32  O6  UNL     1      -5.205  -2.267  14.644  1.00  0.00    -0.345 OA
HETATM   33  C20 UNL     1      -4.112  -1.581  15.172  1.00  0.00     0.189 C 
BRANCH  33  34
HETATM   34  C21 UNL     1      -3.906  -0.340  14.397  1.00  0.00     0.092 C 
HETATM   35  C22 UNL     1      -3.737  -0.599  12.888  1.00  0.00     0.049 C 
HETATM   36  C23 UNL     1      -5.248   0.418  14.502  1.00  0.00     0.049 C 
BRANCH  34  37
HETATM   37  O7  UNL     1      -2.840   0.474  14.750  1.00  0.00    -0.308 OA
BRANCH  37  38
HETATM   38  C24 UNL     1      -2.897   1.532  15.640  1.00  0.00     0.255 C 
HETATM   39  C25 UNL     1      -2.700   1.304  17.105  1.00  0.00     0.126 C 
HETATM   40  O8  UNL     1      -3.115   2.662  15.157  1.00  0.00    -0.266 OA
ENDBRANCH  37  38
ENDBRANCH  34  37
ENDBRANCH  33  34
ENDBRANCH  26  27
ENDBRANCH   4  26
TORSDOF 12
ENDMDL
MODEL 2
REMARK VINA RESULT: -7.573644461      2.132      6.728
REMARK  12 active torsions:
REMARK  status: ('A' for Active; 'I' for Inactive)
REMARK    1  A    between atoms: O1_2  and  C2_3 
REMARK       I    between atoms: C2_3  and  N1_5 
REMARK    2  A    between atoms: N1_5  and  C3_6 
REMARK    3  A    between atoms: N1_5  and  C11_20 
REMARK    4  A    between atoms: C3_6  and  C4_7 
REMARK    5  A    between atoms: C6_9  and  O3_10 
REMARK    6  A    between atoms: O3_10  and  C7_11 
REMARK    7  A    between atoms: C10_17  and  O4_18 
REMARK    8  A    between atoms: C14_23  and  C15_24 
REMARK    9  A    between atoms: C15_24  and  C16_25 
REMARK   10  A    between atoms: C20_31  and  C21_32 
REMARK   11  A    between atoms: C21_32  and  O7_35 
REMARK   12  A    between atoms: O7_35  and  C24_36 
ROOT
HETATM    1  C11 UNL     1      -2.830  -0.838  16.848  1.00  0.00     0.044 A 
HETATM    2  C12 UNL     1      -3.150  -1.316  18.131  1.00  0.00     0.031 A 
HETATM    3  C13 UNL     1      -2.362  -2.244  18.772  1.00  0.00     0.009 A 
HETATM    4  C14 UNL     1      -1.215  -2.750  18.180  1.00  0.00    -0.056 A 
HETATM    5  C26 UNL     1      -0.896  -2.287  16.922  1.00  0.00     0.009 A 
HETATM    6  C27 UNL     1      -1.691  -1.350  16.272  1.00  0.00     0.031 A 
ENDROOT
BRANCH   1   7
HETATM    7  N1  UNL     1      -3.661   0.158  16.275  1.00  0.00    -0.268 N 
HETATM    8  C2  UNL     1      -4.531  -0.337  15.244  1.00  0.00     0.371 C 
HETATM    9  O2  UNL     1      -5.210   0.443  14.504  1.00  0.00    -0.238 OA
BRANCH   8  10
HETATM   10  O1  UNL     1      -4.697  -1.681  14.979  1.00  0.00    -0.308 OA
HETATM   11  C1  UNL     1      -4.447  -2.198  13.690  1.00  0.00     0.215 C 
ENDBRANCH   8  10
BRANCH   7  12
HETATM   12  C3  UNL     1      -3.712   1.502  16.680  1.00  0.00     0.117 C 
BRANCH  12  13
HETATM   13  C4  UNL     1      -2.772   2.493  16.216  1.00  0.00     0.016 A 
HETATM   14  C5  UNL     1      -1.644   2.787  17.024  1.00  0.00     0.052 A 
HETATM   15  C6  UNL     1      -0.651   3.630  16.666  1.00  0.00     0.079 A 
HETATM   16  C8  UNL     1      -0.731   4.252  15.435  1.00  0.00     0.040 A 
HETATM   17  C9  UNL     1      -1.796   4.019  14.593  1.00  0.00     0.040 A 
HETATM   18  C10 UNL     1      -2.791   3.135  15.024  1.00  0.00     0.077 A 
BRANCH  15  19
HETATM   19  O3  UNL     1       0.476   3.928  17.446  1.00  0.00    -0.255 OA
BRANCH  19  20
HETATM   20  C7  UNL     1       1.705   3.250  17.162  1.00  0.00     0.530 C 
HETATM   21  F1  UNL     1       1.501   2.104  16.419  1.00  0.00    -0.144 F 
HETATM   22  F2  UNL     1       2.459   4.112  16.379  1.00  0.00    -0.144 F 
HETATM   23  F3  UNL     1       2.418   2.999  18.309  1.00  0.00    -0.144 F 
ENDBRANCH  19  20
ENDBRANCH  15  19
BRANCH  18  24
HETATM   24  O4  UNL     1      -3.819   2.960  14.130  1.00  0.00    -0.360 OA
ATOM     25  H4  UNL     1      -4.042   3.628  13.492  1.00  0.00     0.217 HD
ENDBRANCH  18  24
ENDBRANCH  12  13
ENDBRANCH   7  12
ENDBRANCH   1   7
BRANCH   4  26
HETATM   26  C15 UNL     1      -0.355  -3.735  18.926  1.00  0.00     0.073 C 
BRANCH  26  27
HETATM   27  C16 UNL     1       0.976  -3.774  18.307  1.00  0.00     0.161 C 
HETATM   28  O5  UNL     1       1.335  -5.147  18.206  1.00  0.00    -0.348 OA
HETATM   29  C17 UNL     1       2.720  -5.143  18.149  1.00  0.00     0.158 C 
HETATM   30  C18 UNL     1       3.364  -6.389  18.700  1.00  0.00     0.078 C 
HETATM   31  C19 UNL     1       3.209  -4.955  16.707  1.00  0.00     0.078 C 
HETATM   32  O6  UNL     1       3.154  -4.062  18.866  1.00  0.00    -0.345 OA
HETATM   33  C20 UNL     1       2.118  -3.131  18.946  1.00  0.00     0.189 C 
BRANCH  33  34
HETATM   34  C21 UNL     1       2.030  -2.632  20.334  1.00  0.00     0.092 C 
HETATM   35  C22 UNL     1       1.222  -3.565  21.254  1.00  0.00     0.049 C 
HETATM   36  C23 UNL     1       3.473  -2.721  20.878  1.00  0.00     0.049 C 
BRANCH  34  37
HETATM   37  O7  UNL     1       1.495  -1.368  20.533  1.00  0.00    -0.308 OA
BRANCH  37  38
HETATM   38  C24 UNL     1       1.607  -0.301  19.660  1.00  0.00     0.255 C 
HETATM   39  C25 UNL     1       0.384   0.351  19.096  1.00  0.00     0.126 C 
HETATM   40  O8  UNL     1       2.762   0.079  19.380  1.00  0.00    -0.266 OA
ENDBRANCH  37  38
ENDBRANCH  34  37
ENDBRANCH  33  34
ENDBRANCH  26  27
ENDBRANCH   4  26
TORSDOF 12
ENDMDL
MODEL 3
REMARK VINA RESULT: -7.527974345      1.517      1.878
REMARK  12 active torsions:
REMARK  status: ('A' for Active; 'I' for Inactive)
REMARK    1  A    between atoms: O1_2  and  C2_3 
REMARK       I    between atoms: C2_3  and  N1_5 
REMARK    2  A    between atoms: N1_5  and  C3_6 
REMARK    3  A    between atoms: N1_5  and  C11_20 
REMARK    4  A    between atoms: C3_6  and  C4_7 
REMARK    5  A    between atoms: C6_9  and  O3_10 
REMARK    6  A    between atoms: O3_10  and  C7_11 
REMARK    7  A    between atoms: C10_17  and  O4_18 
REMARK    8  A    between atoms: C14_23  and  C15_24 
REMARK    9  A    between atoms: C15_24  and  C16_25 
REMARK   10  A    between atoms: C20_31  and  C21_32 
REMARK   11  A    between atoms: C21_32  and  O7_35 
REMARK   12  A    between atoms: O7_35  and  C24_36 
ROOT
HETATM    1  C11 UNL     1       1.612  -0.055  18.730  1.00  0.00     0.044 A 
HETATM    2  C12 UNL     1       2.154  -0.226  17.444  1.00  0.00     0.031 A 
HETATM    3  C13 UNL     1       1.402  -0.729  16.406  1.00  0.00     0.009 A 
HETATM    4  C14 UNL     1       0.075  -1.089  16.583  1.00  0.00    -0.056 A 
HETATM    5  C26 UNL     1      -0.461  -0.926  17.841  1.00  0.00     0.009 A 
HETATM    6  C27 UNL     1       0.296  -0.419  18.891  1.00  0.00     0.031 A 
ENDROOT
BRANCH   1   7
HETATM    7  N1  UNL     1       2.433   0.518  19.734  1.00  0.00    -0.268 N 
HETATM    8  C2  UNL     1       3.182  -0.446  20.491  1.00  0.00     0.371 C 
HETATM    9  O2  UNL     1       3.825  -0.126  21.540  1.00  0.00    -0.238 OA
BRANCH   8  10
HETATM   10  O1  UNL     1       3.261  -1.780  20.144  1.00  0.00    -0.308 OA
HETATM   11  C1  UNL     1       2.570  -2.760  20.887  1.00  0.00     0.215 C 
ENDBRANCH   8  10
BRANCH   7  12
HETATM   12  C3  UNL     1       2.582   1.895  19.969  1.00  0.00     0.117 C 
BRANCH  12  13
HETATM   13  C4  UNL     1       2.424   2.886  18.933  1.00  0.00     0.016 A 
HETATM   14  C5  UNL     1       1.130   3.110  18.401  1.00  0.00     0.052 A 
HETATM   15  C6  UNL     1       0.836   4.065  17.490  1.00  0.00     0.079 A 
HETATM   16  C8  UNL     1       1.858   4.878  17.041  1.00  0.00     0.040 A 
HETATM   17  C9  UNL     1       3.145   4.722  17.509  1.00  0.00     0.040 A 
HETATM   18  C10 UNL     1       3.381   3.716  18.451  1.00  0.00     0.077 A 
BRANCH  15  19
HETATM   19  O3  UNL     1      -0.439   4.308  16.958  1.00  0.00    -0.255 OA
BRANCH  19  20
HETATM   20  C7  UNL     1      -1.312   3.195  16.735  1.00  0.00     0.530 C 
HETATM   21  F1  UNL     1      -2.000   2.843  17.879  1.00  0.00    -0.144 F 
HETATM   22  F2  UNL     1      -2.254   3.611  15.807  1.00  0.00    -0.144 F 
HETATM   23  F3  UNL     1      -0.638   2.127  16.193  1.00  0.00    -0.144 F 
ENDBRANCH  19  20
ENDBRANCH  15  19
BRANCH  18  24
HETATM   24  O4  UNL     1       4.688   3.622  18.864  1.00  0.00    -0.360 OA
ATOM     25  H4  UNL     1       5.409   3.830  18.282  1.00  0.00     0.217 HD
ENDBRANCH  18  24
ENDBRANCH  12  13
ENDBRANCH   7  12
ENDBRANCH   1   7
BRANCH   4  26
HETATM   26  C15 UNL     1      -0.728  -1.599  15.416  1.00  0.00     0.073 C 
BRANCH  26  27
HETATM   27  C16 UNL     1      -1.630  -2.658  15.883  1.00  0.00     0.161 C 
HETATM   28  O5  UNL     1      -1.160  -3.873  15.312  1.00  0.00    -0.348 OA
HETATM   29  C17 UNL     1      -2.266  -4.707  15.301  1.00  0.00     0.158 C 
HETATM   30  C18 UNL     1      -2.253  -5.737  14.201  1.00  0.00     0.078 C 
HETATM   31  C19 UNL     1      -2.411  -5.444  16.639  1.00  0.00     0.078 C 
HETATM   32  O6  UNL     1      -3.373  -3.915  15.156  1.00  0.00    -0.345 OA
HETATM   33  C20 UNL     1      -3.054  -2.621  15.569  1.00  0.00     0.189 C 
BRANCH  33  34
HETATM   34  C21 UNL     1      -3.589  -1.659  14.583  1.00  0.00     0.092 C 
HETATM   35  C22 UNL     1      -3.233  -2.030  13.132  1.00  0.00     0.049 C 
HETATM   36  C23 UNL     1      -5.123  -1.834  14.653  1.00  0.00     0.049 C 
BRANCH  34  37
HETATM   37  O7  UNL     1      -3.229  -0.327  14.720  1.00  0.00    -0.308 OA
BRANCH  37  38
HETATM   38  C24 UNL     1      -3.834   0.587  15.564  1.00  0.00     0.255 C 
HETATM   39  C25 UNL     1      -4.708   1.669  15.012  1.00  0.00     0.126 C 
HETATM   40  O8  UNL     1      -3.614   0.457  16.786  1.00  0.00    -0.266 OA
ENDBRANCH  37  38
ENDBRANCH  34  37
ENDBRANCH  33  34
ENDBRANCH  26  27
ENDBRANCH   4  26
TORSDOF 12
ENDMDL
MODEL 4
REMARK VINA RESULT: -7.517595823      2.537      6.621
REMARK  12 active torsions:
REMARK  status: ('A' for Active; 'I' for Inactive)
REMARK    1  A    between atoms: O1_2  and  C2_3 
REMARK       I    between atoms: C2_3  and  N1_5 
REMARK    2  A    between atoms: N1_5  and  C3_6 
REMARK    3  A    between atoms: N1_5  and  C11_20 
REMARK    4  A    between atoms: C3_6  and  C4_7 
REMARK    5  A    between atoms: C6_9  and  O3_10 
REMARK    6  A    between atoms: O3_10  and  C7_11 
REMARK    7  A    between atoms: C10_17  and  O4_18 
REMARK    8  A    between atoms: C14_23  and  C15_24 
REMARK    9  A    between atoms: C15_24  and  C16_25 
REMARK   10  A    between atoms: C20_31  and  C21_32 
REMARK   11  A    between atoms: C21_32  and  O7_35 
REMARK   12  A    between atoms: O7_35  and  C24_36 
ROOT
HETATM    1  C11 UNL     1      -2.856  -0.708  16.705  1.00  0.00     0.044 A 
HETATM    2  C12 UNL     1      -3.223  -1.248  17.949  1.00  0.00     0.031 A 
HETATM    3  C13 UNL     1      -2.538  -2.304  18.507  1.00  0.00     0.009 A 
HETATM    4  C14 UNL     1      -1.454  -2.882  17.866  1.00  0.00    -0.056 A 
HETATM    5  C26 UNL     1      -1.091  -2.359  16.644  1.00  0.00     0.009 A 
HETATM    6  C27 UNL     1      -1.781  -1.293  16.078  1.00  0.00     0.031 A 
ENDROOT
BRANCH   1   7
HETATM    7  N1  UNL     1      -3.576   0.413  16.220  1.00  0.00    -0.268 N 
HETATM    8  C2  UNL     1      -4.400   0.124  15.079  1.00  0.00     0.371 C 
HETATM    9  O2  UNL     1      -4.970   1.043  14.410  1.00  0.00    -0.238 OA
BRANCH   8  10
HETATM   10  O1  UNL     1      -4.634  -1.158  14.624  1.00  0.00    -0.308 OA
HETATM   11  C1  UNL     1      -4.337  -1.516  13.292  1.00  0.00     0.215 C 
ENDBRANCH   8  10
BRANCH   7  12
HETATM   12  C3  UNL     1      -3.567   1.693  16.799  1.00  0.00     0.117 C 
BRANCH  12  13
HETATM   13  C4  UNL     1      -2.444   2.593  16.687  1.00  0.00     0.016 A 
HETATM   14  C5  UNL     1      -1.507   2.642  17.749  1.00  0.00     0.052 A 
HETATM   15  C6  UNL     1      -0.373   3.377  17.730  1.00  0.00     0.079 A 
HETATM   16  C8  UNL     1      -0.102   4.135  16.607  1.00  0.00     0.040 A 
HETATM   17  C9  UNL     1      -0.965   4.141  15.533  1.00  0.00     0.040 A 
HETATM   18  C10 UNL     1      -2.121   3.358  15.617  1.00  0.00     0.077 A 
BRANCH  15  19
HETATM   19  O3  UNL     1       0.570   3.433  18.766  1.00  0.00    -0.255 OA
BRANCH  19  20
HETATM   20  C7  UNL     1       0.139   3.863  20.063  1.00  0.00     0.530 C 
HETATM   21  F1  UNL     1      -0.976   4.675  19.992  1.00  0.00    -0.144 F 
HETATM   22  F2  UNL     1      -0.235   2.720  20.753  1.00  0.00    -0.144 F 
HETATM   23  F3  UNL     1       1.162   4.455  20.763  1.00  0.00    -0.144 F 
ENDBRANCH  19  20
ENDBRANCH  15  19
BRANCH  18  24
HETATM   24  O4  UNL     1      -2.930   3.422  14.508  1.00  0.00    -0.360 OA
ATOM     25  H4  UNL     1      -3.048   4.231  14.024  1.00  0.00     0.217 HD
ENDBRANCH  18  24
ENDBRANCH  12  13
ENDBRANCH   7  12
ENDBRANCH   1   7
BRANCH   4  26
HETATM   26  C15 UNL     1      -0.704  -4.010  18.523  1.00  0.00     0.073 C 
BRANCH  26  27
HETATM   27  C16 UNL     1       0.653  -4.071  17.967  1.00  0.00     0.161 C 
HETATM   28  O5  UNL     1       0.963  -5.449  17.804  1.00  0.00    -0.348 OA
HETATM   29  C17 UNL     1       2.348  -5.501  17.814  1.00  0.00     0.158 C 
HETATM   30  C18 UNL     1       2.914  -6.801  18.322  1.00  0.00     0.078 C 
HETATM   31  C19 UNL     1       2.917  -5.253  16.410  1.00  0.00     0.078 C 
HETATM   32  O6  UNL     1       2.788  -4.480  18.612  1.00  0.00    -0.345 OA
HETATM   33  C20 UNL     1       1.787  -3.513  18.697  1.00  0.00     0.189 C 
BRANCH  33  34
HETATM   34  C21 UNL     1       1.648  -3.089  20.105  1.00  0.00     0.092 C 
HETATM   35  C22 UNL     1       1.290  -4.253  21.047  1.00  0.00     0.049 C 
HETATM   36  C23 UNL     1       3.074  -2.680  20.536  1.00  0.00     0.049 C 
BRANCH  34  37
HETATM   37  O7  UNL     1       0.730  -2.090  20.392  1.00  0.00    -0.308 OA
BRANCH  37  38
HETATM   38  C24 UNL     1       0.933  -0.734  20.204  1.00  0.00     0.255 C 
HETATM   39  C25 UNL     1       0.767  -0.122  18.849  1.00  0.00     0.126 C 
HETATM   40  O8  UNL     1       1.252  -0.067  21.210  1.00  0.00    -0.266 OA
ENDBRANCH  37  38
ENDBRANCH  34  37
ENDBRANCH  33  34
ENDBRANCH  26  27
ENDBRANCH   4  26
TORSDOF 12
ENDMDL
MODEL 5
REMARK VINA RESULT: -7.373593025      2.647      4.679
REMARK  12 active torsions:
REMARK  status: ('A' for Active; 'I' for Inactive)
REMARK    1  A    between atoms: O1_2  and  C2_3 
REMARK       I    between atoms: C2_3  and  N1_5 
REMARK    2  A    between atoms: N1_5  and  C3_6 
REMARK    3  A    between atoms: N1_5  and  C11_20 
REMARK    4  A    between atoms: C3_6  and  C4_7 
REMARK    5  A    between atoms: C6_9  and  O3_10 
REMARK    6  A    between atoms: O3_10  and  C7_11 
REMARK    7  A    between atoms: C10_17  and  O4_18 
REMARK    8  A    between atoms: C14_23  and  C15_24 
REMARK    9  A    between atoms: C15_24  and  C16_25 
REMARK   10  A    between atoms: C20_31  and  C21_32 
REMARK   11  A    between atoms: C21_32  and  O7_35 
REMARK   12  A    between atoms: O7_35  and  C24_36 
ROOT
HETATM    1  C11 UNL     1       1.371   0.161  17.948  1.00  0.00     0.044 A 
HETATM    2  C12 UNL     1      -0.014   0.393  17.895  1.00  0.00     0.031 A 
HETATM    3  C13 UNL     1      -0.800  -0.160  16.909  1.00  0.00     0.009 A 
HETATM    4  C14 UNL     1      -0.259  -0.971  15.924  1.00  0.00    -0.056 A 
HETATM    5  C26 UNL     1       1.098  -1.200  15.968  1.00  0.00     0.009 A 
HETATM    6  C27 UNL     1       1.894  -0.642  16.963  1.00  0.00     0.031 A 
ENDROOT
BRANCH   1   7
HETATM    7  N1  UNL     1       2.106   0.721  19.024  1.00  0.00    -0.268 N 
HETATM    8  C2  UNL     1       2.777   1.947  18.692  1.00  0.00     0.371 C 
HETATM    9  O2  UNL     1       3.620   2.487  19.476  1.00  0.00    -0.238 OA
BRANCH   8  10
HETATM   10  O1  UNL     1       2.564   2.627  17.509  1.00  0.00    -0.308 OA
HETATM   11  C1  UNL     1       1.872   3.857  17.500  1.00  0.00     0.215 C 
ENDBRANCH   8  10
BRANCH   7  12
HETATM   12  C3  UNL     1       2.157   0.200  20.327  1.00  0.00     0.117 C 
BRANCH  12  13
HETATM   13  C4  UNL     1       2.004  -1.206  20.613  1.00  0.00     0.016 A 
HETATM   14  C5  UNL     1       0.698  -1.755  20.637  1.00  0.00     0.052 A 
HETATM   15  C6  UNL     1       0.426  -3.067  20.808  1.00  0.00     0.079 A 
HETATM   16  C8  UNL     1       1.485  -3.939  20.973  1.00  0.00     0.040 A 
HETATM   17  C9  UNL     1       2.786  -3.483  20.962  1.00  0.00     0.040 A 
HETATM   18  C10 UNL     1       2.997  -2.112  20.780  1.00  0.00     0.077 A 
BRANCH  15  19
HETATM   19  O3  UNL     1      -0.858  -3.631  20.828  1.00  0.00    -0.255 OA
BRANCH  19  20
HETATM   20  C7  UNL     1      -1.618  -3.647  19.614  1.00  0.00     0.530 C 
HETATM   21  F1  UNL     1      -2.405  -4.776  19.514  1.00  0.00    -0.144 F 
HETATM   22  F2  UNL     1      -2.474  -2.558  19.671  1.00  0.00    -0.144 F 
HETATM   23  F3  UNL     1      -0.811  -3.484  18.514  1.00  0.00    -0.144 F 
ENDBRANCH  19  20
ENDBRANCH  15  19
BRANCH  18  24
HETATM   24  O4  UNL     1       4.319  -1.738  20.786  1.00  0.00    -0.360 OA
ATOM     25  H4  UNL     1       4.645  -1.054  20.212  1.00  0.00     0.217 HD
ENDBRANCH  18  24
ENDBRANCH  12  13
ENDBRANCH   7  12
ENDBRANCH   1   7
BRANCH   4  26
HETATM   26  C15 UNL     1      -1.155  -1.590  14.884  1.00  0.00     0.073 C 
BRANCH  26  27
HETATM   27  C16 UNL     1      -2.349  -2.134  15.543  1.00  0.00     0.161 C 
HETATM   28  O5  UNL     1      -2.492  -3.472  15.082  1.00  0.00    -0.348 OA
HETATM   29  C17 UNL     1      -3.836  -3.761  15.258  1.00  0.00     0.158 C 
HETATM   30  C18 UNL     1      -4.382  -4.778  14.289  1.00  0.00     0.078 C 
HETATM   31  C19 UNL     1      -4.107  -4.269  16.681  1.00  0.00     0.078 C 
HETATM   32  O6  UNL     1      -4.528  -2.589  15.111  1.00  0.00    -0.345 OA
HETATM   33  C20 UNL     1      -3.659  -1.524  15.342  1.00  0.00     0.189 C 
BRANCH  33  34
HETATM   34  C21 UNL     1      -3.866  -0.500  14.297  1.00  0.00     0.092 C 
HETATM   35  C22 UNL     1      -3.491  -0.999  12.889  1.00  0.00     0.049 C 
HETATM   36  C23 UNL     1      -5.398  -0.308  14.233  1.00  0.00     0.049 C 
BRANCH  34  37
HETATM   37  O7  UNL     1      -3.213   0.714  14.442  1.00  0.00    -0.308 OA
BRANCH  37  38
HETATM   38  C24 UNL     1      -3.688   1.803  15.151  1.00  0.00     0.255 C 
HETATM   39  C25 UNL     1      -3.747   1.770  16.646  1.00  0.00     0.126 C 
HETATM   40  O8  UNL     1      -4.052   2.794  14.484  1.00  0.00    -0.266 OA
ENDBRANCH  37  38
ENDBRANCH  34  37
ENDBRANCH  33  34
ENDBRANCH  26  27
ENDBRANCH   4  26
TORSDOF 12
ENDMDL
