MODEL 1
REMARK VINA RESULT: -7.998192098      0.000      0.000
REMARK  12 active torsions:
REMARK  status: ('A' for Active; 'I' for Inactive)
REMARK    1  A    between atoms: C2_2  and  C3_3 
REMARK    2  A    between atoms: C3_3  and  O2_5 
REMARK    3  A    between atoms: O2_5  and  C4_6 
REMARK    4  A    between atoms: C4_6  and  C5_7 
REMARK    5  A    between atoms: C4_6  and  C7_14 
REMARK    6  A    between atoms: C5_7  and  O4_12 
REMARK    7  A    between atoms: N1_8  and  O3_10 
REMARK    8  A    between atoms: C7_14  and  C8_17 
REMARK    9  A    between atoms: C13_22  and  O5_23 
REMARK   10  A    between atoms: O5_23  and  C14_24 
REMARK   11  A    between atoms: C17_27  and  S1_28 
REMARK   12  A    between atoms: S1_28  and  C18_31 
ROOT
HETATM    1  C8  UNL     1       1.072   3.399  17.100  1.00  0.00     0.033 A 
HETATM    2  C9  UNL     1       0.942   4.653  16.584  1.00  0.00     0.015 A 
HETATM    3  C10 UNL     1      -0.234   5.031  15.938  1.00  0.00     0.001 A 
HETATM    4  C11 UNL     1      -1.280   4.152  15.808  1.00  0.00     0.003 A 
HETATM    5  C12 UNL     1      -1.132   2.894  16.333  1.00  0.00     0.038 A 
HETATM    6  C13 UNL     1       0.000   2.499  16.966  1.00  0.00     0.086 A 
ENDROOT
BRANCH   1   7
HETATM    7  C7  UNL     1       2.263   2.889  17.785  1.00  0.00     0.242 C 
HETATM    8  F1  UNL     1       2.625   1.689  17.182  1.00  0.00    -0.216 F 
HETATM    9 CL1  UNL     1       3.618   4.018  17.292  1.00  0.00    -0.074 Cl
BRANCH   7  10
HETATM   10  C4  UNL     1       2.302   2.840  19.255  1.00  0.00     0.268 C 
BRANCH  10  11
HETATM   11  O2  UNL     1       1.092   3.154  19.869  1.00  0.00    -0.302 OA
BRANCH  11  12
HETATM   12  C3  UNL     1       0.855   4.286  20.632  1.00  0.00     0.259 C 
HETATM   13  O1  UNL     1       1.850   4.843  21.161  1.00  0.00    -0.265 OA
BRANCH  12  14
HETATM   14  C2  UNL     1      -0.535   4.830  20.821  1.00  0.00     0.106 C 
HETATM   15  C1  UNL     1      -1.495   4.013  20.013  1.00  0.00     0.015 C 
ENDBRANCH  12  14
ENDBRANCH  11  12
ENDBRANCH  10  11
BRANCH  10  16
HETATM   16  C5  UNL     1       2.960   1.622  19.836  1.00  0.00     0.172 C 
HETATM   17  N1  UNL     1       4.080   1.705  20.457  1.00  0.00    -0.249 N 
ATOM     18  H1  UNL     1       4.466   2.647  20.516  1.00  0.00     0.196 HD
BRANCH  17  19
HETATM   19  O3  UNL     1       4.819   0.763  21.036  1.00  0.00    -0.288 OA
ATOM     20  H3  UNL     1       5.754   0.729  21.207  1.00  0.00     0.244 HD
ENDBRANCH  17  19
BRANCH  16  21
HETATM   21  O4  UNL     1       2.419   0.353  19.743  1.00  0.00    -0.341 OA
HETATM   22  C6  UNL     1       1.438  -0.174  20.602  1.00  0.00     0.211 C 
ENDBRANCH  16  21
ENDBRANCH  10  16
ENDBRANCH   7  10
ENDBRANCH   1   7
BRANCH   6  23
HETATM   23  O5  UNL     1       0.136   1.197  17.501  1.00  0.00    -0.310 OA
BRANCH  23  24
HETATM   24  C14 UNL     1      -0.804   0.240  17.182  1.00  0.00     0.076 A 
HETATM   25  C15 UNL     1      -1.888  -0.043  18.005  1.00  0.00     0.039 A 
HETATM   26  C16 UNL     1      -2.780  -1.016  17.606  1.00  0.00     0.026 A 
HETATM   27  C17 UNL     1      -2.607  -1.696  16.423  1.00  0.00     0.064 A 
HETATM   28  C24 UNL     1      -1.530  -1.397  15.631  1.00  0.00     0.026 A 
HETATM   29  C25 UNL     1      -0.623  -0.442  15.988  1.00  0.00     0.039 A 
BRANCH  27  30
HETATM   30  S1  UNL     1      -3.744  -2.944  15.905  1.00  0.00     0.206 S 
HETATM   31  O6  UNL     1      -4.010  -3.837  17.101  1.00  0.00    -0.217 OA
HETATM   32  O7  UNL     1      -3.178  -3.768  14.803  1.00  0.00    -0.217 OA
BRANCH  30  33
HETATM   33  C18 UNL     1      -5.269  -2.236  15.429  1.00  0.00     0.064 A 
HETATM   34  C19 UNL     1      -6.475  -2.891  15.567  1.00  0.00     0.024 A 
HETATM   35  C20 UNL     1      -7.683  -2.348  15.197  1.00  0.00     0.002 A 
HETATM   36  C21 UNL     1      -7.643  -1.069  14.662  1.00  0.00     0.000 A 
HETATM   37  C22 UNL     1      -6.474  -0.394  14.511  1.00  0.00     0.002 A 
HETATM   38  C23 UNL     1      -5.289  -0.953  14.884  1.00  0.00     0.024 A 
ENDBRANCH  30  33
ENDBRANCH  27  30
ENDBRANCH  23  24
ENDBRANCH   6  23
TORSDOF 12
ENDMDL
MODEL 2
REMARK VINA RESULT: -7.940925226      2.502      3.950
REMARK  12 active torsions:
REMARK  status: ('A' for Active; 'I' for Inactive)
REMARK    1  A    between atoms: C2_2  and  C3_3 
REMARK    2  A    between atoms: C3_3  and  O2_5 
REMARK    3  A    between atoms: O2_5  and  C4_6 
REMARK    4  A    between atoms: C4_6  and  C5_7 
REMARK    5  A    between atoms: C4_6  and  C7_14 
REMARK    6  A    between atoms: C5_7  and  O4_12 
REMARK    7  A    between atoms: N1_8  and  O3_10 
REMARK    8  A    between atoms: C7_14  and  C8_17 
REMARK    9  A    between atoms: C13_22  and  O5_23 
REMARK   10  A    between atoms: O5_23  and  C14_24 
REMARK   11  A    between atoms: C17_27  and  S1_28 
REMARK   12  A    between atoms: S1_28  and  C18_31 
ROOT
HETATM    1  C8  UNL     1       0.253   0.962  19.351  1.00  0.00     0.033 A 
HETATM    2  C9  UNL     1       1.295   0.537  20.117  1.00  0.00     0.015 A 
HETATM    3  C10 UNL     1       1.410  -0.806  20.470  1.00  0.00     0.001 A 
HETATM    4  C11 UNL     1       0.479  -1.726  20.056  1.00  0.00     0.003 A 
HETATM    5  C12 UNL     1      -0.564  -1.281  19.286  1.00  0.00     0.038 A 
HETATM    6  C13 UNL     1      -0.702   0.020  18.927  1.00  0.00     0.086 A 
ENDROOT
BRANCH   1   7
HETATM    7  C7  UNL     1       0.024   2.347  18.930  1.00  0.00     0.242 C 
HETATM    8  F1  UNL     1      -1.214   2.747  19.422  1.00  0.00    -0.216 F 
HETATM    9 CL1  UNL     1       1.198   3.345  19.920  1.00  0.00    -0.074 Cl
BRANCH   7  10
HETATM   10  C4  UNL     1       0.251   2.739  17.531  1.00  0.00     0.268 C 
BRANCH  10  11
HETATM   11  O2  UNL     1      -0.552   3.792  17.096  1.00  0.00    -0.302 OA
BRANCH  11  12
HETATM   12  C3  UNL     1      -1.338   3.778  15.956  1.00  0.00     0.259 C 
HETATM   13  O1  UNL     1      -0.904   4.394  14.949  1.00  0.00    -0.265 OA
BRANCH  12  14
HETATM   14  C2  UNL     1      -2.657   3.055  15.919  1.00  0.00     0.106 C 
HETATM   15  C1  UNL     1      -3.003   2.736  14.497  1.00  0.00     0.015 C 
ENDBRANCH  12  14
ENDBRANCH  11  12
ENDBRANCH  10  11
BRANCH  10  16
HETATM   16  C5  UNL     1       1.691   2.893  17.136  1.00  0.00     0.172 C 
HETATM   17  N1  UNL     1       2.190   4.048  16.885  1.00  0.00    -0.249 N 
ATOM     18  H1  UNL     1       1.537   4.825  16.977  1.00  0.00     0.196 HD
BRANCH  17  19
HETATM   19  O3  UNL     1       3.423   4.396  16.523  1.00  0.00    -0.288 OA
ATOM     20  H3  UNL     1       4.199   4.553  17.049  1.00  0.00     0.244 HD
ENDBRANCH  17  19
BRANCH  16  21
HETATM   21  O4  UNL     1       2.560   1.824  17.016  1.00  0.00    -0.341 OA
HETATM   22  C6  UNL     1       2.225   0.562  16.496  1.00  0.00     0.211 C 
ENDBRANCH  16  21
ENDBRANCH  10  16
ENDBRANCH   7  10
ENDBRANCH   1   7
BRANCH   6  23
HETATM   23  O5  UNL     1      -1.784   0.461  18.131  1.00  0.00    -0.310 OA
BRANCH  23  24
HETATM   24  C14 UNL     1      -2.255  -0.358  17.126  1.00  0.00     0.076 A 
HETATM   25  C15 UNL     1      -3.466  -1.034  17.221  1.00  0.00     0.039 A 
HETATM   26  C16 UNL     1      -3.858  -1.832  16.167  1.00  0.00     0.026 A 
HETATM   27  C17 UNL     1      -3.075  -1.960  15.044  1.00  0.00     0.064 A 
HETATM   28  C24 UNL     1      -1.886  -1.282  14.977  1.00  0.00     0.026 A 
HETATM   29  C25 UNL     1      -1.460  -0.483  15.996  1.00  0.00     0.039 A 
BRANCH  27  30
HETATM   30  S1  UNL     1      -3.570  -2.980  13.690  1.00  0.00     0.206 S 
HETATM   31  O6  UNL     1      -3.730  -4.390  14.221  1.00  0.00    -0.217 OA
HETATM   32  O7  UNL     1      -2.545  -2.983  12.612  1.00  0.00    -0.217 OA
BRANCH  30  33
HETATM   33  C18 UNL     1      -5.122  -2.473  13.067  1.00  0.00     0.064 A 
HETATM   34  C19 UNL     1      -6.094  -3.364  12.664  1.00  0.00     0.024 A 
HETATM   35  C20 UNL     1      -7.320  -2.982  12.171  1.00  0.00     0.002 A 
HETATM   36  C21 UNL     1      -7.552  -1.618  12.092  1.00  0.00     0.000 A 
HETATM   37  C22 UNL     1      -6.617  -0.711  12.479  1.00  0.00     0.002 A 
HETATM   38  C23 UNL     1      -5.409  -1.113  12.964  1.00  0.00     0.024 A 
ENDBRANCH  30  33
ENDBRANCH  27  30
ENDBRANCH  23  24
ENDBRANCH   6  23
TORSDOF 12
ENDMDL
MODEL 3
REMARK VINA RESULT: -7.908495075      0.880      2.390
REMARK  12 active torsions:
REMARK  status: ('A' for Active; 'I' for Inactive)
REMARK    1  A    between atoms: C2_2  and  C3_3 
REMARK    2  A    between atoms: C3_3  and  O2_5 
REMARK    3  A    between atoms: O2_5  and  C4_6 
REMARK    4  A    between atoms: C4_6  and  C5_7 
REMARK    5  A    between atoms: C4_6  and  C7_14 
REMARK    6  A    between atoms: C5_7  and  O4_12 
REMARK    7  A    between atoms: N1_8  and  O3_10 
REMARK    8  A    between atoms: C7_14  and  C8_17 
REMARK    9  A    between atoms: C13_22  and  O5_23 
REMARK   10  A    between atoms: O5_23  and  C14_24 
REMARK   11  A    between atoms: C17_27  and  S1_28 
REMARK   12  A    between atoms: S1_28  and  C18_31 
ROOT
HETATM    1  C8  UNL     1       0.891   3.154  16.963  1.00  0.00     0.033 A 
HETATM    2  C9  UNL     1       0.790   4.399  16.423  1.00  0.00     0.015 A 
HETATM    3  C10 UNL     1      -0.411   4.829  15.860  1.00  0.00     0.001 A 
HETATM    4  C11 UNL     1      -1.511   4.009  15.837  1.00  0.00     0.003 A 
HETATM    5  C12 UNL     1      -1.391   2.758  16.386  1.00  0.00     0.038 A 
HETATM    6  C13 UNL     1      -0.237   2.313  16.940  1.00  0.00     0.086 A 
ENDROOT
BRANCH   1   7
HETATM    7  C7  UNL     1       2.102   2.592  17.569  1.00  0.00     0.242 C 
HETATM    8  F1  UNL     1       2.543   1.550  16.761  1.00  0.00    -0.216 F 
HETATM    9 CL1  UNL     1       3.392   3.870  17.327  1.00  0.00    -0.074 Cl
BRANCH   7  10
HETATM   10  C4  UNL     1       2.127   2.271  19.004  1.00  0.00     0.268 C 
BRANCH  10  11
HETATM   11  O2  UNL     1       3.109   1.351  19.365  1.00  0.00    -0.302 OA
BRANCH  11  12
HETATM   12  C3  UNL     1       2.904   0.237  20.163  1.00  0.00     0.259 C 
HETATM   13  O1  UNL     1       3.608   0.134  21.201  1.00  0.00    -0.265 OA
BRANCH  12  14
HETATM   14  C2  UNL     1       1.883  -0.809  19.807  1.00  0.00     0.106 C 
HETATM   15  C1  UNL     1       2.258  -1.435  18.499  1.00  0.00     0.015 C 
ENDBRANCH  12  14
ENDBRANCH  11  12
ENDBRANCH  10  11
BRANCH  10  16
HETATM   16  C5  UNL     1       2.058   3.453  19.926  1.00  0.00     0.172 C 
HETATM   17  N1  UNL     1       3.098   3.863  20.557  1.00  0.00    -0.249 N 
ATOM     18  H1  UNL     1       3.946   3.326  20.378  1.00  0.00     0.196 HD
BRANCH  17  19
HETATM   19  O3  UNL     1       3.248   4.875  21.408  1.00  0.00    -0.288 OA
ATOM     20  H3  UNL     1       4.030   5.345  21.676  1.00  0.00     0.244 HD
ENDBRANCH  17  19
BRANCH  16  21
HETATM   21  O4  UNL     1       0.897   4.167  20.155  1.00  0.00    -0.341 OA
HETATM   22  C6  UNL     1      -0.374   3.602  20.363  1.00  0.00     0.211 C 
ENDBRANCH  16  21
ENDBRANCH  10  16
ENDBRANCH   7  10
ENDBRANCH   1   7
BRANCH   6  23
HETATM   23  O5  UNL     1      -0.131   1.020  17.501  1.00  0.00    -0.310 OA
BRANCH  23  24
HETATM   24  C14 UNL     1      -1.052   0.057  17.143  1.00  0.00     0.076 A 
HETATM   25  C15 UNL     1      -2.118  -0.295  17.962  1.00  0.00     0.039 A 
HETATM   26  C16 UNL     1      -2.991  -1.269  17.523  1.00  0.00     0.026 A 
HETATM   27  C17 UNL     1      -2.816  -1.882  16.304  1.00  0.00     0.064 A 
HETATM   28  C24 UNL     1      -1.757  -1.515  15.517  1.00  0.00     0.026 A 
HETATM   29  C25 UNL     1      -0.869  -0.557  15.913  1.00  0.00     0.039 A 
BRANCH  27  30
HETATM   30  S1  UNL     1      -3.928  -3.129  15.735  1.00  0.00     0.206 S 
HETATM   31  O6  UNL     1      -4.122  -4.113  16.870  1.00  0.00    -0.217 OA
HETATM   32  O7  UNL     1      -3.375  -3.851  14.558  1.00  0.00    -0.217 OA
BRANCH  30  33
HETATM   33  C18 UNL     1      -5.492  -2.443  15.362  1.00  0.00     0.064 A 
HETATM   34  C19 UNL     1      -6.666  -3.160  15.453  1.00  0.00     0.024 A 
HETATM   35  C20 UNL     1      -7.904  -2.636  15.163  1.00  0.00     0.002 A 
HETATM   36  C21 UNL     1      -7.930  -1.309  14.761  1.00  0.00     0.000 A 
HETATM   37  C22 UNL     1      -6.793  -0.572  14.659  1.00  0.00     0.002 A 
HETATM   38  C23 UNL     1      -5.577  -1.113  14.952  1.00  0.00     0.024 A 
ENDBRANCH  30  33
ENDBRANCH  27  30
ENDBRANCH  23  24
ENDBRANCH   6  23
TORSDOF 12
ENDMDL
MODEL 4
REMARK VINA RESULT: -7.877457994      2.280      3.757
REMARK  12 active torsions:
REMARK  status: ('A' for Active; 'I' for Inactive)
REMARK    1  A    between atoms: C2_2  and  C3_3 
REMARK    2  A    between atoms: C3_3  and  O2_5 
REMARK    3  A    between atoms: O2_5  and  C4_6 
REMARK    4  A    between atoms: C4_6  and  C5_7 
REMARK    5  A    between atoms: C4_6  and  C7_14 
REMARK    6  A    between atoms: C5_7  and  O4_12 
REMARK    7  A    between atoms: N1_8  and  O3_10 
REMARK    8  A    between atoms: C7_14  and  C8_17 
REMARK    9  A    between atoms: C13_22  and  O5_23 
REMARK   10  A    between atoms: O5_23  and  C14_24 
REMARK   11  A    between atoms: C17_27  and  S1_28 
REMARK   12  A    between atoms: S1_28  and  C18_31 
ROOT
HETATM    1  C8  UNL     1       0.997   3.602  19.252  1.00  0.00     0.033 A 
HETATM    2  C9  UNL     1       1.171   4.104  20.505  1.00  0.00     0.015 A 
HETATM    3  C10 UNL     1       0.118   4.740  21.163  1.00  0.00     0.001 A 
HETATM    4  C11 UNL     1      -1.109   4.874  20.562  1.00  0.00     0.003 A 
HETATM    5  C12 UNL     1      -1.265   4.362  19.300  1.00  0.00     0.038 A 
HETATM    6  C13 UNL     1      -0.260   3.739  18.637  1.00  0.00     0.086 A 
ENDROOT
BRANCH   1   7
HETATM    7  C7  UNL     1       2.032   2.928  18.462  1.00  0.00     0.242 C 
HETATM    8  F1  UNL     1       1.929   3.373  17.149  1.00  0.00    -0.216 F 
HETATM    9 CL1  UNL     1       3.613   3.666  19.020  1.00  0.00    -0.074 Cl
BRANCH   7  10
HETATM   10  C4  UNL     1       2.213   1.473  18.574  1.00  0.00     0.268 C 
BRANCH  10  11
HETATM   11  O2  UNL     1       2.710   0.869  17.420  1.00  0.00    -0.302 OA
BRANCH  11  12
HETATM   12  C3  UNL     1       2.259  -0.328  16.888  1.00  0.00     0.259 C 
HETATM   13  O1  UNL     1       2.626  -1.387  17.459  1.00  0.00    -0.265 OA
BRANCH  12  14
HETATM   14  C2  UNL     1       1.366  -0.363  15.677  1.00  0.00     0.106 C 
HETATM   15  C1  UNL     1       0.607  -1.654  15.665  1.00  0.00     0.015 C 
ENDBRANCH  12  14
ENDBRANCH  11  12
ENDBRANCH  10  11
BRANCH  10  16
HETATM   16  C5  UNL     1       2.899   1.008  19.826  1.00  0.00     0.172 C 
HETATM   17  N1  UNL     1       4.088   1.393  20.112  1.00  0.00    -0.249 N 
ATOM     18  H1  UNL     1       4.508   2.025  19.431  1.00  0.00     0.196 HD
BRANCH  17  19
HETATM   19  O3  UNL     1       4.863   1.102  21.154  1.00  0.00    -0.288 OA
ATOM     20  H3  UNL     1       5.359   1.671  21.732  1.00  0.00     0.244 HD
ENDBRANCH  17  19
BRANCH  16  21
HETATM   21  O4  UNL     1       2.310   0.149  20.736  1.00  0.00    -0.341 OA
HETATM   22  C6  UNL     1       1.070  -0.489  20.562  1.00  0.00     0.211 C 
ENDBRANCH  16  21
ENDBRANCH  10  16
ENDBRANCH   7  10
ENDBRANCH   1   7
BRANCH   6  23
HETATM   23  O5  UNL     1      -0.439   3.218  17.334  1.00  0.00    -0.310 OA
BRANCH  23  24
HETATM   24  C14 UNL     1      -1.242   2.109  17.161  1.00  0.00     0.076 A 
HETATM   25  C15 UNL     1      -1.180   1.005  18.004  1.00  0.00     0.039 A 
HETATM   26  C16 UNL     1      -2.020  -0.059  17.756  1.00  0.00     0.026 A 
HETATM   27  C17 UNL     1      -2.904  -0.036  16.702  1.00  0.00     0.064 A 
HETATM   28  C24 UNL     1      -2.945   1.066  15.889  1.00  0.00     0.026 A 
HETATM   29  C25 UNL     1      -2.131   2.140  16.097  1.00  0.00     0.039 A 
BRANCH  27  30
HETATM   30  S1  UNL     1      -3.984  -1.394  16.378  1.00  0.00     0.206 S 
HETATM   31  O6  UNL     1      -5.159  -0.859  15.586  1.00  0.00    -0.217 OA
HETATM   32  O7  UNL     1      -4.487  -1.998  17.641  1.00  0.00    -0.217 OA
BRANCH  30  33
HETATM   33  C18 UNL     1      -3.189  -2.597  15.390  1.00  0.00     0.064 A 
HETATM   34  C19 UNL     1      -2.943  -3.882  15.827  1.00  0.00     0.024 A 
HETATM   35  C20 UNL     1      -2.318  -4.840  15.063  1.00  0.00     0.002 A 
HETATM   36  C21 UNL     1      -1.932  -4.453  13.789  1.00  0.00     0.000 A 
HETATM   37  C22 UNL     1      -2.157  -3.195  13.325  1.00  0.00     0.002 A 
HETATM   38  C23 UNL     1      -2.778  -2.263  14.101  1.00  0.00     0.024 A 
ENDBRANCH  30  33
ENDBRANCH  27  30
ENDBRANCH  23  24
ENDBRANCH   6  23
TORSDOF 12
ENDMDL
MODEL 5
REMARK VINA RESULT: -7.846184345      2.029      3.707
REMARK  12 active torsions:
REMARK  status: ('A' for Active; 'I' for Inactive)
REMARK    1  A    between atoms: C2_2  and  C3_3 
REMARK    2  A    between atoms: C3_3  and  O2_5 
REMARK    3  A    between atoms: O2_5  and  C4_6 
REMARK    4  A    between atoms: C4_6  and  C5_7 
REMARK    5  A    between atoms: C4_6  and  C7_14 
REMARK    6  A    between atoms: C5_7  and  O4_12 
REMARK    7  A    between atoms: N1_8  and  O3_10 
REMARK    8  A    between atoms: C7_14  and  C8_17 
REMARK    9  A    between atoms: C13_22  and  O5_23 
REMARK   10  A    between atoms: O5_23  and  C14_24 
REMARK   11  A    between atoms: C17_27  and  S1_28 
REMARK   12  A    between atoms: S1_28  and  C18_31 
ROOT
HETATM    1  C8  UNL     1       1.572  -0.357  19.258  1.00  0.00     0.033 A 
HETATM    2  C9  UNL     1       2.191  -1.280  20.044  1.00  0.00     0.015 A 
HETATM    3  C10 UNL     1       1.475  -2.356  20.566  1.00  0.00     0.001 A 
HETATM    4  C11 UNL     1       0.137  -2.507  20.300  1.00  0.00     0.003 A 
HETATM    5  C12 UNL     1      -0.470  -1.568  19.506  1.00  0.00     0.038 A 
HETATM    6  C13 UNL     1       0.200  -0.512  18.985  1.00  0.00     0.086 A 
ENDROOT
BRANCH   1   7
HETATM    7  C7  UNL     1       2.218   0.818  18.667  1.00  0.00     0.242 C 
HETATM    8  F1  UNL     1       3.532   0.860  19.120  1.00  0.00    -0.216 F 
HETATM    9 CL1  UNL     1       2.412   0.413  16.891  1.00  0.00    -0.074 Cl
BRANCH   7  10
HETATM   10  C4  UNL     1       1.546   2.126  18.704  1.00  0.00     0.268 C 
BRANCH  10  11
HETATM   11  O2  UNL     1       1.610   2.766  19.941  1.00  0.00    -0.302 OA
BRANCH  11  12
HETATM   12  C3  UNL     1       0.660   3.645  20.435  1.00  0.00     0.259 C 
HETATM   13  O1  UNL     1       1.078   4.668  21.033  1.00  0.00    -0.265 OA
BRANCH  12  14
HETATM   14  C2  UNL     1      -0.813   3.388  20.263  1.00  0.00     0.106 C 
HETATM   15  C1  UNL     1      -1.557   4.678  20.422  1.00  0.00     0.015 C 
ENDBRANCH  12  14
ENDBRANCH  11  12
ENDBRANCH  10  11
BRANCH  10  16
HETATM   16  C5  UNL     1       1.856   3.037  17.552  1.00  0.00     0.172 C 
HETATM   17  N1  UNL     1       2.970   3.670  17.488  1.00  0.00    -0.249 N 
ATOM     18  H1  UNL     1       3.603   3.500  18.268  1.00  0.00     0.196 HD
BRANCH  17  19
HETATM   19  O3  UNL     1       3.433   4.513  16.568  1.00  0.00    -0.288 OA
ATOM     20  H3  UNL     1       4.108   4.398  15.910  1.00  0.00     0.244 HD
ENDBRANCH  17  19
BRANCH  16  21
HETATM   21  O4  UNL     1       0.981   3.254  16.503  1.00  0.00    -0.341 OA
HETATM   22  C6  UNL     1      -0.222   3.977  16.589  1.00  0.00     0.211 C 
ENDBRANCH  16  21
ENDBRANCH  10  16
ENDBRANCH   7  10
ENDBRANCH   1   7
BRANCH   6  23
HETATM   23  O5  UNL     1      -0.442   0.448  18.169  1.00  0.00    -0.310 OA
BRANCH  23  24
HETATM   24  C14 UNL     1      -1.114   0.025  17.040  1.00  0.00     0.076 A 
HETATM   25  C15 UNL     1      -0.733  -1.106  16.327  1.00  0.00     0.039 A 
HETATM   26  C16 UNL     1      -1.462  -1.456  15.211  1.00  0.00     0.026 A 
HETATM   27  C17 UNL     1      -2.543  -0.707  14.805  1.00  0.00     0.064 A 
HETATM   28  C24 UNL     1      -2.896   0.402  15.527  1.00  0.00     0.026 A 
HETATM   29  C25 UNL     1      -2.202   0.784  16.638  1.00  0.00     0.039 A 
BRANCH  27  30
HETATM   30  S1  UNL     1      -3.482  -1.148  13.377  1.00  0.00     0.206 S 
HETATM   31  O6  UNL     1      -3.043  -2.536  12.958  1.00  0.00    -0.217 OA
HETATM   32  O7  UNL     1      -3.234  -0.204  12.254  1.00  0.00    -0.217 OA
BRANCH  30  33
HETATM   33  C18 UNL     1      -5.187  -1.227  13.754  1.00  0.00     0.064 A 
HETATM   34  C19 UNL     1      -5.667  -1.722  14.948  1.00  0.00     0.024 A 
HETATM   35  C20 UNL     1      -7.005  -1.793  15.261  1.00  0.00     0.002 A 
HETATM   36  C21 UNL     1      -7.885  -1.328  14.296  1.00  0.00     0.000 A 
HETATM   37  C22 UNL     1      -7.448  -0.834  13.108  1.00  0.00     0.002 A 
HETATM   38  C23 UNL     1      -6.118  -0.775  12.820  1.00  0.00     0.024 A 
ENDBRANCH  30  33
ENDBRANCH  27  30
ENDBRANCH  23  24
ENDBRANCH   6  23
TORSDOF 12
ENDMDL
