MODEL 1
REMARK VINA RESULT: -6.258215184      0.000      0.000
REMARK  14 active torsions:
REMARK  status: ('A' for Active; 'I' for Inactive)
REMARK    1  A    between atoms: C2_2  and  O1_3 
REMARK    2  A    between atoms: C2_2  and  C3_5 
REMARK    3  A    between atoms: C3_5  and  C4_6 
REMARK    4  A    between atoms: C4_6  and  C6_9 
REMARK    5  A    between atoms: C6_9  and  O2_10 
REMARK    6  A    between atoms: C6_9  and  N1_12 
REMARK    7  A    between atoms: N1_12  and  C7_13 
REMARK    8  A    between atoms: N1_12  and  C13_21 
REMARK    9  A    between atoms: C7_13  and  C8_14 
REMARK   10  A    between atoms: C8_14  and  O4_16 
REMARK   11  A    between atoms: O4_16  and  C9_17 
REMARK   12  A    between atoms: C13_21  and  C14_22 
REMARK   13  A    between atoms: N3_25  and  C15_26 
REMARK   14  A    between atoms: N4_31  and  C19_32 
ROOT
HETATM    1  N1  UNL     1       0.256   1.073  18.798  1.00  0.00    -0.347 N 
ENDROOT
BRANCH   1   2
HETATM    2  C6  UNL     1       0.303   2.210  19.621  1.00  0.00     0.138 C 
BRANCH   2   3
HETATM    3  C4  UNL     1       0.134   3.617  19.252  1.00  0.00     0.103 C 
HETATM    4  C5  UNL     1      -1.290   4.072  19.621  1.00  0.00     0.042 C 
HETATM    5 CL1  UNL     1       0.423   4.042  17.584  1.00  0.00    -0.110 Cl
BRANCH   3   6
HETATM    6  C3  UNL     1       1.101   4.460  20.093  1.00  0.00     0.097 C 
BRANCH   6   7
HETATM    7  C2  UNL     1       2.516   4.182  19.781  1.00  0.00     0.036 C 
HETATM    8  C1  UNL     1       3.134   4.835  18.798  1.00  0.00     0.045 C 
BRANCH   7   9
HETATM    9  O1  UNL     1       3.210   3.239  20.505  1.00  0.00    -0.366 OA
ATOM     10  H1  UNL     1       3.579   3.477  21.347  1.00  0.00     0.217 HD
ENDBRANCH   7   9
ENDBRANCH   6   7
ENDBRANCH   3   6
ENDBRANCH   2   3
BRANCH   2  11
HETATM   11  O2  UNL     1       0.522   1.947  20.879  1.00  0.00    -0.348 OA
ATOM     12  H2  UNL     1       0.037   1.225  21.263  1.00  0.00     0.219 HD
ENDBRANCH   2  11
ENDBRANCH   1   2
BRANCH   1  13
HETATM   13  C7  UNL     1       1.369   0.676  18.012  1.00  0.00     0.236 C 
BRANCH  13  14
HETATM   14  C8  UNL     1       2.460   0.034  18.746  1.00  0.00     0.277 C 
HETATM   15  O3  UNL     1       3.210   0.702  19.483  1.00  0.00    -0.263 OA
BRANCH  14  16
HETATM   16  O4  UNL     1       2.653  -1.320  18.618  1.00  0.00    -0.310 OA
BRANCH  16  17
HETATM   17  C9  UNL     1       2.406  -2.268  19.632  1.00  0.00     0.060 C 
HETATM   18  C10 UNL     1       1.147  -2.015  20.390  1.00  0.00     0.045 C 
HETATM   19  C11 UNL     1       3.571  -2.203  20.604  1.00  0.00     0.045 C 
HETATM   20  C12 UNL     1       2.415  -3.639  18.971  1.00  0.00     0.045 C 
ENDBRANCH  16  17
ENDBRANCH  14  16
ENDBRANCH  13  14
ENDBRANCH   1  13
BRANCH   1  21
HETATM   21  C13 UNL     1      -1.009   0.306  18.786  1.00  0.00     0.203 C 
BRANCH  21  22
HETATM   22  C14 UNL     1      -1.613   0.446  17.464  1.00  0.00     0.119 A 
HETATM   23  N2  UNL     1      -2.085   1.587  16.947  1.00  0.00    -0.283 N 
HETATM   24  N3  UNL     1      -2.570   1.395  15.738  1.00  0.00    -0.262 N 
ATOM     25  H2  UNL     1      -2.071   2.487  17.428  1.00  0.00     0.188 HD
HETATM   26  C18 UNL     1      -2.386   0.083  15.506  1.00  0.00     0.197 A 
HETATM   27  S1  UNL     1      -2.829  -0.657  14.118  1.00  0.00    -0.039 SA
HETATM   28  N4  UNL     1      -1.799  -0.527  16.550  1.00  0.00    -0.305 N 
BRANCH  24  29
HETATM   29  C15 UNL     1      -3.165   2.403  14.873  1.00  0.00     0.103 C 
HETATM   30  C16 UNL     1      -2.402   3.696  15.031  1.00  0.00     0.034 C 
HETATM   31  C17 UNL     1      -4.628   2.585  15.123  1.00  0.00     0.034 C 
ENDBRANCH  24  29
BRANCH  28  32
HETATM   32  C19 UNL     1      -1.454  -1.927  16.647  1.00  0.00     0.094 C 
HETATM   33  C20 UNL     1      -1.936  -2.549  17.942  1.00  0.00     0.026 C 
HETATM   34  C21 UNL     1      -1.207  -3.877  18.075  1.00  0.00     0.002 C 
HETATM   35  C22 UNL     1      -0.906  -4.470  16.703  1.00  0.00     0.000 C 
HETATM   36  C23 UNL     1       0.089  -3.661  15.931  1.00  0.00     0.002 C 
HETATM   37  C24 UNL     1      -0.001  -2.216  16.448  1.00  0.00     0.026 C 
ENDBRANCH  28  32
ENDBRANCH  21  22
ENDBRANCH   1  21
TORSDOF 14
ENDMDL
MODEL 2
REMARK VINA RESULT: -6.206773841      2.485      5.646
REMARK  14 active torsions:
REMARK  status: ('A' for Active; 'I' for Inactive)
REMARK    1  A    between atoms: C2_2  and  O1_3 
REMARK    2  A    between atoms: C2_2  and  C3_5 
REMARK    3  A    between atoms: C3_5  and  C4_6 
REMARK    4  A    between atoms: C4_6  and  C6_9 
REMARK    5  A    between atoms: C6_9  and  O2_10 
REMARK    6  A    between atoms: C6_9  and  N1_12 
REMARK    7  A    between atoms: N1_12  and  C7_13 
REMARK    8  A    between atoms: N1_12  and  C13_21 
REMARK    9  A    between atoms: C7_13  and  C8_14 
REMARK   10  A    between atoms: C8_14  and  O4_16 
REMARK   11  A    between atoms: O4_16  and  C9_17 
REMARK   12  A    between atoms: C13_21  and  C14_22 
REMARK   13  A    between atoms: N3_25  and  C15_26 
REMARK   14  A    between atoms: N4_31  and  C19_32 
ROOT
HETATM    1  N1  UNL     1      -0.471  -1.503  17.927  1.00  0.00    -0.347 N 
ENDROOT
BRANCH   1   2
HETATM    2  C6  UNL     1      -1.311  -2.629  17.903  1.00  0.00     0.138 C 
BRANCH   2   3
HETATM    3  C4  UNL     1      -1.842  -3.353  16.747  1.00  0.00     0.103 C 
HETATM    4  C5  UNL     1      -1.125  -4.710  16.623  1.00  0.00     0.042 C 
HETATM    5 CL1  UNL     1      -1.754  -2.552  15.199  1.00  0.00    -0.110 Cl
BRANCH   3   6
HETATM    6  C3  UNL     1      -3.324  -3.655  17.001  1.00  0.00     0.097 C 
BRANCH   6   7
HETATM    7  C2  UNL     1      -4.154  -2.436  17.036  1.00  0.00     0.036 C 
HETATM    8  C1  UNL     1      -4.866  -2.070  15.971  1.00  0.00     0.045 C 
BRANCH   7   9
HETATM    9  O1  UNL     1      -4.198  -1.663  18.174  1.00  0.00    -0.366 OA
ATOM     10  H1  UNL     1      -4.977  -1.676  18.716  1.00  0.00     0.217 HD
ENDBRANCH   7   9
ENDBRANCH   6   7
ENDBRANCH   3   6
ENDBRANCH   2   3
BRANCH   2  11
HETATM   11  O2  UNL     1      -1.641  -3.070  19.085  1.00  0.00    -0.348 OA
ATOM     12  H2  UNL     1      -1.092  -2.809  19.815  1.00  0.00     0.219 HD
ENDBRANCH   2  11
ENDBRANCH   1   2
BRANCH   1  13
HETATM   13  C7  UNL     1       0.797  -1.508  17.289  1.00  0.00     0.236 C 
BRANCH  13  14
HETATM   14  C8  UNL     1       1.863  -2.199  18.014  1.00  0.00     0.277 C 
HETATM   15  O3  UNL     1       2.155  -3.379  17.742  1.00  0.00    -0.263 OA
BRANCH  14  16
HETATM   16  O4  UNL     1       2.544  -1.535  19.005  1.00  0.00    -0.310 OA
BRANCH  16  17
HETATM   17  C9  UNL     1       2.370  -1.753  20.387  1.00  0.00     0.060 C 
HETATM   18  C10 UNL     1       1.454  -2.888  20.700  1.00  0.00     0.045 C 
HETATM   19  C11 UNL     1       1.776  -0.484  20.972  1.00  0.00     0.045 C 
HETATM   20  C12 UNL     1       3.756  -1.950  20.985  1.00  0.00     0.045 C 
ENDBRANCH  16  17
ENDBRANCH  14  16
ENDBRANCH  13  14
ENDBRANCH   1  13
BRANCH   1  21
HETATM   21  C13 UNL     1      -0.966  -0.311  18.648  1.00  0.00     0.203 C 
BRANCH  21  22
HETATM   22  C14 UNL     1      -1.340   0.697  17.660  1.00  0.00     0.119 A 
HETATM   23  N2  UNL     1      -2.255   0.533  16.698  1.00  0.00    -0.283 N 
HETATM   24  N3  UNL     1      -2.371   1.619  15.963  1.00  0.00    -0.262 N 
ATOM     25  H2  UNL     1      -2.794  -0.322  16.554  1.00  0.00     0.188 HD
HETATM   26  C18 UNL     1      -1.489   2.482  16.497  1.00  0.00     0.197 A 
HETATM   27  S1  UNL     1      -1.253   3.996  15.930  1.00  0.00    -0.039 SA
HETATM   28  N4  UNL     1      -0.840   1.943  17.544  1.00  0.00    -0.305 N 
BRANCH  24  29
HETATM   29  C15 UNL     1      -3.264   1.807  14.829  1.00  0.00     0.103 C 
HETATM   30  C16 UNL     1      -4.635   2.174  15.343  1.00  0.00     0.034 C 
HETATM   31  C17 UNL     1      -3.307   0.618  13.926  1.00  0.00     0.034 C 
ENDBRANCH  24  29
BRANCH  28  32
HETATM   32  C19 UNL     1       0.173   2.582  18.352  1.00  0.00     0.094 C 
HETATM   33  C20 UNL     1       1.558   2.034  18.078  1.00  0.00     0.026 C 
HETATM   34  C21 UNL     1       2.441   2.513  19.220  1.00  0.00     0.002 C 
HETATM   35  C22 UNL     1       1.958   3.857  19.751  1.00  0.00     0.000 C 
HETATM   36  C23 UNL     1       0.625   3.766  20.425  1.00  0.00     0.002 C 
HETATM   37  C24 UNL     1      -0.108   2.557  19.821  1.00  0.00     0.026 C 
ENDBRANCH  28  32
ENDBRANCH  21  22
ENDBRANCH   1  21
TORSDOF 14
ENDMDL
MODEL 3
REMARK VINA RESULT: -6.149939125      2.003      4.054
REMARK  14 active torsions:
REMARK  status: ('A' for Active; 'I' for Inactive)
REMARK    1  A    between atoms: C2_2  and  O1_3 
REMARK    2  A    between atoms: C2_2  and  C3_5 
REMARK    3  A    between atoms: C3_5  and  C4_6 
REMARK    4  A    between atoms: C4_6  and  C6_9 
REMARK    5  A    between atoms: C6_9  and  O2_10 
REMARK    6  A    between atoms: C6_9  and  N1_12 
REMARK    7  A    between atoms: N1_12  and  C7_13 
REMARK    8  A    between atoms: N1_12  and  C13_21 
REMARK    9  A    between atoms: C7_13  and  C8_14 
REMARK   10  A    between atoms: C8_14  and  O4_16 
REMARK   11  A    between atoms: O4_16  and  C9_17 
REMARK   12  A    between atoms: C13_21  and  C14_22 
REMARK   13  A    between atoms: N3_25  and  C15_26 
REMARK   14  A    between atoms: N4_31  and  C19_32 
ROOT
HETATM    1  N1  UNL     1      -0.533   1.407  17.698  1.00  0.00    -0.347 N 
ENDROOT
BRANCH   1   2
HETATM    2  C6  UNL     1      -0.157   2.121  18.849  1.00  0.00     0.138 C 
BRANCH   2   3
HETATM    3  C4  UNL     1       0.068   3.559  19.003  1.00  0.00     0.103 C 
HETATM    4  C5  UNL     1      -1.289   4.278  19.114  1.00  0.00     0.042 C 
HETATM    5 CL1  UNL     1       1.002   4.356  17.762  1.00  0.00    -0.110 Cl
BRANCH   3   6
HETATM    6  C3  UNL     1       0.806   3.796  20.327  1.00  0.00     0.097 C 
BRANCH   6   7
HETATM    7  C2  UNL     1       2.272   3.818  20.164  1.00  0.00     0.036 C 
HETATM    8  C1  UNL     1       2.960   4.940  20.366  1.00  0.00     0.045 C 
BRANCH   7   9
HETATM    9  O1  UNL     1       2.942   2.673  19.797  1.00  0.00    -0.366 OA
ATOM     10  H1  UNL     1       2.453   1.940  19.442  1.00  0.00     0.217 HD
ENDBRANCH   7   9
ENDBRANCH   6   7
ENDBRANCH   3   6
ENDBRANCH   2   3
BRANCH   2  11
HETATM   11  O2  UNL     1      -0.002   1.376  19.908  1.00  0.00    -0.348 OA
ATOM     12  H2  UNL     1       0.558   0.614  19.825  1.00  0.00     0.219 HD
ENDBRANCH   2  11
ENDBRANCH   1   2
BRANCH   1  13
HETATM   13  C7  UNL     1       0.394   1.129  16.659  1.00  0.00     0.236 C 
BRANCH  13  14
HETATM   14  C8  UNL     1       1.623   0.454  17.078  1.00  0.00     0.277 C 
HETATM   15  O3  UNL     1       2.655   1.108  17.323  1.00  0.00    -0.263 OA
BRANCH  14  16
HETATM   16  O4  UNL     1       1.633  -0.913  17.200  1.00  0.00    -0.310 OA
BRANCH  16  17
HETATM   17  C9  UNL     1       1.910  -1.813  16.151  1.00  0.00     0.060 C 
HETATM   18  C10 UNL     1       0.689  -2.437  15.563  1.00  0.00     0.045 C 
HETATM   19  C11 UNL     1       2.783  -2.917  16.721  1.00  0.00     0.045 C 
HETATM   20  C12 UNL     1       2.723  -1.052  15.113  1.00  0.00     0.045 C 
ENDBRANCH  16  17
ENDBRANCH  14  16
ENDBRANCH  13  14
ENDBRANCH   1  13
BRANCH   1  21
HETATM   21  C13 UNL     1      -1.939   0.960  17.616  1.00  0.00     0.203 C 
BRANCH  21  22
HETATM   22  C14 UNL     1      -1.963  -0.495  17.739  1.00  0.00     0.119 A 
HETATM   23  N2  UNL     1      -1.377  -1.197  18.717  1.00  0.00    -0.283 N 
HETATM   24  N3  UNL     1      -1.572  -2.489  18.556  1.00  0.00    -0.262 N 
ATOM     25  H2  UNL     1      -0.849  -0.784  19.486  1.00  0.00     0.188 HD
HETATM   26  C18 UNL     1      -2.307  -2.581  17.433  1.00  0.00     0.197 A 
HETATM   27  S1  UNL     1      -2.816  -4.000  16.804  1.00  0.00    -0.039 SA
HETATM   28  N4  UNL     1      -2.563  -1.370  16.909  1.00  0.00    -0.305 N 
BRANCH  24  29
HETATM   29  C15 UNL     1      -1.084  -3.554  19.420  1.00  0.00     0.103 C 
HETATM   30  C16 UNL     1      -1.007  -3.037  20.836  1.00  0.00     0.034 C 
HETATM   31  C17 UNL     1       0.222  -4.116  18.960  1.00  0.00     0.034 C 
ENDBRANCH  24  29
BRANCH  28  32
HETATM   32  C19 UNL     1      -3.321  -1.094  15.710  1.00  0.00     0.094 C 
HETATM   33  C20 UNL     1      -2.432  -0.723  14.541  1.00  0.00     0.026 C 
HETATM   34  C21 UNL     1      -3.345  -0.115  13.486  1.00  0.00     0.002 C 
HETATM   35  C22 UNL     1      -4.739  -0.727  13.559  1.00  0.00     0.000 C 
HETATM   36  C23 UNL     1      -5.462  -0.366  14.820  1.00  0.00     0.002 C 
HETATM   37  C24 UNL     1      -4.394  -0.068  15.885  1.00  0.00     0.026 C 
ENDBRANCH  28  32
ENDBRANCH  21  22
ENDBRANCH   1  21
TORSDOF 14
ENDMDL
MODEL 4
REMARK VINA RESULT: -6.148600959      2.783      6.266
REMARK  14 active torsions:
REMARK  status: ('A' for Active; 'I' for Inactive)
REMARK    1  A    between atoms: C2_2  and  O1_3 
REMARK    2  A    between atoms: C2_2  and  C3_5 
REMARK    3  A    between atoms: C3_5  and  C4_6 
REMARK    4  A    between atoms: C4_6  and  C6_9 
REMARK    5  A    between atoms: C6_9  and  O2_10 
REMARK    6  A    between atoms: C6_9  and  N1_12 
REMARK    7  A    between atoms: N1_12  and  C7_13 
REMARK    8  A    between atoms: N1_12  and  C13_21 
REMARK    9  A    between atoms: C7_13  and  C8_14 
REMARK   10  A    between atoms: C8_14  and  O4_16 
REMARK   11  A    between atoms: O4_16  and  C9_17 
REMARK   12  A    between atoms: C13_21  and  C14_22 
REMARK   13  A    between atoms: N3_25  and  C15_26 
REMARK   14  A    between atoms: N4_31  and  C19_32 
ROOT
HETATM    1  N1  UNL     1      -0.715  -0.799  18.181  1.00  0.00    -0.347 N 
ENDROOT
BRANCH   1   2
HETATM    2  C6  UNL     1       0.208  -1.035  17.148  1.00  0.00     0.138 C 
BRANCH   2   3
HETATM    3  C4  UNL     1       1.549  -1.617  17.233  1.00  0.00     0.103 C 
HETATM    4  C5  UNL     1       2.257  -1.083  18.491  1.00  0.00     0.042 C 
HETATM    5 CL1  UNL     1       2.610  -1.370  15.869  1.00  0.00    -0.110 Cl
BRANCH   3   6
HETATM    6  C3  UNL     1       1.410  -3.135  17.410  1.00  0.00     0.097 C 
BRANCH   6   7
HETATM    7  C2  UNL     1       1.523  -3.868  16.136  1.00  0.00     0.036 C 
HETATM    8  C1  UNL     1       0.450  -4.073  15.374  1.00  0.00     0.045 C 
BRANCH   7   9
HETATM    9  O1  UNL     1       2.745  -4.350  15.723  1.00  0.00    -0.366 OA
ATOM     10  H1  UNL     1       3.213  -4.965  16.275  1.00  0.00     0.217 HD
ENDBRANCH   7   9
ENDBRANCH   6   7
ENDBRANCH   3   6
ENDBRANCH   2   3
BRANCH   2  11
HETATM   11  O2  UNL     1      -0.217  -0.687  15.966  1.00  0.00    -0.348 OA
ATOM     12  H2  UNL     1      -1.023  -1.085  15.660  1.00  0.00     0.219 HD
ENDBRANCH   2  11
ENDBRANCH   1   2
BRANCH   1  13
HETATM   13  C7  UNL     1      -1.677  -1.773  18.556  1.00  0.00     0.236 C 
BRANCH  13  14
HETATM   14  C8  UNL     1      -3.035  -1.537  18.064  1.00  0.00     0.277 C 
HETATM   15  O3  UNL     1      -4.020  -1.745  18.797  1.00  0.00    -0.263 OA
BRANCH  14  16
HETATM   16  O4  UNL     1      -3.217  -1.083  16.782  1.00  0.00    -0.310 OA
BRANCH  16  17
HETATM   17  C9  UNL     1      -3.767  -1.842  15.729  1.00  0.00     0.060 C 
HETATM   18  C10 UNL     1      -3.380  -3.283  15.769  1.00  0.00     0.045 C 
HETATM   19  C11 UNL     1      -3.258  -1.246  14.428  1.00  0.00     0.045 C 
HETATM   20  C12 UNL     1      -5.276  -1.650  15.781  1.00  0.00     0.045 C 
ENDBRANCH  16  17
ENDBRANCH  14  16
ENDBRANCH  13  14
ENDBRANCH   1  13
BRANCH   1  21
HETATM   21  C13 UNL     1      -0.641   0.513  18.859  1.00  0.00     0.203 C 
BRANCH  21  22
HETATM   22  C14 UNL     1      -0.999   1.547  17.892  1.00  0.00     0.119 A 
HETATM   23  N2  UNL     1      -2.051   1.500  17.066  1.00  0.00    -0.283 N 
HETATM   24  N3  UNL     1      -2.111   2.578  16.312  1.00  0.00    -0.262 N 
ATOM     25  H2  UNL     1      -2.719   0.730  17.026  1.00  0.00     0.188 HD
HETATM   26  C18 UNL     1      -1.052   3.314  16.693  1.00  0.00     0.197 A 
HETATM   27  S1  UNL     1      -0.684   4.767  16.043  1.00  0.00    -0.039 SA
HETATM   28  N4  UNL     1      -0.350   2.705  17.664  1.00  0.00    -0.305 N 
BRANCH  24  29
HETATM   29  C15 UNL     1      -3.114   2.873  15.300  1.00  0.00     0.103 C 
HETATM   30  C16 UNL     1      -4.425   2.250  15.714  1.00  0.00     0.034 C 
HETATM   31  C17 UNL     1      -2.698   2.438  13.932  1.00  0.00     0.034 C 
ENDBRANCH  24  29
BRANCH  28  32
HETATM   32  C19 UNL     1       0.844   3.205  18.308  1.00  0.00     0.094 C 
HETATM   33  C20 UNL     1       2.094   2.494  17.832  1.00  0.00     0.026 C 
HETATM   34  C21 UNL     1       3.191   2.847  18.826  1.00  0.00     0.002 C 
HETATM   35  C22 UNL     1       2.962   4.235  19.415  1.00  0.00     0.000 C 
HETATM   36  C23 UNL     1       1.743   4.300  20.282  1.00  0.00     0.002 C 
HETATM   37  C24 UNL     1       0.785   3.197  19.802  1.00  0.00     0.026 C 
ENDBRANCH  28  32
ENDBRANCH  21  22
ENDBRANCH   1  21
TORSDOF 14
ENDMDL
MODEL 5
REMARK VINA RESULT: -6.123839028      2.077      5.828
REMARK  14 active torsions:
REMARK  status: ('A' for Active; 'I' for Inactive)
REMARK    1  A    between atoms: C2_2  and  O1_3 
REMARK    2  A    between atoms: C2_2  and  C3_5 
REMARK    3  A    between atoms: C3_5  and  C4_6 
REMARK    4  A    between atoms: C4_6  and  C6_9 
REMARK    5  A    between atoms: C6_9  and  O2_10 
REMARK    6  A    between atoms: C6_9  and  N1_12 
REMARK    7  A    between atoms: N1_12  and  C7_13 
REMARK    8  A    between atoms: N1_12  and  C13_21 
REMARK    9  A    between atoms: C7_13  and  C8_14 
REMARK   10  A    between atoms: C8_14  and  O4_16 
REMARK   11  A    between atoms: O4_16  and  C9_17 
REMARK   12  A    between atoms: C13_21  and  C14_22 
REMARK   13  A    between atoms: N3_25  and  C15_26 
REMARK   14  A    between atoms: N4_31  and  C19_32 
ROOT
HETATM    1  N1  UNL     1       0.757  -0.153  18.732  1.00  0.00    -0.347 N 
ENDROOT
BRANCH   1   2
HETATM    2  C6  UNL     1       1.173  -0.830  19.891  1.00  0.00     0.138 C 
BRANCH   2   3
HETATM    3  C4  UNL     1       1.800  -2.148  20.008  1.00  0.00     0.103 C 
HETATM    4  C5  UNL     1       3.222  -1.987  20.576  1.00  0.00     0.042 C 
HETATM    5 CL1  UNL     1       1.903  -3.110  18.555  1.00  0.00    -0.110 Cl
BRANCH   3   6
HETATM    6  C3  UNL     1       1.005  -2.976  21.026  1.00  0.00     0.097 C 
BRANCH   6   7
HETATM    7  C2  UNL     1      -0.099  -3.732  20.405  1.00  0.00     0.036 C 
HETATM    8  C1  UNL     1       0.048  -5.021  20.104  1.00  0.00     0.045 C 
BRANCH   7   9
HETATM    9  O1  UNL     1      -1.294  -3.107  20.131  1.00  0.00    -0.366 OA
ATOM     10  H1  UNL     1      -1.290  -2.274  19.675  1.00  0.00     0.217 HD
ENDBRANCH   7   9
ENDBRANCH   6   7
ENDBRANCH   3   6
ENDBRANCH   2   3
BRANCH   2  11
HETATM   11  O2  UNL     1       0.966  -0.169  20.996  1.00  0.00    -0.348 OA
ATOM     12  H2  UNL     1       0.932   0.779  20.934  1.00  0.00     0.219 HD
ENDBRANCH   2  11
ENDBRANCH   1   2
BRANCH   1  13
HETATM   13  C7  UNL     1       1.691   0.335  17.780  1.00  0.00     0.236 C 
BRANCH  13  14
HETATM   14  C8  UNL     1       2.541   1.433  18.240  1.00  0.00     0.277 C 
HETATM   15  O3  UNL     1       3.202   1.328  19.290  1.00  0.00    -0.263 OA
BRANCH  14  16
HETATM   16  O4  UNL     1       2.606   2.589  17.502  1.00  0.00    -0.310 OA
BRANCH  16  17
HETATM   17  C9  UNL     1       2.082   3.833  17.906  1.00  0.00     0.060 C 
HETATM   18  C10 UNL     1       0.955   3.718  18.877  1.00  0.00     0.045 C 
HETATM   19  C11 UNL     1       1.569   4.534  16.660  1.00  0.00     0.045 C 
HETATM   20  C12 UNL     1       3.242   4.646  18.465  1.00  0.00     0.045 C 
ENDBRANCH  16  17
ENDBRANCH  14  16
ENDBRANCH  13  14
ENDBRANCH   1  13
BRANCH   1  21
HETATM   21  C13 UNL     1      -0.698   0.032  18.548  1.00  0.00     0.203 C 
BRANCH  21  22
HETATM   22  C14 UNL     1      -1.127  -0.809  17.434  1.00  0.00     0.119 A 
HETATM   23  N2  UNL     1      -0.928  -2.129  17.342  1.00  0.00    -0.283 N 
HETATM   24  N3  UNL     1      -1.427  -2.607  16.221  1.00  0.00    -0.262 N 
ATOM     25  H2  UNL     1      -0.452  -2.691  18.048  1.00  0.00     0.188 HD
HETATM   26  C18 UNL     1      -1.953  -1.535  15.603  1.00  0.00     0.197 A 
HETATM   27  S1  UNL     1      -2.701  -1.608  14.152  1.00  0.00    -0.039 SA
HETATM   28  N4  UNL     1      -1.784  -0.414  16.326  1.00  0.00    -0.305 N 
BRANCH  24  29
HETATM   29  C15 UNL     1      -1.397  -3.994  15.781  1.00  0.00     0.103 C 
HETATM   30  C16 UNL     1      -1.851  -4.878  16.917  1.00  0.00     0.034 C 
HETATM   31  C17 UNL     1      -0.059  -4.403  15.257  1.00  0.00     0.034 C 
ENDBRANCH  24  29
BRANCH  28  32
HETATM   32  C19 UNL     1      -2.220   0.916  15.968  1.00  0.00     0.094 C 
HETATM   33  C20 UNL     1      -1.188   1.971  16.311  1.00  0.00     0.026 C 
HETATM   34  C21 UNL     1      -1.904   3.311  16.229  1.00  0.00     0.002 C 
HETATM   35  C22 UNL     1      -3.018   3.267  15.189  1.00  0.00     0.000 C 
HETATM   36  C23 UNL     1      -4.139   2.356  15.583  1.00  0.00     0.002 C 
HETATM   37  C24 UNL     1      -3.552   1.298  16.531  1.00  0.00     0.026 C 
ENDBRANCH  28  32
ENDBRANCH  21  22
ENDBRANCH   1  21
TORSDOF 14
ENDMDL
