MODEL 1
REMARK VINA RESULT: -6.877499425      0.000      0.000
REMARK  8 active torsions:
REMARK  status: ('A' for Active; 'I' for Inactive)
REMARK    1  A    between atoms: N1_5  and  C5_7 
REMARK    2  A    between atoms: C5_7  and  C6_8 
REMARK    3  A    between atoms: C6_8  and  C7_9 
REMARK    4  A    between atoms: C7_9  and  O1_10 
REMARK    5  A    between atoms: C8_14  and  N3_15 
REMARK    6  A    between atoms: N3_15  and  C9_17 
REMARK    7  A    between atoms: C9_17  and  C10_18 
REMARK    8  A    between atoms: C10_18  and  C11_19 
ROOT
HETATM    1  C1  UNL     1      -0.635  89.305 128.563  1.00  0.00     0.069 C 
HETATM    2  C2  UNL     1      -0.628  89.156 130.042  1.00  0.00     0.026 A 
HETATM    3  C3  UNL     1      -0.649  90.289 130.819  1.00  0.00     0.073 A 
HETATM    4  C4  UNL     1      -0.644  90.188 132.189  1.00  0.00     0.118 A 
HETATM    5  N1  UNL     1      -0.664  91.230 132.921  1.00  0.00    -0.376 N 
ATOM      6  H1  UNL     1      -0.660  91.079 133.930  1.00  0.00     0.161 HD
HETATM    7  N2  UNL     1      -0.620  88.938 132.742  1.00  0.00    -0.177 N 
ATOM      8  H2  UNL     1      -0.616  88.846 133.758  1.00  0.00     0.185 HD
HETATM    9  C8  UNL     1      -0.600  87.835 131.990  1.00  0.00     0.679 A 
HETATM   10  N5  UNL     1      -0.604  87.961 130.659  1.00  0.00    -0.196 N 
ATOM     11  H5  UNL     1      -0.589  87.117 130.088  1.00  0.00     0.184 HD
ENDROOT
BRANCH   9  12
HETATM   12  N3  UNL     1      -0.577  86.690 132.521  1.00  0.00    -0.226 N 
ATOM     13  H3  UNL     1      -0.158  85.941 131.971  1.00  0.00     0.177 HD
BRANCH  12  14
HETATM   14  C9  UNL     1      -1.078  86.334 133.813  1.00  0.00     0.144 C 
BRANCH  14  15
HETATM   15  C10 UNL     1      -2.455  85.741 133.778  1.00  0.00     0.077 C 
BRANCH  15  16
HETATM   16  C11 UNL     1      -3.463  86.794 134.090  1.00  0.00     0.010 A 
HETATM   17  C12 UNL     1      -4.702  86.821 133.487  1.00  0.00     0.025 A 
HETATM   18  C13 UNL     1      -5.650  87.792 133.765  1.00  0.00     0.003 A 
HETATM   19  C14 UNL     1      -5.331  88.755 134.675  1.00  0.00     0.017 A 
HETATM   20  C15 UNL     1      -4.089  88.710 135.265  1.00  0.00     0.088 A 
HETATM   21  N4  UNL     1      -3.173  87.771 134.996  1.00  0.00    -0.369 N 
ATOM     22  H4  UNL     1      -2.268  87.786 135.465  1.00  0.00     0.165 HD
ENDBRANCH  15  16
ENDBRANCH  14  15
ENDBRANCH  12  14
ENDBRANCH   9  12
BRANCH   5  23
HETATM   23  C5  UNL     1      -0.691  92.588 132.479  1.00  0.00     0.123 C 
BRANCH  23  24
HETATM   24  C6  UNL     1      -1.453  93.485 133.452  1.00  0.00     0.045 C 
BRANCH  24  25
HETATM   25  C7  UNL     1      -2.663  92.732 133.988  1.00  0.00     0.165 C 
BRANCH  25  26
HETATM   26  O1  UNL     1      -2.317  91.958 135.094  1.00  0.00    -0.401 OA
ATOM     27  H1  UNL     1      -2.949  92.068 135.796  1.00  0.00     0.209 HD
ENDBRANCH  25  26
ENDBRANCH  24  25
ENDBRANCH  23  24
ENDBRANCH   5  23
TORSDOF 8
ENDMDL
MODEL 2
REMARK VINA RESULT: -6.726028974      2.222      4.292
REMARK  8 active torsions:
REMARK  status: ('A' for Active; 'I' for Inactive)
REMARK    1  A    between atoms: N1_5  and  C5_7 
REMARK    2  A    between atoms: C5_7  and  C6_8 
REMARK    3  A    between atoms: C6_8  and  C7_9 
REMARK    4  A    between atoms: C7_9  and  O1_10 
REMARK    5  A    between atoms: C8_14  and  N3_15 
REMARK    6  A    between atoms: N3_15  and  C9_17 
REMARK    7  A    between atoms: C9_17  and  C10_18 
REMARK    8  A    between atoms: C10_18  and  C11_19 
ROOT
HETATM    1  C1  UNL     1      -1.764  94.295 133.412  1.00  0.00     0.069 C 
HETATM    2  C2  UNL     1      -1.660  92.820 133.560  1.00  0.00     0.026 A 
HETATM    3  C3  UNL     1      -1.161  92.085 132.512  1.00  0.00     0.073 A 
HETATM    4  C4  UNL     1      -1.051  90.721 132.614  1.00  0.00     0.118 A 
HETATM    5  N1  UNL     1      -0.590  90.028 131.649  1.00  0.00    -0.376 N 
ATOM      6  H1  UNL     1      -0.536  89.020 131.796  1.00  0.00     0.161 HD
HETATM    7  N2  UNL     1      -1.448  90.128 133.780  1.00  0.00    -0.177 N 
ATOM      8  H2  UNL     1      -1.372  89.115 133.872  1.00  0.00     0.185 HD
HETATM    9  C8  UNL     1      -1.933  90.839 134.801  1.00  0.00     0.679 A 
HETATM   10  N5  UNL     1      -2.030  92.166 134.675  1.00  0.00    -0.196 N 
ATOM     11  H5  UNL     1      -2.402  92.705 135.458  1.00  0.00     0.184 HD
ENDROOT
BRANCH   9  12
HETATM   12  N3  UNL     1      -2.294  90.272 135.870  1.00  0.00    -0.226 N 
ATOM     13  H3  UNL     1      -2.278  90.841 136.716  1.00  0.00     0.177 HD
BRANCH  12  14
HETATM   14  C9  UNL     1      -2.724  88.915 136.018  1.00  0.00     0.144 C 
BRANCH  14  15
HETATM   15  C10 UNL     1      -4.046  88.633 135.368  1.00  0.00     0.077 C 
BRANCH  15  16
HETATM   16  C11 UNL     1      -3.919  87.454 134.464  1.00  0.00     0.010 A 
HETATM   17  C12 UNL     1      -4.922  87.092 133.590  1.00  0.00     0.025 A 
HETATM   18  C13 UNL     1      -4.821  86.000 132.743  1.00  0.00     0.003 A 
HETATM   19  C14 UNL     1      -3.677  85.262 132.787  1.00  0.00     0.017 A 
HETATM   20  C15 UNL     1      -2.688  85.639 133.668  1.00  0.00     0.088 A 
HETATM   21  N4  UNL     1      -2.786  86.695 134.485  1.00  0.00    -0.369 N 
ATOM     22  H4  UNL     1      -2.021  86.929 135.117  1.00  0.00     0.165 HD
ENDBRANCH  15  16
ENDBRANCH  14  15
ENDBRANCH  12  14
ENDBRANCH   9  12
BRANCH   5  23
HETATM   23  C5  UNL     1      -0.140  90.513 130.384  1.00  0.00     0.123 C 
BRANCH  23  24
HETATM   24  C6  UNL     1       1.167  89.851 129.954  1.00  0.00     0.045 C 
BRANCH  24  25
HETATM   25  C7  UNL     1       1.069  88.349 130.187  1.00  0.00     0.165 C 
BRANCH  25  26
HETATM   26  O1  UNL     1       2.304  87.821 130.554  1.00  0.00    -0.401 OA
ATOM     27  H1  UNL     1       2.699  88.334 131.250  1.00  0.00     0.209 HD
ENDBRANCH  25  26
ENDBRANCH  24  25
ENDBRANCH  23  24
ENDBRANCH   5  23
TORSDOF 8
ENDMDL
MODEL 3
REMARK VINA RESULT: -6.690449125      2.595      4.356
REMARK  8 active torsions:
REMARK  status: ('A' for Active; 'I' for Inactive)
REMARK    1  A    between atoms: N1_5  and  C5_7 
REMARK    2  A    between atoms: C5_7  and  C6_8 
REMARK    3  A    between atoms: C6_8  and  C7_9 
REMARK    4  A    between atoms: C7_9  and  O1_10 
REMARK    5  A    between atoms: C8_14  and  N3_15 
REMARK    6  A    between atoms: N3_15  and  C9_17 
REMARK    7  A    between atoms: C9_17  and  C10_18 
REMARK    8  A    between atoms: C10_18  and  C11_19 
ROOT
HETATM    1  C1  UNL     1      -0.956  91.132 132.249  1.00  0.00     0.069 C 
HETATM    2  C2  UNL     1      -0.738  89.734 131.795  1.00  0.00     0.026 A 
HETATM    3  C3  UNL     1      -0.617  89.488 130.449  1.00  0.00     0.073 A 
HETATM    4  C4  UNL     1      -0.414  88.209 129.995  1.00  0.00     0.118 A 
HETATM    5  N1  UNL     1      -0.300  87.967 128.749  1.00  0.00    -0.376 N 
ATOM      6  H1  UNL     1      -0.149  86.994 128.485  1.00  0.00     0.161 HD
HETATM    7  N2  UNL     1      -0.337  87.203 130.917  1.00  0.00    -0.177 N 
ATOM      8  H2  UNL     1      -0.185  86.247 130.596  1.00  0.00     0.185 HD
HETATM    9  C8  UNL     1      -0.453  87.438 132.227  1.00  0.00     0.679 A 
HETATM   10  N5  UNL     1      -0.651  88.693 132.642  1.00  0.00    -0.196 N 
ATOM     11  H5  UNL     1      -0.740  88.868 133.643  1.00  0.00     0.184 HD
ENDROOT
BRANCH   9  12
HETATM   12  N3  UNL     1      -0.379  86.495 133.062  1.00  0.00    -0.226 N 
ATOM     13  H3  UNL     1       0.350  85.800 132.902  1.00  0.00     0.177 HD
BRANCH  12  14
HETATM   14  C9  UNL     1      -1.210  86.299 134.211  1.00  0.00     0.144 C 
BRANCH  14  15
HETATM   15  C10 UNL     1      -2.535  85.671 133.890  1.00  0.00     0.077 C 
BRANCH  15  16
HETATM   16  C11 UNL     1      -3.615  86.690 134.011  1.00  0.00     0.010 A 
HETATM   17  C12 UNL     1      -4.025  87.451 132.936  1.00  0.00     0.025 A 
HETATM   18  C13 UNL     1      -5.027  88.403 133.030  1.00  0.00     0.003 A 
HETATM   19  C14 UNL     1      -5.624  88.584 134.241  1.00  0.00     0.017 A 
HETATM   20  C15 UNL     1      -5.200  87.816 135.301  1.00  0.00     0.088 A 
HETATM   21  N4  UNL     1      -4.232  86.895 135.209  1.00  0.00    -0.369 N 
ATOM     22  H4  UNL     1      -3.959  86.353 136.028  1.00  0.00     0.165 HD
ENDBRANCH  15  16
ENDBRANCH  14  15
ENDBRANCH  12  14
ENDBRANCH   9  12
BRANCH   5  23
HETATM   23  C5  UNL     1      -0.359  88.916 127.683  1.00  0.00     0.123 C 
BRANCH  23  24
HETATM   24  C6  UNL     1      -0.388  88.233 126.318  1.00  0.00     0.045 C 
BRANCH  24  25
HETATM   25  C7  UNL     1      -0.003  86.769 126.480  1.00  0.00     0.165 C 
BRANCH  25  26
HETATM   26  O1  UNL     1      -1.123  85.987 126.754  1.00  0.00    -0.401 OA
ATOM     27  H1  UNL     1      -1.156  85.230 126.181  1.00  0.00     0.209 HD
ENDBRANCH  25  26
ENDBRANCH  24  25
ENDBRANCH  23  24
ENDBRANCH   5  23
TORSDOF 8
ENDMDL
MODEL 4
REMARK VINA RESULT: -6.661595682      2.714      3.519
REMARK  8 active torsions:
REMARK  status: ('A' for Active; 'I' for Inactive)
REMARK    1  A    between atoms: N1_5  and  C5_7 
REMARK    2  A    between atoms: C5_7  and  C6_8 
REMARK    3  A    between atoms: C6_8  and  C7_9 
REMARK    4  A    between atoms: C7_9  and  O1_10 
REMARK    5  A    between atoms: C8_14  and  N3_15 
REMARK    6  A    between atoms: N3_15  and  C9_17 
REMARK    7  A    between atoms: C9_17  and  C10_18 
REMARK    8  A    between atoms: C10_18  and  C11_19 
ROOT
HETATM    1  C1  UNL     1      -0.610  93.179 133.918  1.00  0.00     0.069 C 
HETATM    2  C2  UNL     1      -1.230  92.010 133.240  1.00  0.00     0.026 A 
HETATM    3  C3  UNL     1      -2.469  92.162 132.666  1.00  0.00     0.073 A 
HETATM    4  C4  UNL     1      -3.072  91.104 132.031  1.00  0.00     0.118 A 
HETATM    5  N1  UNL     1      -4.221  91.232 131.495  1.00  0.00    -0.376 N 
ATOM      6  H1  UNL     1      -4.606  90.404 131.040  1.00  0.00     0.161 HD
HETATM    7  N2  UNL     1      -2.404  89.912 131.991  1.00  0.00    -0.177 N 
ATOM      8  H2  UNL     1      -2.838  89.117 131.523  1.00  0.00     0.185 HD
HETATM    9  C8  UNL     1      -1.200  89.761 132.548  1.00  0.00     0.679 A 
HETATM   10  N5  UNL     1      -0.636  90.807 133.160  1.00  0.00    -0.196 N 
ATOM     11  H5  UNL     1       0.284  90.687 133.584  1.00  0.00     0.184 HD
ENDROOT
BRANCH   9  12
HETATM   12  N3  UNL     1      -0.599  88.652 132.499  1.00  0.00    -0.226 N 
ATOM     13  H3  UNL     1       0.415  88.677 132.605  1.00  0.00     0.177 HD
BRANCH  12  14
HETATM   14  C9  UNL     1      -1.193  87.363 132.312  1.00  0.00     0.144 C 
BRANCH  14  15
HETATM   15  C10 UNL     1      -1.580  86.691 133.596  1.00  0.00     0.077 C 
BRANCH  15  16
HETATM   16  C11 UNL     1      -2.972  87.079 133.965  1.00  0.00     0.010 A 
HETATM   17  C12 UNL     1      -4.059  86.715 133.199  1.00  0.00     0.025 A 
HETATM   18  C13 UNL     1      -5.358  87.068 133.527  1.00  0.00     0.003 A 
HETATM   19  C14 UNL     1      -5.555  87.804 134.656  1.00  0.00     0.017 A 
HETATM   20  C15 UNL     1      -4.456  88.157 135.406  1.00  0.00     0.088 A 
HETATM   21  N4  UNL     1      -3.201  87.816 135.089  1.00  0.00    -0.369 N 
ATOM     22  H4  UNL     1      -2.424  88.105 135.683  1.00  0.00     0.165 HD
ENDBRANCH  15  16
ENDBRANCH  14  15
ENDBRANCH  12  14
ENDBRANCH   9  12
BRANCH   5  23
HETATM   23  C5  UNL     1      -5.025  92.412 131.462  1.00  0.00     0.123 C 
BRANCH  23  24
HETATM   24  C6  UNL     1      -5.048  93.043 130.072  1.00  0.00     0.045 C 
BRANCH  24  25
HETATM   25  C7  UNL     1      -6.155  92.400 129.247  1.00  0.00     0.165 C 
BRANCH  25  26
HETATM   26  O1  UNL     1      -5.811  91.102 128.877  1.00  0.00    -0.401 OA
ATOM     27  H1  UNL     1      -6.019  90.944 127.963  1.00  0.00     0.209 HD
ENDBRANCH  25  26
ENDBRANCH  24  25
ENDBRANCH  23  24
ENDBRANCH   5  23
TORSDOF 8
ENDMDL
MODEL 5
REMARK VINA RESULT: -6.553761388      2.662      3.478
REMARK  8 active torsions:
REMARK  status: ('A' for Active; 'I' for Inactive)
REMARK    1  A    between atoms: N1_5  and  C5_7 
REMARK    2  A    between atoms: C5_7  and  C6_8 
REMARK    3  A    between atoms: C6_8  and  C7_9 
REMARK    4  A    between atoms: C7_9  and  O1_10 
REMARK    5  A    between atoms: C8_14  and  N3_15 
REMARK    6  A    between atoms: N3_15  and  C9_17 
REMARK    7  A    between atoms: C9_17  and  C10_18 
REMARK    8  A    between atoms: C10_18  and  C11_19 
ROOT
HETATM    1  C1  UNL     1      -0.768  91.932 133.234  1.00  0.00     0.069 C 
HETATM    2  C2  UNL     1      -1.101  90.761 132.382  1.00  0.00     0.026 A 
HETATM    3  C3  UNL     1      -1.811  90.968 131.224  1.00  0.00     0.073 A 
HETATM    4  C4  UNL     1      -2.135  89.908 130.413  1.00  0.00     0.118 A 
HETATM    5  N1  UNL     1      -2.792  90.086 129.336  1.00  0.00    -0.376 N 
ATOM      6  H1  UNL     1      -2.996  89.254 128.783  1.00  0.00     0.161 HD
HETATM    7  N2  UNL     1      -1.732  88.659 130.794  1.00  0.00    -0.177 N 
ATOM      8  H2  UNL     1      -1.965  87.862 130.202  1.00  0.00     0.185 HD
HETATM    9  C8  UNL     1      -1.043  88.454 131.919  1.00  0.00     0.679 A 
HETATM   10  N5  UNL     1      -0.740  89.503 132.691  1.00  0.00    -0.196 N 
ATOM     11  H5  UNL     1      -0.214  89.342 133.550  1.00  0.00     0.184 HD
ENDROOT
BRANCH   9  12
HETATM   12  N3  UNL     1      -0.680  87.292 132.253  1.00  0.00    -0.226 N 
ATOM     13  H3  UNL     1       0.050  86.862 131.686  1.00  0.00     0.177 HD
BRANCH  12  14
HETATM   14  C9  UNL     1      -1.186  86.516 133.344  1.00  0.00     0.144 C 
BRANCH  14  15
HETATM   15  C10 UNL     1      -2.549  85.943 133.087  1.00  0.00     0.077 C 
BRANCH  15  16
HETATM   16  C11 UNL     1      -3.581  86.781 133.762  1.00  0.00     0.010 A 
HETATM   17  C12 UNL     1      -4.871  86.876 133.285  1.00  0.00     0.025 A 
HETATM   18  C13 UNL     1      -5.842  87.650 133.899  1.00  0.00     0.003 A 
HETATM   19  C14 UNL     1      -5.494  88.340 135.020  1.00  0.00     0.017 A 
HETATM   20  C15 UNL     1      -4.201  88.232 135.480  1.00  0.00     0.088 A 
HETATM   21  N4  UNL     1      -3.263  87.483 134.886  1.00  0.00    -0.369 N 
ATOM     22  H4  UNL     1      -2.320  87.439 135.272  1.00  0.00     0.165 HD
ENDBRANCH  15  16
ENDBRANCH  14  15
ENDBRANCH  12  14
ENDBRANCH   9  12
BRANCH   5  23
HETATM   23  C5  UNL     1      -3.272  91.329 128.821  1.00  0.00     0.123 C 
BRANCH  23  24
HETATM   24  C6  UNL     1      -4.792  91.432 128.917  1.00  0.00     0.045 C 
BRANCH  24  25
HETATM   25  C7  UNL     1      -5.421  90.728 127.722  1.00  0.00     0.165 C 
BRANCH  25  26
HETATM   26  O1  UNL     1      -5.524  89.357 127.951  1.00  0.00    -0.401 OA
ATOM     27  H1  UNL     1      -5.453  88.872 127.137  1.00  0.00     0.209 HD
ENDBRANCH  25  26
ENDBRANCH  24  25
ENDBRANCH  23  24
ENDBRANCH   5  23
TORSDOF 8
ENDMDL
