MODEL 1
REMARK VINA RESULT: -6.831049260      0.000      0.000
REMARK  8 active torsions:
REMARK  status: ('A' for Active; 'I' for Inactive)
REMARK    1  A    between atoms: O1_1  and  N1_3 
REMARK    2  A    between atoms: N1_3  and  N2_5 
REMARK    3  A    between atoms: N2_5  and  C1_7 
REMARK    4  A    between atoms: C2_10  and  C3_11 
REMARK    5  A    between atoms: C3_11  and  C4_12 
REMARK    6  A    between atoms: C4_12  and  C5_13 
REMARK    7  A    between atoms: C5_13  and  C6_14 
REMARK    8  A    between atoms: C6_14  and  C7_15 
ROOT
HETATM    1  C1  UNL     1      -2.033  88.162 132.822  1.00  0.00     0.701 A 
HETATM    2  N3  UNL     1      -2.994  88.685 132.027  1.00  0.00    -0.194 N 
ATOM      3  H3  UNL     1      -3.947  88.333 132.117  1.00  0.00     0.184 HD
HETATM    4  C2  UNL     1      -2.747  89.641 131.131  1.00  0.00     0.032 A 
HETATM    5  C13 UNL     1      -1.455  90.106 131.017  1.00  0.00     0.100 A 
HETATM    6  C14 UNL     1      -0.448  89.598 131.809  1.00  0.00     0.261 A 
HETATM    7  O2  UNL     1       0.737  90.036 131.696  1.00  0.00    -0.268 OA
HETATM    8  N4  UNL     1      -0.772  88.637 132.690  1.00  0.00    -0.155 N 
ATOM      9  H4  UNL     1      -0.040  88.249 133.283  1.00  0.00     0.187 HD
ENDROOT
BRANCH   4  10
HETATM   10  C3  UNL     1      -3.794  90.230 130.248  1.00  0.00     0.058 C 
BRANCH  10  11
HETATM   11  C4  UNL     1      -4.154  91.619 130.642  1.00  0.00     0.006 C 
BRANCH  11  12
HETATM   12  C5  UNL     1      -4.848  91.619 131.972  1.00  0.00     0.005 C 
BRANCH  12  13
HETATM   13  C6  UNL     1      -4.431  92.818 132.758  1.00  0.00     0.038 C 
BRANCH  13  14
HETATM   14  C7  UNL     1      -3.070  92.604 133.385  1.00  0.00    -0.058 A 
HETATM   15  C8  UNL     1      -2.076  93.485 133.062  1.00  0.00     0.007 A 
HETATM   16  C9  UNL     1      -0.825  93.321 133.613  1.00  0.00     0.001 A 
HETATM   17  C10 UNL     1      -0.587  92.282 134.476  1.00  0.00     0.000 A 
HETATM   18  C11 UNL     1      -1.579  91.395 134.804  1.00  0.00     0.001 A 
HETATM   19  C12 UNL     1      -2.828  91.567 134.248  1.00  0.00     0.007 A 
ENDBRANCH  13  14
ENDBRANCH  12  13
ENDBRANCH  11  12
ENDBRANCH  10  11
ENDBRANCH   4  10
BRANCH   1  20
HETATM   20  N2  UNL     1      -2.236  87.251 133.686  1.00  0.00    -0.112 N 
ATOM     21  H2  UNL     1      -3.161  86.823 133.692  1.00  0.00     0.207 HD
BRANCH  20  22
HETATM   22  N1  UNL     1      -1.332  86.785 134.612  1.00  0.00    -0.196 N 
ATOM     23  H1  UNL     1      -1.546  86.900 135.603  1.00  0.00     0.216 HD
BRANCH  22  24
HETATM   24  O1  UNL     1      -0.275  86.234 134.300  1.00  0.00    -0.274 OA
ATOM     25  H1  UNL     1       0.504  86.263 134.843  1.00  0.00     0.246 HD
ENDBRANCH  22  24
ENDBRANCH  20  22
ENDBRANCH   1  20
TORSDOF 8
ENDMDL
MODEL 2
REMARK VINA RESULT: -6.802091356      1.873      2.662
REMARK  8 active torsions:
REMARK  status: ('A' for Active; 'I' for Inactive)
REMARK    1  A    between atoms: O1_1  and  N1_3 
REMARK    2  A    between atoms: N1_3  and  N2_5 
REMARK    3  A    between atoms: N2_5  and  C1_7 
REMARK    4  A    between atoms: C2_10  and  C3_11 
REMARK    5  A    between atoms: C3_11  and  C4_12 
REMARK    6  A    between atoms: C4_12  and  C5_13 
REMARK    7  A    between atoms: C5_13  and  C6_14 
REMARK    8  A    between atoms: C6_14  and  C7_15 
ROOT
HETATM    1  C1  UNL     1      -1.420  86.973 132.319  1.00  0.00     0.701 A 
HETATM    2  N3  UNL     1      -2.145  87.994 131.810  1.00  0.00    -0.194 N 
ATOM      3  H3  UNL     1      -3.114  88.102 132.107  1.00  0.00     0.184 HD
HETATM    4  C2  UNL     1      -1.643  88.868 130.936  1.00  0.00     0.032 A 
HETATM    5  C13 UNL     1      -0.333  88.712 130.541  1.00  0.00     0.100 A 
HETATM    6  C14 UNL     1       0.438  87.682 131.037  1.00  0.00     0.261 A 
HETATM    7  O2  UNL     1       1.644  87.550 130.666  1.00  0.00    -0.268 OA
HETATM    8  N4  UNL     1      -0.135  86.842 131.915  1.00  0.00    -0.155 N 
ATOM      9  H4  UNL     1       0.420  86.074 132.292  1.00  0.00     0.187 HD
ENDROOT
BRANCH   4  10
HETATM   10  C3  UNL     1      -2.426  90.002 130.366  1.00  0.00     0.058 C 
BRANCH  10  11
HETATM   11  C4  UNL     1      -2.081  91.305 130.996  1.00  0.00     0.006 C 
BRANCH  11  12
HETATM   12  C5  UNL     1      -3.282  91.885 131.682  1.00  0.00     0.005 C 
BRANCH  12  13
HETATM   13  C6  UNL     1      -3.048  91.928 133.156  1.00  0.00     0.038 C 
BRANCH  13  14
HETATM   14  C7  UNL     1      -3.488  90.635 133.809  1.00  0.00    -0.058 A 
HETATM   15  C8  UNL     1      -2.682  90.107 134.780  1.00  0.00     0.007 A 
HETATM   16  C9  UNL     1      -3.051  88.932 135.395  1.00  0.00     0.001 A 
HETATM   17  C10 UNL     1      -4.214  88.304 135.033  1.00  0.00     0.000 A 
HETATM   18  C11 UNL     1      -5.027  88.828 134.061  1.00  0.00     0.001 A 
HETATM   19  C12 UNL     1      -4.651  90.005 133.450  1.00  0.00     0.007 A 
ENDBRANCH  13  14
ENDBRANCH  12  13
ENDBRANCH  11  12
ENDBRANCH  10  11
ENDBRANCH   4  10
BRANCH   1  20
HETATM   20  N2  UNL     1      -1.868  86.124 133.154  1.00  0.00    -0.112 N 
ATOM     21  H2  UNL     1      -2.612  85.508 132.827  1.00  0.00     0.207 HD
BRANCH  20  22
HETATM   22  N1  UNL     1      -1.450  85.954 134.454  1.00  0.00    -0.196 N 
ATOM     23  H1  UNL     1      -2.014  85.375 135.076  1.00  0.00     0.216 HD
BRANCH  22  24
HETATM   24  O1  UNL     1      -0.423  86.469 134.901  1.00  0.00    -0.274 OA
ATOM     25  H1  UNL     1      -0.413  87.011 135.681  1.00  0.00     0.246 HD
ENDBRANCH  22  24
ENDBRANCH  20  22
ENDBRANCH   1  20
TORSDOF 8
ENDMDL
MODEL 3
REMARK VINA RESULT: -6.790929296      1.869      2.643
REMARK  8 active torsions:
REMARK  status: ('A' for Active; 'I' for Inactive)
REMARK    1  A    between atoms: O1_1  and  N1_3 
REMARK    2  A    between atoms: N1_3  and  N2_5 
REMARK    3  A    between atoms: N2_5  and  C1_7 
REMARK    4  A    between atoms: C2_10  and  C3_11 
REMARK    5  A    between atoms: C3_11  and  C4_12 
REMARK    6  A    between atoms: C4_12  and  C5_13 
REMARK    7  A    between atoms: C5_13  and  C6_14 
REMARK    8  A    between atoms: C6_14  and  C7_15 
ROOT
HETATM    1  C1  UNL     1      -1.426  86.964 132.327  1.00  0.00     0.701 A 
HETATM    2  N3  UNL     1      -2.156  87.981 131.817  1.00  0.00    -0.194 N 
ATOM      3  H3  UNL     1      -3.126  88.084 132.114  1.00  0.00     0.184 HD
HETATM    4  C2  UNL     1      -1.660  88.856 130.941  1.00  0.00     0.032 A 
HETATM    5  C13 UNL     1      -0.348  88.706 130.545  1.00  0.00     0.100 A 
HETATM    6  C14 UNL     1       0.428  87.681 131.042  1.00  0.00     0.261 A 
HETATM    7  O2  UNL     1       1.635  87.555 130.671  1.00  0.00    -0.268 OA
HETATM    8  N4  UNL     1      -0.140  86.839 131.922  1.00  0.00    -0.155 N 
ATOM      9  H4  UNL     1       0.419  86.075 132.300  1.00  0.00     0.187 HD
ENDROOT
BRANCH   4  10
HETATM   10  C3  UNL     1      -2.449  89.985 130.369  1.00  0.00     0.058 C 
BRANCH  10  11
HETATM   11  C4  UNL     1      -2.113  91.290 131.000  1.00  0.00     0.006 C 
BRANCH  11  12
HETATM   12  C5  UNL     1      -3.320  91.865 131.680  1.00  0.00     0.005 C 
BRANCH  12  13
HETATM   13  C6  UNL     1      -3.073  91.960 133.149  1.00  0.00     0.038 C 
BRANCH  13  14
HETATM   14  C7  UNL     1      -3.448  90.669 133.844  1.00  0.00    -0.058 A 
HETATM   15  C8  UNL     1      -4.619  90.065 133.476  1.00  0.00     0.007 A 
HETATM   16  C9  UNL     1      -4.991  88.889 134.087  1.00  0.00     0.001 A 
HETATM   17  C10 UNL     1      -4.192  88.336 135.053  1.00  0.00     0.000 A 
HETATM   18  C11 UNL     1      -3.017  88.935 135.428  1.00  0.00     0.001 A 
HETATM   19  C12 UNL     1      -2.651  90.112 134.811  1.00  0.00     0.007 A 
ENDBRANCH  13  14
ENDBRANCH  12  13
ENDBRANCH  11  12
ENDBRANCH  10  11
ENDBRANCH   4  10
BRANCH   1  20
HETATM   20  N2  UNL     1      -1.869  86.114 133.163  1.00  0.00    -0.112 N 
ATOM     21  H2  UNL     1      -2.609  85.493 132.838  1.00  0.00     0.207 HD
BRANCH  20  22
HETATM   22  N1  UNL     1      -1.450  85.949 134.463  1.00  0.00    -0.196 N 
ATOM     23  H1  UNL     1      -2.004  85.358 135.083  1.00  0.00     0.216 HD
BRANCH  22  24
HETATM   24  O1  UNL     1      -0.434  86.483 134.913  1.00  0.00    -0.274 OA
ATOM     25  H1  UNL     1      -0.100  86.306 135.785  1.00  0.00     0.246 HD
ENDBRANCH  22  24
ENDBRANCH  20  22
ENDBRANCH   1  20
TORSDOF 8
ENDMDL
MODEL 4
REMARK VINA RESULT: -6.691602041      2.221      3.307
REMARK  8 active torsions:
REMARK  status: ('A' for Active; 'I' for Inactive)
REMARK    1  A    between atoms: O1_1  and  N1_3 
REMARK    2  A    between atoms: N1_3  and  N2_5 
REMARK    3  A    between atoms: N2_5  and  C1_7 
REMARK    4  A    between atoms: C2_10  and  C3_11 
REMARK    5  A    between atoms: C3_11  and  C4_12 
REMARK    6  A    between atoms: C4_12  and  C5_13 
REMARK    7  A    between atoms: C5_13  and  C6_14 
REMARK    8  A    between atoms: C6_14  and  C7_15 
ROOT
HETATM    1  C1  UNL     1      -1.612  86.705 133.372  1.00  0.00     0.701 A 
HETATM    2  N3  UNL     1      -2.334  87.641 134.027  1.00  0.00    -0.194 N 
ATOM      3  H3  UNL     1      -1.844  88.433 134.444  1.00  0.00     0.184 HD
HETATM    4  C2  UNL     1      -3.660  87.573 134.152  1.00  0.00     0.032 A 
HETATM    5  C13 UNL     1      -4.310  86.498 133.587  1.00  0.00     0.100 A 
HETATM    6  C14 UNL     1      -3.610  85.522 132.911  1.00  0.00     0.261 A 
HETATM    7  O2  UNL     1      -4.221  84.538 132.394  1.00  0.00    -0.268 OA
HETATM    8  N4  UNL     1      -2.276  85.659 132.826  1.00  0.00    -0.155 N 
ATOM      9  H4  UNL     1      -1.741  84.946 132.330  1.00  0.00     0.187 HD
ENDROOT
BRANCH   4  10
HETATM   10  C3  UNL     1      -4.472  88.597 134.869  1.00  0.00     0.058 C 
BRANCH  10  11
HETATM   11  C4  UNL     1      -5.327  89.393 133.946  1.00  0.00     0.006 C 
BRANCH  11  12
HETATM   12  C5  UNL     1      -4.488  90.028 132.878  1.00  0.00     0.005 C 
BRANCH  12  13
HETATM   13  C6  UNL     1      -4.472  91.509 133.062  1.00  0.00     0.038 C 
BRANCH  13  14
HETATM   14  C7  UNL     1      -3.081  91.995 133.408  1.00  0.00    -0.058 A 
HETATM   15  C8  UNL     1      -2.547  92.994 132.643  1.00  0.00     0.007 A 
HETATM   16  C9  UNL     1      -1.283  93.460 132.930  1.00  0.00     0.001 A 
HETATM   17  C10 UNL     1      -0.575  92.922 133.972  1.00  0.00     0.000 A 
HETATM   18  C11 UNL     1      -1.103  91.919 134.743  1.00  0.00     0.001 A 
HETATM   19  C12 UNL     1      -2.369  91.459 134.450  1.00  0.00     0.007 A 
ENDBRANCH  13  14
ENDBRANCH  12  13
ENDBRANCH  11  12
ENDBRANCH  10  11
ENDBRANCH   4  10
BRANCH   1  20
HETATM   20  N2  UNL     1      -0.348  86.741 133.235  1.00  0.00    -0.112 N 
ATOM     21  H2  UNL     1       0.188  87.109 134.021  1.00  0.00     0.207 HD
BRANCH  20  22
HETATM   22  N1  UNL     1       0.369  86.334 132.134  1.00  0.00    -0.196 N 
ATOM     23  H1  UNL     1       1.354  86.098 132.253  1.00  0.00     0.216 HD
BRANCH  22  24
HETATM   24  O1  UNL     1      -0.126  86.240 131.009  1.00  0.00    -0.274 OA
ATOM     25  H1  UNL     1       0.363  85.938 130.252  1.00  0.00     0.246 HD
ENDBRANCH  22  24
ENDBRANCH  20  22
ENDBRANCH   1  20
TORSDOF 8
ENDMDL
MODEL 5
REMARK VINA RESULT: -6.644185883      2.243      3.666
REMARK  8 active torsions:
REMARK  status: ('A' for Active; 'I' for Inactive)
REMARK    1  A    between atoms: O1_1  and  N1_3 
REMARK    2  A    between atoms: N1_3  and  N2_5 
REMARK    3  A    between atoms: N2_5  and  C1_7 
REMARK    4  A    between atoms: C2_10  and  C3_11 
REMARK    5  A    between atoms: C3_11  and  C4_12 
REMARK    6  A    between atoms: C4_12  and  C5_13 
REMARK    7  A    between atoms: C5_13  and  C6_14 
REMARK    8  A    between atoms: C6_14  and  C7_15 
ROOT
HETATM    1  C1  UNL     1      -0.635  87.389 131.965  1.00  0.00     0.701 A 
HETATM    2  N3  UNL     1      -1.076  88.640 132.225  1.00  0.00    -0.194 N 
ATOM      3  H3  UNL     1      -1.870  88.757 132.854  1.00  0.00     0.184 HD
HETATM    4  C2  UNL     1      -0.517  89.727 131.692  1.00  0.00     0.032 A 
HETATM    5  C13 UNL     1       0.553  89.556 130.841  1.00  0.00     0.100 A 
HETATM    6  C14 UNL     1       1.033  88.297 130.551  1.00  0.00     0.261 A 
HETATM    7  O2  UNL     1       2.019  88.153 129.767  1.00  0.00    -0.268 OA
HETATM    8  N4  UNL     1       0.418  87.249 131.126  1.00  0.00    -0.155 N 
ATOM      9  H4  UNL     1       0.759  86.310 130.922  1.00  0.00     0.187 HD
ENDROOT
BRANCH   4  10
HETATM   10  C3  UNL     1      -0.989  91.114 131.969  1.00  0.00     0.058 C 
BRANCH  10  11
HETATM   11  C4  UNL     1      -0.695  91.547 133.362  1.00  0.00     0.006 C 
BRANCH  11  12
HETATM   12  C5  UNL     1      -1.970  91.814 134.104  1.00  0.00     0.005 C 
BRANCH  12  13
HETATM   13  C6  UNL     1      -2.162  90.782 135.165  1.00  0.00     0.038 C 
BRANCH  13  14
HETATM   14  C7  UNL     1      -3.266  89.818 134.785  1.00  0.00    -0.058 A 
HETATM   15  C8  UNL     1      -3.445  88.714 135.571  1.00  0.00     0.007 A 
HETATM   16  C9  UNL     1      -4.439  87.815 135.254  1.00  0.00     0.001 A 
HETATM   17  C10 UNL     1      -5.237  88.033 134.161  1.00  0.00     0.000 A 
HETATM   18  C11 UNL     1      -5.063  89.138 133.368  1.00  0.00     0.001 A 
HETATM   19  C12 UNL     1      -4.066  90.032 133.692  1.00  0.00     0.007 A 
ENDBRANCH  13  14
ENDBRANCH  12  13
ENDBRANCH  11  12
ENDBRANCH  10  11
ENDBRANCH   4  10
BRANCH   1  20
HETATM   20  N2  UNL     1      -1.145  86.333 132.456  1.00  0.00    -0.112 N 
ATOM     21  H2  UNL     1      -0.499  85.656 132.861  1.00  0.00     0.207 HD
BRANCH  20  22
HETATM   22  N1  UNL     1      -2.482  86.011 132.496  1.00  0.00    -0.196 N 
ATOM     23  H1  UNL     1      -3.150  86.733 132.768  1.00  0.00     0.216 HD
BRANCH  22  24
HETATM   24  O1  UNL     1      -2.911  84.889 132.218  1.00  0.00    -0.274 OA
ATOM     25  H1  UNL     1      -3.488  84.398 132.792  1.00  0.00     0.246 HD
ENDBRANCH  22  24
ENDBRANCH  20  22
ENDBRANCH   1  20
TORSDOF 8
ENDMDL
