MODEL 1
REMARK VINA RESULT: -7.359005377      0.000      0.000
REMARK  6 active torsions:
REMARK  status: ('A' for Active; 'I' for Inactive)
REMARK       I    between atoms: C2_5  and  N3_6 
REMARK       I    between atoms: C2_5  and  N6_17 
REMARK    1  A    between atoms: N3_6  and  C3_8 
REMARK    2  A    between atoms: C3_8  and  C4_9 
REMARK    3  A    between atoms: C4_9  and  C5_10 
REMARK    4  A    between atoms: C5_10  and  N4_11 
REMARK    5  A    between atoms: N6_17  and  C9_19 
REMARK    6  A    between atoms: C9_19  and  C10_20 
ROOT
HETATM    1  N1  UNL     1       2.005  87.938 130.524  1.00  0.00    -0.171 NA
HETATM    2  C1  UNL     1       1.020  88.527 130.365  1.00  0.00     0.196 C 
HETATM    3  N2  UNL     1      -0.165  89.233 130.157  1.00  0.00    -0.126 N 
ATOM      4  H2  UNL     1      -0.156  90.090 129.604  1.00  0.00     0.197 HD
HETATM    5  C2  UNL     1      -1.256  88.810 130.654  1.00  0.00     0.683 C 
HETATM    6  N3  UNL     1      -2.474  89.493 130.468  1.00  0.00    -0.226 N 
ATOM      7  H3  UNL     1      -3.288  89.005 130.094  1.00  0.00     0.177 HD
HETATM    8  N6  UNL     1      -1.250  87.622 131.416  1.00  0.00    -0.222 N 
ATOM      9  H6  UNL     1      -1.195  86.708 130.965  1.00  0.00     0.178 HD
ENDROOT
BRANCH   6  10
HETATM   10  C3  UNL     1      -2.552  90.892 130.813  1.00  0.00     0.139 C 
BRANCH  10  11
HETATM   11  C4  UNL     1      -3.608  91.165 131.859  1.00  0.00     0.040 C 
BRANCH  11  12
HETATM   12  C5  UNL     1      -3.294  92.552 132.433  1.00  0.00     0.131 C 
BRANCH  12  13
HETATM   13  N4  UNL     1      -2.199  92.473 133.374  1.00  0.00    -0.352 N 
HETATM   14  C6  UNL     1      -1.056  93.166 133.261  1.00  0.00     0.108 A 
HETATM   15  C7  UNL     1      -0.281  92.828 134.326  1.00  0.00     0.106 A 
HETATM   16  N5  UNL     1      -0.972  91.938 135.060  1.00  0.00    -0.361 N 
HETATM   17  C8  UNL     1      -2.158  91.706 134.489  1.00  0.00     0.182 A 
ATOM     18  H5  UNL     1      -0.641  91.506 135.923  1.00  0.00     0.166 HD
ENDBRANCH  12  13
ENDBRANCH  11  12
ENDBRANCH  10  11
ENDBRANCH   6  10
BRANCH   8  19
HETATM   19  C9  UNL     1      -1.326  87.739 132.861  1.00  0.00     0.176 C 
BRANCH  19  20
HETATM   20  C10 UNL     1      -2.715  87.640 133.353  1.00  0.00    -0.040 A 
HETATM   21  C11 UNL     1      -3.663  86.881 132.701  1.00  0.00     0.009 A 
HETATM   22  C12 UNL     1      -4.941  86.825 133.202  1.00  0.00     0.001 A 
HETATM   23  C13 UNL     1      -5.276  87.513 134.336  1.00  0.00     0.000 A 
HETATM   24  C14 UNL     1      -4.331  88.272 134.988  1.00  0.00     0.001 A 
HETATM   25  C15 UNL     1      -3.053  88.335 134.497  1.00  0.00     0.009 A 
ENDBRANCH  19  20
ENDBRANCH   8  19
TORSDOF 6
ENDMDL
MODEL 2
REMARK VINA RESULT: -7.316332537      0.106      1.045
REMARK  6 active torsions:
REMARK  status: ('A' for Active; 'I' for Inactive)
REMARK       I    between atoms: C2_5  and  N3_6 
REMARK       I    between atoms: C2_5  and  N6_17 
REMARK    1  A    between atoms: N3_6  and  C3_8 
REMARK    2  A    between atoms: C3_8  and  C4_9 
REMARK    3  A    between atoms: C4_9  and  C5_10 
REMARK    4  A    between atoms: C5_10  and  N4_11 
REMARK    5  A    between atoms: N6_17  and  C9_19 
REMARK    6  A    between atoms: C9_19  and  C10_20 
ROOT
HETATM    1  N1  UNL     1       1.887  87.847 130.557  1.00  0.00    -0.171 NA
HETATM    2  C1  UNL     1       0.914  88.455 130.399  1.00  0.00     0.196 C 
HETATM    3  N2  UNL     1      -0.258  89.183 130.193  1.00  0.00    -0.126 N 
ATOM      4  H2  UNL     1      -0.237  90.032 129.627  1.00  0.00     0.197 HD
HETATM    5  C2  UNL     1      -1.353  88.793 130.710  1.00  0.00     0.683 C 
HETATM    6  N3  UNL     1      -2.557  89.499 130.527  1.00  0.00    -0.226 N 
ATOM      7  H3  UNL     1      -3.386  89.024 130.170  1.00  0.00     0.177 HD
HETATM    8  N6  UNL     1      -1.364  87.616 131.490  1.00  0.00    -0.222 N 
ATOM      9  H6  UNL     1      -1.334  86.695 131.053  1.00  0.00     0.178 HD
ENDROOT
BRANCH   6  10
HETATM   10  C3  UNL     1      -2.601  90.904 130.850  1.00  0.00     0.139 C 
BRANCH  10  11
HETATM   11  C4  UNL     1      -3.648  91.219 131.893  1.00  0.00     0.040 C 
BRANCH  11  12
HETATM   12  C5  UNL     1      -3.284  92.595 132.465  1.00  0.00     0.131 C 
BRANCH  12  13
HETATM   13  N4  UNL     1      -2.193  92.477 133.407  1.00  0.00    -0.352 N 
HETATM   14  C6  UNL     1      -1.033  93.144 133.304  1.00  0.00     0.108 A 
HETATM   15  C7  UNL     1      -0.269  92.773 134.367  1.00  0.00     0.106 A 
HETATM   16  N5  UNL     1      -0.983  91.891 135.088  1.00  0.00    -0.361 N 
HETATM   17  C8  UNL     1      -2.173  91.695 134.512  1.00  0.00     0.182 A 
ATOM     18  H5  UNL     1      -0.664  91.439 135.945  1.00  0.00     0.166 HD
ENDBRANCH  12  13
ENDBRANCH  11  12
ENDBRANCH  10  11
ENDBRANCH   6  10
BRANCH   8  19
HETATM   19  C9  UNL     1      -1.420  87.757 132.934  1.00  0.00     0.176 C 
BRANCH  19  20
HETATM   20  C10 UNL     1      -2.804  87.690 133.443  1.00  0.00    -0.040 A 
HETATM   21  C11 UNL     1      -3.198  88.379 134.571  1.00  0.00     0.009 A 
HETATM   22  C12 UNL     1      -4.498  88.280 135.000  1.00  0.00     0.001 A 
HETATM   23  C13 UNL     1      -5.400  87.507 134.322  1.00  0.00     0.000 A 
HETATM   24  C14 UNL     1      -5.010  86.818 133.197  1.00  0.00     0.001 A 
HETATM   25  C15 UNL     1      -3.714  86.909 132.758  1.00  0.00     0.009 A 
ENDBRANCH  19  20
ENDBRANCH   8  19
TORSDOF 6
ENDMDL
MODEL 3
REMARK VINA RESULT: -6.936440391      0.977      1.382
REMARK  6 active torsions:
REMARK  status: ('A' for Active; 'I' for Inactive)
REMARK       I    between atoms: C2_5  and  N3_6 
REMARK       I    between atoms: C2_5  and  N6_17 
REMARK    1  A    between atoms: N3_6  and  C3_8 
REMARK    2  A    between atoms: C3_8  and  C4_9 
REMARK    3  A    between atoms: C4_9  and  C5_10 
REMARK    4  A    between atoms: C5_10  and  N4_11 
REMARK    5  A    between atoms: N6_17  and  C9_19 
REMARK    6  A    between atoms: C9_19  and  C10_20 
ROOT
HETATM    1  N1  UNL     1       2.171  87.902 130.520  1.00  0.00    -0.171 NA
HETATM    2  C1  UNL     1       1.266  88.503 130.117  1.00  0.00     0.196 C 
HETATM    3  N2  UNL     1       0.178  89.219 129.617  1.00  0.00    -0.126 N 
ATOM      4  H2  UNL     1       0.321  89.914 128.884  1.00  0.00     0.197 HD
HETATM    5  C2  UNL     1      -0.990  89.009 130.073  1.00  0.00     0.683 C 
HETATM    6  N3  UNL     1      -2.113  89.710 129.596  1.00  0.00    -0.226 N 
ATOM      7  H3  UNL     1      -2.932  89.206 129.258  1.00  0.00     0.177 HD
HETATM    8  N6  UNL     1      -1.169  88.044 131.088  1.00  0.00    -0.222 N 
ATOM      9  H6  UNL     1      -1.160  87.047 130.873  1.00  0.00     0.178 HD
ENDROOT
BRANCH   6  10
HETATM   10  C3  UNL     1      -2.089  91.153 129.593  1.00  0.00     0.139 C 
BRANCH  10  11
HETATM   11  C4  UNL     1      -3.104  91.745 130.543  1.00  0.00     0.040 C 
BRANCH  11  12
HETATM   12  C5  UNL     1      -2.450  92.994 131.146  1.00  0.00     0.131 C 
BRANCH  12  13
HETATM   13  N4  UNL     1      -2.015  92.733 132.500  1.00  0.00    -0.352 N 
HETATM   14  C6  UNL     1      -0.778  92.332 132.832  1.00  0.00     0.108 A 
HETATM   15  C7  UNL     1      -0.757  92.194 134.184  1.00  0.00     0.106 A 
HETATM   16  N5  UNL     1      -1.980  92.513 134.642  1.00  0.00    -0.361 N 
HETATM   17  C8  UNL     1      -2.771  92.848 133.618  1.00  0.00     0.182 A 
ATOM     18  H5  UNL     1      -2.262  92.501 135.622  1.00  0.00     0.166 HD
ENDBRANCH  12  13
ENDBRANCH  11  12
ENDBRANCH  10  11
ENDBRANCH   6  10
BRANCH   8  19
HETATM   19  C9  UNL     1      -1.366  88.513 132.448  1.00  0.00     0.176 C 
BRANCH  19  20
HETATM   20  C10 UNL     1      -2.757  88.320 132.903  1.00  0.00    -0.040 A 
HETATM   21  C11 UNL     1      -3.469  89.332 133.512  1.00  0.00     0.009 A 
HETATM   22  C12 UNL     1      -4.760  89.097 133.917  1.00  0.00     0.001 A 
HETATM   23  C13 UNL     1      -5.341  87.875 133.721  1.00  0.00     0.000 A 
HETATM   24  C14 UNL     1      -4.633  86.863 133.113  1.00  0.00     0.001 A 
HETATM   25  C15 UNL     1      -3.344  87.085 132.705  1.00  0.00     0.009 A 
ENDBRANCH  19  20
ENDBRANCH   8  19
TORSDOF 6
ENDMDL
MODEL 4
REMARK VINA RESULT: -6.889525788      1.932      4.706
REMARK  6 active torsions:
REMARK  status: ('A' for Active; 'I' for Inactive)
REMARK       I    between atoms: C2_5  and  N3_6 
REMARK       I    between atoms: C2_5  and  N6_17 
REMARK    1  A    between atoms: N3_6  and  C3_8 
REMARK    2  A    between atoms: C3_8  and  C4_9 
REMARK    3  A    between atoms: C4_9  and  C5_10 
REMARK    4  A    between atoms: C5_10  and  N4_11 
REMARK    5  A    between atoms: N6_17  and  C9_19 
REMARK    6  A    between atoms: C9_19  and  C10_20 
ROOT
HETATM    1  N1  UNL     1      -1.754  94.593 133.534  1.00  0.00    -0.171 NA
HETATM    2  C1  UNL     1      -1.254  93.591 133.239  1.00  0.00     0.196 C 
HETATM    3  N2  UNL     1      -0.638  92.388 132.891  1.00  0.00    -0.126 N 
ATOM      4  H2  UNL     1       0.205  92.396 132.316  1.00  0.00     0.197 HD
HETATM    5  C2  UNL     1      -1.125  91.283 133.290  1.00  0.00     0.683 C 
HETATM    6  N3  UNL     1      -0.534  90.048 132.961  1.00  0.00    -0.226 N 
ATOM      7  H3  UNL     1      -0.288  89.381 133.693  1.00  0.00     0.177 HD
HETATM    8  N6  UNL     1      -2.291  91.291 134.085  1.00  0.00    -0.222 N 
ATOM      9  H6  UNL     1      -2.251  91.538 135.074  1.00  0.00     0.178 HD
ENDROOT
BRANCH   6  10
HETATM   10  C3  UNL     1      -0.281  89.739 131.574  1.00  0.00     0.139 C 
BRANCH  10  11
HETATM   11  C4  UNL     1      -0.601  88.301 131.241  1.00  0.00     0.040 C 
BRANCH  11  12
HETATM   12  C5  UNL     1      -2.048  88.067 131.693  1.00  0.00     0.131 C 
BRANCH  12  13
HETATM   13  N4  UNL     1      -2.102  87.026 132.695  1.00  0.00    -0.352 N 
HETATM   14  C6  UNL     1      -3.056  86.085 132.755  1.00  0.00     0.108 A 
HETATM   15  C7  UNL     1      -2.767  85.296 133.824  1.00  0.00     0.106 A 
HETATM   16  N5  UNL     1      -1.645  85.776 134.388  1.00  0.00    -0.361 N 
HETATM   17  C8  UNL     1      -1.219  86.844 133.705  1.00  0.00     0.182 A 
ATOM     18  H5  UNL     1      -1.187  85.385 135.211  1.00  0.00     0.166 HD
ENDBRANCH  12  13
ENDBRANCH  11  12
ENDBRANCH  10  11
ENDBRANCH   6  10
BRANCH   8  19
HETATM   19  C9  UNL     1      -3.549  90.937 133.453  1.00  0.00     0.176 C 
BRANCH  19  20
HETATM   20  C10 UNL     1      -4.160  89.741 134.067  1.00  0.00    -0.040 A 
HETATM   21  C11 UNL     1      -5.274  89.135 133.527  1.00  0.00     0.009 A 
HETATM   22  C12 UNL     1      -5.801  88.026 134.140  1.00  0.00     0.001 A 
HETATM   23  C13 UNL     1      -5.232  87.520 135.276  1.00  0.00     0.000 A 
HETATM   24  C14 UNL     1      -4.119  88.123 135.818  1.00  0.00     0.001 A 
HETATM   25  C15 UNL     1      -3.584  89.231 135.215  1.00  0.00     0.009 A 
ENDBRANCH  19  20
ENDBRANCH   8  19
TORSDOF 6
ENDMDL
MODEL 5
REMARK VINA RESULT: -6.605475852      2.091      4.693
REMARK  6 active torsions:
REMARK  status: ('A' for Active; 'I' for Inactive)
REMARK       I    between atoms: C2_5  and  N3_6 
REMARK       I    between atoms: C2_5  and  N6_17 
REMARK    1  A    between atoms: N3_6  and  C3_8 
REMARK    2  A    between atoms: C3_8  and  C4_9 
REMARK    3  A    between atoms: C4_9  and  C5_10 
REMARK    4  A    between atoms: C5_10  and  N4_11 
REMARK    5  A    between atoms: N6_17  and  C9_19 
REMARK    6  A    between atoms: C9_19  and  C10_20 
ROOT
HETATM    1  N1  UNL     1      -3.633  84.474 132.471  1.00  0.00    -0.171 NA
HETATM    2  C1  UNL     1      -3.371  85.225 133.314  1.00  0.00     0.196 C 
HETATM    3  N2  UNL     1      -3.049  86.118 134.336  1.00  0.00    -0.126 N 
ATOM      4  H2  UNL     1      -3.507  86.038 135.244  1.00  0.00     0.197 HD
HETATM    5  C2  UNL     1      -2.186  87.031 134.140  1.00  0.00     0.683 C 
HETATM    6  N3  UNL     1      -1.834  87.952 135.145  1.00  0.00    -0.226 N 
ATOM      7  H3  UNL     1      -0.857  88.080 135.409  1.00  0.00     0.177 HD
HETATM    8  N6  UNL     1      -1.562  87.128 132.878  1.00  0.00    -0.222 N 
ATOM      9  H6  UNL     1      -0.821  86.481 132.607  1.00  0.00     0.178 HD
ENDROOT
BRANCH   6  10
HETATM   10  C3  UNL     1      -2.874  88.709 135.797  1.00  0.00     0.139 C 
BRANCH  10  11
HETATM   11  C4  UNL     1      -2.586  90.192 135.801  1.00  0.00     0.040 C 
BRANCH  11  12
HETATM   12  C5  UNL     1      -2.907  90.696 134.388  1.00  0.00     0.131 C 
BRANCH  12  13
HETATM   13  N4  UNL     1      -2.163  91.902 134.101  1.00  0.00    -0.352 N 
HETATM   14  C6  UNL     1      -0.845  92.042 134.309  1.00  0.00     0.108 A 
HETATM   15  C7  UNL     1      -0.515  93.303 133.919  1.00  0.00     0.106 A 
HETATM   16  N5  UNL     1      -1.640  93.898 133.485  1.00  0.00    -0.361 N 
HETATM   17  C8  UNL     1      -2.668  93.049 133.589  1.00  0.00     0.182 A 
ATOM     18  H5  UNL     1      -1.700  94.852 133.130  1.00  0.00     0.166 HD
ENDBRANCH  12  13
ENDBRANCH  11  12
ENDBRANCH  10  11
ENDBRANCH   6  10
BRANCH   8  19
HETATM   19  C9  UNL     1      -2.005  88.176 131.976  1.00  0.00     0.176 C 
BRANCH  19  20
HETATM   20  C10 UNL     1      -0.886  88.754 131.207  1.00  0.00    -0.040 A 
HETATM   21  C11 UNL     1      -0.818  90.102 130.924  1.00  0.00     0.009 A 
HETATM   22  C12 UNL     1       0.246  90.586 130.204  1.00  0.00     0.001 A 
HETATM   23  C13 UNL     1       1.233  89.747 129.768  1.00  0.00     0.000 A 
HETATM   24  C14 UNL     1       1.169  88.401 130.049  1.00  0.00     0.001 A 
HETATM   25  C15 UNL     1       0.111  87.905 130.767  1.00  0.00     0.009 A 
ENDBRANCH  19  20
ENDBRANCH   8  19
TORSDOF 6
ENDMDL
