MODEL 1
REMARK VINA RESULT: -8.910956096      0.000      0.000
REMARK  8 active torsions:
REMARK  status: ('A' for Active; 'I' for Inactive)
REMARK    1  A    between atoms: C4_4  and  N1_5 
REMARK       I    between atoms: N1_5  and  C5_7 
REMARK    2  A    between atoms: C5_7  and  C6_9 
REMARK    3  A    between atoms: C6_9  and  C7_10 
REMARK    4  A    between atoms: C7_10  and  C8_11 
REMARK    5  A    between atoms: C8_11  and  C9_12 
REMARK    6  A    between atoms: C9_12  and  C10_13 
REMARK    7  A    between atoms: C10_13  and  C11_14 
REMARK    8  A    between atoms: C11_14  and  C12_15 
REMARK       I    between atoms: C12_15  and  N2_17 
ROOT
HETATM    1  C10 UNL     1      19.229  22.443  -1.098  1.00  0.00     0.009 C 
ENDROOT
BRANCH   1   2
HETATM    2  C9  UNL     1      19.015  21.417  -0.049  1.00  0.00     0.000 C 
BRANCH   2   3
HETATM    3  C8  UNL     1      18.720  22.037   1.281  1.00  0.00     0.000 C 
BRANCH   3   4
HETATM    4  C7  UNL     1      17.252  22.028   1.551  1.00  0.00     0.009 C 
BRANCH   4   5
HETATM    5  C6  UNL     1      16.759  23.387   2.040  1.00  0.00     0.103 C 
BRANCH   5   6
HETATM    6  C5  UNL     1      15.798  23.219   3.148  1.00  0.00     0.223 C 
HETATM    7  N1  UNL     1      15.185  24.185   3.888  1.00  0.00    -0.312 N 
ATOM      8  H1  UNL     1      14.500  23.824   4.552  1.00  0.00     0.170 HD
HETATM    9  O1  UNL     1      15.519  21.992   3.432  1.00  0.00    -0.273 OA
BRANCH   7  10
HETATM   10  C4  UNL     1      15.304  25.436   3.908  1.00  0.00     0.124 A 
HETATM   11  C3  UNL     1      14.801  26.376   3.054  1.00  0.00     0.076 A 
HETATM   12  C2  UNL     1      15.233  27.615   3.538  1.00  0.00     0.025 A 
HETATM   13  C1  UNL     1      14.895  28.898   2.882  1.00  0.00     0.070 C 
HETATM   14  N4  UNL     1      15.960  27.398   4.638  1.00  0.00    -0.304 N 
HETATM   15  N3  UNL     1      16.015  26.127   4.873  1.00  0.00    -0.285 N 
ATOM     16  H4  UNL     1      16.404  28.121   5.204  1.00  0.00     0.186 HD
ATOM     17  H3  UNL     1      16.509  25.697   5.655  1.00  0.00     0.188 HD
ENDBRANCH   7  10
ENDBRANCH   5   6
ENDBRANCH   4   5
ENDBRANCH   3   4
ENDBRANCH   2   3
ENDBRANCH   1   2
BRANCH   1  18
HETATM   18  C11 UNL     1      18.027  22.561  -2.007  1.00  0.00     0.103 C 
BRANCH  18  19
HETATM   19  C12 UNL     1      18.104  23.861  -2.757  1.00  0.00     0.219 C 
HETATM   20  O2  UNL     1      18.960  23.991  -3.667  1.00  0.00    -0.273 OA
HETATM   21  N2  UNL     1      17.213  24.911  -2.425  1.00  0.00    -0.351 N 
HETATM   22  C13 UNL     1      16.236  24.732  -1.366  1.00  0.00     0.131 C 
HETATM   23  C20 UNL     1      17.296  26.153  -3.155  1.00  0.00     0.135 C 
HETATM   24  C14 UNL     1      14.929  25.383  -1.661  1.00  0.00     0.013 C 
HETATM   25  C15 UNL     1      14.695  26.477  -0.633  1.00  0.00     0.007 C 
HETATM   26  C21 UNL     1      14.868  25.942  -3.069  1.00  0.00    -0.026 C 
HETATM   27  C16 UNL     1      15.698  27.597  -0.799  1.00  0.00     0.001 C 
HETATM   28  C17 UNL     1      15.927  28.005  -2.208  1.00  0.00     0.011 C 
HETATM   29  C18 UNL     1      16.005  26.914  -3.215  1.00  0.00    -0.020 C 
HETATM   30  C19 UNL     1      15.970  27.590  -4.593  1.00  0.00     0.018 C 
HETATM   31  C22 UNL     1      14.916  24.809  -4.031  1.00  0.00     0.011 C 
HETATM   32  C25 UNL     1      13.530  26.586  -3.289  1.00  0.00     0.011 C 
HETATM   33  C23 UNL     1      13.587  24.738  -4.749  1.00  0.00     0.001 C 
HETATM   34  C24 UNL     1      13.101  26.165  -4.677  1.00  0.00     0.001 C 
ENDBRANCH  18  19
ENDBRANCH   1  18
TORSDOF 8
ENDMDL
MODEL 2
REMARK VINA RESULT: -8.552806702      2.180      4.476
REMARK  8 active torsions:
REMARK  status: ('A' for Active; 'I' for Inactive)
REMARK    1  A    between atoms: C4_4  and  N1_5 
REMARK       I    between atoms: N1_5  and  C5_7 
REMARK    2  A    between atoms: C5_7  and  C6_9 
REMARK    3  A    between atoms: C6_9  and  C7_10 
REMARK    4  A    between atoms: C7_10  and  C8_11 
REMARK    5  A    between atoms: C8_11  and  C9_12 
REMARK    6  A    between atoms: C9_12  and  C10_13 
REMARK    7  A    between atoms: C10_13  and  C11_14 
REMARK    8  A    between atoms: C11_14  and  C12_15 
REMARK       I    between atoms: C12_15  and  N2_17 
ROOT
HETATM    1  C10 UNL     1      14.691  27.042   1.863  1.00  0.00     0.009 C 
ENDROOT
BRANCH   1   2
HETATM    2  C9  UNL     1      14.423  26.158   3.023  1.00  0.00     0.000 C 
BRANCH   2   3
HETATM    3  C8  UNL     1      15.672  25.861   3.793  1.00  0.00     0.000 C 
BRANCH   3   4
HETATM    4  C7  UNL     1      16.159  24.483   3.492  1.00  0.00     0.009 C 
BRANCH   4   5
HETATM    5  C6  UNL     1      15.015  23.558   3.080  1.00  0.00     0.103 C 
BRANCH   5   6
HETATM    6  C5  UNL     1      15.421  22.146   3.216  1.00  0.00     0.223 C 
HETATM    7  N1  UNL     1      16.238  21.419   2.401  1.00  0.00    -0.312 N 
ATOM      8  H1  UNL     1      16.432  20.478   2.744  1.00  0.00     0.170 HD
HETATM    9  O1  UNL     1      14.927  21.544   4.245  1.00  0.00    -0.273 OA
BRANCH   7  10
HETATM   10  C4  UNL     1      16.796  21.689   1.308  1.00  0.00     0.124 A 
HETATM   11  C3  UNL     1      18.125  21.789   1.006  1.00  0.00     0.076 A 
HETATM   12  C2  UNL     1      18.194  22.109  -0.354  1.00  0.00     0.025 A 
HETATM   13  C1  UNL     1      19.473  22.306  -1.070  1.00  0.00     0.070 C 
HETATM   14  N4  UNL     1      16.944  22.189  -0.822  1.00  0.00    -0.304 N 
HETATM   15  N3  UNL     1      16.110  21.946   0.135  1.00  0.00    -0.285 N 
ATOM     16  H4  UNL     1      16.689  22.408  -1.785  1.00  0.00     0.186 HD
ATOM     17  H3  UNL     1      15.094  21.945   0.040  1.00  0.00     0.188 HD
ENDBRANCH   7  10
ENDBRANCH   5   6
ENDBRANCH   4   5
ENDBRANCH   3   4
ENDBRANCH   2   3
ENDBRANCH   1   2
BRANCH   1  18
HETATM   18  C11 UNL     1      14.156  26.446   0.581  1.00  0.00     0.103 C 
BRANCH  18  19
HETATM   19  C12 UNL     1      15.303  25.907  -0.227  1.00  0.00     0.219 C 
HETATM   20  O2  UNL     1      15.858  24.842   0.138  1.00  0.00    -0.273 OA
HETATM   21  N2  UNL     1      15.733  26.609  -1.381  1.00  0.00    -0.351 N 
HETATM   22  C13 UNL     1      15.073  27.839  -1.775  1.00  0.00     0.131 C 
HETATM   23  C20 UNL     1      16.834  26.078  -2.148  1.00  0.00     0.135 C 
HETATM   24  C14 UNL     1      14.945  27.985  -3.253  1.00  0.00     0.013 C 
HETATM   25  C15 UNL     1      15.758  29.193  -3.688  1.00  0.00     0.007 C 
HETATM   26  C21 UNL     1      15.386  26.740  -3.996  1.00  0.00    -0.026 C 
HETATM   27  C16 UNL     1      17.236  28.952  -3.479  1.00  0.00     0.001 C 
HETATM   28  C17 UNL     1      17.701  27.609  -3.911  1.00  0.00     0.011 C 
HETATM   29  C18 UNL     1      16.809  26.461  -3.598  1.00  0.00    -0.020 C 
HETATM   30  C19 UNL     1      17.363  25.255  -4.370  1.00  0.00     0.018 C 
HETATM   31  C22 UNL     1      14.443  25.636  -3.673  1.00  0.00     0.011 C 
HETATM   32  C25 UNL     1      15.237  26.964  -5.472  1.00  0.00     0.011 C 
HETATM   33  C23 UNL     1      13.687  25.274  -4.931  1.00  0.00     0.001 C 
HETATM   34  C24 UNL     1      14.650  25.681  -6.019  1.00  0.00     0.001 C 
ENDBRANCH  18  19
ENDBRANCH   1  18
TORSDOF 8
ENDMDL
MODEL 3
REMARK VINA RESULT: -8.321180317      0.932      1.230
REMARK  8 active torsions:
REMARK  status: ('A' for Active; 'I' for Inactive)
REMARK    1  A    between atoms: C4_4  and  N1_5 
REMARK       I    between atoms: N1_5  and  C5_7 
REMARK    2  A    between atoms: C5_7  and  C6_9 
REMARK    3  A    between atoms: C6_9  and  C7_10 
REMARK    4  A    between atoms: C7_10  and  C8_11 
REMARK    5  A    between atoms: C8_11  and  C9_12 
REMARK    6  A    between atoms: C9_12  and  C10_13 
REMARK    7  A    between atoms: C10_13  and  C11_14 
REMARK    8  A    between atoms: C11_14  and  C12_15 
REMARK       I    between atoms: C12_15  and  N2_17 
ROOT
HETATM    1  C10 UNL     1      18.857  22.154  -1.913  1.00  0.00     0.009 C 
ENDROOT
BRANCH   1   2
HETATM    2  C9  UNL     1      19.448  22.734  -0.682  1.00  0.00     0.000 C 
BRANCH   2   3
HETATM    3  C8  UNL     1      19.824  21.674   0.305  1.00  0.00     0.000 C 
BRANCH   3   4
HETATM    4  C7  UNL     1      18.695  21.406   1.244  1.00  0.00     0.009 C 
BRANCH   4   5
HETATM    5  C6  UNL     1      17.940  22.686   1.596  1.00  0.00     0.103 C 
BRANCH   5   6
HETATM    6  C5  UNL     1      16.485  22.479   1.460  1.00  0.00     0.223 C 
HETATM    7  N1  UNL     1      15.473  23.274   1.910  1.00  0.00    -0.312 N 
ATOM      8  H1  UNL     1      14.544  22.960   1.629  1.00  0.00     0.170 HD
HETATM    9  O1  UNL     1      16.154  21.402   0.831  1.00  0.00    -0.273 OA
BRANCH   7  10
HETATM   10  C4  UNL     1      15.467  24.320   2.606  1.00  0.00     0.124 A 
HETATM   11  C3  UNL     1      14.971  25.560   2.318  1.00  0.00     0.076 A 
HETATM   12  C2  UNL     1      15.226  26.354   3.440  1.00  0.00     0.025 A 
HETATM   13  C1  UNL     1      14.838  27.779   3.523  1.00  0.00     0.070 C 
HETATM   14  N4  UNL     1      15.848  25.596   4.349  1.00  0.00    -0.304 N 
HETATM   15  N3  UNL     1      15.999  24.400   3.880  1.00  0.00    -0.285 N 
ATOM     16  H4  UNL     1      16.155  25.912   5.269  1.00  0.00     0.186 HD
ATOM     17  H3  UNL     1      16.446  23.630   4.378  1.00  0.00     0.188 HD
ENDBRANCH   7  10
ENDBRANCH   5   6
ENDBRANCH   4   5
ENDBRANCH   3   4
ENDBRANCH   2   3
ENDBRANCH   1   2
BRANCH   1  18
HETATM   18  C11 UNL     1      17.481  22.718  -2.183  1.00  0.00     0.103 C 
BRANCH  18  19
HETATM   19  C12 UNL     1      17.618  23.987  -2.978  1.00  0.00     0.219 C 
HETATM   20  O2  UNL     1      18.495  24.053  -3.874  1.00  0.00    -0.273 OA
HETATM   21  N2  UNL     1      16.756  25.078  -2.704  1.00  0.00    -0.351 N 
HETATM   22  C13 UNL     1      15.753  24.971  -1.660  1.00  0.00     0.131 C 
HETATM   23  C20 UNL     1      16.897  26.288  -3.478  1.00  0.00     0.135 C 
HETATM   24  C14 UNL     1      14.475  25.654  -2.007  1.00  0.00     0.013 C 
HETATM   25  C15 UNL     1      14.259  26.793  -1.025  1.00  0.00     0.007 C 
HETATM   26  C21 UNL     1      14.462  26.162  -3.435  1.00  0.00    -0.026 C 
HETATM   27  C16 UNL     1      15.302  27.872  -1.210  1.00  0.00     0.001 C 
HETATM   28  C17 UNL     1      15.574  28.219  -2.628  1.00  0.00     0.011 C 
HETATM   29  C18 UNL     1      15.635  27.089  -3.593  1.00  0.00    -0.020 C 
HETATM   30  C19 UNL     1      15.650  27.713  -4.995  1.00  0.00     0.018 C 
HETATM   31  C22 UNL     1      14.490  24.993  -4.354  1.00  0.00     0.011 C 
HETATM   32  C25 UNL     1      13.152  26.843  -3.707  1.00  0.00     0.011 C 
HETATM   33  C23 UNL     1      13.174  24.940  -5.097  1.00  0.00     0.001 C 
HETATM   34  C24 UNL     1      12.736  26.384  -5.088  1.00  0.00     0.001 C 
ENDBRANCH  18  19
ENDBRANCH   1  18
TORSDOF 8
ENDMDL
MODEL 4
REMARK VINA RESULT: -8.314677218      2.346      4.908
REMARK  8 active torsions:
REMARK  status: ('A' for Active; 'I' for Inactive)
REMARK    1  A    between atoms: C4_4  and  N1_5 
REMARK       I    between atoms: N1_5  and  C5_7 
REMARK    2  A    between atoms: C5_7  and  C6_9 
REMARK    3  A    between atoms: C6_9  and  C7_10 
REMARK    4  A    between atoms: C7_10  and  C8_11 
REMARK    5  A    between atoms: C8_11  and  C9_12 
REMARK    6  A    between atoms: C9_12  and  C10_13 
REMARK    7  A    between atoms: C10_13  and  C11_14 
REMARK    8  A    between atoms: C11_14  and  C12_15 
REMARK       I    between atoms: C12_15  and  N2_17 
ROOT
HETATM    1  C10 UNL     1      14.553  27.055   2.366  1.00  0.00     0.009 C 
ENDROOT
BRANCH   1   2
HETATM    2  C9  UNL     1      14.628  26.026   3.431  1.00  0.00     0.000 C 
BRANCH   2   3
HETATM    3  C8  UNL     1      16.044  25.724   3.811  1.00  0.00     0.000 C 
BRANCH   3   4
HETATM    4  C7  UNL     1      16.390  24.314   3.466  1.00  0.00     0.009 C 
BRANCH   4   5
HETATM    5  C6  UNL     1      15.155  23.511   3.066  1.00  0.00     0.103 C 
BRANCH   5   6
HETATM    6  C5  UNL     1      15.426  22.064   3.166  1.00  0.00     0.223 C 
HETATM    7  N1  UNL     1      16.247  21.303   2.389  1.00  0.00    -0.312 N 
ATOM      8  H1  UNL     1      16.330  20.335   2.700  1.00  0.00     0.170 HD
HETATM    9  O1  UNL     1      14.795  21.466   4.119  1.00  0.00    -0.273 OA
BRANCH   7  10
HETATM   10  C4  UNL     1      16.921  21.567   1.361  1.00  0.00     0.124 A 
HETATM   11  C3  UNL     1      18.272  21.525   1.166  1.00  0.00     0.076 A 
HETATM   12  C2  UNL     1      18.488  21.913  -0.160  1.00  0.00     0.025 A 
HETATM   13  C1  UNL     1      19.836  21.997  -0.765  1.00  0.00     0.070 C 
HETATM   14  N4  UNL     1      17.299  22.170  -0.714  1.00  0.00    -0.304 N 
HETATM   15  N3  UNL     1      16.366  21.973   0.160  1.00  0.00    -0.285 N 
ATOM     16  H4  UNL     1      17.150  22.474  -1.676  1.00  0.00     0.186 HD
ATOM     17  H3  UNL     1      15.369  22.099  -0.010  1.00  0.00     0.188 HD
ENDBRANCH   7  10
ENDBRANCH   5   6
ENDBRANCH   4   5
ENDBRANCH   3   4
ENDBRANCH   2   3
ENDBRANCH   1   2
BRANCH   1  18
HETATM   18  C11 UNL     1      14.458  26.423   0.996  1.00  0.00     0.103 C 
BRANCH  18  19
HETATM   19  C12 UNL     1      15.014  27.377  -0.024  1.00  0.00     0.219 C 
HETATM   20  O2  UNL     1      15.430  28.500   0.353  1.00  0.00    -0.273 OA
HETATM   21  N2  UNL     1      15.059  26.991  -1.387  1.00  0.00    -0.351 N 
HETATM   22  C13 UNL     1      14.568  25.688  -1.793  1.00  0.00     0.131 C 
HETATM   23  C20 UNL     1      15.598  27.916  -2.355  1.00  0.00     0.135 C 
HETATM   24  C14 UNL     1      15.382  25.068  -2.877  1.00  0.00     0.013 C 
HETATM   25  C15 UNL     1      14.508  24.922  -4.111  1.00  0.00     0.007 C 
HETATM   26  C21 UNL     1      16.630  25.870  -3.190  1.00  0.00    -0.026 C 
HETATM   27  C16 UNL     1      14.136  26.277  -4.672  1.00  0.00     0.001 C 
HETATM   28  C17 UNL     1      15.263  27.242  -4.729  1.00  0.00     0.011 C 
HETATM   29  C18 UNL     1      16.189  27.258  -3.566  1.00  0.00    -0.020 C 
HETATM   30  C19 UNL     1      17.393  28.117  -3.977  1.00  0.00     0.018 C 
HETATM   31  C22 UNL     1      17.532  25.824  -2.009  1.00  0.00     0.011 C 
HETATM   32  C25 UNL     1      17.391  25.192  -4.291  1.00  0.00     0.011 C 
HETATM   33  C23 UNL     1      18.775  25.052  -2.389  1.00  0.00     0.001 C 
HETATM   34  C24 UNL     1      18.847  25.264  -3.881  1.00  0.00     0.001 C 
ENDBRANCH  18  19
ENDBRANCH   1  18
TORSDOF 8
ENDMDL
MODEL 5
REMARK VINA RESULT: -8.309184744      1.588      2.900
REMARK  8 active torsions:
REMARK  status: ('A' for Active; 'I' for Inactive)
REMARK    1  A    between atoms: C4_4  and  N1_5 
REMARK       I    between atoms: N1_5  and  C5_7 
REMARK    2  A    between atoms: C5_7  and  C6_9 
REMARK    3  A    between atoms: C6_9  and  C7_10 
REMARK    4  A    between atoms: C7_10  and  C8_11 
REMARK    5  A    between atoms: C8_11  and  C9_12 
REMARK    6  A    between atoms: C9_12  and  C10_13 
REMARK    7  A    between atoms: C10_13  and  C11_14 
REMARK    8  A    between atoms: C11_14  and  C12_15 
REMARK       I    between atoms: C12_15  and  N2_17 
ROOT
HETATM    1  C10 UNL     1      17.552  22.464  -1.097  1.00  0.00     0.009 C 
ENDROOT
BRANCH   1   2
HETATM    2  C9  UNL     1      18.794  22.145  -0.353  1.00  0.00     0.000 C 
BRANCH   2   3
HETATM    3  C8  UNL     1      18.500  21.625   1.019  1.00  0.00     0.000 C 
BRANCH   3   4
HETATM    4  C7  UNL     1      17.091  21.932   1.406  1.00  0.00     0.009 C 
BRANCH   4   5
HETATM    5  C6  UNL     1      17.020  23.074   2.416  1.00  0.00     0.103 C 
BRANCH   5   6
HETATM    6  C5  UNL     1      15.752  23.018   3.168  1.00  0.00     0.223 C 
HETATM    7  N1  UNL     1      14.762  23.954   3.227  1.00  0.00    -0.312 N 
ATOM      8  H1  UNL     1      13.943  23.656   3.757  1.00  0.00     0.170 HD
HETATM    9  O1  UNL     1      15.581  21.935   3.849  1.00  0.00    -0.273 OA
BRANCH   7  10
HETATM   10  C4  UNL     1      14.668  25.115   2.754  1.00  0.00     0.124 A 
HETATM   11  C3  UNL     1      15.049  26.311   3.290  1.00  0.00     0.076 A 
HETATM   12  C2  UNL     1      14.717  27.287   2.345  1.00  0.00     0.025 A 
HETATM   13  C1  UNL     1      14.971  28.730   2.553  1.00  0.00     0.070 C 
HETATM   14  N4  UNL     1      14.163  26.673   1.295  1.00  0.00    -0.304 N 
HETATM   15  N3  UNL     1      14.125  25.398   1.514  1.00  0.00    -0.285 N 
ATOM     16  H4  UNL     1      13.824  27.136   0.453  1.00  0.00     0.186 HD
ATOM     17  H3  UNL     1      13.749  24.705   0.867  1.00  0.00     0.188 HD
ENDBRANCH   7  10
ENDBRANCH   5   6
ENDBRANCH   4   5
ENDBRANCH   3   4
ENDBRANCH   2   3
ENDBRANCH   1   2
BRANCH   1  18
HETATM   18  C11 UNL     1      17.674  23.777  -1.837  1.00  0.00     0.103 C 
BRANCH  18  19
HETATM   19  C12 UNL     1      16.451  24.608  -1.568  1.00  0.00     0.219 C 
HETATM   20  O2  UNL     1      16.087  24.790  -0.380  1.00  0.00    -0.273 OA
HETATM   21  N2  UNL     1      15.737  25.170  -2.655  1.00  0.00    -0.351 N 
HETATM   22  C13 UNL     1      16.181  24.939  -4.017  1.00  0.00     0.131 C 
HETATM   23  C20 UNL     1      14.566  25.969  -2.381  1.00  0.00     0.135 C 
HETATM   24  C14 UNL     1      16.005  26.128  -4.898  1.00  0.00     0.013 C 
HETATM   25  C15 UNL     1      15.006  25.774  -5.987  1.00  0.00     0.007 C 
HETATM   26  C21 UNL     1      15.554  27.354  -4.129  1.00  0.00    -0.026 C 
HETATM   27  C16 UNL     1      13.628  25.553  -5.404  1.00  0.00     0.001 C 
HETATM   28  C17 UNL     1      13.225  26.563  -4.393  1.00  0.00     0.011 C 
HETATM   29  C18 UNL     1      14.271  26.999  -3.430  1.00  0.00    -0.020 C 
HETATM   30  C19 UNL     1      13.701  28.216  -2.688  1.00  0.00     0.018 C 
HETATM   31  C22 UNL     1      16.647  27.764  -3.208  1.00  0.00     0.011 C 
HETATM   32  C25 UNL     1      15.390  28.504  -5.080  1.00  0.00     0.011 C 
HETATM   33  C23 UNL     1      17.177  29.104  -3.666  1.00  0.00     0.001 C 
HETATM   34  C24 UNL     1      15.985  29.702  -4.372  1.00  0.00     0.001 C 
ENDBRANCH  18  19
ENDBRANCH   1  18
TORSDOF 8
ENDMDL
