MODEL 1
REMARK VINA RESULT: -7.826602997      0.000      0.000
REMARK  6 active torsions:
REMARK  status: ('A' for Active; 'I' for Inactive)
REMARK    1  A    between atoms: N1_6  and  C6_7 
REMARK    2  A    between atoms: C6_7  and  C7_8 
REMARK    3  A    between atoms: C7_8  and  C8_9 
REMARK    4  A    between atoms: C8_9  and  N2_10 
REMARK       I    between atoms: N2_10  and  C9_12 
REMARK       I    between atoms: C9_12  and  N3_14 
REMARK    5  A    between atoms: N3_14  and  C10_16 
REMARK    6  A    between atoms: C21_27  and  N4_28 
ROOT
HETATM    1  C8  UNL     1      13.123  27.839  -3.275  1.00  0.00     0.126 C 
ENDROOT
BRANCH   1   2
HETATM    2  C7  UNL     1      14.355  27.587  -2.434  1.00  0.00     0.048 C 
BRANCH   2   3
HETATM    3  C6  UNL     1      14.357  26.204  -1.884  1.00  0.00     0.239 C 
BRANCH   3   4
HETATM    4  N1  UNL     1      15.530  25.464  -2.029  1.00  0.00    -0.061 N 
HETATM    5  C2  UNL     1      15.640  24.623  -3.192  1.00  0.00     0.192 C 
HETATM    6  C1  UNL     1      15.668  25.381  -4.487  1.00  0.00     0.041 C 
HETATM    7  C3  UNL     1      17.034  24.046  -2.865  1.00  0.00     0.053 C 
HETATM    8  C4  UNL     1      17.805  25.338  -2.735  1.00  0.00     0.037 C 
HETATM    9  C21 UNL     1      16.695  23.448  -1.525  1.00  0.00     0.255 C 
HETATM   10  C5  UNL     1      16.751  26.264  -2.146  1.00  0.00     0.238 C 
HETATM   11  C20 UNL     1      15.791  24.515  -0.939  1.00  0.00     0.274 C 
BRANCH   9  12
HETATM   12  N4  UNL     1      17.846  23.191  -0.703  1.00  0.00     0.095 N 
HETATM   13  C22 UNL     1      17.369  22.845   0.623  1.00  0.00     0.273 C 
HETATM   14  C23 UNL     1      17.919  21.542   1.115  1.00  0.00     0.030 C 
HETATM   15  C24 UNL     1      19.402  21.416   1.001  1.00  0.00     0.003 C 
HETATM   16  C25 UNL     1      19.853  21.968  -0.329  1.00  0.00     0.030 C 
HETATM   17  C26 UNL     1      18.603  22.092  -1.203  1.00  0.00     0.273 C 
ENDBRANCH   9  12
ENDBRANCH   3   4
ENDBRANCH   2   3
ENDBRANCH   1   2
BRANCH   1  18
HETATM   18  N2  UNL     1      12.155  26.756  -3.160  1.00  0.00    -0.343 N 
HETATM   19  C9  UNL     1      11.740  26.089  -4.333  1.00  0.00     0.316 C 
HETATM   20  O1  UNL     1      12.202  26.428  -5.462  1.00  0.00    -0.247 OA
HETATM   21  N3  UNL     1      10.798  25.034  -4.231  1.00  0.00    -0.338 N 
ATOM     22  H3  UNL     1      10.426  24.759  -3.322  1.00  0.00     0.164 HD
ATOM     23  H2  UNL     1      11.783  26.485  -2.250  1.00  0.00     0.164 HD
BRANCH  21  24
HETATM   24  C10 UNL     1      10.378  24.357  -5.426  1.00  0.00     0.094 C 
HETATM   25  C11 UNL     1      10.751  22.891  -5.359  1.00  0.00     0.009 C 
HETATM   26  C12 UNL     1      10.037  22.173  -4.248  1.00  0.00     0.011 C 
HETATM   27  C16 UNL     1      10.370  22.253  -6.673  1.00  0.00     0.011 C 
HETATM   28  C13 UNL     1       8.546  22.265  -4.456  1.00  0.00    -0.013 C 
HETATM   29  C14 UNL     1       8.164  21.636  -5.760  1.00  0.00     0.009 C 
HETATM   30  C19 UNL     1       8.168  23.729  -4.462  1.00  0.00     0.011 C 
HETATM   31  C15 UNL     1       8.886  22.355  -6.886  1.00  0.00    -0.013 C 
HETATM   32  C17 UNL     1       8.488  23.806  -6.888  1.00  0.00     0.011 C 
HETATM   33  C18 UNL     1       8.890  24.443  -5.594  1.00  0.00     0.009 C 
ENDBRANCH  21  24
ENDBRANCH   1  18
TORSDOF 6
ENDMDL
MODEL 2
REMARK VINA RESULT: -7.713227755      1.494      1.985
REMARK  6 active torsions:
REMARK  status: ('A' for Active; 'I' for Inactive)
REMARK    1  A    between atoms: N1_6  and  C6_7 
REMARK    2  A    between atoms: C6_7  and  C7_8 
REMARK    3  A    between atoms: C7_8  and  C8_9 
REMARK    4  A    between atoms: C8_9  and  N2_10 
REMARK       I    between atoms: N2_10  and  C9_12 
REMARK       I    between atoms: C9_12  and  N3_14 
REMARK    5  A    between atoms: N3_14  and  C10_16 
REMARK    6  A    between atoms: C21_27  and  N4_28 
ROOT
HETATM    1  C8  UNL     1      15.298  26.221  -4.766  1.00  0.00     0.126 C 
ENDROOT
BRANCH   1   2
HETATM    2  C7  UNL     1      16.121  26.804  -3.640  1.00  0.00     0.048 C 
BRANCH   2   3
HETATM    3  C6  UNL     1      17.578  26.660  -3.908  1.00  0.00     0.239 C 
BRANCH   3   4
HETATM    4  N1  UNL     1      18.243  25.617  -3.264  1.00  0.00    -0.061 N 
HETATM    5  C2  UNL     1      18.719  24.533  -4.083  1.00  0.00     0.192 C 
HETATM    6  C1  UNL     1      19.783  24.934  -5.062  1.00  0.00     0.041 C 
HETATM    7  C3  UNL     1      19.320  23.691  -2.936  1.00  0.00     0.053 C 
HETATM    8  C4  UNL     1      20.255  24.720  -2.347  1.00  0.00     0.037 C 
HETATM    9  C21 UNL     1      18.062  23.534  -2.122  1.00  0.00     0.255 C 
HETATM   10  C5  UNL     1      19.476  26.007  -2.574  1.00  0.00     0.238 C 
HETATM   11  C20 UNL     1      17.442  24.911  -2.257  1.00  0.00     0.274 C 
BRANCH   9  12
HETATM   12  N4  UNL     1      18.305  23.172  -0.753  1.00  0.00     0.095 N 
HETATM   13  C22 UNL     1      17.026  23.162  -0.068  1.00  0.00     0.273 C 
HETATM   14  C23 UNL     1      16.758  21.870   0.640  1.00  0.00     0.030 C 
HETATM   15  C24 UNL     1      17.871  21.407   1.522  1.00  0.00     0.003 C 
HETATM   16  C25 UNL     1      19.189  21.621   0.821  1.00  0.00     0.030 C 
HETATM   17  C26 UNL     1      18.871  21.868  -0.655  1.00  0.00     0.273 C 
ENDBRANCH   9  12
ENDBRANCH   3   4
ENDBRANCH   2   3
ENDBRANCH   1   2
BRANCH   1  18
HETATM   18  N2  UNL     1      14.105  25.543  -4.276  1.00  0.00    -0.343 N 
HETATM   19  C9  UNL     1      13.029  25.334  -5.164  1.00  0.00     0.316 C 
HETATM   20  O1  UNL     1      13.101  25.731  -6.365  1.00  0.00    -0.247 OA
HETATM   21  N3  UNL     1      11.864  24.674  -4.697  1.00  0.00    -0.338 N 
ATOM     22  H3  UNL     1      11.805  24.352  -3.731  1.00  0.00     0.164 HD
ATOM     23  H2  UNL     1      14.049  25.224  -3.309  1.00  0.00     0.164 HD
BRANCH  21  24
HETATM   24  C10 UNL     1      10.771  24.464  -5.603  1.00  0.00     0.094 C 
HETATM   25  C11 UNL     1      10.822  23.062  -6.174  1.00  0.00     0.009 C 
HETATM   26  C12 UNL     1      10.641  22.011  -5.114  1.00  0.00     0.011 C 
HETATM   27  C16 UNL     1       9.708  22.929  -7.184  1.00  0.00     0.011 C 
HETATM   28  C13 UNL     1       9.303  22.191  -4.439  1.00  0.00    -0.013 C 
HETATM   29  C14 UNL     1       8.197  22.064  -5.439  1.00  0.00     0.009 C 
HETATM   30  C19 UNL     1       9.279  23.570  -3.820  1.00  0.00     0.011 C 
HETATM   31  C15 UNL     1       8.377  23.120  -6.515  1.00  0.00    -0.013 C 
HETATM   32  C17 UNL     1       8.335  24.486  -5.885  1.00  0.00     0.011 C 
HETATM   33  C18 UNL     1       9.455  24.624  -4.901  1.00  0.00     0.009 C 
ENDBRANCH  21  24
ENDBRANCH   1  18
TORSDOF 6
ENDMDL
MODEL 3
REMARK VINA RESULT: -7.688919612      1.630      2.514
REMARK  6 active torsions:
REMARK  status: ('A' for Active; 'I' for Inactive)
REMARK    1  A    between atoms: N1_6  and  C6_7 
REMARK    2  A    between atoms: C6_7  and  C7_8 
REMARK    3  A    between atoms: C7_8  and  C8_9 
REMARK    4  A    between atoms: C8_9  and  N2_10 
REMARK       I    between atoms: N2_10  and  C9_12 
REMARK       I    between atoms: C9_12  and  N3_14 
REMARK    5  A    between atoms: N3_14  and  C10_16 
REMARK    6  A    between atoms: C21_27  and  N4_28 
ROOT
HETATM    1  C8  UNL     1      15.063  27.241  -3.521  1.00  0.00     0.126 C 
ENDROOT
BRANCH   1   2
HETATM    2  C7  UNL     1      16.475  27.221  -4.063  1.00  0.00     0.048 C 
BRANCH   2   3
HETATM    3  C6  UNL     1      16.885  25.841  -4.441  1.00  0.00     0.239 C 
BRANCH   3   4
HETATM    4  N1  UNL     1      17.771  25.184  -3.587  1.00  0.00    -0.061 N 
HETATM    5  C2  UNL     1      18.759  24.330  -4.193  1.00  0.00     0.192 C 
HETATM    6  C1  UNL     1      19.746  25.061  -5.055  1.00  0.00     0.041 C 
HETATM    7  C3  UNL     1      19.421  23.862  -2.879  1.00  0.00     0.053 C 
HETATM    8  C4  UNL     1      19.777  25.208  -2.295  1.00  0.00     0.037 C 
HETATM    9  C21 UNL     1      18.194  23.269  -2.236  1.00  0.00     0.255 C 
HETATM   10  C5  UNL     1      18.622  26.068  -2.785  1.00  0.00     0.238 C 
HETATM   11  C20 UNL     1      17.133  24.280  -2.623  1.00  0.00     0.274 C 
BRANCH   9  12
HETATM   12  N4  UNL     1      18.311  23.113  -0.812  1.00  0.00     0.095 N 
HETATM   13  C22 UNL     1      16.972  23.155  -0.255  1.00  0.00     0.273 C 
HETATM   14  C23 UNL     1      16.664  21.968   0.604  1.00  0.00     0.030 C 
HETATM   15  C24 UNL     1      17.695  21.673   1.642  1.00  0.00     0.003 C 
HETATM   16  C25 UNL     1      19.071  21.831   1.044  1.00  0.00     0.030 C 
HETATM   17  C26 UNL     1      18.892  21.856  -0.475  1.00  0.00     0.273 C 
ENDBRANCH   9  12
ENDBRANCH   3   4
ENDBRANCH   2   3
ENDBRANCH   1   2
BRANCH   1  18
HETATM   18  N2  UNL     1      14.080  26.928  -4.550  1.00  0.00    -0.343 N 
HETATM   19  C9  UNL     1      13.321  25.745  -4.426  1.00  0.00     0.316 C 
HETATM   20  O1  UNL     1      13.493  24.972  -3.437  1.00  0.00    -0.247 OA
HETATM   21  N3  UNL     1      12.361  25.432  -5.421  1.00  0.00    -0.338 N 
ATOM     22  H3  UNL     1      12.220  26.053  -6.217  1.00  0.00     0.164 HD
ATOM     23  H2  UNL     1      13.943  27.551  -5.346  1.00  0.00     0.164 HD
BRANCH  21  24
HETATM   24  C10 UNL     1      11.590  24.227  -5.292  1.00  0.00     0.094 C 
HETATM   25  C11 UNL     1      10.121  24.558  -5.128  1.00  0.00     0.009 C 
HETATM   26  C12 UNL     1       9.553  25.241  -6.341  1.00  0.00     0.011 C 
HETATM   27  C16 UNL     1       9.375  23.264  -4.905  1.00  0.00     0.011 C 
HETATM   28  C13 UNL     1       9.697  24.344  -7.546  1.00  0.00    -0.013 C 
HETATM   29  C14 UNL     1       8.962  23.058  -7.327  1.00  0.00     0.009 C 
HETATM   30  C19 UNL     1      11.171  24.064  -7.742  1.00  0.00     0.011 C 
HETATM   31  C15 UNL     1       9.528  22.366  -6.099  1.00  0.00    -0.013 C 
HETATM   32  C17 UNL     1      10.989  22.082  -6.317  1.00  0.00     0.011 C 
HETATM   33  C18 UNL     1      11.732  23.367  -6.513  1.00  0.00     0.009 C 
ENDBRANCH  21  24
ENDBRANCH   1  18
TORSDOF 6
ENDMDL
MODEL 4
REMARK VINA RESULT: -7.632473075      1.744      2.573
REMARK  6 active torsions:
REMARK  status: ('A' for Active; 'I' for Inactive)
REMARK    1  A    between atoms: N1_6  and  C6_7 
REMARK    2  A    between atoms: C6_7  and  C7_8 
REMARK    3  A    between atoms: C7_8  and  C8_9 
REMARK    4  A    between atoms: C8_9  and  N2_10 
REMARK       I    between atoms: N2_10  and  C9_12 
REMARK       I    between atoms: C9_12  and  N3_14 
REMARK    5  A    between atoms: N3_14  and  C10_16 
REMARK    6  A    between atoms: C21_27  and  N4_28 
ROOT
HETATM    1  C8  UNL     1      12.418  26.136  -1.720  1.00  0.00     0.126 C 
ENDROOT
BRANCH   1   2
HETATM    2  C7  UNL     1      13.760  26.232  -1.031  1.00  0.00     0.048 C 
BRANCH   2   3
HETATM    3  C6  UNL     1      14.832  26.610  -1.993  1.00  0.00     0.239 C 
BRANCH   3   4
HETATM    4  N1  UNL     1      15.916  25.741  -2.111  1.00  0.00    -0.061 N 
HETATM    5  C2  UNL     1      15.945  24.877  -3.261  1.00  0.00     0.192 C 
HETATM    6  C1  UNL     1      16.074  25.607  -4.566  1.00  0.00     0.041 C 
HETATM    7  C3  UNL     1      17.263  24.152  -2.908  1.00  0.00     0.053 C 
HETATM    8  C4  UNL     1      18.171  25.351  -2.785  1.00  0.00     0.037 C 
HETATM    9  C21 UNL     1      16.843  23.616  -1.564  1.00  0.00     0.255 C 
HETATM   10  C5  UNL     1      17.221  26.398  -2.223  1.00  0.00     0.238 C 
HETATM   11  C20 UNL     1      16.056  24.786  -1.006  1.00  0.00     0.274 C 
BRANCH   9  12
HETATM   12  N4  UNL     1      17.947  23.245  -0.723  1.00  0.00     0.095 N 
HETATM   13  C22 UNL     1      17.412  22.917   0.585  1.00  0.00     0.273 C 
HETATM   14  C23 UNL     1      17.836  21.562   1.062  1.00  0.00     0.030 C 
HETATM   15  C24 UNL     1      19.304  21.309   0.977  1.00  0.00     0.003 C 
HETATM   16  C25 UNL     1      19.832  21.844  -0.331  1.00  0.00     0.030 C 
HETATM   17  C26 UNL     1      18.618  22.094  -1.229  1.00  0.00     0.273 C 
ENDBRANCH   9  12
ENDBRANCH   3   4
ENDBRANCH   2   3
ENDBRANCH   1   2
BRANCH   1  18
HETATM   18  N2  UNL     1      12.522  26.377  -3.154  1.00  0.00    -0.343 N 
HETATM   19  C9  UNL     1      11.548  25.819  -4.009  1.00  0.00     0.316 C 
HETATM   20  O1  UNL     1      10.602  25.121  -3.537  1.00  0.00    -0.247 OA
HETATM   21  N3  UNL     1      11.640  26.049  -5.405  1.00  0.00    -0.338 N 
ATOM     22  H3  UNL     1      12.400  26.611  -5.787  1.00  0.00     0.164 HD
ATOM     23  H2  UNL     1      13.284  26.939  -3.533  1.00  0.00     0.164 HD
BRANCH  21  24
HETATM   24  C10 UNL     1      10.648  25.479  -6.272  1.00  0.00     0.094 C 
HETATM   25  C11 UNL     1      10.516  26.306  -7.535  1.00  0.00     0.009 C 
HETATM   26  C12 UNL     1      11.778  26.301  -8.351  1.00  0.00     0.011 C 
HETATM   27  C16 UNL     1       9.400  25.716  -8.363  1.00  0.00     0.011 C 
HETATM   28  C13 UNL     1      12.121  24.888  -8.753  1.00  0.00    -0.013 C 
HETATM   29  C14 UNL     1      11.015  24.298  -9.572  1.00  0.00     0.009 C 
HETATM   30  C19 UNL     1      12.311  24.079  -7.489  1.00  0.00     0.011 C 
HETATM   31  C15 UNL     1       9.736  24.304  -8.754  1.00  0.00    -0.013 C 
HETATM   32  C17 UNL     1       9.936  23.484  -7.508  1.00  0.00     0.011 C 
HETATM   33  C18 UNL     1      11.026  24.085  -6.676  1.00  0.00     0.009 C 
ENDBRANCH  21  24
ENDBRANCH   1  18
TORSDOF 6
ENDMDL
MODEL 5
REMARK VINA RESULT: -7.556959183      1.949      2.503
REMARK  6 active torsions:
REMARK  status: ('A' for Active; 'I' for Inactive)
REMARK    1  A    between atoms: N1_6  and  C6_7 
REMARK    2  A    between atoms: C6_7  and  C7_8 
REMARK    3  A    between atoms: C7_8  and  C8_9 
REMARK    4  A    between atoms: C8_9  and  N2_10 
REMARK       I    between atoms: N2_10  and  C9_12 
REMARK       I    between atoms: C9_12  and  N3_14 
REMARK    5  A    between atoms: N3_14  and  C10_16 
REMARK    6  A    between atoms: C21_27  and  N4_28 
ROOT
HETATM    1  C8  UNL     1      12.610  26.914  -2.519  1.00  0.00     0.126 C 
ENDROOT
BRANCH   1   2
HETATM    2  C7  UNL     1      13.714  26.186  -1.785  1.00  0.00     0.048 C 
BRANCH   2   3
HETATM    3  C6  UNL     1      15.054  26.666  -2.217  1.00  0.00     0.239 C 
BRANCH   3   4
HETATM    4  N1  UNL     1      16.094  25.736  -2.218  1.00  0.00    -0.061 N 
HETATM    5  C2  UNL     1      16.155  24.817  -3.324  1.00  0.00     0.192 C 
HETATM    6  C1  UNL     1      16.416  25.476  -4.647  1.00  0.00     0.041 C 
HETATM    7  C3  UNL     1      17.401  24.041  -2.845  1.00  0.00     0.053 C 
HETATM    8  C4  UNL     1      18.365  25.195  -2.709  1.00  0.00     0.037 C 
HETATM    9  C21 UNL     1      16.858  23.594  -1.512  1.00  0.00     0.255 C 
HETATM   10  C5  UNL     1      17.438  26.317  -2.264  1.00  0.00     0.238 C 
HETATM   11  C20 UNL     1      16.102  24.829  -1.065  1.00  0.00     0.274 C 
BRANCH   9  12
HETATM   12  N4  UNL     1      17.879  23.204  -0.578  1.00  0.00     0.095 N 
HETATM   13  C22 UNL     1      17.225  22.888   0.678  1.00  0.00     0.273 C 
HETATM   14  C23 UNL     1      17.582  21.526   1.190  1.00  0.00     0.030 C 
HETATM   15  C24 UNL     1      19.048  21.248   1.234  1.00  0.00     0.003 C 
HETATM   16  C25 UNL     1      19.697  21.773  -0.023  1.00  0.00     0.030 C 
HETATM   17  C26 UNL     1      18.571  22.041  -1.024  1.00  0.00     0.273 C 
ENDBRANCH   9  12
ENDBRANCH   3   4
ENDBRANCH   2   3
ENDBRANCH   1   2
BRANCH   1  18
HETATM   18  N2  UNL     1      11.920  26.048  -3.466  1.00  0.00    -0.343 N 
HETATM   19  C9  UNL     1      12.343  26.040  -4.812  1.00  0.00     0.316 C 
HETATM   20  O1  UNL     1      13.304  26.775  -5.188  1.00  0.00    -0.247 OA
HETATM   21  N3  UNL     1      11.679  25.200  -5.741  1.00  0.00    -0.338 N 
ATOM     22  H3  UNL     1      10.905  24.607  -5.440  1.00  0.00     0.164 HD
ATOM     23  H2  UNL     1      11.146  25.457  -3.161  1.00  0.00     0.164 HD
BRANCH  21  24
HETATM   24  C10 UNL     1      12.110  25.195  -7.110  1.00  0.00     0.094 C 
HETATM   25  C11 UNL     1      11.825  23.850  -7.747  1.00  0.00     0.009 C 
HETATM   26  C12 UNL     1      10.353  23.555  -7.814  1.00  0.00     0.011 C 
HETATM   27  C16 UNL     1      12.381  23.873  -9.150  1.00  0.00     0.011 C 
HETATM   28  C13 UNL     1       9.656  24.615  -8.632  1.00  0.00    -0.013 C 
HETATM   29  C14 UNL     1      10.208  24.642 -10.024  1.00  0.00     0.009 C 
HETATM   30  C19 UNL     1       9.893  25.949  -7.960  1.00  0.00     0.011 C 
HETATM   31  C15 UNL     1      11.696  24.936  -9.961  1.00  0.00    -0.013 C 
HETATM   32  C17 UNL     1      11.914  26.272  -9.304  1.00  0.00     0.011 C 
HETATM   33  C18 UNL     1      11.385  26.240  -7.904  1.00  0.00     0.009 C 
ENDBRANCH  21  24
ENDBRANCH   1  18
TORSDOF 6
ENDMDL
