MODEL 1
REMARK VINA RESULT: -8.032581132      0.000      0.000
REMARK  11 active torsions:
REMARK  status: ('A' for Active; 'I' for Inactive)
REMARK    1  A    between atoms: C2_2  and  C3_3 
REMARK    2  A    between atoms: C3_3  and  C5_5 
REMARK    3  A    between atoms: C6_6  and  C7_7 
REMARK    4  A    between atoms: C7_7  and  C8_8 
REMARK    5  A    between atoms: C7_7  and  N1_10 
REMARK       I    between atoms: N1_10  and  C10_12 
REMARK    6  A    between atoms: C10_12  and  C11_14 
REMARK    7  A    between atoms: N2_18  and  C15_19 
REMARK    8  A    between atoms: C15_19  and  O2_20 
REMARK    9  A    between atoms: C15_19  and  N3_22 
REMARK       I    between atoms: N3_22  and  C16_23 
REMARK   10  A    between atoms: N3_22  and  C21_31 
REMARK       I    between atoms: C16_23  and  N4_25 
REMARK   11  A    between atoms: N4_25  and  C17_27 
ROOT
HETATM    1  C11 UNL     1      14.529  25.830  -1.904  1.00  0.00     0.179 C 
HETATM    2  C12 UNL     1      14.745  26.736  -3.091  1.00  0.00     0.037 C 
HETATM    3  C13 UNL     1      16.123  27.260  -2.759  1.00  0.00     0.022 C 
HETATM    4  C14 UNL     1      16.021  27.523  -1.272  1.00  0.00     0.127 C 
HETATM    5  N2  UNL     1      15.016  26.659  -0.754  1.00  0.00    -0.334 N 
ENDROOT
BRANCH   5   6
HETATM    6  C15 UNL     1      14.438  26.471   0.504  1.00  0.00     0.226 C 
BRANCH   6   7
HETATM    7  O2  UNL     1      13.271  25.814   0.377  1.00  0.00    -0.332 OA
ATOM      8  H2  UNL     1      12.791  25.848   1.196  1.00  0.00     0.221 HD
ENDBRANCH   6   7
BRANCH   6   9
HETATM    9  N3  UNL     1      14.713  26.763   1.825  1.00  0.00    -0.261 N 
HETATM   10  C16 UNL     1      14.962  27.985   2.416  1.00  0.00     0.326 C 
HETATM   11  O3  UNL     1      14.953  29.062   1.718  1.00  0.00    -0.247 OA
HETATM   12  N4  UNL     1      15.247  28.178   3.814  1.00  0.00    -0.335 N 
ATOM     13  H4  UNL     1      15.268  27.371   4.438  1.00  0.00     0.165 HD
BRANCH  12  14
HETATM   14  C17 UNL     1      15.506  29.506   4.351  1.00  0.00     0.023 C 
HETATM   15  C18 UNL     1      16.145  29.425   5.718  1.00  0.00     0.037 C 
HETATM   16  C19 UNL     1      16.524  30.232   3.460  1.00  0.00     0.037 C 
HETATM   17  C20 UNL     1      14.290  30.373   4.431  1.00  0.00     0.037 C 
ENDBRANCH  12  14
BRANCH   9  18
HETATM   18  C21 UNL     1      14.767  25.580   2.742  1.00  0.00     0.090 C 
HETATM   19  C22 UNL     1      15.492  24.443   2.039  1.00  0.00     0.032 C 
HETATM   20  C23 UNL     1      15.520  26.002   4.010  1.00  0.00     0.032 C 
ENDBRANCH   9  18
ENDBRANCH   6   9
ENDBRANCH   5   6
BRANCH   1  21
HETATM   21  C10 UNL     1      15.330  24.624  -2.054  1.00  0.00     0.241 C 
HETATM   22  N1  UNL     1      16.410  24.265  -1.214  1.00  0.00    -0.351 N 
ATOM     23  H1  UNL     1      16.660  24.888  -0.446  1.00  0.00     0.163 HD
HETATM   24  O1  UNL     1      15.050  23.817  -3.008  1.00  0.00    -0.271 OA
BRANCH  22  25
HETATM   25  C7  UNL     1      17.193  23.025  -1.404  1.00  0.00     0.107 C 
BRANCH  25  26
HETATM   26  C6  UNL     1      18.626  23.329  -1.509  1.00  0.00    -0.006 C 
HETATM   27  C5  UNL     1      19.298  24.123  -2.253  1.00  0.00    -0.024 C 
BRANCH  27  28
HETATM   28  C3  UNL     1      19.002  25.069  -3.314  1.00  0.00     0.003 C 
HETATM   29  C4  UNL     1      18.203  24.650  -4.481  1.00  0.00     0.014 C 
BRANCH  28  30
HETATM   30  C2  UNL     1      20.321  25.639  -3.884  1.00  0.00     0.003 C 
HETATM   31  C1  UNL     1      21.440  25.478  -2.879  1.00  0.00     0.006 C 
ENDBRANCH  28  30
ENDBRANCH  27  28
ENDBRANCH  25  26
BRANCH  25  32
HETATM   32  C8  UNL     1      16.899  22.082  -0.241  1.00  0.00     0.025 C 
HETATM   33  C9  UNL     1      18.100  21.854   0.643  1.00  0.00     0.007 C 
ENDBRANCH  25  32
ENDBRANCH  22  25
ENDBRANCH   1  21
TORSDOF 11
ENDMDL
MODEL 2
REMARK VINA RESULT: -7.965445741      4.115      7.287
REMARK  11 active torsions:
REMARK  status: ('A' for Active; 'I' for Inactive)
REMARK    1  A    between atoms: C2_2  and  C3_3 
REMARK    2  A    between atoms: C3_3  and  C5_5 
REMARK    3  A    between atoms: C6_6  and  C7_7 
REMARK    4  A    between atoms: C7_7  and  C8_8 
REMARK    5  A    between atoms: C7_7  and  N1_10 
REMARK       I    between atoms: N1_10  and  C10_12 
REMARK    6  A    between atoms: C10_12  and  C11_14 
REMARK    7  A    between atoms: N2_18  and  C15_19 
REMARK    8  A    between atoms: C15_19  and  O2_20 
REMARK    9  A    between atoms: C15_19  and  N3_22 
REMARK       I    between atoms: N3_22  and  C16_23 
REMARK   10  A    between atoms: N3_22  and  C21_31 
REMARK       I    between atoms: C16_23  and  N4_25 
REMARK   11  A    between atoms: N4_25  and  C17_27 
ROOT
HETATM    1  C11 UNL     1      15.675  27.047  -4.066  1.00  0.00     0.179 C 
HETATM    2  C12 UNL     1      16.186  28.403  -4.485  1.00  0.00     0.037 C 
HETATM    3  C13 UNL     1      15.955  29.167  -3.201  1.00  0.00     0.022 C 
HETATM    4  C14 UNL     1      14.591  28.672  -2.770  1.00  0.00     0.127 C 
HETATM    5  N2  UNL     1      14.412  27.376  -3.329  1.00  0.00    -0.334 N 
ENDROOT
BRANCH   5   6
HETATM    6  C15 UNL     1      13.366  26.448  -3.338  1.00  0.00     0.226 C 
BRANCH   6   7
HETATM    7  O2  UNL     1      13.395  25.717  -2.209  1.00  0.00    -0.332 OA
ATOM      8  H2  UNL     1      13.362  24.792  -2.422  1.00  0.00     0.221 HD
ENDBRANCH   6   7
BRANCH   6   9
HETATM    9  N3  UNL     1      12.325  26.067  -4.160  1.00  0.00    -0.261 N 
HETATM   10  C16 UNL     1      12.143  24.885  -4.849  1.00  0.00     0.326 C 
HETATM   11  O3  UNL     1      13.012  23.943  -4.770  1.00  0.00    -0.247 OA
HETATM   12  N4  UNL     1      11.015  24.591  -5.692  1.00  0.00    -0.335 N 
ATOM     13  H4  UNL     1      10.277  25.287  -5.804  1.00  0.00     0.165 HD
BRANCH  12  14
HETATM   14  C17 UNL     1      10.909  23.317  -6.388  1.00  0.00     0.023 C 
HETATM   15  C18 UNL     1      10.851  22.166  -5.410  1.00  0.00     0.037 C 
HETATM   16  C19 UNL     1       9.587  23.265  -7.168  1.00  0.00     0.037 C 
HETATM   17  C20 UNL     1      12.011  23.070  -7.368  1.00  0.00     0.037 C 
ENDBRANCH  12  14
BRANCH   9  18
HETATM   18  C21 UNL     1      11.251  27.093  -4.345  1.00  0.00     0.090 C 
HETATM   19  C22 UNL     1      10.904  27.695  -2.993  1.00  0.00     0.032 C 
HETATM   20  C23 UNL     1      11.787  28.170  -5.298  1.00  0.00     0.032 C 
ENDBRANCH   9  18
ENDBRANCH   6   9
ENDBRANCH   5   6
BRANCH   1  21
HETATM   21  C10 UNL     1      16.642  26.409  -3.184  1.00  0.00     0.241 C 
HETATM   22  N1  UNL     1      18.029  26.314  -3.442  1.00  0.00    -0.351 N 
ATOM     23  H1  UNL     1      18.393  26.714  -4.307  1.00  0.00     0.163 HD
HETATM   24  O1  UNL     1      16.224  25.892  -2.088  1.00  0.00    -0.271 OA
BRANCH  22  25
HETATM   25  C7  UNL     1      18.974  25.659  -2.512  1.00  0.00     0.107 C 
BRANCH  25  26
HETATM   26  C6  UNL     1      19.089  24.227  -2.817  1.00  0.00    -0.006 C 
HETATM   27  C5  UNL     1      18.935  23.169  -2.114  1.00  0.00    -0.024 C 
BRANCH  27  28
HETATM   28  C3  UNL     1      18.589  22.865  -0.737  1.00  0.00     0.003 C 
HETATM   29  C4  UNL     1      19.142  21.665  -0.081  1.00  0.00     0.014 C 
BRANCH  28  30
HETATM   30  C2  UNL     1      17.054  22.756  -0.600  1.00  0.00     0.003 C 
HETATM   31  C1  UNL     1      16.463  22.094  -1.825  1.00  0.00     0.006 C 
ENDBRANCH  28  30
ENDBRANCH  27  28
ENDBRANCH  25  26
BRANCH  25  32
HETATM   32  C8  UNL     1      20.321  26.368  -2.608  1.00  0.00     0.025 C 
HETATM   33  C9  UNL     1      21.459  25.421  -2.896  1.00  0.00     0.007 C 
ENDBRANCH  25  32
ENDBRANCH  22  25
ENDBRANCH   1  21
TORSDOF 11
ENDMDL
MODEL 3
REMARK VINA RESULT: -7.941656799      3.971      8.235
REMARK  11 active torsions:
REMARK  status: ('A' for Active; 'I' for Inactive)
REMARK    1  A    between atoms: C2_2  and  C3_3 
REMARK    2  A    between atoms: C3_3  and  C5_5 
REMARK    3  A    between atoms: C6_6  and  C7_7 
REMARK    4  A    between atoms: C7_7  and  C8_8 
REMARK    5  A    between atoms: C7_7  and  N1_10 
REMARK       I    between atoms: N1_10  and  C10_12 
REMARK    6  A    between atoms: C10_12  and  C11_14 
REMARK    7  A    between atoms: N2_18  and  C15_19 
REMARK    8  A    between atoms: C15_19  and  O2_20 
REMARK    9  A    between atoms: C15_19  and  N3_22 
REMARK       I    between atoms: N3_22  and  C16_23 
REMARK   10  A    between atoms: N3_22  and  C21_31 
REMARK       I    between atoms: C16_23  and  N4_25 
REMARK   11  A    between atoms: N4_25  and  C17_27 
ROOT
HETATM    1  C11 UNL     1      15.526  27.293  -3.253  1.00  0.00     0.179 C 
HETATM    2  C12 UNL     1      14.875  28.043  -2.118  1.00  0.00     0.037 C 
HETATM    3  C13 UNL     1      14.108  26.910  -1.475  1.00  0.00     0.022 C 
HETATM    4  C14 UNL     1      13.549  26.175  -2.675  1.00  0.00     0.127 C 
HETATM    5  N2  UNL     1      14.412  26.437  -3.776  1.00  0.00    -0.334 N 
ENDROOT
BRANCH   5   6
HETATM    6  C15 UNL     1      14.403  26.097  -5.131  1.00  0.00     0.226 C 
BRANCH   6   7
HETATM    7  O2  UNL     1      15.470  25.329  -5.416  1.00  0.00    -0.332 OA
ATOM      8  H2  UNL     1      16.040  25.782  -6.026  1.00  0.00     0.221 HD
ENDBRANCH   6   7
BRANCH   6   9
HETATM    9  N3  UNL     1      13.627  26.319  -6.251  1.00  0.00    -0.261 N 
HETATM   10  C16 UNL     1      13.035  25.404  -7.098  1.00  0.00     0.326 C 
HETATM   11  O3  UNL     1      13.166  24.144  -6.893  1.00  0.00    -0.247 OA
HETATM   12  N4  UNL     1      12.244  25.745  -8.252  1.00  0.00    -0.335 N 
ATOM     13  H4  UNL     1      12.089  26.727  -8.481  1.00  0.00     0.165 HD
BRANCH  12  14
HETATM   14  C17 UNL     1      11.663  24.712  -9.096  1.00  0.00     0.023 C 
HETATM   15  C18 UNL     1      10.558  23.976  -8.373  1.00  0.00     0.037 C 
HETATM   16  C19 UNL     1      10.999  25.360 -10.319  1.00  0.00     0.037 C 
HETATM   17  C20 UNL     1      12.657  23.718  -9.607  1.00  0.00     0.037 C 
ENDBRANCH  12  14
BRANCH   9  18
HETATM   18  C21 UNL     1      13.414  27.758  -6.605  1.00  0.00     0.090 C 
HETATM   19  C22 UNL     1      12.420  28.365  -5.627  1.00  0.00     0.032 C 
HETATM   20  C23 UNL     1      14.770  28.470  -6.514  1.00  0.00     0.032 C 
ENDBRANCH   9  18
ENDBRANCH   6   9
ENDBRANCH   5   6
BRANCH   1  21
HETATM   21  C10 UNL     1      16.615  26.473  -2.740  1.00  0.00     0.241 C 
HETATM   22  N1  UNL     1      16.729  25.076  -2.927  1.00  0.00    -0.351 N 
ATOM     23  H1  UNL     1      16.002  24.593  -3.455  1.00  0.00     0.163 HD
HETATM   24  O1  UNL     1      17.547  27.042  -2.070  1.00  0.00    -0.271 OA
BRANCH  22  25
HETATM   25  C7  UNL     1      17.858  24.286  -2.389  1.00  0.00     0.107 C 
BRANCH  25  26
HETATM   26  C6  UNL     1      17.411  22.940  -2.008  1.00  0.00    -0.006 C 
HETATM   27  C5  UNL     1      17.731  22.152  -1.053  1.00  0.00    -0.024 C 
BRANCH  27  28
HETATM   28  C3  UNL     1      18.647  22.185   0.074  1.00  0.00     0.003 C 
HETATM   29  C4  UNL     1      20.072  21.854  -0.118  1.00  0.00     0.014 C 
BRANCH  28  30
HETATM   30  C2  UNL     1      18.136  21.241   1.185  1.00  0.00     0.003 C 
HETATM   31  C1  UNL     1      16.763  21.672   1.651  1.00  0.00     0.006 C 
ENDBRANCH  28  30
ENDBRANCH  27  28
ENDBRANCH  25  26
BRANCH  25  32
HETATM   32  C8  UNL     1      18.962  24.239  -3.441  1.00  0.00     0.025 C 
HETATM   33  C9  UNL     1      20.322  24.562  -2.873  1.00  0.00     0.007 C 
ENDBRANCH  25  32
ENDBRANCH  22  25
ENDBRANCH   1  21
TORSDOF 11
ENDMDL
MODEL 4
REMARK VINA RESULT: -7.913446218      3.823      7.735
REMARK  11 active torsions:
REMARK  status: ('A' for Active; 'I' for Inactive)
REMARK    1  A    between atoms: C2_2  and  C3_3 
REMARK    2  A    between atoms: C3_3  and  C5_5 
REMARK    3  A    between atoms: C6_6  and  C7_7 
REMARK    4  A    between atoms: C7_7  and  C8_8 
REMARK    5  A    between atoms: C7_7  and  N1_10 
REMARK       I    between atoms: N1_10  and  C10_12 
REMARK    6  A    between atoms: C10_12  and  C11_14 
REMARK    7  A    between atoms: N2_18  and  C15_19 
REMARK    8  A    between atoms: C15_19  and  O2_20 
REMARK    9  A    between atoms: C15_19  and  N3_22 
REMARK       I    between atoms: N3_22  and  C16_23 
REMARK   10  A    between atoms: N3_22  and  C21_31 
REMARK       I    between atoms: C16_23  and  N4_25 
REMARK   11  A    between atoms: N4_25  and  C17_27 
ROOT
HETATM    1  C11 UNL     1      15.496  25.983  -2.815  1.00  0.00     0.179 C 
HETATM    2  C12 UNL     1      15.106  26.847  -1.642  1.00  0.00     0.037 C 
HETATM    3  C13 UNL     1      13.728  26.291  -1.367  1.00  0.00     0.022 C 
HETATM    4  C14 UNL     1      13.158  26.133  -2.761  1.00  0.00     0.127 C 
HETATM    5  N2  UNL     1      14.254  25.972  -3.654  1.00  0.00    -0.334 N 
ENDROOT
BRANCH   5   6
HETATM    6  C15 UNL     1      14.379  25.840  -5.040  1.00  0.00     0.226 C 
BRANCH   6   7
HETATM    7  O2  UNL     1      15.538  25.226  -5.338  1.00  0.00    -0.332 OA
ATOM      8  H2  UNL     1      15.371  24.323  -5.581  1.00  0.00     0.221 HD
ENDBRANCH   6   7
BRANCH   6   9
HETATM    9  N3  UNL     1      13.665  26.154  -6.179  1.00  0.00    -0.261 N 
HETATM   10  C16 UNL     1      13.057  25.313  -7.088  1.00  0.00     0.326 C 
HETATM   11  O3  UNL     1      13.104  24.039  -6.933  1.00  0.00    -0.247 OA
HETATM   12  N4  UNL     1      12.338  25.748  -8.257  1.00  0.00    -0.335 N 
ATOM     13  H4  UNL     1      12.251  26.746  -8.449  1.00  0.00     0.165 HD
BRANCH  12  14
HETATM   14  C17 UNL     1      11.733  24.787  -9.168  1.00  0.00     0.023 C 
HETATM   15  C18 UNL     1      10.512  24.146  -8.549  1.00  0.00     0.037 C 
HETATM   16  C19 UNL     1      11.229  25.515 -10.422  1.00  0.00     0.037 C 
HETATM   17  C20 UNL     1      12.670  23.715  -9.625  1.00  0.00     0.037 C 
ENDBRANCH  12  14
BRANCH   9  18
HETATM   18  C21 UNL     1      13.553  27.616  -6.479  1.00  0.00     0.090 C 
HETATM   19  C22 UNL     1      12.419  28.205  -5.654  1.00  0.00     0.032 C 
HETATM   20  C23 UNL     1      14.890  28.276  -6.113  1.00  0.00     0.032 C 
ENDBRANCH   9  18
ENDBRANCH   6   9
ENDBRANCH   5   6
BRANCH   1  21
HETATM   21  C10 UNL     1      15.824  24.643  -2.351  1.00  0.00     0.241 C 
HETATM   22  N1  UNL     1      16.792  24.346  -1.364  1.00  0.00    -0.351 N 
ATOM     23  H1  UNL     1      17.309  25.117  -0.939  1.00  0.00     0.163 HD
HETATM   24  O1  UNL     1      15.199  23.648  -2.860  1.00  0.00    -0.271 OA
BRANCH  22  25
HETATM   25  C7  UNL     1      17.088  22.966  -0.921  1.00  0.00     0.107 C 
BRANCH  25  26
HETATM   26  C6  UNL     1      18.316  22.472  -1.556  1.00  0.00    -0.006 C 
HETATM   27  C5  UNL     1      19.213  23.031  -2.276  1.00  0.00    -0.024 C 
BRANCH  27  28
HETATM   28  C3  UNL     1      19.458  24.362  -2.802  1.00  0.00     0.003 C 
HETATM   29  C4  UNL     1      18.997  24.720  -4.158  1.00  0.00     0.014 C 
BRANCH  28  30
HETATM   30  C2  UNL     1      20.973  24.660  -2.775  1.00  0.00     0.003 C 
HETATM   31  C1  UNL     1      21.215  26.153  -2.787  1.00  0.00     0.006 C 
ENDBRANCH  28  30
ENDBRANCH  27  28
ENDBRANCH  25  26
BRANCH  25  32
HETATM   32  C8  UNL     1      17.194  22.957   0.601  1.00  0.00     0.025 C 
HETATM   33  C9  UNL     1      18.200  21.954   1.108  1.00  0.00     0.007 C 
ENDBRANCH  25  32
ENDBRANCH  22  25
ENDBRANCH   1  21
TORSDOF 11
ENDMDL
MODEL 5
REMARK VINA RESULT: -7.903986178      3.465      6.832
REMARK  11 active torsions:
REMARK  status: ('A' for Active; 'I' for Inactive)
REMARK    1  A    between atoms: C2_2  and  C3_3 
REMARK    2  A    between atoms: C3_3  and  C5_5 
REMARK    3  A    between atoms: C6_6  and  C7_7 
REMARK    4  A    between atoms: C7_7  and  C8_8 
REMARK    5  A    between atoms: C7_7  and  N1_10 
REMARK       I    between atoms: N1_10  and  C10_12 
REMARK    6  A    between atoms: C10_12  and  C11_14 
REMARK    7  A    between atoms: N2_18  and  C15_19 
REMARK    8  A    between atoms: C15_19  and  O2_20 
REMARK    9  A    between atoms: C15_19  and  N3_22 
REMARK       I    between atoms: N3_22  and  C16_23 
REMARK   10  A    between atoms: N3_22  and  C21_31 
REMARK       I    between atoms: C16_23  and  N4_25 
REMARK   11  A    between atoms: N4_25  and  C17_27 
ROOT
HETATM    1  C11 UNL     1      15.193  26.240  -2.091  1.00  0.00     0.179 C 
HETATM    2  C12 UNL     1      15.485  26.900  -0.766  1.00  0.00     0.037 C 
HETATM    3  C13 UNL     1      14.452  26.206   0.093  1.00  0.00     0.022 C 
HETATM    4  C14 UNL     1      13.233  26.200  -0.806  1.00  0.00     0.127 C 
HETATM    5  N2  UNL     1      13.696  26.250  -2.151  1.00  0.00    -0.334 N 
ENDROOT
BRANCH   5   6
HETATM    6  C15 UNL     1      13.072  26.322  -3.399  1.00  0.00     0.226 C 
BRANCH   6   7
HETATM    7  O2  UNL     1      13.791  27.106  -4.223  1.00  0.00    -0.332 OA
ATOM      8  H2  UNL     1      13.208  27.633  -4.757  1.00  0.00     0.221 HD
ENDBRANCH   6   7
BRANCH   6   9
HETATM    9  N3  UNL     1      11.945  25.829  -4.025  1.00  0.00    -0.261 N 
HETATM   10  C16 UNL     1      11.844  24.877  -5.018  1.00  0.00     0.326 C 
HETATM   11  O3  UNL     1      12.895  24.308  -5.488  1.00  0.00    -0.247 OA
HETATM   12  N4  UNL     1      10.608  24.437  -5.611  1.00  0.00    -0.335 N 
ATOM     13  H4  UNL     1       9.726  24.837  -5.290  1.00  0.00     0.165 HD
BRANCH  12  14
HETATM   14  C17 UNL     1      10.596  23.430  -6.662  1.00  0.00     0.023 C 
HETATM   15  C18 UNL     1      10.927  22.062  -6.109  1.00  0.00     0.037 C 
HETATM   16  C19 UNL     1       9.180  23.310  -7.244  1.00  0.00     0.037 C 
HETATM   17  C20 UNL     1      11.518  23.732  -7.800  1.00  0.00     0.037 C 
ENDBRANCH  12  14
BRANCH   9  18
HETATM   18  C21 UNL     1      10.650  26.430  -3.573  1.00  0.00     0.090 C 
HETATM   19  C22 UNL     1      10.144  25.660  -2.363  1.00  0.00     0.032 C 
HETATM   20  C23 UNL     1      10.913  27.898  -3.212  1.00  0.00     0.032 C 
ENDBRANCH   9  18
ENDBRANCH   6   9
ENDBRANCH   5   6
BRANCH   1  21
HETATM   21  C10 UNL     1      15.705  24.877  -2.084  1.00  0.00     0.241 C 
HETATM   22  N1  UNL     1      16.836  24.445  -1.353  1.00  0.00    -0.351 N 
ATOM     23  H1  UNL     1      17.342  25.126  -0.787  1.00  0.00     0.163 HD
HETATM   24  O1  UNL     1      15.100  23.991  -2.784  1.00  0.00    -0.271 OA
BRANCH  22  25
HETATM   25  C7  UNL     1      17.316  23.046  -1.374  1.00  0.00     0.107 C 
BRANCH  25  26
HETATM   26  C6  UNL     1      18.745  22.996  -1.710  1.00  0.00    -0.006 C 
HETATM   27  C5  UNL     1      19.483  23.683  -2.497  1.00  0.00    -0.024 C 
BRANCH  27  28
HETATM   28  C3  UNL     1      19.291  24.797  -3.409  1.00  0.00     0.003 C 
HETATM   29  C4  UNL     1      18.394  24.658  -4.573  1.00  0.00     0.014 C 
BRANCH  28  30
HETATM   30  C2  UNL     1      20.657  25.244  -3.975  1.00  0.00     0.003 C 
HETATM   31  C1  UNL     1      21.590  25.633  -2.851  1.00  0.00     0.006 C 
ENDBRANCH  28  30
ENDBRANCH  27  28
ENDBRANCH  25  26
BRANCH  25  32
HETATM   32  C8  UNL     1      17.031  22.413  -0.016  1.00  0.00     0.025 C 
HETATM   33  C9  UNL     1      18.264  21.825   0.623  1.00  0.00     0.007 C 
ENDBRANCH  25  32
ENDBRANCH  22  25
ENDBRANCH   1  21
TORSDOF 11
ENDMDL
