MODEL 1
REMARK VINA RESULT: -8.082522137      0.000      0.000
REMARK  7 active torsions:
REMARK  status: ('A' for Active; 'I' for Inactive)
REMARK    1  A    between atoms: C6_7  and  C7_8 
REMARK    2  A    between atoms: C7_8  and  C8_9 
REMARK    3  A    between atoms: C8_9  and  C9_10 
REMARK    4  A    between atoms: C9_10  and  C10_11 
REMARK    5  A    between atoms: C10_11  and  N2_12 
REMARK    6  A    between atoms: N3_15  and  C12_16 
REMARK    7  A    between atoms: C12_16  and  C13_17 
ROOT
HETATM    1  N2  UNL     1      15.634  25.705  -0.623  1.00  0.00    -0.309 N 
HETATM    2  C11 UNL     1      16.100  26.470  -1.711  1.00  0.00     0.183 A 
HETATM    3  S1  UNL     1      15.724  27.916  -2.418  1.00  0.00    -0.040 SA
HETATM    4  N3  UNL     1      17.112  25.472  -1.977  1.00  0.00    -0.309 N 
HETATM    5  C18 UNL     1      16.657  24.709  -0.900  1.00  0.00     0.116 A 
HETATM    6  C19 UNL     1      17.003  23.565  -0.375  1.00  0.00    -0.035 C 
HETATM    7  C20 UNL     1      16.252  23.011   0.817  1.00  0.00     0.038 C 
HETATM    8  C21 UNL     1      16.693  21.557   1.031  1.00  0.00     0.004 C 
HETATM    9  C22 UNL     1      18.157  21.436   1.301  1.00  0.00     0.001 C 
HETATM   10  C23 UNL     1      18.964  22.345   0.413  1.00  0.00     0.004 C 
HETATM   11  C24 UNL     1      18.087  22.682  -0.804  1.00  0.00     0.038 C 
ENDROOT
BRANCH   1  12
HETATM   12  C10 UNL     1      14.596  25.771   0.364  1.00  0.00     0.133 C 
BRANCH  12  13
HETATM   13  C9  UNL     1      14.625  26.867   1.328  1.00  0.00     0.020 C 
BRANCH  13  14
HETATM   14  C8  UNL     1      14.360  26.640   2.767  1.00  0.00     0.004 C 
BRANCH  14  15
HETATM   15  C7  UNL     1      15.566  26.622   3.627  1.00  0.00     0.036 C 
BRANCH  15  16
HETATM   16  C6  UNL     1      15.581  27.725   4.636  1.00  0.00     0.222 C 
HETATM   17  N1  UNL     1      15.870  29.029   4.191  1.00  0.00     0.088 N 
HETATM   18  C1  UNL     1      14.729  29.774   3.668  1.00  0.00     0.310 C 
HETATM   19  C2  UNL     1      16.530  29.795   5.227  1.00  0.00     0.272 C 
HETATM   20  C3  UNL     1      17.961  29.304   5.338  1.00  0.00     0.030 C 
HETATM   21  C4  UNL     1      17.970  27.781   5.438  1.00  0.00     0.004 C 
HETATM   22  C5  UNL     1      16.543  27.362   5.784  1.00  0.00     0.036 C 
ENDBRANCH  15  16
ENDBRANCH  14  15
ENDBRANCH  13  14
ENDBRANCH  12  13
ENDBRANCH   1  12
BRANCH   4  23
HETATM   23  C12 UNL     1      18.092  25.515  -3.038  1.00  0.00     0.137 C 
BRANCH  23  24
HETATM   24  C13 UNL     1      19.492  25.709  -2.483  1.00  0.00     0.007 C 
HETATM   25  C14 UNL     1      20.082  27.015  -2.933  1.00  0.00     0.025 C 
HETATM   26  C15 UNL     1      20.850  26.903  -4.210  1.00  0.00     0.114 C 
HETATM   27  N4  UNL     1      20.546  25.771  -5.018  1.00  0.00    -0.421 N 
HETATM   28  C16 UNL     1      20.629  24.509  -4.352  1.00  0.00     0.114 C 
ATOM     29  H4  UNL     1      20.288  25.855  -6.002  1.00  0.00     0.153 HD
HETATM   30  C17 UNL     1      20.416  24.598  -2.874  1.00  0.00     0.025 C 
ENDBRANCH  23  24
ENDBRANCH   4  23
TORSDOF 7
ENDMDL
MODEL 2
REMARK VINA RESULT: -8.015318917      1.024      1.718
REMARK  7 active torsions:
REMARK  status: ('A' for Active; 'I' for Inactive)
REMARK    1  A    between atoms: C6_7  and  C7_8 
REMARK    2  A    between atoms: C7_8  and  C8_9 
REMARK    3  A    between atoms: C8_9  and  C9_10 
REMARK    4  A    between atoms: C9_10  and  C10_11 
REMARK    5  A    between atoms: C10_11  and  N2_12 
REMARK    6  A    between atoms: N3_15  and  C12_16 
REMARK    7  A    between atoms: C12_16  and  C13_17 
ROOT
HETATM    1  N2  UNL     1      16.177  25.468  -1.171  1.00  0.00    -0.309 N 
HETATM    2  C11 UNL     1      16.662  26.337  -2.167  1.00  0.00     0.183 A 
HETATM    3  S1  UNL     1      16.223  27.791  -2.820  1.00  0.00    -0.040 SA
HETATM    4  N3  UNL     1      17.775  25.443  -2.402  1.00  0.00    -0.309 N 
HETATM    5  C18 UNL     1      17.300  24.577  -1.415  1.00  0.00     0.116 A 
HETATM    6  C19 UNL     1      17.699  23.433  -0.930  1.00  0.00    -0.035 C 
HETATM    7  C20 UNL     1      16.903  22.744   0.158  1.00  0.00     0.038 C 
HETATM    8  C21 UNL     1      17.448  21.319   0.324  1.00  0.00     0.004 C 
HETATM    9  C22 UNL     1      18.890  21.299   0.713  1.00  0.00     0.001 C 
HETATM   10  C23 UNL     1      19.686  22.326  -0.047  1.00  0.00     0.004 C 
HETATM   11  C24 UNL     1      18.886  22.670  -1.314  1.00  0.00     0.038 C 
ENDROOT
BRANCH   1  12
HETATM   12  C10 UNL     1      15.059  25.385  -0.276  1.00  0.00     0.133 C 
BRANCH  12  13
HETATM   13  C9  UNL     1      14.976  26.348   0.819  1.00  0.00     0.020 C 
BRANCH  13  14
HETATM   14  C8  UNL     1      14.546  25.943   2.176  1.00  0.00     0.004 C 
BRANCH  14  15
HETATM   15  C7  UNL     1      14.257  27.066   3.099  1.00  0.00     0.036 C 
BRANCH  15  16
HETATM   16  C6  UNL     1      15.460  27.900   3.400  1.00  0.00     0.222 C 
HETATM   17  N1  UNL     1      15.911  27.960   4.732  1.00  0.00     0.088 N 
HETATM   18  C1  UNL     1      16.794  26.871   5.138  1.00  0.00     0.310 C 
HETATM   19  C2  UNL     1      16.535  29.236   5.010  1.00  0.00     0.272 C 
HETATM   20  C3  UNL     1      15.442  30.281   5.127  1.00  0.00     0.030 C 
HETATM   21  C4  UNL     1      14.505  30.173   3.927  1.00  0.00     0.004 C 
HETATM   22  C5  UNL     1      15.236  29.334   2.881  1.00  0.00     0.036 C 
ENDBRANCH  15  16
ENDBRANCH  14  15
ENDBRANCH  13  14
ENDBRANCH  12  13
ENDBRANCH   1  12
BRANCH   4  23
HETATM   23  C12 UNL     1      18.831  25.634  -3.370  1.00  0.00     0.137 C 
BRANCH  23  24
HETATM   24  C13 UNL     1      20.169  25.850  -2.685  1.00  0.00     0.007 C 
HETATM   25  C14 UNL     1      20.357  27.288  -2.295  1.00  0.00     0.025 C 
HETATM   26  C15 UNL     1      21.026  28.101  -3.355  1.00  0.00     0.114 C 
HETATM   27  N4  UNL     1      20.969  27.567  -4.674  1.00  0.00    -0.421 N 
HETATM   28  C16 UNL     1      21.434  26.221  -4.804  1.00  0.00     0.114 C 
ATOM     29  H4  UNL     1      20.623  28.105  -5.468  1.00  0.00     0.153 HD
HETATM   30  C17 UNL     1      21.320  25.425  -3.542  1.00  0.00     0.025 C 
ENDBRANCH  23  24
ENDBRANCH   4  23
TORSDOF 7
ENDMDL
MODEL 3
REMARK VINA RESULT: -7.982896606      1.913      2.623
REMARK  7 active torsions:
REMARK  status: ('A' for Active; 'I' for Inactive)
REMARK    1  A    between atoms: C6_7  and  C7_8 
REMARK    2  A    between atoms: C7_8  and  C8_9 
REMARK    3  A    between atoms: C8_9  and  C9_10 
REMARK    4  A    between atoms: C9_10  and  C10_11 
REMARK    5  A    between atoms: C10_11  and  N2_12 
REMARK    6  A    between atoms: N3_15  and  C12_16 
REMARK    7  A    between atoms: C12_16  and  C13_17 
ROOT
HETATM    1  N2  UNL     1      15.888  24.489   1.620  1.00  0.00    -0.309 N 
HETATM    2  C11 UNL     1      15.138  25.344   0.789  1.00  0.00     0.183 A 
HETATM    3  S1  UNL     1      14.003  26.529   0.986  1.00  0.00    -0.040 SA
HETATM    4  N3  UNL     1      15.793  24.784  -0.374  1.00  0.00    -0.309 N 
HETATM    5  C18 UNL     1      16.540  23.935   0.444  1.00  0.00     0.116 A 
HETATM    6  C19 UNL     1      17.440  23.014   0.230  1.00  0.00    -0.035 C 
HETATM    7  C20 UNL     1      18.045  22.252   1.390  1.00  0.00     0.038 C 
HETATM    8  C21 UNL     1      18.845  21.070   0.825  1.00  0.00     0.004 C 
HETATM    9  C22 UNL     1      19.950  21.505  -0.080  1.00  0.00     0.001 C 
HETATM   10  C23 UNL     1      19.518  22.626  -0.988  1.00  0.00     0.004 C 
HETATM   11  C24 UNL     1      17.982  22.584  -1.058  1.00  0.00     0.038 C 
ENDROOT
BRANCH   1  12
HETATM   12  C10 UNL     1      16.008  24.191   3.018  1.00  0.00     0.133 C 
BRANCH  12  13
HETATM   13  C9  UNL     1      16.562  25.215   3.899  1.00  0.00     0.020 C 
BRANCH  13  14
HETATM   14  C8  UNL     1      15.794  26.430   4.254  1.00  0.00     0.004 C 
BRANCH  14  15
HETATM   15  C7  UNL     1      16.232  27.102   5.499  1.00  0.00     0.036 C 
BRANCH  15  16
HETATM   16  C6  UNL     1      16.202  28.594   5.401  1.00  0.00     0.222 C 
HETATM   17  N1  UNL     1      15.989  29.172   4.135  1.00  0.00     0.088 N 
HETATM   18  C1  UNL     1      14.590  29.303   3.740  1.00  0.00     0.310 C 
HETATM   19  C2  UNL     1      16.657  30.452   4.032  1.00  0.00     0.272 C 
HETATM   20  C3  UNL     1      18.144  30.198   3.882  1.00  0.00     0.030 C 
HETATM   21  C4  UNL     1      18.604  29.219   4.959  1.00  0.00     0.004 C 
HETATM   22  C5  UNL     1      17.494  29.177   6.007  1.00  0.00     0.036 C 
ENDBRANCH  15  16
ENDBRANCH  14  15
ENDBRANCH  13  14
ENDBRANCH  12  13
ENDBRANCH   1  12
BRANCH   4  23
HETATM   23  C12 UNL     1      15.553  25.160  -1.748  1.00  0.00     0.137 C 
BRANCH  23  24
HETATM   24  C13 UNL     1      16.472  26.291  -2.175  1.00  0.00     0.007 C 
HETATM   25  C14 UNL     1      15.788  27.215  -3.142  1.00  0.00     0.025 C 
HETATM   26  C15 UNL     1      15.986  26.820  -4.570  1.00  0.00     0.114 C 
HETATM   27  N4  UNL     1      16.362  25.465  -4.792  1.00  0.00    -0.421 N 
HETATM   28  C16 UNL     1      17.508  25.025  -4.059  1.00  0.00     0.114 C 
ATOM     29  H4  UNL     1      15.851  24.853  -5.428  1.00  0.00     0.153 HD
HETATM   30  C17 UNL     1      17.739  25.791  -2.794  1.00  0.00     0.025 C 
ENDBRANCH  23  24
ENDBRANCH   4  23
TORSDOF 7
ENDMDL
MODEL 4
REMARK VINA RESULT: -7.888705588      1.943      2.323
REMARK  7 active torsions:
REMARK  status: ('A' for Active; 'I' for Inactive)
REMARK    1  A    between atoms: C6_7  and  C7_8 
REMARK    2  A    between atoms: C7_8  and  C8_9 
REMARK    3  A    between atoms: C8_9  and  C9_10 
REMARK    4  A    between atoms: C9_10  and  C10_11 
REMARK    5  A    between atoms: C10_11  and  N2_12 
REMARK    6  A    between atoms: N3_15  and  C12_16 
REMARK    7  A    between atoms: C12_16  and  C13_17 
ROOT
HETATM    1  N2  UNL     1      15.559  24.907   0.310  1.00  0.00    -0.309 N 
HETATM    2  C11 UNL     1      14.934  25.448  -0.831  1.00  0.00     0.183 A 
HETATM    3  S1  UNL     1      13.816  26.622  -1.151  1.00  0.00    -0.040 SA
HETATM    4  N3  UNL     1      15.704  24.558  -1.672  1.00  0.00    -0.309 N 
HETATM    5  C18 UNL     1      16.328  24.017  -0.547  1.00  0.00     0.116 A 
HETATM    6  C19 UNL     1      17.221  23.087  -0.352  1.00  0.00    -0.035 C 
HETATM    7  C20 UNL     1      17.668  22.735   1.051  1.00  0.00     0.038 C 
HETATM    8  C21 UNL     1      18.495  21.444   0.985  1.00  0.00     0.004 C 
HETATM    9  C22 UNL     1      19.710  21.585   0.127  1.00  0.00     0.001 C 
HETATM   10  C23 UNL     1      19.416  22.358  -1.131  1.00  0.00     0.004 C 
HETATM   11  C24 UNL     1      17.899  22.279  -1.366  1.00  0.00     0.038 C 
ENDROOT
BRANCH   1  12
HETATM   12  C10 UNL     1      15.507  25.065   1.734  1.00  0.00     0.133 C 
BRANCH  12  13
HETATM   13  C9  UNL     1      14.352  25.745   2.314  1.00  0.00     0.020 C 
BRANCH  13  14
HETATM   14  C8  UNL     1      14.502  26.981   3.114  1.00  0.00     0.004 C 
BRANCH  14  15
HETATM   15  C7  UNL     1      15.592  26.945   4.118  1.00  0.00     0.036 C 
BRANCH  15  16
HETATM   16  C6  UNL     1      15.818  28.263   4.784  1.00  0.00     0.222 C 
HETATM   17  N1  UNL     1      16.193  29.357   3.981  1.00  0.00     0.088 N 
HETATM   18  C1  UNL     1      15.088  30.075   3.353  1.00  0.00     0.310 C 
HETATM   19  C2  UNL     1      17.027  30.280   4.721  1.00  0.00     0.272 C 
HETATM   20  C3  UNL     1      18.405  29.662   4.864  1.00  0.00     0.030 C 
HETATM   21  C4  UNL     1      18.268  28.230   5.375  1.00  0.00     0.004 C 
HETATM   22  C5  UNL     1      16.847  28.098   5.919  1.00  0.00     0.036 C 
ENDBRANCH  15  16
ENDBRANCH  14  15
ENDBRANCH  13  14
ENDBRANCH  12  13
ENDBRANCH   1  12
BRANCH   4  23
HETATM   23  C12 UNL     1      15.636  24.479  -3.114  1.00  0.00     0.137 C 
BRANCH  23  24
HETATM   24  C13 UNL     1      16.883  25.064  -3.753  1.00  0.00     0.007 C 
HETATM   25  C14 UNL     1      17.372  26.265  -2.997  1.00  0.00     0.025 C 
HETATM   26  C15 UNL     1      16.792  27.549  -3.494  1.00  0.00     0.114 C 
HETATM   27  N4  UNL     1      15.585  27.435  -4.241  1.00  0.00    -0.421 N 
HETATM   28  C16 UNL     1      15.639  26.528  -5.345  1.00  0.00     0.114 C 
ATOM     29  H4  UNL     1      14.744  27.962  -4.006  1.00  0.00     0.153 HD
HETATM   30  C17 UNL     1      16.661  25.448  -5.183  1.00  0.00     0.025 C 
ENDBRANCH  23  24
ENDBRANCH   4  23
TORSDOF 7
ENDMDL
MODEL 5
REMARK VINA RESULT: -7.872716363      1.421      1.767
REMARK  7 active torsions:
REMARK  status: ('A' for Active; 'I' for Inactive)
REMARK    1  A    between atoms: C6_7  and  C7_8 
REMARK    2  A    between atoms: C7_8  and  C8_9 
REMARK    3  A    between atoms: C8_9  and  C9_10 
REMARK    4  A    between atoms: C9_10  and  C10_11 
REMARK    5  A    between atoms: C10_11  and  N2_12 
REMARK    6  A    between atoms: N3_15  and  C12_16 
REMARK    7  A    between atoms: C12_16  and  C13_17 
ROOT
HETATM    1  N2  UNL     1      15.542  24.922   0.483  1.00  0.00    -0.309 N 
HETATM    2  C11 UNL     1      15.119  25.511  -0.725  1.00  0.00     0.183 A 
HETATM    3  S1  UNL     1      14.162  26.780  -1.179  1.00  0.00    -0.040 SA
HETATM    4  N3  UNL     1      15.907  24.551  -1.466  1.00  0.00    -0.309 N 
HETATM    5  C18 UNL     1      16.331  23.962  -0.273  1.00  0.00     0.116 A 
HETATM    6  C19 UNL     1      17.105  22.956   0.029  1.00  0.00    -0.035 C 
HETATM    7  C20 UNL     1      17.334  22.574   1.476  1.00  0.00     0.038 C 
HETATM    8  C21 UNL     1      18.044  21.213   1.508  1.00  0.00     0.004 C 
HETATM    9  C22 UNL     1      19.366  21.239   0.814  1.00  0.00     0.001 C 
HETATM   10  C23 UNL     1      19.306  22.028  -0.467  1.00  0.00     0.004 C 
HETATM   11  C24 UNL     1      17.830  22.085  -0.895  1.00  0.00     0.038 C 
ENDROOT
BRANCH   1  12
HETATM   12  C10 UNL     1      15.323  25.092   1.890  1.00  0.00     0.133 C 
BRANCH  12  13
HETATM   13  C9  UNL     1      14.250  25.985   2.321  1.00  0.00     0.020 C 
BRANCH  13  14
HETATM   14  C8  UNL     1      14.533  27.237   3.060  1.00  0.00     0.004 C 
BRANCH  14  15
HETATM   15  C7  UNL     1      15.512  27.099   4.164  1.00  0.00     0.036 C 
BRANCH  15  16
HETATM   16  C6  UNL     1      15.856  28.404   4.807  1.00  0.00     0.222 C 
HETATM   17  N1  UNL     1      16.314  29.450   3.983  1.00  0.00     0.088 N 
HETATM   18  C1  UNL     1      15.268  30.248   3.353  1.00  0.00     0.310 C 
HETATM   19  C2  UNL     1      17.230  30.310   4.701  1.00  0.00     0.272 C 
HETATM   20  C3  UNL     1      18.552  29.579   4.843  1.00  0.00     0.030 C 
HETATM   21  C4  UNL     1      18.300  28.172   5.378  1.00  0.00     0.004 C 
HETATM   22  C5  UNL     1      16.878  28.170   5.936  1.00  0.00     0.036 C 
ENDBRANCH  15  16
ENDBRANCH  14  15
ENDBRANCH  13  14
ENDBRANCH  12  13
ENDBRANCH   1  12
BRANCH   4  23
HETATM   23  C12 UNL     1      16.018  24.470  -2.905  1.00  0.00     0.137 C 
BRANCH  23  24
HETATM   24  C13 UNL     1      16.836  25.624  -3.456  1.00  0.00     0.007 C 
HETATM   25  C14 UNL     1      17.158  25.419  -4.909  1.00  0.00     0.025 C 
HETATM   26  C15 UNL     1      18.448  24.698  -5.128  1.00  0.00     0.114 C 
HETATM   27  N4  UNL     1      18.928  23.938  -4.024  1.00  0.00    -0.421 N 
HETATM   28  C16 UNL     1      19.039  24.658  -2.794  1.00  0.00     0.114 C 
ATOM     29  H4  UNL     1      19.176  22.952  -4.105  1.00  0.00     0.153 HD
HETATM   30  C17 UNL     1      18.111  25.828  -2.700  1.00  0.00     0.025 C 
ENDBRANCH  23  24
ENDBRANCH   4  23
TORSDOF 7
ENDMDL
