MODEL 1
REMARK VINA RESULT: -3.252129355      0.000      0.000
REMARK  0 active torsions:
REMARK  status: ('A' for Active; 'I' for Inactive)
ROOT
HETATM    1  C1  UNL     1     -16.978 -35.321 -28.660  1.00  0.00     0.012 C 
HETATM    2  C2  UNL     1     -18.112 -36.289 -28.647  1.00  0.00     0.012 C 
HETATM    3  C3  UNL     1     -17.565 -37.688 -28.407  1.00  0.00     0.087 C 
HETATM    4  S1  UNL     1     -16.840 -37.885 -26.784  1.00  0.00    -0.086 SA
HETATM    5  S2  UNL     1     -15.403 -36.475 -26.272  1.00  0.00    -0.025 SA
HETATM    6  S3  UNL     1     -16.162 -34.489 -26.178  1.00  0.00    -0.086 SA
HETATM    7  C4  UNL     1     -17.173 -34.193 -27.660  1.00  0.00     0.087 C 
ENDROOT
TORSDOF 0
ENDMDL
MODEL 2
REMARK VINA RESULT: -3.231546902      1.401      2.732
REMARK  0 active torsions:
REMARK  status: ('A' for Active; 'I' for Inactive)
ROOT
HETATM    1  C1  UNL     1     -17.406 -35.461 -28.126  1.00  0.00     0.012 C 
HETATM    2  C2  UNL     1     -17.034 -34.299 -27.269  1.00  0.00     0.012 C 
HETATM    3  C3  UNL     1     -17.460 -34.585 -25.837  1.00  0.00     0.087 C 
HETATM    4  S1  UNL     1     -16.561 -35.943 -25.099  1.00  0.00    -0.086 SA
HETATM    5  S2  UNL     1     -16.556 -37.709 -26.193  1.00  0.00    -0.025 SA
HETATM    6  S3  UNL     1     -15.606 -37.528 -28.088  1.00  0.00    -0.086 SA
HETATM    7  C4  UNL     1     -16.216 -36.016 -28.892  1.00  0.00     0.087 C 
ENDROOT
TORSDOF 0
ENDMDL
MODEL 3
REMARK VINA RESULT: -3.209353992      2.220      2.862
REMARK  0 active torsions:
REMARK  status: ('A' for Active; 'I' for Inactive)
ROOT
HETATM    1  C1  UNL     1     -17.481 -34.650 -26.126  1.00  0.00     0.012 C 
HETATM    2  C2  UNL     1     -16.240 -34.879 -25.332  1.00  0.00     0.012 C 
HETATM    3  C3  UNL     1     -16.244 -36.308 -24.811  1.00  0.00     0.087 C 
HETATM    4  S1  UNL     1     -16.127 -37.527 -26.114  1.00  0.00    -0.086 SA
HETATM    5  S2  UNL     1     -17.522 -37.336 -27.642  1.00  0.00    -0.025 SA
HETATM    6  S3  UNL     1     -17.346 -35.513 -28.725  1.00  0.00    -0.086 SA
HETATM    7  C4  UNL     1     -17.182 -34.152 -27.531  1.00  0.00     0.087 C 
ENDROOT
TORSDOF 0
ENDMDL
MODEL 4
REMARK VINA RESULT: -3.185144491      0.686      2.872
REMARK  0 active torsions:
REMARK  status: ('A' for Active; 'I' for Inactive)
ROOT
HETATM    1  C1  UNL     1     -18.126 -36.559 -28.088  1.00  0.00     0.012 C 
HETATM    2  C2  UNL     1     -17.415 -35.382 -28.664  1.00  0.00     0.012 C 
HETATM    3  C3  UNL     1     -17.108 -34.395 -27.547  1.00  0.00     0.087 C 
HETATM    4  S1  UNL     1     -15.942 -35.034 -26.352  1.00  0.00    -0.086 SA
HETATM    5  S2  UNL     1     -16.421 -36.885 -25.539  1.00  0.00    -0.025 SA
HETATM    6  S3  UNL     1     -16.482 -38.451 -26.977  1.00  0.00    -0.086 SA
HETATM    7  C4  UNL     1     -17.429 -37.869 -28.416  1.00  0.00     0.087 C 
ENDROOT
TORSDOF 0
ENDMDL
MODEL 5
REMARK VINA RESULT: -3.143418407      1.590      2.778
REMARK  0 active torsions:
REMARK  status: ('A' for Active; 'I' for Inactive)
ROOT
HETATM    1  C1  UNL     1     -17.538 -37.546 -27.037  1.00  0.00     0.012 C 
HETATM    2  C2  UNL     1     -17.045 -37.192 -28.399  1.00  0.00     0.012 C 
HETATM    3  C3  UNL     1     -17.697 -35.889 -28.837  1.00  0.00     0.087 C 
HETATM    4  S1  UNL     1     -17.198 -34.489 -27.843  1.00  0.00    -0.086 SA
HETATM    5  S2  UNL     1     -17.422 -34.726 -25.791  1.00  0.00    -0.025 SA
HETATM    6  S3  UNL     1     -16.224 -36.289 -24.985  1.00  0.00    -0.086 SA
HETATM    7  C4  UNL     1     -16.402 -37.753 -26.049  1.00  0.00     0.087 C 
ENDROOT
TORSDOF 0
ENDMDL
