MODEL 1
REMARK VINA RESULT: -4.451578420      0.000      0.000
REMARK  1 active torsions:
REMARK  status: ('A' for Active; 'I' for Inactive)
REMARK    1  A    between atoms: N1_8  and  O1_10 
ROOT
HETATM    1  C1  UNL     1     -17.348 -39.556 -28.160  1.00  0.00     0.028 C 
HETATM    2  C2  UNL     1     -17.406 -38.487 -27.134  1.00  0.00     0.092 C 
HETATM    3  S1  UNL     1     -15.781 -38.213 -26.326  1.00  0.00    -0.138 SA
HETATM    4  C3  UNL     1     -15.946 -36.395 -26.120  1.00  0.00     0.149 C 
HETATM    5 CL1  UNL     1     -16.067 -36.102 -24.359  1.00  0.00    -0.113 Cl
HETATM    6  C4  UNL     1     -17.290 -36.088 -26.742  1.00  0.00     0.086 C 
HETATM    7  C5  UNL     1     -17.588 -37.129 -27.720  1.00  0.00     0.025 C 
HETATM    8  N1  UNL     1     -17.964 -36.938 -28.943  1.00  0.00    -0.276 N 
ATOM      9  H1  UNL     1     -18.146 -37.745 -29.539  1.00  0.00     0.193 HD
ENDROOT
BRANCH   8  10
HETATM   10  O1  UNL     1     -18.123 -35.669 -29.460  1.00  0.00    -0.290 OA
ATOM     11  H1  UNL     1     -18.264 -34.918 -28.896  1.00  0.00     0.244 HD
ENDBRANCH   8  10
TORSDOF 1
ENDMDL
MODEL 2
REMARK VINA RESULT: -4.428262628      2.795      3.638
REMARK  1 active torsions:
REMARK  status: ('A' for Active; 'I' for Inactive)
REMARK    1  A    between atoms: N1_8  and  O1_10 
ROOT
HETATM    1  C1  UNL     1     -15.290 -34.683 -25.453  1.00  0.00     0.028 C 
HETATM    2  C2  UNL     1     -15.751 -35.426 -26.651  1.00  0.00     0.092 C 
HETATM    3  S1  UNL     1     -16.802 -36.865 -26.212  1.00  0.00    -0.138 SA
HETATM    4  C3  UNL     1     -17.937 -36.752 -27.653  1.00  0.00     0.149 C 
HETATM    5 CL1  UNL     1     -17.616 -38.199 -28.655  1.00  0.00    -0.113 Cl
HETATM    6  C4  UNL     1     -17.436 -35.538 -28.404  1.00  0.00     0.086 C 
HETATM    7  C5  UNL     1     -16.749 -34.667 -27.456  1.00  0.00     0.025 C 
HETATM    8  N1  UNL     1     -16.952 -33.398 -27.306  1.00  0.00    -0.276 N 
ATOM      9  H1  UNL     1     -16.410 -32.887 -26.609  1.00  0.00     0.193 HD
ENDROOT
BRANCH   8  10
HETATM   10  O1  UNL     1     -17.883 -32.721 -28.064  1.00  0.00    -0.290 OA
ATOM     11  H1  UNL     1     -18.065 -31.799 -27.922  1.00  0.00     0.244 HD
ENDBRANCH   8  10
TORSDOF 1
ENDMDL
MODEL 3
REMARK VINA RESULT: -4.416060508      2.339      2.550
REMARK  1 active torsions:
REMARK  status: ('A' for Active; 'I' for Inactive)
REMARK    1  A    between atoms: N1_8  and  O1_10 
ROOT
HETATM    1  C1  UNL     1     -18.186 -36.383 -28.759  1.00  0.00     0.028 C 
HETATM    2  C2  UNL     1     -17.664 -35.957 -27.439  1.00  0.00     0.092 C 
HETATM    3  S1  UNL     1     -16.055 -36.744 -27.041  1.00  0.00    -0.138 SA
HETATM    4  C3  UNL     1     -15.325 -35.311 -26.153  1.00  0.00     0.149 C 
HETATM    5 CL1  UNL     1     -15.179 -35.807 -24.440  1.00  0.00    -0.113 Cl
HETATM    6  C4  UNL     1     -16.400 -34.251 -26.247  1.00  0.00     0.086 C 
HETATM    7  C5  UNL     1     -17.218 -34.535 -27.422  1.00  0.00     0.025 C 
HETATM    8  N1  UNL     1     -17.537 -33.690 -28.348  1.00  0.00    -0.276 N 
ATOM      9  H1  UNL     1     -18.118 -34.000 -29.127  1.00  0.00     0.193 HD
ENDROOT
BRANCH   8  10
HETATM   10  O1  UNL     1     -17.109 -32.379 -28.308  1.00  0.00    -0.290 OA
ATOM     11  H1  UNL     1     -17.412 -31.778 -27.637  1.00  0.00     0.244 HD
ENDBRANCH   8  10
TORSDOF 1
ENDMDL
MODEL 4
REMARK VINA RESULT: -4.357403915      2.482      3.215
REMARK  1 active torsions:
REMARK  status: ('A' for Active; 'I' for Inactive)
REMARK    1  A    between atoms: N1_8  and  O1_10 
ROOT
HETATM    1  C1  UNL     1     -16.883 -35.414 -25.399  1.00  0.00     0.028 C 
HETATM    2  C2  UNL     1     -16.059 -35.927 -26.520  1.00  0.00     0.092 C 
HETATM    3  S1  UNL     1     -16.294 -37.728 -26.787  1.00  0.00    -0.138 SA
HETATM    4  C3  UNL     1     -16.138 -37.698 -28.617  1.00  0.00     0.149 C 
HETATM    5 CL1  UNL     1     -14.621 -38.565 -29.002  1.00  0.00    -0.113 Cl
HETATM    6  C4  UNL     1     -15.936 -36.232 -28.931  1.00  0.00     0.086 C 
HETATM    7  C5  UNL     1     -16.526 -35.449 -27.851  1.00  0.00     0.025 C 
HETATM    8  N1  UNL     1     -17.350 -34.461 -27.991  1.00  0.00    -0.276 N 
ATOM      9  H1  UNL     1     -17.699 -33.983 -27.161  1.00  0.00     0.193 HD
ENDROOT
BRANCH   8  10
HETATM   10  O1  UNL     1     -17.767 -34.040 -29.237  1.00  0.00    -0.290 OA
ATOM     11  H1  UNL     1     -18.300 -33.261 -29.345  1.00  0.00     0.244 HD
ENDBRANCH   8  10
TORSDOF 1
ENDMDL
MODEL 5
REMARK VINA RESULT: -4.352777313      2.002      2.016
REMARK  1 active torsions:
REMARK  status: ('A' for Active; 'I' for Inactive)
REMARK    1  A    between atoms: N1_8  and  O1_10 
ROOT
HETATM    1  C1  UNL     1     -17.156 -39.545 -27.194  1.00  0.00     0.028 C 
HETATM    2  C2  UNL     1     -17.340 -38.082 -27.345  1.00  0.00     0.092 C 
HETATM    3  S1  UNL     1     -16.571 -37.140 -25.971  1.00  0.00    -0.138 SA
HETATM    4  C3  UNL     1     -16.031 -35.697 -26.972  1.00  0.00     0.149 C 
HETATM    5 CL1  UNL     1     -17.018 -34.311 -26.419  1.00  0.00    -0.113 Cl
HETATM    6  C4  UNL     1     -16.468 -36.056 -28.375  1.00  0.00     0.086 C 
HETATM    7  C5  UNL     1     -16.547 -37.510 -28.469  1.00  0.00     0.025 C 
HETATM    8  N1  UNL     1     -16.012 -38.242 -29.393  1.00  0.00    -0.276 N 
ATOM      9  H1  UNL     1     -16.134 -39.254 -29.359  1.00  0.00     0.193 HD
ENDROOT
BRANCH   8  10
HETATM   10  O1  UNL     1     -15.281 -37.686 -30.422  1.00  0.00    -0.290 OA
ATOM     11  H1  UNL     1     -14.429 -38.026 -30.667  1.00  0.00     0.244 HD
ENDBRANCH   8  10
TORSDOF 1
ENDMDL
