MODEL 1
REMARK VINA RESULT: -4.855313134      0.000      0.000
REMARK  3 active torsions:
REMARK  status: ('A' for Active; 'I' for Inactive)
REMARK    1  A    between atoms: N1_8  and  C6_9 
REMARK    2  A    between atoms: C6_9  and  C7_10 
REMARK    3  A    between atoms: C7_10  and  C8_11 
ROOT
HETATM    1  C1  UNL     1     -17.526 -40.297 -25.758  1.00  0.00     0.074 C 
HETATM    2  C2  UNL     1     -17.015 -40.033 -27.088  1.00  0.00     0.169 C 
HETATM    3  C3  UNL     1     -17.702 -40.732 -28.242  1.00  0.00     0.068 C 
HETATM    4  C4  UNL     1     -17.342 -39.861 -29.447  1.00  0.00     0.062 C 
HETATM    5  C5  UNL     1     -16.359 -38.881 -28.814  1.00  0.00     0.264 C 
HETATM    6  O1  UNL     1     -15.286 -39.645 -28.375  1.00  0.00    -0.212 OA
HETATM    7  O2  UNL     1     -15.643 -40.280 -27.285  1.00  0.00    -0.206 OA
HETATM    8  N1  UNL     1     -17.051 -38.669 -27.557  1.00  0.00    -0.320 N 
ENDROOT
BRANCH   8   9
HETATM    9  C6  UNL     1     -17.530 -37.470 -27.105  1.00  0.00     0.149 C 
BRANCH   9  10
HETATM   10  C7  UNL     1     -17.543 -36.468 -27.935  1.00  0.00    -0.082 C 
BRANCH  10  11
HETATM   11  C8  UNL     1     -17.471 -35.404 -28.696  1.00  0.00     0.245 C 
HETATM   12  F1  UNL     1     -16.312 -35.212 -29.318  1.00  0.00    -0.211 F 
ENDBRANCH  10  11
ENDBRANCH   9  10
ENDBRANCH   8   9
TORSDOF 3
ENDMDL
MODEL 2
REMARK VINA RESULT: -4.829060391      3.085      4.387
REMARK  3 active torsions:
REMARK  status: ('A' for Active; 'I' for Inactive)
REMARK    1  A    between atoms: N1_8  and  C6_9 
REMARK    2  A    between atoms: C6_9  and  C7_10 
REMARK    3  A    between atoms: C7_10  and  C8_11 
ROOT
HETATM    1  C1  UNL     1     -17.116 -33.703 -28.602  1.00  0.00     0.074 C 
HETATM    2  C2  UNL     1     -17.221 -35.147 -28.547  1.00  0.00     0.169 C 
HETATM    3  C3  UNL     1     -16.046 -35.944 -29.070  1.00  0.00     0.068 C 
HETATM    4  C4  UNL     1     -16.208 -37.303 -28.387  1.00  0.00     0.062 C 
HETATM    5  C5  UNL     1     -17.558 -37.122 -27.698  1.00  0.00     0.264 C 
HETATM    6  O1  UNL     1     -18.482 -36.929 -28.716  1.00  0.00    -0.212 OA
HETATM    7  O2  UNL     1     -18.346 -35.710 -29.180  1.00  0.00    -0.206 OA
HETATM    8  N1  UNL     1     -17.385 -35.755 -27.249  1.00  0.00    -0.320 N 
ENDROOT
BRANCH   8   9
HETATM    9  C6  UNL     1     -17.400 -35.337 -25.946  1.00  0.00     0.149 C 
BRANCH   9  10
HETATM   10  C7  UNL     1     -16.257 -35.099 -25.371  1.00  0.00    -0.082 C 
BRANCH  10  11
HETATM   11  C8  UNL     1     -15.055 -34.861 -24.907  1.00  0.00     0.245 C 
HETATM   12  F1  UNL     1     -14.110 -34.652 -25.819  1.00  0.00    -0.211 F 
ENDBRANCH  10  11
ENDBRANCH   9  10
ENDBRANCH   8   9
TORSDOF 3
ENDMDL
MODEL 3
REMARK VINA RESULT: -4.712238192      2.896      4.305
REMARK  3 active torsions:
REMARK  status: ('A' for Active; 'I' for Inactive)
REMARK    1  A    between atoms: N1_8  and  C6_9 
REMARK    2  A    between atoms: C6_9  and  C7_10 
REMARK    3  A    between atoms: C7_10  and  C8_11 
ROOT
HETATM    1  C1  UNL     1     -17.544 -34.995 -26.097  1.00  0.00     0.074 C 
HETATM    2  C2  UNL     1     -17.264 -35.938 -27.160  1.00  0.00     0.169 C 
HETATM    3  C3  UNL     1     -16.415 -35.447 -28.312  1.00  0.00     0.068 C 
HETATM    4  C4  UNL     1     -15.860 -36.738 -28.917  1.00  0.00     0.062 C 
HETATM    5  C5  UNL     1     -16.618 -37.787 -28.109  1.00  0.00     0.264 C 
HETATM    6  O1  UNL     1     -17.961 -37.600 -28.405  1.00  0.00    -0.212 OA
HETATM    7  O2  UNL     1     -18.385 -36.534 -27.770  1.00  0.00    -0.206 OA
HETATM    8  N1  UNL     1     -16.551 -37.143 -26.812  1.00  0.00    -0.320 N 
ENDROOT
BRANCH   8   9
HETATM    9  C6  UNL     1     -15.953 -37.661 -25.696  1.00  0.00     0.149 C 
BRANCH   9  10
HETATM   10  C7  UNL     1     -16.402 -38.791 -25.234  1.00  0.00    -0.082 C 
BRANCH  10  11
HETATM   11  C8  UNL     1     -16.912 -39.946 -24.880  1.00  0.00     0.245 C 
HETATM   12  F1  UNL     1     -18.048 -40.288 -25.479  1.00  0.00    -0.211 F 
ENDBRANCH  10  11
ENDBRANCH   9  10
ENDBRANCH   8   9
TORSDOF 3
ENDMDL
MODEL 4
REMARK VINA RESULT: -4.685137417      1.322      1.429
REMARK  3 active torsions:
REMARK  status: ('A' for Active; 'I' for Inactive)
REMARK    1  A    between atoms: N1_8  and  C6_9 
REMARK    2  A    between atoms: C6_9  and  C7_10 
REMARK    3  A    between atoms: C7_10  and  C8_11 
ROOT
HETATM    1  C1  UNL     1     -17.440 -39.068 -26.356  1.00  0.00     0.074 C 
HETATM    2  C2  UNL     1     -16.436 -39.226 -27.389  1.00  0.00     0.169 C 
HETATM    3  C3  UNL     1     -16.917 -39.658 -28.757  1.00  0.00     0.068 C 
HETATM    4  C4  UNL     1     -15.794 -39.198 -29.688  1.00  0.00     0.062 C 
HETATM    5  C5  UNL     1     -14.758 -38.714 -28.677  1.00  0.00     0.264 C 
HETATM    6  O1  UNL     1     -14.402 -39.830 -27.932  1.00  0.00    -0.212 OA
HETATM    7  O2  UNL     1     -15.372 -40.098 -27.091  1.00  0.00    -0.206 OA
HETATM    8  N1  UNL     1     -15.660 -38.063 -27.746  1.00  0.00    -0.320 N 
ENDROOT
BRANCH   8   9
HETATM    9  C6  UNL     1     -15.642 -36.736 -27.419  1.00  0.00     0.149 C 
BRANCH   9  10
HETATM   10  C7  UNL     1     -16.448 -35.940 -28.061  1.00  0.00    -0.082 C 
BRANCH  10  11
HETATM   11  C8  UNL     1     -17.316 -35.242 -28.752  1.00  0.00     0.245 C 
HETATM   12  F1  UNL     1     -18.377 -35.909 -29.194  1.00  0.00    -0.211 F 
ENDBRANCH  10  11
ENDBRANCH   9  10
ENDBRANCH   8   9
TORSDOF 3
ENDMDL
MODEL 5
REMARK VINA RESULT: -4.656675860      1.620      1.763
REMARK  3 active torsions:
REMARK  status: ('A' for Active; 'I' for Inactive)
REMARK    1  A    between atoms: N1_8  and  C6_9 
REMARK    2  A    between atoms: C6_9  and  C7_10 
REMARK    3  A    between atoms: C7_10  and  C8_11 
ROOT
HETATM    1  C1  UNL     1     -17.573 -40.058 -25.712  1.00  0.00     0.074 C 
HETATM    2  C2  UNL     1     -17.056 -39.944 -27.061  1.00  0.00     0.169 C 
HETATM    3  C3  UNL     1     -17.707 -40.801 -28.124  1.00  0.00     0.068 C 
HETATM    4  C4  UNL     1     -17.359 -40.075 -29.425  1.00  0.00     0.062 C 
HETATM    5  C5  UNL     1     -16.415 -38.993 -28.910  1.00  0.00     0.264 C 
HETATM    6  O1  UNL     1     -15.324 -39.663 -28.372  1.00  0.00    -0.212 OA
HETATM    7  O2  UNL     1     -15.674 -40.170 -27.214  1.00  0.00    -0.206 OA
HETATM    8  N1  UNL     1     -17.128 -38.650 -27.695  1.00  0.00    -0.320 N 
ENDROOT
BRANCH   8   9
HETATM    9  C6  UNL     1     -17.648 -37.421 -27.397  1.00  0.00     0.149 C 
BRANCH   9  10
HETATM   10  C7  UNL     1     -16.972 -36.652 -26.594  1.00  0.00    -0.082 C 
BRANCH  10  11
HETATM   11  C8  UNL     1     -16.334 -35.949 -25.690  1.00  0.00     0.245 C 
HETATM   12  F1  UNL     1     -16.894 -35.908 -24.485  1.00  0.00    -0.211 F 
ENDBRANCH  10  11
ENDBRANCH   9  10
ENDBRANCH   8   9
TORSDOF 3
ENDMDL
