MODEL 1
REMARK VINA RESULT: -4.299851792      0.000      0.000
REMARK  1 active torsions:
REMARK  status: ('A' for Active; 'I' for Inactive)
REMARK    1  A    between atoms: N2_6  and  C4_7 
ROOT
HETATM    1  C1  UNL     1     -15.462 -34.513 -25.568  1.00  0.00     0.039 C 
HETATM    2  C2  UNL     1     -15.375 -35.670 -26.580  1.00  0.00     0.136 C 
HETATM    3  S1  UNL     1     -14.732 -37.076 -25.581  1.00  0.00    -0.131 SA
HETATM    4  C3  UNL     1     -16.436 -37.725 -25.296  1.00  0.00     0.204 C 
HETATM    5  N1  UNL     1     -16.984 -37.332 -26.554  1.00  0.00    -0.152 NA
HETATM    6  N2  UNL     1     -16.705 -36.056 -26.870  1.00  0.00    -0.197 NA
ENDROOT
BRANCH   6   7
HETATM    7  C4  UNL     1     -17.085 -35.832 -28.256  1.00  0.00     0.099 C 
HETATM    8  C5  UNL     1     -18.297 -36.627 -28.633  1.00  0.00     0.051 C 
HETATM    9  C6  UNL     1     -17.292 -34.387 -28.576  1.00  0.00     0.051 C 
HETATM   10 CL1  UNL     1     -15.724 -36.435 -29.253  1.00  0.00    -0.101 Cl
ENDBRANCH   6   7
TORSDOF 1
ENDMDL
MODEL 2
REMARK VINA RESULT: -4.230328989      1.064      1.439
REMARK  1 active torsions:
REMARK  status: ('A' for Active; 'I' for Inactive)
REMARK    1  A    between atoms: N2_6  and  C4_7 
ROOT
HETATM    1  C1  UNL     1     -15.406 -34.515 -25.490  1.00  0.00     0.039 C 
HETATM    2  C2  UNL     1     -15.323 -35.677 -26.496  1.00  0.00     0.136 C 
HETATM    3  S1  UNL     1     -14.684 -37.081 -25.489  1.00  0.00    -0.131 SA
HETATM    4  C3  UNL     1     -16.390 -37.722 -25.202  1.00  0.00     0.204 C 
HETATM    5  N1  UNL     1     -16.936 -37.334 -26.463  1.00  0.00    -0.152 NA
HETATM    6  N2  UNL     1     -16.653 -36.061 -26.785  1.00  0.00    -0.197 NA
ENDROOT
BRANCH   6   7
HETATM    7  C4  UNL     1     -17.031 -35.843 -28.173  1.00  0.00     0.099 C 
HETATM    8  C5  UNL     1     -15.924 -36.207 -29.112  1.00  0.00     0.051 C 
HETATM    9  C6  UNL     1     -18.288 -36.557 -28.551  1.00  0.00     0.051 C 
HETATM   10 CL1  UNL     1     -17.316 -34.083 -28.345  1.00  0.00    -0.101 Cl
ENDBRANCH   6   7
TORSDOF 1
ENDMDL
MODEL 3
REMARK VINA RESULT: -4.220524830      2.229      3.291
REMARK  1 active torsions:
REMARK  status: ('A' for Active; 'I' for Inactive)
REMARK    1  A    between atoms: N2_6  and  C4_7 
ROOT
HETATM    1  C1  UNL     1     -17.112 -35.417 -28.911  1.00  0.00     0.039 C 
HETATM    2  C2  UNL     1     -17.218 -36.188 -27.583  1.00  0.00     0.136 C 
HETATM    3  S1  UNL     1     -17.132 -37.954 -28.096  1.00  0.00    -0.131 SA
HETATM    4  C3  UNL     1     -15.320 -38.023 -27.754  1.00  0.00     0.204 C 
HETATM    5  N1  UNL     1     -15.318 -37.119 -26.648  1.00  0.00    -0.152 NA
HETATM    6  N2  UNL     1     -15.998 -35.987 -26.898  1.00  0.00    -0.197 NA
ENDROOT
BRANCH   6   7
HETATM    7  C4  UNL     1     -16.147 -35.257 -25.648  1.00  0.00     0.099 C 
HETATM    8  C5  UNL     1     -16.007 -36.157 -24.460  1.00  0.00     0.051 C 
HETATM    9  C6  UNL     1     -15.208 -34.100 -25.536  1.00  0.00     0.051 C 
HETATM   10 CL1  UNL     1     -17.821 -34.619 -25.637  1.00  0.00    -0.101 Cl
ENDBRANCH   6   7
TORSDOF 1
ENDMDL
MODEL 4
REMARK VINA RESULT: -4.204096069      1.926      2.532
REMARK  1 active torsions:
REMARK  status: ('A' for Active; 'I' for Inactive)
REMARK    1  A    between atoms: N2_6  and  C4_7 
ROOT
HETATM    1  C1  UNL     1     -15.163 -37.651 -29.323  1.00  0.00     0.039 C 
HETATM    2  C2  UNL     1     -16.042 -37.560 -28.064  1.00  0.00     0.136 C 
HETATM    3  S1  UNL     1     -15.142 -38.585 -26.827  1.00  0.00    -0.131 SA
HETATM    4  C3  UNL     1     -14.319 -37.097 -26.111  1.00  0.00     0.204 C 
HETATM    5  N1  UNL     1     -15.399 -36.185 -26.318  1.00  0.00    -0.152 NA
HETATM    6  N2  UNL     1     -15.900 -36.245 -27.563  1.00  0.00    -0.197 NA
ENDROOT
BRANCH   6   7
HETATM    7  C4  UNL     1     -17.134 -35.474 -27.598  1.00  0.00     0.099 C 
HETATM    8  C5  UNL     1     -17.431 -34.844 -26.272  1.00  0.00     0.051 C 
HETATM    9  C6  UNL     1     -17.143 -34.441 -28.677  1.00  0.00     0.051 C 
HETATM   10 CL1  UNL     1     -18.447 -36.645 -27.935  1.00  0.00    -0.101 Cl
ENDBRANCH   6   7
TORSDOF 1
ENDMDL
MODEL 5
REMARK VINA RESULT: -4.187364286      2.071      2.739
REMARK  1 active torsions:
REMARK  status: ('A' for Active; 'I' for Inactive)
REMARK    1  A    between atoms: N2_6  and  C4_7 
ROOT
HETATM    1  C1  UNL     1     -15.030 -37.817 -29.422  1.00  0.00     0.039 C 
HETATM    2  C2  UNL     1     -15.972 -37.790 -28.206  1.00  0.00     0.136 C 
HETATM    3  S1  UNL     1     -15.081 -38.788 -26.941  1.00  0.00    -0.131 SA
HETATM    4  C3  UNL     1     -14.370 -37.271 -26.166  1.00  0.00     0.204 C 
HETATM    5  N1  UNL     1     -15.484 -36.412 -26.414  1.00  0.00    -0.152 NA
HETATM    6  N2  UNL     1     -15.922 -36.477 -27.682  1.00  0.00    -0.197 NA
ENDROOT
BRANCH   6   7
HETATM    7  C4  UNL     1     -17.190 -35.769 -27.767  1.00  0.00     0.099 C 
HETATM    8  C5  UNL     1     -17.110 -34.598 -28.697  1.00  0.00     0.051 C 
HETATM    9  C6  UNL     1     -18.327 -36.659 -28.150  1.00  0.00     0.051 C 
HETATM   10 CL1  UNL     1     -17.514 -35.123 -26.127  1.00  0.00    -0.101 Cl
ENDBRANCH   6   7
TORSDOF 1
ENDMDL
