MODEL 1
REMARK VINA RESULT: -7.854056798      0.000      0.000
REMARK  12 active torsions:
REMARK  status: ('A' for Active; 'I' for Inactive)
REMARK    1  A    between atoms: N3_4  and  C2_6 
REMARK    2  A    between atoms: C2_6  and  C3_7 
REMARK    3  A    between atoms: C3_7  and  C4_8 
REMARK    4  A    between atoms: C4_8  and  C5_9 
REMARK    5  A    between atoms: C5_9  and  N4_10 
REMARK       I    between atoms: C6_12  and  N6_14 
REMARK    6  A    between atoms: N6_14  and  C7_16 
REMARK    7  A    between atoms: C7_16  and  C8_17 
REMARK    8  A    between atoms: C8_17  and  C9_18 
REMARK    9  A    between atoms: C8_17  and  N8_32 
REMARK       I    between atoms: C9_18  and  N7_20 
REMARK   10  A    between atoms: C11_22  and  O2_23 
REMARK   11  A    between atoms: C12_25  and  O3_26 
REMARK   12  A    between atoms: C13_28  and  O4_29 
ROOT
HETATM    1  C8  UNL     1      24.356  15.932  40.284  1.00  0.00     0.074 C 
ENDROOT
BRANCH   1   2
HETATM    2  C7  UNL     1      25.576  15.184  40.750  1.00  0.00     0.179 C 
BRANCH   2   3
HETATM    3  N6  UNL     1      25.487  14.808  42.139  1.00  0.00    -0.359 N 
HETATM    4  C6  UNL     1      25.948  13.531  42.575  1.00  0.00     0.184 C 
HETATM    5  N4  UNL     1      26.409  12.684  41.717  1.00  0.00    -0.365 N 
HETATM    6  N5  UNL     1      25.894  13.217  43.961  1.00  0.00    -0.064 NA
ATOM      7  H4  UNL     1      26.442  12.919  40.725  1.00  0.00     0.162 HD
ATOM      8  H6  UNL     1      25.090  15.461  42.816  1.00  0.00     0.162 HD
BRANCH   5   9
HETATM    9  C5  UNL     1      26.870  11.415  42.176  1.00  0.00     0.122 C 
BRANCH   9  10
HETATM   10  C4  UNL     1      28.297  11.109  41.820  1.00  0.00     0.025 C 
BRANCH  10  11
HETATM   11  C3  UNL     1      28.267   9.734  41.115  1.00  0.00     0.046 C 
BRANCH  11  12
HETATM   12  C2  UNL     1      27.581   9.834  39.794  1.00  0.00     0.063 C 
BRANCH  12  13
HETATM   13  N3  UNL     1      26.537   8.895  39.670  1.00  0.00    -0.347 N 
HETATM   14  C1  UNL     1      25.295   8.987  39.790  1.00  0.00     0.200 C 
HETATM   15  N1  UNL     1      24.517  10.124  40.104  1.00  0.00    -0.067 NA
HETATM   16  N2  UNL     1      24.548   7.763  39.579  1.00  0.00    -0.067 NA
ATOM     17  H3  UNL     1      26.857   7.956  39.435  1.00  0.00     0.167 HD
ENDBRANCH  12  13
ENDBRANCH  11  12
ENDBRANCH  10  11
ENDBRANCH   9  10
ENDBRANCH   5   9
ENDBRANCH   2   3
ENDBRANCH   1   2
BRANCH   1  18
HETATM   18  C9  UNL     1      23.625  16.661  41.306  1.00  0.00     0.262 C 
HETATM   19  O1  UNL     1      24.119  17.768  41.764  1.00  0.00    -0.267 OA
HETATM   20  N7  UNL     1      22.390  16.322  41.908  1.00  0.00    -0.342 N 
HETATM   21  C10 UNL     1      21.762  17.201  42.915  1.00  0.00     0.160 C 
HETATM   22  C14 UNL     1      21.643  15.117  41.637  1.00  0.00     0.160 C 
HETATM   23  C11 UNL     1      21.920  16.557  44.256  1.00  0.00     0.167 C 
HETATM   24  C12 UNL     1      21.728  15.078  44.147  1.00  0.00     0.178 C 
HETATM   25  C13 UNL     1      20.915  14.748  42.941  1.00  0.00     0.167 C 
BRANCH  23  26
HETATM   26  O2  UNL     1      21.037  17.119  45.197  1.00  0.00    -0.391 OA
ATOM     27  H2  UNL     1      20.195  16.681  45.184  1.00  0.00     0.210 HD
ENDBRANCH  23  26
BRANCH  24  28
HETATM   28  O3  UNL     1      21.065  14.640  45.299  1.00  0.00    -0.390 OA
ATOM     29  H3  UNL     1      20.474  13.939  45.051  1.00  0.00     0.210 HD
ENDBRANCH  24  28
BRANCH  25  30
HETATM   30  O4  UNL     1      19.670  15.349  43.032  1.00  0.00    -0.391 OA
ATOM     31  H4  UNL     1      19.141  14.901  43.682  1.00  0.00     0.210 HD
ENDBRANCH  25  30
ENDBRANCH   1  18
BRANCH   1  32
HETATM   32  N8  UNL     1      24.630  16.587  39.050  1.00  0.00    -0.278 NA
HETATM   33  C15 UNL     1      25.904  17.248  38.994  1.00  0.00     0.123 C 
HETATM   34  C16 UNL     1      25.712  18.691  38.642  1.00  0.00     0.247 C 
HETATM   35  N9  UNL     1      25.033  18.883  37.374  1.00  0.00    -0.073 N 
HETATM   36  C17 UNL     1      23.846  18.055  37.275  1.00  0.00     0.247 C 
ATOM     37  H92 UNL     1      24.816  19.866  37.211  1.00  0.00     0.277 HD
ATOM     38  H91 UNL     1      25.663  18.728  36.587  1.00  0.00     0.277 HD
HETATM   39  C18 UNL     1      23.548  17.457  38.622  1.00  0.00     0.123 C 
ENDBRANCH   1  32
TORSDOF 12
ENDMDL
MODEL 2
REMARK VINA RESULT: -7.577439517      2.146      6.975
REMARK  12 active torsions:
REMARK  status: ('A' for Active; 'I' for Inactive)
REMARK    1  A    between atoms: N3_4  and  C2_6 
REMARK    2  A    between atoms: C2_6  and  C3_7 
REMARK    3  A    between atoms: C3_7  and  C4_8 
REMARK    4  A    between atoms: C4_8  and  C5_9 
REMARK    5  A    between atoms: C5_9  and  N4_10 
REMARK       I    between atoms: C6_12  and  N6_14 
REMARK    6  A    between atoms: N6_14  and  C7_16 
REMARK    7  A    between atoms: C7_16  and  C8_17 
REMARK    8  A    between atoms: C8_17  and  C9_18 
REMARK    9  A    between atoms: C8_17  and  N8_32 
REMARK       I    between atoms: C9_18  and  N7_20 
REMARK   10  A    between atoms: C11_22  and  O2_23 
REMARK   11  A    between atoms: C12_25  and  O3_26 
REMARK   12  A    between atoms: C13_28  and  O4_29 
ROOT
HETATM    1  C8  UNL     1      24.803  14.376  41.799  1.00  0.00     0.074 C 
ENDROOT
BRANCH   1   2
HETATM    2  C7  UNL     1      25.583  15.347  40.953  1.00  0.00     0.179 C 
BRANCH   2   3
HETATM    3  N6  UNL     1      25.207  16.716  41.209  1.00  0.00    -0.359 N 
HETATM    4  C6  UNL     1      24.502  17.469  40.224  1.00  0.00     0.184 C 
HETATM    5  N4  UNL     1      24.235  16.941  39.078  1.00  0.00    -0.365 N 
HETATM    6  N5  UNL     1      24.100  18.798  40.533  1.00  0.00    -0.064 NA
ATOM      7  H4  UNL     1      24.529  15.987  38.866  1.00  0.00     0.162 HD
ATOM      8  H6  UNL     1      25.448  17.149  42.101  1.00  0.00     0.162 HD
BRANCH   5   9
HETATM    9  C5  UNL     1      23.523  17.710  38.110  1.00  0.00     0.122 C 
BRANCH   9  10
HETATM   10  C4  UNL     1      24.374  18.237  36.990  1.00  0.00     0.025 C 
BRANCH  10  11
HETATM   11  C3  UNL     1      24.395  19.772  37.167  1.00  0.00     0.046 C 
BRANCH  11  12
HETATM   12  C2  UNL     1      23.010  20.304  37.327  1.00  0.00     0.063 C 
BRANCH  12  13
HETATM   13  N3  UNL     1      22.300  20.302  36.110  1.00  0.00    -0.347 N 
HETATM   14  C1  UNL     1      21.206  19.800  35.768  1.00  0.00     0.200 C 
HETATM   15  N1  UNL     1      20.298  19.041  36.541  1.00  0.00    -0.067 NA
HETATM   16  N2  UNL     1      20.811  20.026  34.391  1.00  0.00    -0.067 NA
ATOM     17  H3  UNL     1      22.770  20.810  35.361  1.00  0.00     0.167 HD
ENDBRANCH  12  13
ENDBRANCH  11  12
ENDBRANCH  10  11
ENDBRANCH   9  10
ENDBRANCH   5   9
ENDBRANCH   2   3
ENDBRANCH   1   2
BRANCH   1  18
HETATM   18  C9  UNL     1      23.357  14.490  41.733  1.00  0.00     0.262 C 
HETATM   19  O1  UNL     1      22.786  14.603  40.576  1.00  0.00    -0.267 OA
HETATM   20  N7  UNL     1      22.431  14.501  42.803  1.00  0.00    -0.342 N 
HETATM   21  C10 UNL     1      20.978  14.589  42.557  1.00  0.00     0.160 C 
HETATM   22  C14 UNL     1      22.785  14.452  44.202  1.00  0.00     0.160 C 
HETATM   23  C11 UNL     1      20.526  15.965  42.931  1.00  0.00     0.167 C 
HETATM   24  C12 UNL     1      21.232  16.426  44.165  1.00  0.00     0.178 C 
HETATM   25  C13 UNL     1      21.711  15.255  44.956  1.00  0.00     0.167 C 
BRANCH  23  26
HETATM   26  O2  UNL     1      19.129  16.017  43.091  1.00  0.00    -0.391 OA
ATOM     27  H2  UNL     1      18.757  16.756  42.625  1.00  0.00     0.210 HD
ENDBRANCH  23  26
BRANCH  24  28
HETATM   28  O3  UNL     1      20.329  17.174  44.929  1.00  0.00    -0.390 OA
ATOM     29  H3  UNL     1      20.696  17.283  45.798  1.00  0.00     0.210 HD
ENDBRANCH  24  28
BRANCH  25  30
HETATM   30  O4  UNL     1      20.635  14.466  45.330  1.00  0.00    -0.391 OA
ATOM     31  H4  UNL     1      20.943  13.698  45.797  1.00  0.00     0.210 HD
ENDBRANCH  25  30
ENDBRANCH   1  18
BRANCH   1  32
HETATM   32  N8  UNL     1      25.385  13.080  41.711  1.00  0.00    -0.278 NA
HETATM   33  C15 UNL     1      26.089  12.659  42.890  1.00  0.00     0.123 C 
HETATM   34  C16 UNL     1      27.497  12.291  42.536  1.00  0.00     0.247 C 
HETATM   35  N9  UNL     1      27.578  11.235  41.544  1.00  0.00    -0.073 N 
HETATM   36  C17 UNL     1      26.700  11.492  40.419  1.00  0.00     0.247 C 
ATOM     37  H92 UNL     1      28.539  11.081  41.240  1.00  0.00     0.277 HD
ATOM     38  H91 UNL     1      27.395  10.321  41.958  1.00  0.00     0.277 HD
HETATM   39  C18 UNL     1      26.182  12.901  40.510  1.00  0.00     0.123 C 
ENDBRANCH   1  32
TORSDOF 12
ENDMDL
MODEL 3
REMARK VINA RESULT: -7.464320791      3.447      6.591
REMARK  12 active torsions:
REMARK  status: ('A' for Active; 'I' for Inactive)
REMARK    1  A    between atoms: N3_4  and  C2_6 
REMARK    2  A    between atoms: C2_6  and  C3_7 
REMARK    3  A    between atoms: C3_7  and  C4_8 
REMARK    4  A    between atoms: C4_8  and  C5_9 
REMARK    5  A    between atoms: C5_9  and  N4_10 
REMARK       I    between atoms: C6_12  and  N6_14 
REMARK    6  A    between atoms: N6_14  and  C7_16 
REMARK    7  A    between atoms: C7_16  and  C8_17 
REMARK    8  A    between atoms: C8_17  and  C9_18 
REMARK    9  A    between atoms: C8_17  and  N8_32 
REMARK       I    between atoms: C9_18  and  N7_20 
REMARK   10  A    between atoms: C11_22  and  O2_23 
REMARK   11  A    between atoms: C12_25  and  O3_26 
REMARK   12  A    between atoms: C13_28  and  O4_29 
ROOT
HETATM    1  C8  UNL     1      24.866  14.467  41.589  1.00  0.00     0.074 C 
ENDROOT
BRANCH   1   2
HETATM    2  C7  UNL     1      25.613  15.368  40.641  1.00  0.00     0.179 C 
BRANCH   2   3
HETATM    3  N6  UNL     1      24.874  16.566  40.332  1.00  0.00    -0.359 N 
HETATM    4  C6  UNL     1      25.461  17.595  39.538  1.00  0.00     0.184 C 
HETATM    5  N4  UNL     1      26.679  17.478  39.129  1.00  0.00    -0.365 N 
HETATM    6  N5  UNL     1      24.682  18.739  39.209  1.00  0.00    -0.064 NA
ATOM      7  H4  UNL     1      27.230  16.654  39.372  1.00  0.00     0.162 HD
ATOM      8  H6  UNL     1      23.923  16.679  40.684  1.00  0.00     0.162 HD
BRANCH   5   9
HETATM    9  C5  UNL     1      27.245  18.516  38.332  1.00  0.00     0.122 C 
BRANCH   9  10
HETATM   10  C4  UNL     1      28.315  18.056  37.383  1.00  0.00     0.025 C 
BRANCH  10  11
HETATM   11  C3  UNL     1      29.657  18.415  38.060  1.00  0.00     0.046 C 
BRANCH  11  12
HETATM   12  C2  UNL     1      30.772  17.613  37.477  1.00  0.00     0.063 C 
BRANCH  12  13
HETATM   13  N3  UNL     1      31.838  17.454  38.386  1.00  0.00    -0.347 N 
HETATM   14  C1  UNL     1      33.079  17.545  38.260  1.00  0.00     0.200 C 
HETATM   15  N1  UNL     1      33.834  17.855  37.105  1.00  0.00    -0.067 NA
HETATM   16  N2  UNL     1      33.855  17.302  39.461  1.00  0.00    -0.067 NA
ATOM     17  H3  UNL     1      31.538  17.217  39.331  1.00  0.00     0.167 HD
ENDBRANCH  12  13
ENDBRANCH  11  12
ENDBRANCH  10  11
ENDBRANCH   9  10
ENDBRANCH   5   9
ENDBRANCH   2   3
ENDBRANCH   1   2
BRANCH   1  18
HETATM   18  C9  UNL     1      23.418  14.576  41.565  1.00  0.00     0.262 C 
HETATM   19  O1  UNL     1      22.815  14.705  40.426  1.00  0.00    -0.267 OA
HETATM   20  N7  UNL     1      22.522  14.564  42.661  1.00  0.00    -0.342 N 
HETATM   21  C10 UNL     1      21.062  14.649  42.457  1.00  0.00     0.160 C 
HETATM   22  C14 UNL     1      22.915  14.494  44.048  1.00  0.00     0.160 C 
HETATM   23  C11 UNL     1      20.616  16.017  42.866  1.00  0.00     0.167 C 
HETATM   24  C12 UNL     1      21.354  16.460  44.088  1.00  0.00     0.178 C 
HETATM   25  C13 UNL     1      21.859  15.279  44.845  1.00  0.00     0.167 C 
BRANCH  23  26
HETATM   26  O2  UNL     1      19.223  16.060  43.065  1.00  0.00    -0.391 OA
ATOM     27  H2  UNL     1      18.985  16.740  43.683  1.00  0.00     0.210 HD
ENDBRANCH  23  26
BRANCH  24  28
HETATM   28  O3  UNL     1      20.469  17.191  44.889  1.00  0.00    -0.390 OA
ATOM     29  H3  UNL     1      20.933  17.460  45.673  1.00  0.00     0.210 HD
ENDBRANCH  24  28
BRANCH  25  30
HETATM   30  O4  UNL     1      20.798  14.478  45.236  1.00  0.00    -0.391 OA
ATOM     31  H4  UNL     1      21.121  13.642  45.551  1.00  0.00     0.210 HD
ENDBRANCH  25  30
ENDBRANCH   1  18
BRANCH   1  32
HETATM   32  N8  UNL     1      25.448  13.168  41.585  1.00  0.00    -0.278 NA
HETATM   33  C15 UNL     1      26.043  12.775  42.832  1.00  0.00     0.123 C 
HETATM   34  C16 UNL     1      27.475  12.397  42.614  1.00  0.00     0.247 C 
HETATM   35  N9  UNL     1      27.640  11.316  41.660  1.00  0.00    -0.073 N 
HETATM   36  C17 UNL     1      26.867  11.547  40.455  1.00  0.00     0.247 C 
ATOM     37  H92 UNL     1      28.624  11.153  41.446  1.00  0.00     0.277 HD
ATOM     38  H91 UNL     1      27.418  10.412  42.078  1.00  0.00     0.277 HD
HETATM   39  C18 UNL     1      26.348  12.958  40.464  1.00  0.00     0.123 C 
ENDBRANCH   1  32
TORSDOF 12
ENDMDL
MODEL 4
REMARK VINA RESULT: -7.438204240      2.029      6.391
REMARK  12 active torsions:
REMARK  status: ('A' for Active; 'I' for Inactive)
REMARK    1  A    between atoms: N3_4  and  C2_6 
REMARK    2  A    between atoms: C2_6  and  C3_7 
REMARK    3  A    between atoms: C3_7  and  C4_8 
REMARK    4  A    between atoms: C4_8  and  C5_9 
REMARK    5  A    between atoms: C5_9  and  N4_10 
REMARK       I    between atoms: C6_12  and  N6_14 
REMARK    6  A    between atoms: N6_14  and  C7_16 
REMARK    7  A    between atoms: C7_16  and  C8_17 
REMARK    8  A    between atoms: C8_17  and  C9_18 
REMARK    9  A    between atoms: C8_17  and  N8_32 
REMARK       I    between atoms: C9_18  and  N7_20 
REMARK   10  A    between atoms: C11_22  and  O2_23 
REMARK   11  A    between atoms: C12_25  and  O3_26 
REMARK   12  A    between atoms: C13_28  and  O4_29 
ROOT
HETATM    1  C8  UNL     1      24.889  14.444  41.651  1.00  0.00     0.074 C 
ENDROOT
BRANCH   1   2
HETATM    2  C7  UNL     1      25.659  15.349  40.727  1.00  0.00     0.179 C 
BRANCH   2   3
HETATM    3  N6  UNL     1      25.059  16.656  40.621  1.00  0.00    -0.359 N 
HETATM    4  C6  UNL     1      25.407  17.528  39.546  1.00  0.00     0.184 C 
HETATM    5  N4  UNL     1      26.297  17.166  38.685  1.00  0.00    -0.365 N 
HETATM    6  N5  UNL     1      24.754  18.787  39.444  1.00  0.00    -0.064 NA
ATOM      7  H4  UNL     1      26.760  16.261  38.768  1.00  0.00     0.162 HD
ATOM      8  H6  UNL     1      24.381  16.961  41.320  1.00  0.00     0.162 HD
BRANCH   5   9
HETATM    9  C5  UNL     1      26.625  18.051  37.615  1.00  0.00     0.122 C 
BRANCH   9  10
HETATM   10  C4  UNL     1      25.860  17.799  36.347  1.00  0.00     0.025 C 
BRANCH  10  11
HETATM   11  C3  UNL     1      25.376  19.187  35.867  1.00  0.00     0.046 C 
BRANCH  11  12
HETATM   12  C2  UNL     1      23.886  19.258  35.880  1.00  0.00     0.063 C 
BRANCH  12  13
HETATM   13  N3  UNL     1      23.318  18.289  36.730  1.00  0.00    -0.347 N 
HETATM   14  C1  UNL     1      22.150  18.095  37.133  1.00  0.00     0.200 C 
HETATM   15  N1  UNL     1      20.977  18.830  36.840  1.00  0.00    -0.067 NA
HETATM   16  N2  UNL     1      21.967  16.964  38.021  1.00  0.00    -0.067 NA
ATOM     17  H3  UNL     1      23.992  17.613  37.088  1.00  0.00     0.167 HD
ENDBRANCH  12  13
ENDBRANCH  11  12
ENDBRANCH  10  11
ENDBRANCH   9  10
ENDBRANCH   5   9
ENDBRANCH   2   3
ENDBRANCH   1   2
BRANCH   1  18
HETATM   18  C9  UNL     1      23.443  14.571  41.610  1.00  0.00     0.262 C 
HETATM   19  O1  UNL     1      22.856  14.731  40.466  1.00  0.00    -0.267 OA
HETATM   20  N7  UNL     1      22.532  14.548  42.693  1.00  0.00    -0.342 N 
HETATM   21  C10 UNL     1      21.076  14.656  42.472  1.00  0.00     0.160 C 
HETATM   22  C14 UNL     1      22.905  14.445  44.084  1.00  0.00     0.160 C 
HETATM   23  C11 UNL     1      20.641  16.020  42.903  1.00  0.00     0.167 C 
HETATM   24  C12 UNL     1      21.368  16.429  44.143  1.00  0.00     0.178 C 
HETATM   25  C13 UNL     1      21.849  15.226  44.882  1.00  0.00     0.167 C 
BRANCH  23  26
HETATM   26  O2  UNL     1      19.246  16.076  43.085  1.00  0.00    -0.391 OA
ATOM     27  H2  UNL     1      18.945  16.974  43.163  1.00  0.00     0.210 HD
ENDBRANCH  23  26
BRANCH  24  28
HETATM   28  O3  UNL     1      20.481  17.155  44.947  1.00  0.00    -0.390 OA
ATOM     29  H3  UNL     1      20.271  16.625  45.708  1.00  0.00     0.210 HD
ENDBRANCH  24  28
BRANCH  25  30
HETATM   30  O4  UNL     1      20.772  14.432  45.243  1.00  0.00    -0.391 OA
ATOM     31  H4  UNL     1      20.491  14.649  46.124  1.00  0.00     0.210 HD
ENDBRANCH  25  30
ENDBRANCH   1  18
BRANCH   1  32
HETATM   32  N8  UNL     1      25.455  13.138  41.633  1.00  0.00    -0.278 NA
HETATM   33  C15 UNL     1      26.080  12.740  42.864  1.00  0.00     0.123 C 
HETATM   34  C16 UNL     1      27.501  12.344  42.606  1.00  0.00     0.247 C 
HETATM   35  N9  UNL     1      27.625  11.259  41.651  1.00  0.00    -0.073 N 
HETATM   36  C17 UNL     1      26.821  11.497  40.467  1.00  0.00     0.247 C 
ATOM     37  H92 UNL     1      28.601  11.083  41.410  1.00  0.00     0.277 HD
ATOM     38  H91 UNL     1      27.404  10.359  42.077  1.00  0.00     0.277 HD
HETATM   39  C18 UNL     1      26.320  12.915  40.488  1.00  0.00     0.123 C 
ENDBRANCH   1  32
TORSDOF 12
ENDMDL
MODEL 5
REMARK VINA RESULT: -7.382953393      1.230      2.025
REMARK  12 active torsions:
REMARK  status: ('A' for Active; 'I' for Inactive)
REMARK    1  A    between atoms: N3_4  and  C2_6 
REMARK    2  A    between atoms: C2_6  and  C3_7 
REMARK    3  A    between atoms: C3_7  and  C4_8 
REMARK    4  A    between atoms: C4_8  and  C5_9 
REMARK    5  A    between atoms: C5_9  and  N4_10 
REMARK       I    between atoms: C6_12  and  N6_14 
REMARK    6  A    between atoms: N6_14  and  C7_16 
REMARK    7  A    between atoms: C7_16  and  C8_17 
REMARK    8  A    between atoms: C8_17  and  C9_18 
REMARK    9  A    between atoms: C8_17  and  N8_32 
REMARK       I    between atoms: C9_18  and  N7_20 
REMARK   10  A    between atoms: C11_22  and  O2_23 
REMARK   11  A    between atoms: C12_25  and  O3_26 
REMARK   12  A    between atoms: C13_28  and  O4_29 
ROOT
HETATM    1  C8  UNL     1      24.356  16.993  40.267  1.00  0.00     0.074 C 
ENDROOT
BRANCH   1   2
HETATM    2  C7  UNL     1      25.550  16.099  40.472  1.00  0.00     0.179 C 
BRANCH   2   3
HETATM    3  N6  UNL     1      25.542  15.470  41.770  1.00  0.00    -0.359 N 
HETATM    4  C6  UNL     1      25.351  14.062  41.891  1.00  0.00     0.184 C 
HETATM    5  N4  UNL     1      25.137  13.348  40.838  1.00  0.00    -0.365 N 
HETATM    6  N5  UNL     1      25.403  13.470  43.183  1.00  0.00    -0.064 NA
ATOM      7  H4  UNL     1      25.100  13.783  39.916  1.00  0.00     0.162 HD
ATOM      8  H6  UNL     1      25.675  16.037  42.608  1.00  0.00     0.162 HD
BRANCH   5   9
HETATM    9  C5  UNL     1      24.953  11.941  40.982  1.00  0.00     0.122 C 
BRANCH   9  10
HETATM   10  C4  UNL     1      25.482  11.126  39.835  1.00  0.00     0.025 C 
BRANCH  10  11
HETATM   11  C3  UNL     1      24.778   9.754  39.937  1.00  0.00     0.046 C 
BRANCH  11  12
HETATM   12  C2  UNL     1      25.757   8.685  40.292  1.00  0.00     0.063 C 
BRANCH  12  13
HETATM   13  N3  UNL     1      27.078   9.050  39.965  1.00  0.00    -0.347 N 
HETATM   14  C1  UNL     1      28.007   9.556  40.632  1.00  0.00     0.200 C 
HETATM   15  N1  UNL     1      28.016   9.938  41.994  1.00  0.00    -0.067 NA
HETATM   16  N2  UNL     1      29.247   9.785  39.917  1.00  0.00    -0.067 NA
ATOM     17  H3  UNL     1      27.326   8.864  38.994  1.00  0.00     0.167 HD
ENDBRANCH  12  13
ENDBRANCH  11  12
ENDBRANCH  10  11
ENDBRANCH   9  10
ENDBRANCH   5   9
ENDBRANCH   2   3
ENDBRANCH   1   2
BRANCH   1  18
HETATM   18  C9  UNL     1      23.564  17.283  41.449  1.00  0.00     0.262 C 
HETATM   19  O1  UNL     1      23.884  18.298  42.188  1.00  0.00    -0.267 OA
HETATM   20  N7  UNL     1      22.437  16.582  41.941  1.00  0.00    -0.342 N 
HETATM   21  C10 UNL     1      21.721  17.036  43.149  1.00  0.00     0.160 C 
HETATM   22  C14 UNL     1      21.895  15.379  41.357  1.00  0.00     0.160 C 
HETATM   23  C11 UNL     1      22.053  16.099  44.266  1.00  0.00     0.167 C 
HETATM   24  C12 UNL     1      22.112  14.692  43.763  1.00  0.00     0.178 C 
HETATM   25  C13 UNL     1      21.307  14.554  42.515  1.00  0.00     0.167 C 
BRANCH  23  26
HETATM   26  O2  UNL     1      21.137  16.225  45.327  1.00  0.00    -0.391 OA
ATOM     27  H2  UNL     1      20.968  15.386  45.738  1.00  0.00     0.210 HD
ENDBRANCH  23  26
BRANCH  24  28
HETATM   28  O3  UNL     1      21.593  13.854  44.756  1.00  0.00    -0.390 OA
ATOM     29  H3  UNL     1      21.250  13.074  44.334  1.00  0.00     0.210 HD
ENDBRANCH  24  28
BRANCH  25  30
HETATM   30  O4  UNL     1      19.984  14.877  42.768  1.00  0.00    -0.391 OA
ATOM     31  H4  UNL     1      19.457  14.719  41.993  1.00  0.00     0.210 HD
ENDBRANCH  25  30
ENDBRANCH   1  18
BRANCH   1  32
HETATM   32  N8  UNL     1      24.699  18.069  39.400  1.00  0.00    -0.278 NA
HETATM   33  C15 UNL     1      23.703  18.383  38.414  1.00  0.00     0.123 C 
HETATM   34  C16 UNL     1      24.307  18.321  37.045  1.00  0.00     0.247 C 
HETATM   35  N9  UNL     1      25.429  19.226  36.876  1.00  0.00    -0.073 N 
HETATM   36  C17 UNL     1      26.368  19.120  37.977  1.00  0.00     0.247 C 
ATOM     37  H92 UNL     1      25.891  19.085  35.977  1.00  0.00     0.277 HD
ATOM     38  H91 UNL     1      25.117  20.187  36.744  1.00  0.00     0.277 HD
HETATM   39  C18 UNL     1      26.018  17.919  38.811  1.00  0.00     0.123 C 
ENDBRANCH   1  32
TORSDOF 12
ENDMDL
