MODEL 1
REMARK VINA RESULT: -7.689904979      0.000      0.000
REMARK  10 active torsions:
REMARK  status: ('A' for Active; 'I' for Inactive)
REMARK    1  A    between atoms: O1_2  and  C2_3 
REMARK    2  A    between atoms: C3_7  and  O2_8 
REMARK    3  A    between atoms: O2_8  and  C4_9 
REMARK    4  A    between atoms: C6_14  and  N3_15 
REMARK    5  A    between atoms: C8_20  and  C9_21 
REMARK       I    between atoms: N6_22  and  C10_24 
REMARK       I    between atoms: C10_24  and  N7_26 
REMARK    6  A    between atoms: N7_26  and  C11_28 
REMARK    7  A    between atoms: C11_28  and  C12_29 
REMARK    8  A    between atoms: C12_29  and  C13_30 
REMARK    9  A    between atoms: C13_30  and  N8_31 
REMARK   10  A    between atoms: C15_36  and  O5_38 
ROOT
HETATM    1  C4  UNL     1      25.107  17.094  39.404  1.00  0.00     0.237 C 
HETATM    2  N2  UNL     1      24.161  16.946  38.277  1.00  0.00    -0.332 N 
ATOM      3  H2  UNL     1      24.361  17.057  37.283  1.00  0.00     0.165 HD
HETATM    4  C5  UNL     1      22.921  16.617  38.870  1.00  0.00     0.243 C 
HETATM    5  O3  UNL     1      21.829  16.580  38.273  1.00  0.00    -0.271 OA
HETATM    6  C6  UNL     1      23.135  16.329  40.305  1.00  0.00     0.189 C 
HETATM    7  C8  UNL     1      24.622  15.889  40.228  1.00  0.00     0.105 C 
ENDROOT
BRANCH   7   8
HETATM    8  C9  UNL     1      25.212  15.803  41.548  1.00  0.00     0.077 C 
HETATM    9  N6  UNL     1      25.591  14.736  42.083  1.00  0.00    -0.322 N 
HETATM   10  C10 UNL     1      25.608  13.399  41.708  1.00  0.00     0.323 C 
ATOM     11  H6  UNL     1      25.978  14.885  43.015  1.00  0.00     0.169 HD
HETATM   12  O4  UNL     1      26.733  12.803  41.881  1.00  0.00    -0.247 OA
HETATM   13  N7  UNL     1      24.540  12.669  41.179  1.00  0.00    -0.322 N 
ATOM     14  H7  UNL     1      23.702  13.235  41.050  1.00  0.00     0.169 HD
BRANCH  13  15
HETATM   15  C11 UNL     1      24.360  11.339  40.788  1.00  0.00     0.067 C 
BRANCH  15  16
HETATM   16  C12 UNL     1      25.246  10.703  39.778  1.00  0.00     0.064 C 
BRANCH  16  17
HETATM   17  C13 UNL     1      25.708   9.350  40.116  1.00  0.00     0.127 C 
BRANCH  17  18
HETATM   18  N8  UNL     1      27.094   9.108  39.735  1.00  0.00    -0.367 N 
HETATM   19  C14 UNL     1      28.144   9.356  40.344  1.00  0.00     0.196 C 
HETATM   20  N9  UNL     1      28.167   9.968  41.619  1.00  0.00    -0.067 NA
HETATM   21  N10 UNL     1      29.396   9.003  39.717  1.00  0.00    -0.067 NA
ATOM     22  H8  UNL     1      27.218   8.664  38.825  1.00  0.00     0.161 HD
ENDBRANCH  17  18
ENDBRANCH  16  17
ENDBRANCH  15  16
ENDBRANCH  13  15
ENDBRANCH   7   8
BRANCH   1  23
HETATM   23  O2  UNL     1      26.394  17.028  39.009  1.00  0.00    -0.331 OA
BRANCH  23  24
HETATM   24  C3  UNL     1      26.731  17.500  37.788  1.00  0.00     0.364 C 
HETATM   25  N1  UNL     1      27.274  16.555  36.830  1.00  0.00    -0.016 N 
HETATM   26  C2  UNL     1      28.000  17.659  36.227  1.00  0.00     0.362 C 
ATOM     27  H12 UNL     1      26.658  15.966  36.269  1.00  0.00     0.283 HD
ATOM     28  H11 UNL     1      27.763  15.716  37.142  1.00  0.00     0.283 HD
HETATM   29  C15 UNL     1      27.955  18.338  37.608  1.00  0.00     0.157 C 
HETATM   30  C16 UNL     1      27.812  19.804  37.440  1.00  0.00     0.055 C 
BRANCH  26  31
HETATM   31  O1  UNL     1      29.255  17.306  35.795  1.00  0.00    -0.362 OA
HETATM   32  C1  UNL     1      29.508  17.787  34.508  1.00  0.00     0.204 C 
ENDBRANCH  26  31
BRANCH  29  33
HETATM   33  O5  UNL     1      29.072  17.967  38.319  1.00  0.00    -0.381 OA
ATOM     34  H5  UNL     1      28.934  18.179  39.235  1.00  0.00     0.211 HD
ENDBRANCH  29  33
ENDBRANCH  23  24
ENDBRANCH   1  23
BRANCH   6  35
HETATM   35  N3  UNL     1      22.291  15.354  40.881  1.00  0.00    -0.353 N 
HETATM   36  C7  UNL     1      21.687  15.536  41.990  1.00  0.00     0.197 C 
HETATM   37  N4  UNL     1      20.860  14.495  42.493  1.00  0.00    -0.067 NA
HETATM   38  N5  UNL     1      21.803  16.727  42.742  1.00  0.00    -0.067 NA
ATOM     39  H3  UNL     1      22.160  14.469  40.392  1.00  0.00     0.162 HD
ENDBRANCH   6  35
TORSDOF 10
ENDMDL
MODEL 2
REMARK VINA RESULT: -7.642077777      1.202      1.647
REMARK  10 active torsions:
REMARK  status: ('A' for Active; 'I' for Inactive)
REMARK    1  A    between atoms: O1_2  and  C2_3 
REMARK    2  A    between atoms: C3_7  and  O2_8 
REMARK    3  A    between atoms: O2_8  and  C4_9 
REMARK    4  A    between atoms: C6_14  and  N3_15 
REMARK    5  A    between atoms: C8_20  and  C9_21 
REMARK       I    between atoms: N6_22  and  C10_24 
REMARK       I    between atoms: C10_24  and  N7_26 
REMARK    6  A    between atoms: N7_26  and  C11_28 
REMARK    7  A    between atoms: C11_28  and  C12_29 
REMARK    8  A    between atoms: C12_29  and  C13_30 
REMARK    9  A    between atoms: C13_30  and  N8_31 
REMARK   10  A    between atoms: C15_36  and  O5_38 
ROOT
HETATM    1  C4  UNL     1      25.133  17.089  39.344  1.00  0.00     0.237 C 
HETATM    2  N2  UNL     1      24.204  16.937  38.203  1.00  0.00    -0.332 N 
ATOM      3  H2  UNL     1      24.424  17.024  37.211  1.00  0.00     0.165 HD
HETATM    4  C5  UNL     1      22.947  16.646  38.780  1.00  0.00     0.243 C 
HETATM    5  O3  UNL     1      21.865  16.620  38.165  1.00  0.00    -0.271 OA
HETATM    6  C6  UNL     1      23.130  16.383  40.224  1.00  0.00     0.189 C 
HETATM    7  C8  UNL     1      24.608  15.911  40.182  1.00  0.00     0.105 C 
ENDROOT
BRANCH   7   8
HETATM    8  C9  UNL     1      25.173  15.839  41.515  1.00  0.00     0.077 C 
HETATM    9  N6  UNL     1      25.547  14.779  42.066  1.00  0.00    -0.322 N 
HETATM   10  C10 UNL     1      25.579  13.438  41.702  1.00  0.00     0.323 C 
ATOM     11  H6  UNL     1      25.915  14.937  43.004  1.00  0.00     0.169 HD
HETATM   12  O4  UNL     1      26.704  12.851  41.902  1.00  0.00    -0.247 OA
HETATM   13  N7  UNL     1      24.526  12.698  41.159  1.00  0.00    -0.322 N 
ATOM     14  H7  UNL     1      23.687  13.258  41.009  1.00  0.00     0.169 HD
BRANCH  13  15
HETATM   15  C11 UNL     1      24.361  11.365  40.775  1.00  0.00     0.067 C 
BRANCH  15  16
HETATM   16  C12 UNL     1      25.268  10.726  39.785  1.00  0.00     0.064 C 
BRANCH  16  17
HETATM   17  C13 UNL     1      25.713   9.369  40.130  1.00  0.00     0.127 C 
BRANCH  17  18
HETATM   18  N8  UNL     1      27.095   9.108  39.748  1.00  0.00    -0.367 N 
HETATM   19  C14 UNL     1      28.150   9.353  40.350  1.00  0.00     0.196 C 
HETATM   20  N9  UNL     1      28.182   9.980  41.618  1.00  0.00    -0.067 NA
HETATM   21  N10 UNL     1      29.395   8.979  39.725  1.00  0.00    -0.067 NA
ATOM     22  H8  UNL     1      27.212   8.652  38.843  1.00  0.00     0.161 HD
ENDBRANCH  17  18
ENDBRANCH  16  17
ENDBRANCH  15  16
ENDBRANCH  13  15
ENDBRANCH   7   8
BRANCH   1  23
HETATM   23  O2  UNL     1      26.425  16.988  38.974  1.00  0.00    -0.331 OA
BRANCH  23  24
HETATM   24  C3  UNL     1      27.088  18.104  38.599  1.00  0.00     0.364 C 
HETATM   25  N1  UNL     1      26.396  19.373  38.728  1.00  0.00    -0.016 N 
HETATM   26  C2  UNL     1      27.200  19.868  37.624  1.00  0.00     0.362 C 
ATOM     27  H12 UNL     1      26.372  19.867  39.620  1.00  0.00     0.283 HD
ATOM     28  H11 UNL     1      25.378  19.419  38.694  1.00  0.00     0.283 HD
HETATM   29  C15 UNL     1      27.308  18.407  37.151  1.00  0.00     0.157 C 
HETATM   30  C16 UNL     1      28.645  18.172  36.555  1.00  0.00     0.055 C 
BRANCH  26  31
HETATM   31  O1  UNL     1      26.505  20.701  36.782  1.00  0.00    -0.362 OA
HETATM   32  C1  UNL     1      27.206  21.885  36.537  1.00  0.00     0.204 C 
ENDBRANCH  26  31
BRANCH  29  33
HETATM   33  O5  UNL     1      26.264  18.142  36.296  1.00  0.00    -0.381 OA
ATOM     34  H5  UNL     1      25.974  17.249  36.437  1.00  0.00     0.211 HD
ENDBRANCH  29  33
ENDBRANCH  23  24
ENDBRANCH   1  23
BRANCH   6  35
HETATM   35  N3  UNL     1      22.256  15.437  40.804  1.00  0.00    -0.353 N 
HETATM   36  C7  UNL     1      21.682  15.629  41.928  1.00  0.00     0.197 C 
HETATM   37  N4  UNL     1      20.820  14.618  42.433  1.00  0.00    -0.067 NA
HETATM   38  N5  UNL     1      21.866  16.802  42.694  1.00  0.00    -0.067 NA
ATOM     39  H3  UNL     1      22.075  14.566  40.305  1.00  0.00     0.162 HD
ENDBRANCH   6  35
TORSDOF 10
ENDMDL
MODEL 3
REMARK VINA RESULT: -7.622502732      3.715      8.243
REMARK  10 active torsions:
REMARK  status: ('A' for Active; 'I' for Inactive)
REMARK    1  A    between atoms: O1_2  and  C2_3 
REMARK    2  A    between atoms: C3_7  and  O2_8 
REMARK    3  A    between atoms: O2_8  and  C4_9 
REMARK    4  A    between atoms: C6_14  and  N3_15 
REMARK    5  A    between atoms: C8_20  and  C9_21 
REMARK       I    between atoms: N6_22  and  C10_24 
REMARK       I    between atoms: C10_24  and  N7_26 
REMARK    6  A    between atoms: N7_26  and  C11_28 
REMARK    7  A    between atoms: C11_28  and  C12_29 
REMARK    8  A    between atoms: C12_29  and  C13_30 
REMARK    9  A    between atoms: C13_30  and  N8_31 
REMARK   10  A    between atoms: C15_36  and  O5_38 
ROOT
HETATM    1  C4  UNL     1      24.340  13.554  42.797  1.00  0.00     0.237 C 
HETATM    2  N2  UNL     1      24.469  13.647  44.268  1.00  0.00    -0.332 N 
ATOM      3  H2  UNL     1      25.275  13.384  44.836  1.00  0.00     0.165 HD
HETATM    4  C5  UNL     1      23.240  14.179  44.719  1.00  0.00     0.243 C 
HETATM    5  O3  UNL     1      22.884  14.249  45.910  1.00  0.00    -0.271 OA
HETATM    6  C6  UNL     1      22.454  14.633  43.551  1.00  0.00     0.189 C 
HETATM    7  C8  UNL     1      23.633  14.902  42.577  1.00  0.00     0.105 C 
ENDROOT
BRANCH   7   8
HETATM    8  C9  UNL     1      23.158  15.103  41.222  1.00  0.00     0.077 C 
HETATM    9  N6  UNL     1      23.167  16.204  40.628  1.00  0.00    -0.322 N 
HETATM   10  C10 UNL     1      23.569  17.494  40.952  1.00  0.00     0.323 C 
ATOM     11  H6  UNL     1      22.790  16.139  39.682  1.00  0.00     0.169 HD
HETATM   12  O4  UNL     1      24.318  18.063  40.076  1.00  0.00    -0.247 OA
HETATM   13  N7  UNL     1      23.236  18.205  42.107  1.00  0.00    -0.322 N 
ATOM     14  H7  UNL     1      22.666  17.659  42.754  1.00  0.00     0.169 HD
BRANCH  13  15
HETATM   15  C11 UNL     1      23.506  19.492  42.579  1.00  0.00     0.067 C 
BRANCH  15  16
HETATM   16  C12 UNL     1      22.527  20.230  43.420  1.00  0.00     0.064 C 
BRANCH  16  17
HETATM   17  C13 UNL     1      21.978  19.472  44.552  1.00  0.00     0.127 C 
BRANCH  17  18
HETATM   18  N8  UNL     1      20.579  19.779  44.821  1.00  0.00    -0.367 N 
HETATM   19  C14 UNL     1      20.079  20.597  45.606  1.00  0.00     0.196 C 
HETATM   20  N9  UNL     1      20.854  21.437  46.438  1.00  0.00    -0.067 NA
HETATM   21  N10 UNL     1      18.640  20.691  45.667  1.00  0.00    -0.067 NA
ATOM     22  H8  UNL     1      19.908  19.237  44.278  1.00  0.00     0.161 HD
ENDBRANCH  17  18
ENDBRANCH  16  17
ENDBRANCH  15  16
ENDBRANCH  13  15
ENDBRANCH   7   8
BRANCH   1  23
HETATM   23  O2  UNL     1      25.532  13.433  42.181  1.00  0.00    -0.331 OA
BRANCH  23  24
HETATM   24  C3  UNL     1      26.077  12.204  42.043  1.00  0.00     0.364 C 
HETATM   25  N1  UNL     1      27.505  12.073  42.270  1.00  0.00    -0.016 N 
HETATM   26  C2  UNL     1      27.499  10.953  41.344  1.00  0.00     0.362 C 
ATOM     27  H12 UNL     1      27.876  11.969  43.214  1.00  0.00     0.283 HD
ATOM     28  H11 UNL     1      28.131  12.865  42.129  1.00  0.00     0.283 HD
HETATM   29  C15 UNL     1      26.270  11.606  40.687  1.00  0.00     0.157 C 
HETATM   30  C16 UNL     1      25.336  10.554  40.217  1.00  0.00     0.055 C 
BRANCH  26  31
HETATM   31  O1  UNL     1      28.622  10.902  40.554  1.00  0.00    -0.362 OA
HETATM   32  C1  UNL     1      28.929   9.591  40.184  1.00  0.00     0.204 C 
ENDBRANCH  26  31
BRANCH  29  33
HETATM   33  O5  UNL     1      26.700  12.451  39.690  1.00  0.00    -0.381 OA
ATOM     34  H5  UNL     1      26.143  12.333  38.929  1.00  0.00     0.211 HD
ENDBRANCH  29  33
ENDBRANCH  23  24
ENDBRANCH   1  23
BRANCH   6  35
HETATM   35  N3  UNL     1      21.625  15.758  43.752  1.00  0.00    -0.353 N 
HETATM   36  C7  UNL     1      20.386  15.658  44.038  1.00  0.00     0.197 C 
HETATM   37  N4  UNL     1      19.630  16.848  44.221  1.00  0.00    -0.067 NA
HETATM   38  N5  UNL     1      19.729  14.414  44.182  1.00  0.00    -0.067 NA
ATOM     39  H3  UNL     1      22.033  16.689  43.665  1.00  0.00     0.162 HD
ENDBRANCH   6  35
TORSDOF 10
ENDMDL
MODEL 4
REMARK VINA RESULT: -7.422084762      3.898      8.688
REMARK  10 active torsions:
REMARK  status: ('A' for Active; 'I' for Inactive)
REMARK    1  A    between atoms: O1_2  and  C2_3 
REMARK    2  A    between atoms: C3_7  and  O2_8 
REMARK    3  A    between atoms: O2_8  and  C4_9 
REMARK    4  A    between atoms: C6_14  and  N3_15 
REMARK    5  A    between atoms: C8_20  and  C9_21 
REMARK       I    between atoms: N6_22  and  C10_24 
REMARK       I    between atoms: C10_24  and  N7_26 
REMARK    6  A    between atoms: N7_26  and  C11_28 
REMARK    7  A    between atoms: C11_28  and  C12_29 
REMARK    8  A    between atoms: C12_29  and  C13_30 
REMARK    9  A    between atoms: C13_30  and  N8_31 
REMARK   10  A    between atoms: C15_36  and  O5_38 
ROOT
HETATM    1  C4  UNL     1      24.398  13.487  42.971  1.00  0.00     0.237 C 
HETATM    2  N2  UNL     1      24.537  13.532  44.443  1.00  0.00    -0.332 N 
ATOM      3  H2  UNL     1      25.344  13.243  44.996  1.00  0.00     0.165 HD
HETATM    4  C5  UNL     1      23.315  14.061  44.919  1.00  0.00     0.243 C 
HETATM    5  O3  UNL     1      22.967  14.095  46.113  1.00  0.00    -0.271 OA
HETATM    6  C6  UNL     1      22.527  14.559  43.770  1.00  0.00     0.189 C 
HETATM    7  C8  UNL     1      23.702  14.849  42.798  1.00  0.00     0.105 C 
ENDROOT
BRANCH   7   8
HETATM    8  C9  UNL     1      23.221  15.098  41.454  1.00  0.00     0.077 C 
HETATM    9  N6  UNL     1      23.140  16.233  40.933  1.00  0.00    -0.322 N 
HETATM   10  C10 UNL     1      23.428  17.528  41.345  1.00  0.00     0.323 C 
ATOM     11  H6  UNL     1      22.776  16.198  39.981  1.00  0.00     0.169 HD
HETATM   12  O4  UNL     1      24.131  18.215  40.518  1.00  0.00    -0.247 OA
HETATM   13  N7  UNL     1      23.027  18.129  42.541  1.00  0.00    -0.322 N 
ATOM     14  H7  UNL     1      22.502  17.496  43.144  1.00  0.00     0.169 HD
BRANCH  13  15
HETATM   15  C11 UNL     1      23.183  19.401  43.099  1.00  0.00     0.067 C 
BRANCH  15  16
HETATM   16  C12 UNL     1      22.061  20.084  43.795  1.00  0.00     0.064 C 
BRANCH  16  17
HETATM   17  C13 UNL     1      21.894  21.506  43.464  1.00  0.00     0.127 C 
BRANCH  17  18
HETATM   18  N8  UNL     1      20.504  21.879  43.235  1.00  0.00    -0.367 N 
HETATM   19  C14 UNL     1      19.972  22.998  43.205  1.00  0.00     0.196 C 
HETATM   20  N9  UNL     1      20.695  24.197  43.406  1.00  0.00    -0.067 NA
HETATM   21  N10 UNL     1      18.553  23.073  42.954  1.00  0.00    -0.067 NA
ATOM     22  H8  UNL     1      19.869  21.097  43.073  1.00  0.00     0.161 HD
ENDBRANCH  17  18
ENDBRANCH  16  17
ENDBRANCH  15  16
ENDBRANCH  13  15
ENDBRANCH   7   8
BRANCH   1  23
HETATM   23  O2  UNL     1      25.585  13.375  42.343  1.00  0.00    -0.331 OA
BRANCH  23  24
HETATM   24  C3  UNL     1      26.100  12.144  42.128  1.00  0.00     0.364 C 
HETATM   25  N1  UNL     1      27.525  11.966  42.336  1.00  0.00    -0.016 N 
HETATM   26  C2  UNL     1      27.486  10.904  41.346  1.00  0.00     0.362 C 
ATOM     27  H12 UNL     1      27.899  11.797  43.270  1.00  0.00     0.283 HD
ATOM     28  H11 UNL     1      28.170  12.750  42.238  1.00  0.00     0.283 HD
HETATM   29  C15 UNL     1      26.269  11.624  40.738  1.00  0.00     0.157 C 
HETATM   30  C16 UNL     1      25.308  10.624  40.214  1.00  0.00     0.055 C 
BRANCH  26  31
HETATM   31  O1  UNL     1      28.603  10.873  40.546  1.00  0.00    -0.362 OA
HETATM   32  C1  UNL     1      28.912   9.571  40.148  1.00  0.00     0.204 C 
ENDBRANCH  26  31
BRANCH  29  33
HETATM   33  O5  UNL     1      26.713  12.517  39.790  1.00  0.00    -0.381 OA
ATOM     34  H5  UNL     1      26.650  13.395  40.146  1.00  0.00     0.211 HD
ENDBRANCH  29  33
ENDBRANCH  23  24
ENDBRANCH   1  23
BRANCH   6  35
HETATM   35  N3  UNL     1      21.710  15.685  44.013  1.00  0.00    -0.353 N 
HETATM   36  C7  UNL     1      20.452  15.594  44.208  1.00  0.00     0.197 C 
HETATM   37  N4  UNL     1      19.711  16.784  44.443  1.00  0.00    -0.067 NA
HETATM   38  N5  UNL     1      19.762  14.360  44.202  1.00  0.00    -0.067 NA
ATOM     39  H3  UNL     1      22.142  16.609  44.033  1.00  0.00     0.162 HD
ENDBRANCH   6  35
TORSDOF 10
ENDMDL
MODEL 5
REMARK VINA RESULT: -7.358596188      3.191      7.169
REMARK  10 active torsions:
REMARK  status: ('A' for Active; 'I' for Inactive)
REMARK    1  A    between atoms: O1_2  and  C2_3 
REMARK    2  A    between atoms: C3_7  and  O2_8 
REMARK    3  A    between atoms: O2_8  and  C4_9 
REMARK    4  A    between atoms: C6_14  and  N3_15 
REMARK    5  A    between atoms: C8_20  and  C9_21 
REMARK       I    between atoms: N6_22  and  C10_24 
REMARK       I    between atoms: C10_24  and  N7_26 
REMARK    6  A    between atoms: N7_26  and  C11_28 
REMARK    7  A    between atoms: C11_28  and  C12_29 
REMARK    8  A    between atoms: C12_29  and  C13_30 
REMARK    9  A    between atoms: C13_30  and  N8_31 
REMARK   10  A    between atoms: C15_36  and  O5_38 
ROOT
HETATM    1  C4  UNL     1      22.840  14.030  43.216  1.00  0.00     0.237 C 
HETATM    2  N2  UNL     1      23.343  14.194  44.598  1.00  0.00    -0.332 N 
ATOM      3  H2  UNL     1      24.269  13.952  44.951  1.00  0.00     0.165 HD
HETATM    4  C5  UNL     1      22.268  14.756  45.324  1.00  0.00     0.243 C 
HETATM    5  O3  UNL     1      22.230  14.886  46.561  1.00  0.00    -0.271 OA
HETATM    6  C6  UNL     1      21.206  15.159  44.376  1.00  0.00     0.189 C 
HETATM    7  C8  UNL     1      22.093  15.372  43.120  1.00  0.00     0.105 C 
ENDROOT
BRANCH   7   8
HETATM    8  C9  UNL     1      21.285  15.511  41.925  1.00  0.00     0.077 C 
HETATM    9  N6  UNL     1      21.749  15.625  40.768  1.00  0.00    -0.322 N 
HETATM   10  C10 UNL     1      23.025  15.661  40.219  1.00  0.00     0.323 C 
ATOM     11  H6  UNL     1      21.018  15.713  40.063  1.00  0.00     0.169 HD
HETATM   12  O4  UNL     1      23.204  14.877  39.216  1.00  0.00    -0.247 OA
HETATM   13  N7  UNL     1      24.094  16.452  40.647  1.00  0.00    -0.322 N 
ATOM     14  H7  UNL     1      23.864  17.015  41.466  1.00  0.00     0.169 HD
BRANCH  13  15
HETATM   15  C11 UNL     1      25.406  16.649  40.207  1.00  0.00     0.067 C 
BRANCH  15  16
HETATM   16  C12 UNL     1      25.705  17.472  39.006  1.00  0.00     0.064 C 
BRANCH  16  17
HETATM   17  C13 UNL     1      24.807  18.614  38.791  1.00  0.00     0.127 C 
BRANCH  17  18
HETATM   18  N8  UNL     1      24.364  18.740  37.408  1.00  0.00    -0.367 N 
HETATM   19  C14 UNL     1      23.291  18.414  36.881  1.00  0.00     0.196 C 
HETATM   20  N9  UNL     1      22.231  17.817  37.602  1.00  0.00    -0.067 NA
HETATM   21  N10 UNL     1      23.123  18.659  35.469  1.00  0.00    -0.067 NA
ATOM     22  H8  UNL     1      25.044  19.162  36.776  1.00  0.00     0.161 HD
ENDBRANCH  17  18
ENDBRANCH  16  17
ENDBRANCH  15  16
ENDBRANCH  13  15
ENDBRANCH   7   8
BRANCH   1  23
HETATM   23  O2  UNL     1      23.834  13.871  42.321  1.00  0.00    -0.331 OA
BRANCH  23  24
HETATM   24  C3  UNL     1      24.595  12.756  42.378  1.00  0.00     0.364 C 
HETATM   25  N1  UNL     1      25.828  12.823  43.141  1.00  0.00    -0.016 N 
HETATM   26  C2  UNL     1      26.370  11.802  42.261  1.00  0.00     0.362 C 
ATOM     27  H12 UNL     1      25.825  12.694  44.152  1.00  0.00     0.283 HD
ATOM     28  H11 UNL     1      26.313  13.711  43.273  1.00  0.00     0.283 HD
HETATM   29  C15 UNL     1      25.391  12.317  41.191  1.00  0.00     0.157 C 
HETATM   30  C16 UNL     1      24.904  11.181  40.371  1.00  0.00     0.055 C 
BRANCH  26  31
HETATM   31  O1  UNL     1      27.700  11.992  41.970  1.00  0.00    -0.362 OA
HETATM   32  C1  UNL     1      28.365  10.776  41.798  1.00  0.00     0.204 C 
ENDBRANCH  26  31
BRANCH  29  33
HETATM   33  O5  UNL     1      26.012  13.302  40.460  1.00  0.00    -0.381 OA
ATOM     34  H5  UNL     1      26.299  12.933  39.633  1.00  0.00     0.211 HD
ENDBRANCH  29  33
ENDBRANCH  23  24
ENDBRANCH   1  23
BRANCH   6  35
HETATM   35  N3  UNL     1      20.451  16.300  44.729  1.00  0.00    -0.353 N 
HETATM   36  C7  UNL     1      19.239  16.461  44.367  1.00  0.00     0.197 C 
HETATM   37  N4  UNL     1      18.560  17.644  44.768  1.00  0.00    -0.067 NA
HETATM   38  N5  UNL     1      18.539  15.516  43.582  1.00  0.00    -0.067 NA
ATOM     39  H3  UNL     1      20.893  17.023  45.296  1.00  0.00     0.162 HD
ENDBRANCH   6  35
TORSDOF 10
ENDMDL
