MODEL 1
REMARK VINA RESULT: -7.430723144      0.000      0.000
REMARK  12 active torsions:
REMARK  status: ('A' for Active; 'I' for Inactive)
REMARK       I    between atoms: C1_4  and  N3_6 
REMARK    1  A    between atoms: N4_9  and  S1_10 
REMARK    2  A    between atoms: S1_10  and  C4_13 
REMARK    3  A    between atoms: C4_13  and  C5_14 
REMARK    4  A    between atoms: C5_14  and  N5_15 
REMARK    5  A    between atoms: N5_15  and  C6_17 
REMARK    6  A    between atoms: C6_17  and  C7_22 
REMARK    7  A    between atoms: N6_18  and  O3_20 
REMARK    8  A    between atoms: N7_26  and  C11_27 
REMARK    9  A    between atoms: C11_27  and  C12_28 
REMARK   10  A    between atoms: C12_28  and  C13_29 
REMARK   11  A    between atoms: C13_29  and  N8_30 
REMARK   12  A    between atoms: C15_35  and  O4_36 
ROOT
HETATM    1  N5  UNL     1      20.789  19.705  44.378  1.00  0.00    -0.376 N 
ATOM      2  H5  UNL     1      21.059  19.982  43.434  1.00  0.00     0.160 HD
ENDROOT
BRANCH   1   3
HETATM    3  C5  UNL     1      21.069  18.365  44.808  1.00  0.00     0.137 C 
BRANCH   3   4
HETATM    4  C4  UNL     1      20.023  17.357  44.401  1.00  0.00     0.177 C 
BRANCH   4   5
HETATM    5  S1  UNL     1      20.681  15.706  44.436  1.00  0.00     0.216 S 
HETATM    6  O1  UNL     1      19.774  14.724  43.748  1.00  0.00    -0.211 OA
HETATM    7  O2  UNL     1      20.809  15.210  45.865  1.00  0.00    -0.211 OA
BRANCH   5   8
HETATM    8  N4  UNL     1      22.242  15.600  43.738  1.00  0.00    -0.163 NA
HETATM    9  C3  UNL     1      22.314  16.075  42.380  1.00  0.00     0.132 C 
HETATM   10  C2  UNL     1      22.841  14.918  41.561  1.00  0.00     0.145 C 
HETATM   11  N3  UNL     1      23.582  14.157  42.538  1.00  0.00    -0.315 N 
HETATM   12  C1  UNL     1      24.798  13.466  42.338  1.00  0.00     0.187 C 
HETATM   13  C15 UNL     1      22.801  14.264  43.757  1.00  0.00     0.318 C 
HETATM   14  N1  UNL     1      25.951  13.948  42.719  1.00  0.00    -0.374 N 
HETATM   15  N2  UNL     1      24.860  12.193  41.706  1.00  0.00    -0.064 NA
ATOM     16  H12 UNL     1      26.828  13.449  42.574  1.00  0.00     0.158 HD
ATOM     17  H11 UNL     1      25.906  14.861  43.172  1.00  0.00     0.158 HD
BRANCH  13  18
HETATM   18  O4  UNL     1      23.611  14.190  44.886  1.00  0.00    -0.363 OA
ATOM     19  H4  UNL     1      24.312  14.830  44.851  1.00  0.00     0.213 HD
ENDBRANCH  13  18
ENDBRANCH   5   8
ENDBRANCH   4   5
ENDBRANCH   3   4
ENDBRANCH   1   3
BRANCH   1  20
HETATM   20  C6  UNL     1      20.153  20.658  45.210  1.00  0.00     0.120 C 
HETATM   21  N6  UNL     1      18.865  20.647  45.246  1.00  0.00    -0.255 N 
ATOM     22  H6  UNL     1      18.378  19.956  44.674  1.00  0.00     0.195 HD
BRANCH  21  23
HETATM   23  O3  UNL     1      18.106  21.504  46.002  1.00  0.00    -0.288 OA
ATOM     24  H3  UNL     1      17.776  21.302  46.869  1.00  0.00     0.244 HD
ENDBRANCH  21  23
BRANCH  20  25
HETATM   25  C7  UNL     1      20.877  21.651  46.016  1.00  0.00     0.157 C 
HETATM   26  C8  UNL     1      21.777  21.071  47.070  1.00  0.00     0.038 C 
HETATM   27  C9  UNL     1      23.157  21.351  46.542  1.00  0.00     0.047 C 
HETATM   28  C10 UNL     1      22.974  22.632  45.769  1.00  0.00     0.064 C 
HETATM   29  N7  UNL     1      21.650  22.592  45.295  1.00  0.00    -0.362 N 
BRANCH  29  30
HETATM   30  C11 UNL     1      21.385  22.738  43.927  1.00  0.00     0.069 C 
BRANCH  30  31
HETATM   31  C12 UNL     1      20.647  24.019  43.538  1.00  0.00     0.089 C 
BRANCH  31  32
HETATM   32  C13 UNL     1      19.346  23.588  42.907  1.00  0.00     0.068 C 
BRANCH  32  33
HETATM   33  N8  UNL     1      18.271  23.669  43.814  1.00  0.00    -0.346 N 
HETATM   34  C14 UNL     1      17.072  24.044  43.742  1.00  0.00     0.200 C 
HETATM   35  N9  UNL     1      16.420  24.537  42.585  1.00  0.00    -0.067 NA
HETATM   36  N10 UNL     1      16.296  23.952  44.972  1.00  0.00    -0.067 NA
ATOM     37  H8  UNL     1      18.525  23.350  44.749  1.00  0.00     0.167 HD
ENDBRANCH  32  33
ENDBRANCH  31  32
ENDBRANCH  30  31
ENDBRANCH  29  30
ENDBRANCH  20  25
ENDBRANCH   1  20
TORSDOF 12
ENDMDL
MODEL 2
REMARK VINA RESULT: -7.271610111      2.473      9.987
REMARK  12 active torsions:
REMARK  status: ('A' for Active; 'I' for Inactive)
REMARK       I    between atoms: C1_4  and  N3_6 
REMARK    1  A    between atoms: N4_9  and  S1_10 
REMARK    2  A    between atoms: S1_10  and  C4_13 
REMARK    3  A    between atoms: C4_13  and  C5_14 
REMARK    4  A    between atoms: C5_14  and  N5_15 
REMARK    5  A    between atoms: N5_15  and  C6_17 
REMARK    6  A    between atoms: C6_17  and  C7_22 
REMARK    7  A    between atoms: N6_18  and  O3_20 
REMARK    8  A    between atoms: N7_26  and  C11_27 
REMARK    9  A    between atoms: C11_27  and  C12_28 
REMARK   10  A    between atoms: C12_28  and  C13_29 
REMARK   11  A    between atoms: C13_29  and  N8_30 
REMARK   12  A    between atoms: C15_35  and  O4_36 
ROOT
HETATM    1  N5  UNL     1      22.267  15.847  44.115  1.00  0.00    -0.376 N 
ATOM      2  H5  UNL     1      23.217  16.216  44.142  1.00  0.00     0.160 HD
ENDROOT
BRANCH   1   3
HETATM    3  C5  UNL     1      21.257  16.488  44.907  1.00  0.00     0.137 C 
BRANCH   3   4
HETATM    4  C4  UNL     1      20.896  17.875  44.438  1.00  0.00     0.177 C 
BRANCH   4   5
HETATM    5  S1  UNL     1      22.301  18.961  44.519  1.00  0.00     0.216 S 
HETATM    6  O1  UNL     1      23.161  18.859  43.290  1.00  0.00    -0.211 OA
HETATM    7  O2  UNL     1      23.204  18.584  45.679  1.00  0.00    -0.211 OA
BRANCH   5   8
HETATM    8  N4  UNL     1      21.860  20.600  44.753  1.00  0.00    -0.163 NA
HETATM    9  C3  UNL     1      20.870  20.802  45.780  1.00  0.00     0.132 C 
HETATM   10  C2  UNL     1      19.715  21.513  45.111  1.00  0.00     0.145 C 
HETATM   11  N3  UNL     1      20.359  22.183  44.007  1.00  0.00    -0.315 N 
HETATM   12  C1  UNL     1      20.056  23.464  43.493  1.00  0.00     0.187 C 
HETATM   13  C15 UNL     1      21.376  21.252  43.554  1.00  0.00     0.318 C 
HETATM   14  N1  UNL     1      20.771  24.521  43.773  1.00  0.00    -0.374 N 
HETATM   15  N2  UNL     1      18.949  23.700  42.631  1.00  0.00    -0.064 NA
ATOM     16  H12 UNL     1      20.552  25.445  43.402  1.00  0.00     0.158 HD
ATOM     17  H11 UNL     1      21.565  24.351  44.391  1.00  0.00     0.158 HD
BRANCH  13  18
HETATM   18  O4  UNL     1      22.464  21.919  43.001  1.00  0.00    -0.363 OA
ATOM     19  H4  UNL     1      22.500  21.801  42.059  1.00  0.00     0.213 HD
ENDBRANCH  13  18
ENDBRANCH   5   8
ENDBRANCH   4   5
ENDBRANCH   3   4
ENDBRANCH   1   3
BRANCH   1  20
HETATM   20  C6  UNL     1      21.997  14.724  43.295  1.00  0.00     0.120 C 
HETATM   21  N6  UNL     1      21.467  13.693  43.859  1.00  0.00    -0.255 N 
ATOM     22  H6  UNL     1      21.273  13.745  44.860  1.00  0.00     0.195 HD
BRANCH  21  23
HETATM   23  O3  UNL     1      21.147  12.533  43.203  1.00  0.00    -0.288 OA
ATOM     24  H3  UNL     1      20.354  12.406  42.696  1.00  0.00     0.244 HD
ENDBRANCH  21  23
BRANCH  20  25
HETATM   25  C7  UNL     1      22.297  14.670  41.857  1.00  0.00     0.157 C 
HETATM   26  C8  UNL     1      21.900  15.897  41.085  1.00  0.00     0.038 C 
HETATM   27  C9  UNL     1      23.218  16.535  40.744  1.00  0.00     0.047 C 
HETATM   28  C10 UNL     1      24.148  15.356  40.623  1.00  0.00     0.064 C 
HETATM   29  N7  UNL     1      23.641  14.392  41.513  1.00  0.00    -0.362 N 
BRANCH  29  30
HETATM   30  C11 UNL     1      24.465  13.843  42.505  1.00  0.00     0.069 C 
BRANCH  30  31
HETATM   31  C12 UNL     1      24.763  12.351  42.356  1.00  0.00     0.089 C 
BRANCH  31  32
HETATM   32  C13 UNL     1      25.250  12.151  40.942  1.00  0.00     0.068 C 
BRANCH  32  33
HETATM   33  N8  UNL     1      26.595  11.735  40.904  1.00  0.00    -0.346 N 
HETATM   34  C14 UNL     1      27.190  10.673  40.582  1.00  0.00     0.200 C 
HETATM   35  N9  UNL     1      26.579   9.483  40.118  1.00  0.00    -0.067 NA
HETATM   36  N10 UNL     1      28.642  10.690  40.703  1.00  0.00    -0.067 NA
ATOM     37  H8  UNL     1      27.238  12.465  41.209  1.00  0.00     0.167 HD
ENDBRANCH  32  33
ENDBRANCH  31  32
ENDBRANCH  30  31
ENDBRANCH  29  30
ENDBRANCH  20  25
ENDBRANCH   1  20
TORSDOF 12
ENDMDL
MODEL 3
REMARK VINA RESULT: -7.180378597      2.386      8.424
REMARK  12 active torsions:
REMARK  status: ('A' for Active; 'I' for Inactive)
REMARK       I    between atoms: C1_4  and  N3_6 
REMARK    1  A    between atoms: N4_9  and  S1_10 
REMARK    2  A    between atoms: S1_10  and  C4_13 
REMARK    3  A    between atoms: C4_13  and  C5_14 
REMARK    4  A    between atoms: C5_14  and  N5_15 
REMARK    5  A    between atoms: N5_15  and  C6_17 
REMARK    6  A    between atoms: C6_17  and  C7_22 
REMARK    7  A    between atoms: N6_18  and  O3_20 
REMARK    8  A    between atoms: N7_26  and  C11_27 
REMARK    9  A    between atoms: C11_27  and  C12_28 
REMARK   10  A    between atoms: C12_28  and  C13_29 
REMARK   11  A    between atoms: C13_29  and  N8_30 
REMARK   12  A    between atoms: C15_35  and  O4_36 
ROOT
HETATM    1  N5  UNL     1      22.436  14.193  42.188  1.00  0.00    -0.376 N 
ATOM      2  H5  UNL     1      22.506  13.842  41.233  1.00  0.00     0.160 HD
ENDROOT
BRANCH   1   3
HETATM    3  C5  UNL     1      21.305  15.002  42.541  1.00  0.00     0.137 C 
BRANCH   3   4
HETATM    4  C4  UNL     1      21.572  16.486  42.498  1.00  0.00     0.177 C 
BRANCH   4   5
HETATM    5  S1  UNL     1      21.198  17.247  44.059  1.00  0.00     0.216 S 
HETATM    6  O1  UNL     1      22.115  16.771  45.151  1.00  0.00    -0.211 OA
HETATM    7  O2  UNL     1      19.798  16.877  44.515  1.00  0.00    -0.211 OA
BRANCH   5   8
HETATM    8  N4  UNL     1      21.256  18.958  43.994  1.00  0.00    -0.163 NA
HETATM    9  C3  UNL     1      22.557  19.491  43.678  1.00  0.00     0.132 C 
HETATM   10  C2  UNL     1      22.921  20.409  44.824  1.00  0.00     0.145 C 
HETATM   11  N3  UNL     1      21.627  20.797  45.335  1.00  0.00    -0.315 N 
HETATM   12  C1  UNL     1      21.255  22.063  45.840  1.00  0.00     0.187 C 
HETATM   13  C15 UNL     1      20.810  19.604  45.211  1.00  0.00     0.318 C 
HETATM   14  N1  UNL     1      20.571  22.926  45.136  1.00  0.00    -0.374 N 
HETATM   15  N2  UNL     1      21.595  22.495  47.152  1.00  0.00    -0.064 NA
ATOM     16  H12 UNL     1      20.303  23.840  45.500  1.00  0.00     0.158 HD
ATOM     17  H11 UNL     1      20.327  22.617  44.195  1.00  0.00     0.158 HD
BRANCH  13  18
HETATM   18  O4  UNL     1      19.470  19.926  45.019  1.00  0.00    -0.363 OA
ATOM     19  H4  UNL     1      19.090  19.419  44.311  1.00  0.00     0.213 HD
ENDBRANCH  13  18
ENDBRANCH   5   8
ENDBRANCH   4   5
ENDBRANCH   3   4
ENDBRANCH   1   3
BRANCH   1  20
HETATM   20  C6  UNL     1      23.457  13.862  43.111  1.00  0.00     0.120 C 
HETATM   21  N6  UNL     1      23.238  14.122  44.354  1.00  0.00    -0.255 N 
ATOM     22  H6  UNL     1      22.346  14.550  44.602  1.00  0.00     0.195 HD
BRANCH  21  23
HETATM   23  O3  UNL     1      24.127  13.860  45.366  1.00  0.00    -0.288 OA
ATOM     24  H3  UNL     1      24.042  13.139  45.978  1.00  0.00     0.244 HD
ENDBRANCH  21  23
BRANCH  20  25
HETATM   25  C7  UNL     1      24.739  13.255  42.728  1.00  0.00     0.157 C 
HETATM   26  C8  UNL     1      24.629  11.898  42.091  1.00  0.00     0.038 C 
HETATM   27  C9  UNL     1      24.987  12.159  40.654  1.00  0.00     0.047 C 
HETATM   28  C10 UNL     1      25.960  13.306  40.746  1.00  0.00     0.064 C 
HETATM   29  N7  UNL     1      25.567  14.033  41.884  1.00  0.00    -0.362 N 
BRANCH  29  30
HETATM   30  C11 UNL     1      25.290  15.403  41.786  1.00  0.00     0.069 C 
BRANCH  30  31
HETATM   31  C12 UNL     1      25.256  15.963  40.364  1.00  0.00     0.089 C 
BRANCH  31  32
HETATM   32  C13 UNL     1      24.468  17.249  40.430  1.00  0.00     0.068 C 
BRANCH  32  33
HETATM   33  N8  UNL     1      23.585  17.379  39.340  1.00  0.00    -0.346 N 
HETATM   34  C14 UNL     1      22.711  16.644  38.810  1.00  0.00     0.200 C 
HETATM   35  N9  UNL     1      22.352  15.339  39.230  1.00  0.00    -0.067 NA
HETATM   36  N10 UNL     1      22.014  17.205  37.660  1.00  0.00    -0.067 NA
ATOM     37  H8  UNL     1      23.674  18.280  38.871  1.00  0.00     0.167 HD
ENDBRANCH  32  33
ENDBRANCH  31  32
ENDBRANCH  30  31
ENDBRANCH  29  30
ENDBRANCH  20  25
ENDBRANCH   1  20
TORSDOF 12
ENDMDL
MODEL 4
REMARK VINA RESULT: -7.114294684      2.304      9.934
REMARK  12 active torsions:
REMARK  status: ('A' for Active; 'I' for Inactive)
REMARK       I    between atoms: C1_4  and  N3_6 
REMARK    1  A    between atoms: N4_9  and  S1_10 
REMARK    2  A    between atoms: S1_10  and  C4_13 
REMARK    3  A    between atoms: C4_13  and  C5_14 
REMARK    4  A    between atoms: C5_14  and  N5_15 
REMARK    5  A    between atoms: N5_15  and  C6_17 
REMARK    6  A    between atoms: C6_17  and  C7_22 
REMARK    7  A    between atoms: N6_18  and  O3_20 
REMARK    8  A    between atoms: N7_26  and  C11_27 
REMARK    9  A    between atoms: C11_27  and  C12_28 
REMARK   10  A    between atoms: C12_28  and  C13_29 
REMARK   11  A    between atoms: C13_29  and  N8_30 
REMARK   12  A    between atoms: C15_35  and  O4_36 
ROOT
HETATM    1  N5  UNL     1      22.660  15.509  44.363  1.00  0.00    -0.376 N 
ATOM      2  H5  UNL     1      23.672  15.635  44.342  1.00  0.00     0.160 HD
ENDROOT
BRANCH   1   3
HETATM    3  C5  UNL     1      21.880  16.344  45.231  1.00  0.00     0.137 C 
BRANCH   3   4
HETATM    4  C4  UNL     1      21.165  17.468  44.522  1.00  0.00     0.177 C 
BRANCH   4   5
HETATM    5  S1  UNL     1      22.185  18.921  44.439  1.00  0.00     0.216 S 
HETATM    6  O1  UNL     1      23.103  18.896  43.249  1.00  0.00    -0.211 OA
HETATM    7  O2  UNL     1      23.094  19.008  45.651  1.00  0.00    -0.211 OA
BRANCH   5   8
HETATM    8  N4  UNL     1      21.273  20.370  44.405  1.00  0.00    -0.163 NA
HETATM    9  C3  UNL     1      22.066  21.561  44.229  1.00  0.00     0.132 C 
HETATM   10  C2  UNL     1      21.762  22.443  45.419  1.00  0.00     0.145 C 
HETATM   11  N3  UNL     1      20.441  22.005  45.802  1.00  0.00    -0.315 N 
HETATM   12  C1  UNL     1      19.383  22.808  46.285  1.00  0.00     0.187 C 
HETATM   13  C15 UNL     1      20.450  20.571  45.579  1.00  0.00     0.318 C 
HETATM   14  N1  UNL     1      18.387  23.187  45.529  1.00  0.00    -0.374 N 
HETATM   15  N2  UNL     1      19.322  23.264  47.631  1.00  0.00    -0.064 NA
ATOM     16  H12 UNL     1      17.624  23.766  45.878  1.00  0.00     0.158 HD
ATOM     17  H11 UNL     1      18.432  22.859  44.564  1.00  0.00     0.158 HD
BRANCH  13  18
HETATM   18  O4  UNL     1      19.181  20.100  45.258  1.00  0.00    -0.363 OA
ATOM     19  H4  UNL     1      19.194  19.169  45.073  1.00  0.00     0.213 HD
ENDBRANCH  13  18
ENDBRANCH   5   8
ENDBRANCH   4   5
ENDBRANCH   3   4
ENDBRANCH   1   3
BRANCH   1  20
HETATM   20  C6  UNL     1      22.081  14.516  43.536  1.00  0.00     0.120 C 
HETATM   21  N6  UNL     1      21.472  13.541  44.118  1.00  0.00    -0.255 N 
ATOM     22  H6  UNL     1      21.441  13.539  45.138  1.00  0.00     0.195 HD
BRANCH  21  23
HETATM   23  O3  UNL     1      20.862  12.506  43.456  1.00  0.00    -0.288 OA
ATOM     24  H3  UNL     1      21.325  11.777  43.062  1.00  0.00     0.244 HD
ENDBRANCH  21  23
BRANCH  20  25
HETATM   25  C7  UNL     1      22.148  14.536  42.067  1.00  0.00     0.157 C 
HETATM   26  C8  UNL     1      21.773  15.848  41.438  1.00  0.00     0.038 C 
HETATM   27  C9  UNL     1      23.084  16.374  40.925  1.00  0.00     0.047 C 
HETATM   28  C10 UNL     1      23.850  15.121  40.590  1.00  0.00     0.064 C 
HETATM   29  N7  UNL     1      23.384  14.151  41.496  1.00  0.00    -0.362 N 
BRANCH  29  30
HETATM   30  C11 UNL     1      24.286  13.454  42.311  1.00  0.00     0.069 C 
BRANCH  30  31
HETATM   31  C12 UNL     1      25.764  13.744  42.048  1.00  0.00     0.089 C 
BRANCH  31  32
HETATM   32  C13 UNL     1      26.549  12.774  42.896  1.00  0.00     0.068 C 
BRANCH  32  33
HETATM   33  N8  UNL     1      27.482  12.045  42.134  1.00  0.00    -0.346 N 
HETATM   34  C14 UNL     1      27.415  11.291  41.128  1.00  0.00     0.200 C 
HETATM   35  N9  UNL     1      26.236  10.945  40.423  1.00  0.00    -0.067 NA
HETATM   36  N10 UNL     1      28.677  10.733  40.659  1.00  0.00    -0.067 NA
ATOM     37  H8  UNL     1      28.436  12.154  42.477  1.00  0.00     0.167 HD
ENDBRANCH  32  33
ENDBRANCH  31  32
ENDBRANCH  30  31
ENDBRANCH  29  30
ENDBRANCH  20  25
ENDBRANCH   1  20
TORSDOF 12
ENDMDL
MODEL 5
REMARK VINA RESULT: -7.098576823      4.736      8.414
REMARK  12 active torsions:
REMARK  status: ('A' for Active; 'I' for Inactive)
REMARK       I    between atoms: C1_4  and  N3_6 
REMARK    1  A    between atoms: N4_9  and  S1_10 
REMARK    2  A    between atoms: S1_10  and  C4_13 
REMARK    3  A    between atoms: C4_13  and  C5_14 
REMARK    4  A    between atoms: C5_14  and  N5_15 
REMARK    5  A    between atoms: N5_15  and  C6_17 
REMARK    6  A    between atoms: C6_17  and  C7_22 
REMARK    7  A    between atoms: N6_18  and  O3_20 
REMARK    8  A    between atoms: N7_26  and  C11_27 
REMARK    9  A    between atoms: C11_27  and  C12_28 
REMARK   10  A    between atoms: C12_28  and  C13_29 
REMARK   11  A    between atoms: C13_29  and  N8_30 
REMARK   12  A    between atoms: C15_35  and  O4_36 
ROOT
HETATM    1  N5  UNL     1      22.381  17.559  42.644  1.00  0.00    -0.376 N 
ATOM      2  H5  UNL     1      21.574  17.310  42.073  1.00  0.00     0.160 HD
ENDROOT
BRANCH   1   3
HETATM    3  C5  UNL     1      23.630  17.829  41.990  1.00  0.00     0.137 C 
BRANCH   3   4
HETATM    4  C4  UNL     1      24.293  16.609  41.401  1.00  0.00     0.177 C 
BRANCH   4   5
HETATM    5  S1  UNL     1      23.304  15.913  40.098  1.00  0.00     0.216 S 
HETATM    6  O1  UNL     1      21.833  16.017  40.392  1.00  0.00    -0.211 OA
HETATM    7  O2  UNL     1      23.583  14.428  39.947  1.00  0.00    -0.211 OA
BRANCH   5   8
HETATM    8  N4  UNL     1      23.616  16.628  38.574  1.00  0.00    -0.163 NA
HETATM    9  C3  UNL     1      24.992  17.009  38.373  1.00  0.00     0.132 C 
HETATM   10  C2  UNL     1      24.974  18.490  38.070  1.00  0.00     0.145 C 
HETATM   11  N3  UNL     1      23.652  18.681  37.523  1.00  0.00    -0.315 N 
HETATM   12  C1  UNL     1      23.282  19.543  36.467  1.00  0.00     0.187 C 
HETATM   13  C15 UNL     1      22.803  17.794  38.297  1.00  0.00     0.318 C 
HETATM   14  N1  UNL     1      23.073  19.115  35.250  1.00  0.00    -0.374 N 
HETATM   15  N2  UNL     1      23.108  20.944  36.647  1.00  0.00    -0.064 NA
ATOM     16  H12 UNL     1      22.806  19.737  34.488  1.00  0.00     0.158 HD
ATOM     17  H11 UNL     1      23.197  18.110  35.121  1.00  0.00     0.158 HD
BRANCH  13  18
HETATM   18  O4  UNL     1      21.718  17.350  37.548  1.00  0.00    -0.363 OA
ATOM     19  H4  UNL     1      21.109  18.057  37.367  1.00  0.00     0.213 HD
ENDBRANCH  13  18
ENDBRANCH   5   8
ENDBRANCH   4   5
ENDBRANCH   3   4
ENDBRANCH   1   3
BRANCH   1  20
HETATM   20  C6  UNL     1      22.225  17.624  44.050  1.00  0.00     0.120 C 
HETATM   21  N6  UNL     1      23.010  18.415  44.697  1.00  0.00    -0.255 N 
ATOM     22  H6  UNL     1      23.697  18.947  44.162  1.00  0.00     0.195 HD
BRANCH  21  23
HETATM   23  O3  UNL     1      22.983  18.588  46.057  1.00  0.00    -0.288 OA
ATOM     24  H3  UNL     1      22.432  19.219  46.505  1.00  0.00     0.244 HD
ENDBRANCH  21  23
BRANCH  20  25
HETATM   25  C7  UNL     1      21.235  16.837  44.799  1.00  0.00     0.157 C 
HETATM   26  C8  UNL     1      19.804  17.110  44.429  1.00  0.00     0.038 C 
HETATM   27  C9  UNL     1      19.389  15.860  43.705  1.00  0.00     0.047 C 
HETATM   28  C10 UNL     1      20.217  14.789  44.366  1.00  0.00     0.064 C 
HETATM   29  N7  UNL     1      21.402  15.432  44.765  1.00  0.00    -0.362 N 
BRANCH  29  30
HETATM   30  C11 UNL     1      22.648  14.937  44.357  1.00  0.00     0.069 C 
BRANCH  30  31
HETATM   31  C12 UNL     1      22.597  13.813  43.321  1.00  0.00     0.089 C 
BRANCH  31  32
HETATM   32  C13 UNL     1      24.012  13.314  43.161  1.00  0.00     0.068 C 
BRANCH  32  33
HETATM   33  N8  UNL     1      24.138  12.434  42.068  1.00  0.00    -0.346 N 
HETATM   34  C14 UNL     1      25.087  12.060  41.332  1.00  0.00     0.200 C 
HETATM   35  N9  UNL     1      26.436  12.482  41.431  1.00  0.00    -0.067 NA
HETATM   36  N10 UNL     1      24.749  11.102  40.286  1.00  0.00    -0.067 NA
ATOM     37  H8  UNL     1      23.252  11.998  41.815  1.00  0.00     0.167 HD
ENDBRANCH  32  33
ENDBRANCH  31  32
ENDBRANCH  30  31
ENDBRANCH  29  30
ENDBRANCH  20  25
ENDBRANCH   1  20
TORSDOF 12
ENDMDL
