MODEL 1
REMARK VINA RESULT: -7.722576006      0.000      0.000
REMARK  15 active torsions:
REMARK  status: ('A' for Active; 'I' for Inactive)
REMARK    1  A    between atoms: N1_1  and  C1_4 
REMARK    2  A    between atoms: C2_7  and  N3_8 
REMARK    3  A    between atoms: C4_11  and  C5_12 
REMARK       I    between atoms: C5_12  and  N4_14 
REMARK    4  A    between atoms: N4_14  and  N5_16 
REMARK    5  A    between atoms: C6_19  and  O3_20 
REMARK    6  A    between atoms: N6_22  and  N7_23 
REMARK    7  A    between atoms: C8_31  and  C9_32 
REMARK    8  A    between atoms: C9_32  and  C10_34 
REMARK    9  A    between atoms: C10_34  and  N10_35 
REMARK   10  A    between atoms: C11_40  and  C12_41 
REMARK   11  A    between atoms: C12_41  and  O5_42 
REMARK   12  A    between atoms: N13_46  and  C15_47 
REMARK   13  A    between atoms: C15_47  and  C16_48 
REMARK   14  A    between atoms: C16_48  and  O6_49 
REMARK   15  A    between atoms: O6_49  and  N14_50 
ROOT
HETATM    1  C1  UNL     1      57.907  11.832  30.804  1.00  0.00     0.129 A 
HETATM    2  N2  UNL     1      56.930  12.109  31.660  1.00  0.00    -0.174 N 
ATOM      3  H2  UNL     1      57.177  12.502  32.569  1.00  0.00     0.186 HD
HETATM    4  C2  UNL     1      55.618  11.895  31.383  1.00  0.00     0.711 A 
HETATM    5  N8  UNL     1      55.327  11.378  30.180  1.00  0.00    -0.173 N 
ATOM      6  H8  UNL     1      54.347  11.210  29.955  1.00  0.00     0.186 HD
HETATM    7  C7  UNL     1      56.253  11.068  29.252  1.00  0.00     0.135 A 
HETATM    8  N9  UNL     1      56.227  10.556  28.000  1.00  0.00    -0.338 N 
ATOM      9  H9  UNL     1      55.377  10.289  27.503  1.00  0.00     0.167 HD
HETATM   10  C8  UNL     1      57.469  10.447  27.496  1.00  0.00     0.083 A 
HETATM   11  C18 UNL     1      58.314  10.912  28.478  1.00  0.00     0.052 A 
HETATM   12  C19 UNL     1      57.587  11.299  29.567  1.00  0.00     0.055 A 
ENDROOT
BRANCH  10  13
HETATM   13  C9  UNL     1      57.859   9.965  26.160  1.00  0.00     0.197 C 
HETATM   14  O4  UNL     1      57.509   8.830  25.809  1.00  0.00    -0.289 OA
BRANCH  13  15
HETATM   15  C10 UNL     1      58.657  10.805  25.254  1.00  0.00     0.256 C 
BRANCH  15  16
HETATM   16  N10 UNL     1      58.565  12.222  25.492  1.00  0.00    -0.211 N 
HETATM   17  N11 UNL     1      57.658  13.015  24.961  1.00  0.00    -0.224 N 
HETATM   18  N12 UNL     1      57.812  14.227  25.394  1.00  0.00    -0.269 N 
ATOM     19  H11 UNL     1      56.937  12.718  24.303  1.00  0.00     0.210 HD
HETATM   20  C11 UNL     1      58.870  14.263  26.256  1.00  0.00     0.150 A 
ATOM     21  H12 UNL     1      57.235  15.026  25.132  1.00  0.00     0.190 HD
HETATM   22  N15 UNL     1      59.313  13.005  26.292  1.00  0.00    -0.267 N 
ATOM     23  H15 UNL     1      60.106  12.682  26.847  1.00  0.00     0.190 HD
BRANCH  20  24
HETATM   24  C12 UNL     1      59.267  15.510  26.918  1.00  0.00     0.146 C 
HETATM   25  C13 UNL     1      59.081  15.401  28.438  1.00  0.00     0.078 C 
HETATM   26  C14 UNL     1      60.071  16.433  28.925  1.00  0.00     0.276 C 
HETATM   27  N13 UNL     1      61.251  16.161  28.092  1.00  0.00     0.094 N 
HETATM   28  C17 UNL     1      60.706  15.881  26.787  1.00  0.00     0.318 C 
BRANCH  24  29
HETATM   29  O5  UNL     1      58.487  16.575  26.466  1.00  0.00    -0.380 OA
ATOM     30  H5  UNL     1      58.613  17.339  27.016  1.00  0.00     0.211 HD
ENDBRANCH  24  29
BRANCH  27  31
HETATM   31  C15 UNL     1      62.055  17.353  28.170  1.00  0.00     0.301 C 
BRANCH  31  32
HETATM   32  C16 UNL     1      61.920  18.301  27.044  1.00  0.00     0.230 C 
BRANCH  32  33
HETATM   33  O6  UNL     1      61.198  19.412  27.388  1.00  0.00    -0.286 OA
BRANCH  33  34
HETATM   34  N14 UNL     1      59.993  19.392  26.788  1.00  0.00    -0.311 N 
ATOM     35 2H14 UNL     1      59.816  18.967  25.878  1.00  0.00     0.184 HD
ATOM     36 1H14 UNL     1      59.297  19.857  27.372  1.00  0.00     0.184 HD
ENDBRANCH  33  34
ENDBRANCH  32  33
ENDBRANCH  31  32
ENDBRANCH  27  31
ENDBRANCH  20  24
ENDBRANCH  15  16
ENDBRANCH  13  15
ENDBRANCH  10  13
BRANCH   1  37
HETATM   37  N1  UNL     1      59.141  12.040  31.075  1.00  0.00    -0.384 N 
ATOM     38  H12 UNL     1      59.609  11.402  31.719  1.00  0.00     0.157 HD
ATOM     39  H11 UNL     1      59.668  12.814  30.671  1.00  0.00     0.157 HD
ENDBRANCH   1  37
BRANCH   4  40
HETATM   40  N3  UNL     1      54.620  12.206  32.346  1.00  0.00    -0.023 N 
HETATM   41  C3  UNL     1      54.245  13.420  32.789  1.00  0.00     0.304 A 
HETATM   42  O1  UNL     1      54.740  14.534  32.412  1.00  0.00    -0.264 OA
HETATM   43  C4  UNL     1      53.241  13.285  33.718  1.00  0.00     0.158 A 
HETATM   44  C6  UNL     1      53.026  11.907  33.815  1.00  0.00     0.201 A 
HETATM   45  N6  UNL     1      53.870  11.287  32.979  1.00  0.00    -0.154 N 
BRANCH  43  46
HETATM   46  C5  UNL     1      52.497  14.278  34.469  1.00  0.00     0.279 C 
HETATM   47  O2  UNL     1      52.117  14.005  35.639  1.00  0.00    -0.266 OA
HETATM   48  N4  UNL     1      52.152  15.557  33.982  1.00  0.00    -0.272 N 
ATOM     49  H4  UNL     1      52.444  15.809  33.038  1.00  0.00     0.189 HD
BRANCH  48  50
HETATM   50  N5  UNL     1      51.432  16.495  34.724  1.00  0.00    -0.342 N 
ATOM     51  H52 UNL     1      51.250  16.275  35.703  1.00  0.00     0.176 HD
ATOM     52  H51 UNL     1      51.087  17.373  34.337  1.00  0.00     0.176 HD
ENDBRANCH  48  50
ENDBRANCH  43  46
BRANCH  44  53
HETATM   53  O3  UNL     1      52.099  11.279  34.636  1.00  0.00    -0.343 OA
ATOM     54  H3  UNL     1      51.924  11.489  35.545  1.00  0.00     0.219 HD
ENDBRANCH  44  53
BRANCH  45  55
HETATM   55  N7  UNL     1      54.003   9.915  32.755  1.00  0.00    -0.321 N 
ATOM     56  H72 UNL     1      53.936   9.415  31.869  1.00  0.00     0.179 HD
ATOM     57  H71 UNL     1      54.189   9.247  33.504  1.00  0.00     0.179 HD
ENDBRANCH  45  55
ENDBRANCH   4  40
TORSDOF 15
ENDMDL
MODEL 2
REMARK VINA RESULT: -7.579308152      2.116      8.860
REMARK  15 active torsions:
REMARK  status: ('A' for Active; 'I' for Inactive)
REMARK    1  A    between atoms: N1_1  and  C1_4 
REMARK    2  A    between atoms: C2_7  and  N3_8 
REMARK    3  A    between atoms: C4_11  and  C5_12 
REMARK       I    between atoms: C5_12  and  N4_14 
REMARK    4  A    between atoms: N4_14  and  N5_16 
REMARK    5  A    between atoms: C6_19  and  O3_20 
REMARK    6  A    between atoms: N6_22  and  N7_23 
REMARK    7  A    between atoms: C8_31  and  C9_32 
REMARK    8  A    between atoms: C9_32  and  C10_34 
REMARK    9  A    between atoms: C10_34  and  N10_35 
REMARK   10  A    between atoms: C11_40  and  C12_41 
REMARK   11  A    between atoms: C12_41  and  O5_42 
REMARK   12  A    between atoms: N13_46  and  C15_47 
REMARK   13  A    between atoms: C15_47  and  C16_48 
REMARK   14  A    between atoms: C16_48  and  O6_49 
REMARK   15  A    between atoms: O6_49  and  N14_50 
ROOT
HETATM    1  C1  UNL     1      59.426  13.014  30.140  1.00  0.00     0.129 A 
HETATM    2  N2  UNL     1      59.882  14.137  29.598  1.00  0.00    -0.174 N 
ATOM      3  H2  UNL     1      60.284  14.845  30.213  1.00  0.00     0.186 HD
HETATM    4  C2  UNL     1      59.837  14.389  28.264  1.00  0.00     0.711 A 
HETATM    5  N8  UNL     1      59.303  13.438  27.484  1.00  0.00    -0.173 N 
ATOM      6  H8  UNL     1      59.261  13.609  26.480  1.00  0.00     0.186 HD
HETATM    7  C7  UNL     1      58.818  12.270  27.948  1.00  0.00     0.135 A 
HETATM    8  N9  UNL     1      58.250  11.175  27.393  1.00  0.00    -0.338 N 
ATOM      9  H9  UNL     1      58.077  11.057  26.395  1.00  0.00     0.167 HD
HETATM   10  C8  UNL     1      57.942  10.262  28.331  1.00  0.00     0.083 A 
HETATM   11  C18 UNL     1      58.336  10.808  29.531  1.00  0.00     0.052 A 
HETATM   12  C19 UNL     1      58.878  12.044  29.318  1.00  0.00     0.055 A 
ENDROOT
BRANCH  10  13
HETATM   13  C9  UNL     1      57.341   8.932  28.130  1.00  0.00     0.197 C 
HETATM   14  O4  UNL     1      58.088   7.954  27.995  1.00  0.00    -0.289 OA
BRANCH  13  15
HETATM   15  C10 UNL     1      55.882   8.758  28.080  1.00  0.00     0.256 C 
BRANCH  15  16
HETATM   16  N10 UNL     1      55.172   9.192  29.256  1.00  0.00    -0.211 N 
HETATM   17  N11 UNL     1      55.069   8.495  30.369  1.00  0.00    -0.224 N 
HETATM   18  N12 UNL     1      54.403   9.165  31.257  1.00  0.00    -0.269 N 
ATOM     19  H11 UNL     1      55.456   7.563  30.511  1.00  0.00     0.210 HD
HETATM   20  C11 UNL     1      54.036  10.369  30.727  1.00  0.00     0.150 A 
ATOM     21  H12 UNL     1      54.188   8.844  32.201  1.00  0.00     0.190 HD
HETATM   22  N15 UNL     1      54.527  10.351  29.487  1.00  0.00    -0.267 N 
ATOM     23  H15 UNL     1      54.429  11.107  28.810  1.00  0.00     0.190 HD
BRANCH  20  24
HETATM   24  C12 UNL     1      53.283  11.347  31.518  1.00  0.00     0.146 C 
HETATM   25  C13 UNL     1      53.631  11.225  33.008  1.00  0.00     0.078 C 
HETATM   26  C14 UNL     1      53.291  12.613  33.499  1.00  0.00     0.276 C 
HETATM   27  N13 UNL     1      53.871  13.471  32.456  1.00  0.00     0.094 N 
HETATM   28  C17 UNL     1      53.578  12.780  31.225  1.00  0.00     0.318 C 
BRANCH  24  29
HETATM   29  O5  UNL     1      51.910  11.136  31.380  1.00  0.00    -0.380 OA
ATOM     30  H5  UNL     1      51.639  10.368  31.869  1.00  0.00     0.211 HD
ENDBRANCH  24  29
BRANCH  27  31
HETATM   31  C15 UNL     1      53.219  14.746  32.605  1.00  0.00     0.301 C 
BRANCH  31  32
HETATM   32  C16 UNL     1      52.501  14.960  33.880  1.00  0.00     0.230 C 
BRANCH  32  33
HETATM   33  O6  UNL     1      52.459  16.283  34.233  1.00  0.00    -0.286 OA
BRANCH  33  34
HETATM   34  N14 UNL     1      51.372  16.533  34.986  1.00  0.00    -0.311 N 
ATOM     35 2H14 UNL     1      51.328  16.381  35.993  1.00  0.00     0.184 HD
ATOM     36 1H14 UNL     1      50.613  16.891  34.405  1.00  0.00     0.184 HD
ENDBRANCH  33  34
ENDBRANCH  32  33
ENDBRANCH  31  32
ENDBRANCH  27  31
ENDBRANCH  20  24
ENDBRANCH  15  16
ENDBRANCH  13  15
ENDBRANCH  10  13
BRANCH   1  37
HETATM   37  N1  UNL     1      59.475  12.786  31.399  1.00  0.00    -0.384 N 
ATOM     38  H12 UNL     1      60.386  12.615  31.826  1.00  0.00     0.157 HD
ATOM     39  H11 UNL     1      58.641  12.773  31.987  1.00  0.00     0.157 HD
ENDBRANCH   1  37
BRANCH   4  40
HETATM   40  N3  UNL     1      60.335  15.616  27.747  1.00  0.00    -0.023 N 
HETATM   41  C3  UNL     1      61.587  15.897  27.341  1.00  0.00     0.304 A 
HETATM   42  O1  UNL     1      62.573  15.087  27.356  1.00  0.00    -0.264 OA
HETATM   43  C4  UNL     1      61.650  17.199  26.904  1.00  0.00     0.158 A 
HETATM   44  C6  UNL     1      60.354  17.696  27.070  1.00  0.00     0.201 A 
HETATM   45  N6  UNL     1      59.588  16.721  27.578  1.00  0.00    -0.154 N 
BRANCH  43  46
HETATM   46  C5  UNL     1      62.752  17.969  26.361  1.00  0.00     0.279 C 
HETATM   47  O2  UNL     1      63.707  17.365  25.802  1.00  0.00    -0.266 OA
HETATM   48  N4  UNL     1      62.847  19.376  26.411  1.00  0.00    -0.272 N 
ATOM     49  H4  UNL     1      62.091  19.895  26.857  1.00  0.00     0.189 HD
BRANCH  48  50
HETATM   50  N5  UNL     1      63.920  20.096  25.883  1.00  0.00    -0.342 N 
ATOM     51  H52 UNL     1      64.288  19.791  24.982  1.00  0.00     0.176 HD
ATOM     52  H51 UNL     1      64.344  20.897  26.349  1.00  0.00     0.176 HD
ENDBRANCH  48  50
ENDBRANCH  43  46
BRANCH  44  53
HETATM   53  O3  UNL     1      59.925  18.980  26.764  1.00  0.00    -0.343 OA
ATOM     54  H3  UNL     1      60.249  19.785  27.148  1.00  0.00     0.219 HD
ENDBRANCH  44  53
BRANCH  45  55
HETATM   55  N7  UNL     1      58.232  16.777  27.906  1.00  0.00    -0.321 N 
ATOM     56  H72 UNL     1      57.814  16.874  28.831  1.00  0.00     0.179 HD
ATOM     57  H71 UNL     1      57.491  16.720  27.207  1.00  0.00     0.179 HD
ENDBRANCH  45  55
ENDBRANCH   4  40
TORSDOF 15
ENDMDL
MODEL 3
REMARK VINA RESULT: -7.537426861      2.213      9.386
REMARK  15 active torsions:
REMARK  status: ('A' for Active; 'I' for Inactive)
REMARK    1  A    between atoms: N1_1  and  C1_4 
REMARK    2  A    between atoms: C2_7  and  N3_8 
REMARK    3  A    between atoms: C4_11  and  C5_12 
REMARK       I    between atoms: C5_12  and  N4_14 
REMARK    4  A    between atoms: N4_14  and  N5_16 
REMARK    5  A    between atoms: C6_19  and  O3_20 
REMARK    6  A    between atoms: N6_22  and  N7_23 
REMARK    7  A    between atoms: C8_31  and  C9_32 
REMARK    8  A    between atoms: C9_32  and  C10_34 
REMARK    9  A    between atoms: C10_34  and  N10_35 
REMARK   10  A    between atoms: C11_40  and  C12_41 
REMARK   11  A    between atoms: C12_41  and  O5_42 
REMARK   12  A    between atoms: N13_46  and  C15_47 
REMARK   13  A    between atoms: C15_47  and  C16_48 
REMARK   14  A    between atoms: C16_48  and  O6_49 
REMARK   15  A    between atoms: O6_49  and  N14_50 
ROOT
HETATM    1  C1  UNL     1      59.273  13.362  25.590  1.00  0.00     0.129 A 
HETATM    2  N2  UNL     1      59.865  14.544  25.706  1.00  0.00    -0.174 N 
ATOM      3  H2  UNL     1      60.062  15.075  24.857  1.00  0.00     0.186 HD
HETATM    4  C2  UNL     1      60.222  15.081  26.901  1.00  0.00     0.711 A 
HETATM    5  N8  UNL     1      59.950  14.359  27.998  1.00  0.00    -0.173 N 
ATOM      6  H8  UNL     1      60.211  14.746  28.904  1.00  0.00     0.186 HD
HETATM    7  C7  UNL     1      59.352  13.152  27.973  1.00  0.00     0.135 A 
HETATM    8  N9  UNL     1      58.971  12.247  28.903  1.00  0.00    -0.338 N 
ATOM      9  H9  UNL     1      59.102  12.362  29.908  1.00  0.00     0.167 HD
HETATM   10  C8  UNL     1      58.396  11.176  28.329  1.00  0.00     0.083 A 
HETATM   11  C18 UNL     1      58.415  11.420  26.975  1.00  0.00     0.052 A 
HETATM   12  C19 UNL     1      58.999  12.630  26.734  1.00  0.00     0.055 A 
ENDROOT
BRANCH  10  13
HETATM   13  C9  UNL     1      57.824   9.994  28.998  1.00  0.00     0.197 C 
HETATM   14  O4  UNL     1      58.420   9.514  29.972  1.00  0.00    -0.289 OA
BRANCH  13  15
HETATM   15  C10 UNL     1      56.575   9.382  28.522  1.00  0.00     0.256 C 
BRANCH  15  16
HETATM   16  N10 UNL     1      55.383   9.807  29.210  1.00  0.00    -0.211 N 
HETATM   17  N11 UNL     1      54.207   9.227  29.101  1.00  0.00    -0.224 N 
HETATM   18  N12 UNL     1      53.343   9.814  29.869  1.00  0.00    -0.269 N 
ATOM     19  H11 UNL     1      54.004   8.430  28.498  1.00  0.00     0.210 HD
HETATM   20  C11 UNL     1      53.958  10.840  30.530  1.00  0.00     0.150 A 
ATOM     21  H12 UNL     1      52.363   9.552  29.966  1.00  0.00     0.190 HD
HETATM   22  N15 UNL     1      55.219  10.807  30.096  1.00  0.00    -0.267 N 
ATOM     23  H15 UNL     1      55.954  11.449  30.394  1.00  0.00     0.190 HD
BRANCH  20  24
HETATM   24  C12 UNL     1      53.223  11.673  31.487  1.00  0.00     0.146 C 
HETATM   25  C13 UNL     1      53.840  11.562  32.889  1.00  0.00     0.078 C 
HETATM   26  C14 UNL     1      53.398  12.870  33.503  1.00  0.00     0.276 C 
HETATM   27  N13 UNL     1      53.658  13.833  32.424  1.00  0.00     0.094 N 
HETATM   28  C17 UNL     1      53.256  13.140  31.226  1.00  0.00     0.318 C 
BRANCH  24  29
HETATM   29  O5  UNL     1      51.891  11.263  31.573  1.00  0.00    -0.380 OA
ATOM     30  H5  UNL     1      51.597  11.268  32.476  1.00  0.00     0.211 HD
ENDBRANCH  24  29
BRANCH  27  31
HETATM   31  C15 UNL     1      52.868  14.992  32.749  1.00  0.00     0.301 C 
BRANCH  31  32
HETATM   32  C16 UNL     1      52.420  15.097  34.154  1.00  0.00     0.230 C 
BRANCH  32  33
HETATM   33  O6  UNL     1      52.071  16.378  34.491  1.00  0.00    -0.286 OA
BRANCH  33  34
HETATM   34  N14 UNL     1      50.939  16.379  35.219  1.00  0.00    -0.311 N 
ATOM     35 2H14 UNL     1      50.249  15.628  35.202  1.00  0.00     0.184 HD
ATOM     36 1H14 UNL     1      50.878  17.228  35.780  1.00  0.00     0.184 HD
ENDBRANCH  33  34
ENDBRANCH  32  33
ENDBRANCH  31  32
ENDBRANCH  27  31
ENDBRANCH  20  24
ENDBRANCH  15  16
ENDBRANCH  13  15
ENDBRANCH  10  13
BRANCH   1  37
HETATM   37  N1  UNL     1      58.939  12.866  24.458  1.00  0.00    -0.384 N 
ATOM     38  H12 UNL     1      57.980  12.999  24.134  1.00  0.00     0.157 HD
ATOM     39  H11 UNL     1      59.593  12.347  23.871  1.00  0.00     0.157 HD
ENDBRANCH   1  37
BRANCH   4  40
HETATM   40  N3  UNL     1      60.861  16.350  26.958  1.00  0.00    -0.023 N 
HETATM   41  C3  UNL     1      62.181  16.614  26.947  1.00  0.00     0.304 A 
HETATM   42  O1  UNL     1      63.113  15.744  26.888  1.00  0.00    -0.264 OA
HETATM   43  C4  UNL     1      62.382  17.972  27.011  1.00  0.00     0.158 A 
HETATM   44  C6  UNL     1      61.097  18.523  27.062  1.00  0.00     0.201 A 
HETATM   45  N6  UNL     1      60.207  17.522  27.029  1.00  0.00    -0.154 N 
BRANCH  43  46
HETATM   46  C5  UNL     1      63.601  18.756  27.013  1.00  0.00     0.279 C 
HETATM   47  O2  UNL     1      63.656  19.808  26.320  1.00  0.00    -0.266 OA
HETATM   48  N4  UNL     1      64.763  18.428  27.744  1.00  0.00    -0.272 N 
ATOM     49  H4  UNL     1      64.752  17.583  28.314  1.00  0.00     0.189 HD
BRANCH  48  50
HETATM   50  N5  UNL     1      65.927  19.199  27.727  1.00  0.00    -0.342 N 
ATOM     51  H52 UNL     1      66.413  19.291  26.835  1.00  0.00     0.176 HD
ATOM     52  H51 UNL     1      66.305  19.665  28.552  1.00  0.00     0.176 HD
ENDBRANCH  48  50
ENDBRANCH  43  46
BRANCH  44  53
HETATM   53  O3  UNL     1      60.788  19.873  27.136  1.00  0.00    -0.343 OA
ATOM     54  H3  UNL     1      61.116  20.488  27.782  1.00  0.00     0.219 HD
ENDBRANCH  44  53
BRANCH  45  55
HETATM   55  N7  UNL     1      58.813  17.611  27.062  1.00  0.00    -0.321 N 
ATOM     56  H72 UNL     1      58.199  17.517  27.871  1.00  0.00     0.179 HD
ATOM     57  H71 UNL     1      58.250  17.786  26.230  1.00  0.00     0.179 HD
ENDBRANCH  45  55
ENDBRANCH   4  40
TORSDOF 15
ENDMDL
MODEL 4
REMARK VINA RESULT: -7.526447816      1.783      8.851
REMARK  15 active torsions:
REMARK  status: ('A' for Active; 'I' for Inactive)
REMARK    1  A    between atoms: N1_1  and  C1_4 
REMARK    2  A    between atoms: C2_7  and  N3_8 
REMARK    3  A    between atoms: C4_11  and  C5_12 
REMARK       I    between atoms: C5_12  and  N4_14 
REMARK    4  A    between atoms: N4_14  and  N5_16 
REMARK    5  A    between atoms: C6_19  and  O3_20 
REMARK    6  A    between atoms: N6_22  and  N7_23 
REMARK    7  A    between atoms: C8_31  and  C9_32 
REMARK    8  A    between atoms: C9_32  and  C10_34 
REMARK    9  A    between atoms: C10_34  and  N10_35 
REMARK   10  A    between atoms: C11_40  and  C12_41 
REMARK   11  A    between atoms: C12_41  and  O5_42 
REMARK   12  A    between atoms: N13_46  and  C15_47 
REMARK   13  A    between atoms: C15_47  and  C16_48 
REMARK   14  A    between atoms: C16_48  and  O6_49 
REMARK   15  A    between atoms: O6_49  and  N14_50 
ROOT
HETATM    1  C1  UNL     1      57.923  12.659  25.332  1.00  0.00     0.129 A 
HETATM    2  N2  UNL     1      58.700  13.723  25.494  1.00  0.00    -0.174 N 
ATOM      3  H2  UNL     1      58.773  14.394  24.728  1.00  0.00     0.186 HD
HETATM    4  C2  UNL     1      59.404  13.962  26.630  1.00  0.00     0.711 A 
HETATM    5  N8  UNL     1      59.287  13.062  27.618  1.00  0.00    -0.173 N 
ATOM      6  H8  UNL     1      59.809  13.224  28.479  1.00  0.00     0.186 HD
HETATM    7  C7  UNL     1      58.522  11.956  27.539  1.00  0.00     0.135 A 
HETATM    8  N9  UNL     1      58.234  10.924  28.365  1.00  0.00    -0.338 N 
ATOM      9  H9  UNL     1      58.612  10.815  29.306  1.00  0.00     0.167 HD
HETATM   10  C8  UNL     1      57.384  10.061  27.783  1.00  0.00     0.083 A 
HETATM   11  C18 UNL     1      57.125  10.575  26.533  1.00  0.00     0.052 A 
HETATM   12  C19 UNL     1      57.815  11.741  26.362  1.00  0.00     0.055 A 
ENDROOT
BRANCH  10  13
HETATM   13  C9  UNL     1      56.810   8.833  28.361  1.00  0.00     0.197 C 
HETATM   14  O4  UNL     1      56.179   8.064  27.622  1.00  0.00    -0.289 OA
BRANCH  13  15
HETATM   15  C10 UNL     1      56.969   8.520  29.789  1.00  0.00     0.256 C 
BRANCH  15  16
HETATM   16  N10 UNL     1      55.930   9.030  30.647  1.00  0.00    -0.211 N 
HETATM   17  N11 UNL     1      55.352   8.346  31.612  1.00  0.00    -0.224 N 
HETATM   18  N12 UNL     1      54.485   9.087  32.229  1.00  0.00    -0.269 N 
ATOM     19  H11 UNL     1      55.556   7.374  31.841  1.00  0.00     0.210 HD
HETATM   20  C11 UNL     1      54.470  10.328  31.659  1.00  0.00     0.150 A 
ATOM     21  H12 UNL     1      53.906   8.790  33.014  1.00  0.00     0.190 HD
HETATM   22  N15 UNL     1      55.376  10.257  30.683  1.00  0.00    -0.267 N 
ATOM     23  H15 UNL     1      55.615  11.023  30.052  1.00  0.00     0.190 HD
BRANCH  20  24
HETATM   24  C12 UNL     1      53.592  11.386  32.169  1.00  0.00     0.146 C 
HETATM   25  C13 UNL     1      53.755  11.544  33.687  1.00  0.00     0.078 C 
HETATM   26  C14 UNL     1      53.310  12.975  33.878  1.00  0.00     0.276 C 
HETATM   27  N13 UNL     1      53.986  13.669  32.774  1.00  0.00     0.094 N 
HETATM   28  C17 UNL     1      53.873  12.760  31.661  1.00  0.00     0.318 C 
BRANCH  24  29
HETATM   29  O5  UNL     1      52.255  11.079  31.911  1.00  0.00    -0.380 OA
ATOM     30  H5  UNL     1      51.780  11.855  31.638  1.00  0.00     0.211 HD
ENDBRANCH  24  29
BRANCH  27  31
HETATM   31  C15 UNL     1      53.278  14.913  32.615  1.00  0.00     0.301 C 
BRANCH  31  32
HETATM   32  C16 UNL     1      52.233  15.196  33.623  1.00  0.00     0.230 C 
BRANCH  32  33
HETATM   33  O6  UNL     1      52.479  16.354  34.311  1.00  0.00    -0.286 OA
BRANCH  33  34
HETATM   34  N14 UNL     1      51.466  16.622  35.154  1.00  0.00    -0.311 N 
ATOM     35 2H14 UNL     1      50.498  16.752  34.860  1.00  0.00     0.184 HD
ATOM     36 1H14 UNL     1      51.807  16.674  36.115  1.00  0.00     0.184 HD
ENDBRANCH  33  34
ENDBRANCH  32  33
ENDBRANCH  31  32
ENDBRANCH  27  31
ENDBRANCH  20  24
ENDBRANCH  15  16
ENDBRANCH  13  15
ENDBRANCH  10  13
BRANCH   1  37
HETATM   37  N1  UNL     1      57.262  12.445  24.256  1.00  0.00    -0.384 N 
ATOM     38  H12 UNL     1      56.997  11.485  24.033  1.00  0.00     0.157 HD
ATOM     39  H11 UNL     1      56.993  13.195  23.619  1.00  0.00     0.157 HD
ENDBRANCH   1  37
BRANCH   4  40
HETATM   40  N3  UNL     1      60.225  15.117  26.738  1.00  0.00    -0.023 N 
HETATM   41  C3  UNL     1      59.840  16.405  26.807  1.00  0.00     0.304 A 
HETATM   42  O1  UNL     1      58.634  16.822  26.781  1.00  0.00    -0.264 OA
HETATM   43  C4  UNL     1      60.946  17.215  26.909  1.00  0.00     0.158 A 
HETATM   44  C6  UNL     1      62.035  16.337  26.898  1.00  0.00     0.201 A 
HETATM   45  N6  UNL     1      61.568  15.085  26.794  1.00  0.00    -0.154 N 
BRANCH  43  46
HETATM   46  C5  UNL     1      61.065  18.655  27.025  1.00  0.00     0.279 C 
HETATM   47  O2  UNL     1      62.212  19.171  27.115  1.00  0.00    -0.266 OA
HETATM   48  N4  UNL     1      59.974  19.549  27.049  1.00  0.00    -0.272 N 
ATOM     49  H4  UNL     1      59.032  19.164  26.979  1.00  0.00     0.189 HD
BRANCH  48  50
HETATM   50  N5  UNL     1      60.115  20.933  27.164  1.00  0.00    -0.342 N 
ATOM     51  H52 UNL     1      60.367  21.303  28.081  1.00  0.00     0.176 HD
ATOM     52  H51 UNL     1      59.979  21.579  26.387  1.00  0.00     0.176 HD
ENDBRANCH  48  50
ENDBRANCH  43  46
BRANCH  44  53
HETATM   53  O3  UNL     1      63.373  16.693  26.979  1.00  0.00    -0.343 OA
ATOM     54  H3  UNL     1      64.084  16.322  26.469  1.00  0.00     0.219 HD
ENDBRANCH  44  53
BRANCH  45  55
HETATM   55  N7  UNL     1      62.301  13.898  26.743  1.00  0.00    -0.321 N 
ATOM     56  H72 UNL     1      63.159  13.669  27.245  1.00  0.00     0.179 HD
ATOM     57  H71 UNL     1      62.030  13.104  26.163  1.00  0.00     0.179 HD
ENDBRANCH  45  55
ENDBRANCH   4  40
TORSDOF 15
ENDMDL
MODEL 5
REMARK VINA RESULT: -7.466044851      4.973      9.631
REMARK  15 active torsions:
REMARK  status: ('A' for Active; 'I' for Inactive)
REMARK    1  A    between atoms: N1_1  and  C1_4 
REMARK    2  A    between atoms: C2_7  and  N3_8 
REMARK    3  A    between atoms: C4_11  and  C5_12 
REMARK       I    between atoms: C5_12  and  N4_14 
REMARK    4  A    between atoms: N4_14  and  N5_16 
REMARK    5  A    between atoms: C6_19  and  O3_20 
REMARK    6  A    between atoms: N6_22  and  N7_23 
REMARK    7  A    between atoms: C8_31  and  C9_32 
REMARK    8  A    between atoms: C9_32  and  C10_34 
REMARK    9  A    between atoms: C10_34  and  N10_35 
REMARK   10  A    between atoms: C11_40  and  C12_41 
REMARK   11  A    between atoms: C12_41  and  O5_42 
REMARK   12  A    between atoms: N13_46  and  C15_47 
REMARK   13  A    between atoms: C15_47  and  C16_48 
REMARK   14  A    between atoms: C16_48  and  O6_49 
REMARK   15  A    between atoms: O6_49  and  N14_50 
ROOT
HETATM    1  C1  UNL     1      56.362  12.845  31.565  1.00  0.00     0.129 A 
HETATM    2  N2  UNL     1      57.347  13.649  31.182  1.00  0.00    -0.174 N 
ATOM      3  H2  UNL     1      57.381  14.594  31.568  1.00  0.00     0.186 HD
HETATM    4  C2  UNL     1      58.311  13.275  30.302  1.00  0.00     0.711 A 
HETATM    5  N8  UNL     1      58.237  12.028  29.814  1.00  0.00    -0.173 N 
ATOM      6  H8  UNL     1      58.953  11.730  29.151  1.00  0.00     0.186 HD
HETATM    7  C7  UNL     1      57.275  11.147  30.147  1.00  0.00     0.135 A 
HETATM    8  N9  UNL     1      56.984   9.869  29.814  1.00  0.00    -0.338 N 
ATOM      9  H9  UNL     1      57.529   9.303  29.164  1.00  0.00     0.167 HD
HETATM   10  C8  UNL     1      55.880   9.442  30.452  1.00  0.00     0.083 A 
HETATM   11  C18 UNL     1      55.459  10.501  31.223  1.00  0.00     0.052 A 
HETATM   12  C19 UNL     1      56.303  11.561  31.050  1.00  0.00     0.055 A 
ENDROOT
BRANCH  10  13
HETATM   13  C9  UNL     1      55.257   8.108  30.382  1.00  0.00     0.197 C 
HETATM   14  O4  UNL     1      54.025   8.030  30.291  1.00  0.00    -0.289 OA
BRANCH  13  15
HETATM   15  C10 UNL     1      56.074   6.886  30.425  1.00  0.00     0.256 C 
BRANCH  15  16
HETATM   16  N10 UNL     1      56.504   6.483  31.740  1.00  0.00    -0.211 N 
HETATM   17  N11 UNL     1      55.707   6.341  32.778  1.00  0.00    -0.224 N 
HETATM   18  N12 UNL     1      56.381   5.933  33.808  1.00  0.00    -0.269 N 
ATOM     19  H11 UNL     1      54.704   6.524  32.774  1.00  0.00     0.210 HD
HETATM   20  C11 UNL     1      57.694   5.794  33.457  1.00  0.00     0.150 A 
ATOM     21  H12 UNL     1      55.993   5.747  34.733  1.00  0.00     0.190 HD
HETATM   22  N15 UNL     1      57.733   6.145  32.170  1.00  0.00    -0.267 N 
ATOM     23  H15 UNL     1      58.576   6.155  31.595  1.00  0.00     0.190 HD
BRANCH  20  24
HETATM   24  C12 UNL     1      58.692   5.327  34.424  1.00  0.00     0.146 C 
HETATM   25  C13 UNL     1      59.792   4.518  33.722  1.00  0.00     0.078 C 
HETATM   26  C14 UNL     1      60.939   4.689  34.690  1.00  0.00     0.276 C 
HETATM   27  N13 UNL     1      60.873   6.121  35.015  1.00  0.00     0.094 N 
HETATM   28  C17 UNL     1      59.462   6.394  35.126  1.00  0.00     0.318 C 
BRANCH  24  29
HETATM   29  O5  UNL     1      58.099   4.501  35.381  1.00  0.00    -0.380 OA
ATOM     30  H5  UNL     1      57.377   4.948  35.807  1.00  0.00     0.211 HD
ENDBRANCH  24  29
BRANCH  27  31
HETATM   31  C15 UNL     1      61.618   6.269  36.238  1.00  0.00     0.301 C 
BRANCH  31  32
HETATM   32  C16 UNL     1      61.047   7.199  37.235  1.00  0.00     0.230 C 
BRANCH  32  33
HETATM   33  O6  UNL     1      61.693   8.407  37.244  1.00  0.00    -0.286 OA
BRANCH  33  34
HETATM   34  N14 UNL     1      62.963   8.256  37.664  1.00  0.00    -0.311 N 
ATOM     35 2H14 UNL     1      63.753   8.082  37.042  1.00  0.00     0.184 HD
ATOM     36 1H14 UNL     1      63.014   8.340  38.679  1.00  0.00     0.184 HD
ENDBRANCH  33  34
ENDBRANCH  32  33
ENDBRANCH  31  32
ENDBRANCH  27  31
ENDBRANCH  20  24
ENDBRANCH  15  16
ENDBRANCH  13  15
ENDBRANCH  10  13
BRANCH   1  37
HETATM   37  N1  UNL     1      55.460  13.207  32.398  1.00  0.00    -0.384 N 
ATOM     38  H12 UNL     1      55.427  12.746  33.308  1.00  0.00     0.157 HD
ATOM     39  H11 UNL     1      54.778  13.936  32.185  1.00  0.00     0.157 HD
ENDBRANCH   1  37
BRANCH   4  40
HETATM   40  N3  UNL     1      59.334  14.187  29.926  1.00  0.00    -0.023 N 
HETATM   41  C3  UNL     1      59.214  15.320  29.209  1.00  0.00     0.304 A 
HETATM   42  O1  UNL     1      58.127  15.780  28.724  1.00  0.00    -0.264 OA
HETATM   43  C4  UNL     1      60.445  15.915  29.072  1.00  0.00     0.158 A 
HETATM   44  C6  UNL     1      61.329  15.072  29.753  1.00  0.00     0.201 A 
HETATM   45  N6  UNL     1      60.630  14.044  30.254  1.00  0.00    -0.154 N 
BRANCH  43  46
HETATM   46  C5  UNL     1      60.842  17.142  28.409  1.00  0.00     0.279 C 
HETATM   47  O2  UNL     1      61.973  17.638  28.663  1.00  0.00    -0.266 OA
HETATM   48  N4  UNL     1      60.043  17.847  27.483  1.00  0.00    -0.272 N 
ATOM     49  H4  UNL     1      59.122  17.473  27.257  1.00  0.00     0.189 HD
BRANCH  48  50
HETATM   50  N5  UNL     1      60.448  19.029  26.860  1.00  0.00    -0.342 N 
ATOM     51  H52 UNL     1      60.446  19.879  27.425  1.00  0.00     0.176 HD
ATOM     52  H51 UNL     1      60.739  19.079  25.884  1.00  0.00     0.176 HD
ENDBRANCH  48  50
ENDBRANCH  43  46
BRANCH  44  53
HETATM   53  O3  UNL     1      62.696  15.259  29.890  1.00  0.00    -0.343 OA
ATOM     54  H3  UNL     1      63.218  15.037  30.652  1.00  0.00     0.219 HD
ENDBRANCH  44  53
BRANCH  45  55
HETATM   55  N7  UNL     1      61.108  12.965  31.001  1.00  0.00    -0.321 N 
ATOM     56  H72 UNL     1      60.939  12.760  31.986  1.00  0.00     0.179 HD
ATOM     57  H71 UNL     1      61.708  12.240  30.606  1.00  0.00     0.179 HD
ENDBRANCH  45  55
ENDBRANCH   4  40
TORSDOF 15
ENDMDL
