MODEL 1
REMARK VINA RESULT: -7.776278138      0.000      0.000
REMARK  12 active torsions:
REMARK  status: ('A' for Active; 'I' for Inactive)
REMARK    1  A    between atoms: C2_7  and  C3_8 
REMARK    2  A    between atoms: N4_10  and  C5_11 
REMARK    3  A    between atoms: C7_15  and  C8_16 
REMARK    4  A    between atoms: C8_16  and  N6_17 
REMARK    5  A    between atoms: C10_25  and  C11_26 
REMARK    6  A    between atoms: C11_26  and  O1_27 
REMARK    7  A    between atoms: C11_26  and  N9_29 
REMARK    8  A    between atoms: N9_29  and  C12_31 
REMARK    9  A    between atoms: C12_31  and  C13_32 
REMARK   10  A    between atoms: C14_35  and  C15_36 
REMARK   11  A    between atoms: C15_36  and  C16_38 
REMARK   12  A    between atoms: C16_38  and  O3_39 
ROOT
HETATM    1  C5  UNL     1      58.371  14.090  30.864  1.00  0.00     0.707 A 
HETATM    2  N5  UNL     1      59.421  13.491  31.451  1.00  0.00    -0.188 N 
ATOM      3  H5  UNL     1      59.252  12.790  32.173  1.00  0.00     0.184 HD
HETATM    4  C6  UNL     1      60.675  13.786  31.117  1.00  0.00     0.078 A 
HETATM    5  C7  UNL     1      61.699  13.155  31.782  1.00  0.00     0.037 A 
HETATM    6  C9  UNL     1      62.970  13.519  31.417  1.00  0.00     0.127 A 
HETATM    7  N7  UNL     1      64.051  12.876  32.099  1.00  0.00    -0.082 NA
HETATM    8  N8  UNL     1      63.204  14.428  30.472  1.00  0.00    -0.340 N 
ATOM      9  H8  UNL     1      64.177  14.646  30.257  1.00  0.00     0.167 HD
HETATM   10  C10 UNL     1      62.227  15.099  29.763  1.00  0.00     0.102 A 
HETATM   11  C17 UNL     1      60.952  14.731  30.138  1.00  0.00     0.091 A 
HETATM   12  C18 UNL     1      59.891  15.331  29.554  1.00  0.00     0.274 A 
HETATM   13  O5  UNL     1      60.006  16.176  28.694  1.00  0.00    -0.267 OA
HETATM   14  N12 UNL     1      58.639  14.994  29.931  1.00  0.00    -0.153 N 
ATOM     15  H12 UNL     1      57.856  15.461  29.472  1.00  0.00     0.187 HD
ENDROOT
BRANCH   1  16
HETATM   16  N4  UNL     1      57.064  13.715  31.279  1.00  0.00    -0.081 N 
HETATM   17  C4  UNL     1      56.666  12.370  31.483  1.00  0.00     0.169 A 
HETATM   18  C3  UNL     1      55.433  12.052  31.874  1.00  0.00     0.114 A 
HETATM   19  N15 UNL     1      54.418  12.998  32.122  1.00  0.00    -0.186 N 
HETATM   20  C19 UNL     1      54.771  14.382  31.930  1.00  0.00     0.692 A 
ATOM     21  H15 UNL     1      53.484  12.717  32.421  1.00  0.00     0.184 HD
HETATM   22  N13 UNL     1      56.091  14.688  31.513  1.00  0.00    -0.112 N 
HETATM   23  N14 UNL     1      53.891  15.302  32.140  1.00  0.00    -0.233 N 
ATOM     24  H13 UNL     1      56.342  15.667  31.378  1.00  0.00     0.206 HD
ATOM     25 2H14 UNL     1      54.141  16.282  32.004  1.00  0.00     0.174 HD
ATOM     26 1H14 UNL     1      52.941  15.081  32.440  1.00  0.00     0.174 HD
BRANCH  18  27
HETATM   27  C2  UNL     1      55.097  10.622  32.064  1.00  0.00     0.166 A 
HETATM   28  N3  UNL     1      54.278  10.103  32.989  1.00  0.00    -0.267 N 
HETATM   29  N2  UNL     1      54.261   8.801  32.803  1.00  0.00    -0.225 N 
ATOM     30  H3  UNL     1      53.765  10.620  33.703  1.00  0.00     0.190 HD
HETATM   31  N1  UNL     1      55.049   8.471  31.783  1.00  0.00    -0.223 N 
ATOM     32  H2  UNL     1      53.721   8.139  33.361  1.00  0.00     0.210 HD
HETATM   33  C1  UNL     1      55.223   7.108  31.351  1.00  0.00     0.202 C 
HETATM   34  N16 UNL     1      55.562   9.595  31.330  1.00  0.00    -0.265 N 
ATOM     35  H16 UNL     1      56.210   9.675  30.545  1.00  0.00     0.190 HD
ENDBRANCH  18  27
ENDBRANCH   1  16
BRANCH   5  36
HETATM   36  C8  UNL     1      61.386  12.139  32.833  1.00  0.00     0.274 C 
BRANCH  36  37
HETATM   37  N6  UNL     1      61.322  10.797  32.315  1.00  0.00    -0.075 N 
ATOM     38  H63 UNL     1      60.926  10.159  33.004  1.00  0.00     0.274 HD
ATOM     39  H62 UNL     1      60.610  10.721  31.588  1.00  0.00     0.274 HD
ATOM     40  H61 UNL     1      62.223  10.457  31.979  1.00  0.00     0.274 HD
ENDBRANCH  36  37
ENDBRANCH   5  36
BRANCH  10  41
HETATM   41  C11 UNL     1      62.598  16.011  28.681  1.00  0.00     0.164 C 
BRANCH  41  42
HETATM   42  O1  UNL     1      62.613  17.360  28.886  1.00  0.00    -0.345 OA
ATOM     43  H1  UNL     1      62.970  17.944  28.227  1.00  0.00     0.219 HD
ENDBRANCH  41  42
BRANCH  41  44
HETATM   44  N9  UNL     1      63.618  15.505  27.791  1.00  0.00    -0.361 N 
ATOM     45  H9  UNL     1      64.593  15.405  28.075  1.00  0.00     0.162 HD
BRANCH  44  46
HETATM   46  C12 UNL     1      63.164  15.159  26.497  1.00  0.00     0.208 C 
BRANCH  46  47
HETATM   47  C13 UNL     1      61.935  14.384  26.430  1.00  0.00     0.166 A 
HETATM   48  N10 UNL     1      60.733  14.871  26.075  1.00  0.00    -0.319 N 
HETATM   49  C14 UNL     1      59.843  13.882  26.126  1.00  0.00     0.176 A 
ATOM     50  H10 UNL     1      60.535  15.836  25.811  1.00  0.00     0.169 HD
HETATM   51  N11 UNL     1      60.487  12.789  26.508  1.00  0.00    -0.240 N 
HETATM   52  O4  UNL     1      61.738  13.113  26.684  1.00  0.00    -0.221 OA
ATOM     53  H11 UNL     1      60.079  11.863  26.640  1.00  0.00     0.196 HD
BRANCH  49  54
HETATM   54  C15 UNL     1      58.434  14.010  25.814  1.00  0.00     0.217 C 
HETATM   55  O2  UNL     1      57.684  13.014  25.638  1.00  0.00    -0.287 OA
BRANCH  54  56
HETATM   56  C16 UNL     1      57.776  15.352  25.681  1.00  0.00     0.251 C 
BRANCH  56  57
HETATM   57  O3  UNL     1      57.797  16.063  26.857  1.00  0.00    -0.393 OA
ATOM     58  H3  UNL     1      56.927  16.189  27.218  1.00  0.00     0.210 HD
ENDBRANCH  56  57
ENDBRANCH  54  56
ENDBRANCH  49  54
ENDBRANCH  46  47
ENDBRANCH  44  46
ENDBRANCH  41  44
ENDBRANCH  10  41
TORSDOF 12
ENDMDL
MODEL 2
REMARK VINA RESULT: -7.582078709      3.946      9.234
REMARK  12 active torsions:
REMARK  status: ('A' for Active; 'I' for Inactive)
REMARK    1  A    between atoms: C2_7  and  C3_8 
REMARK    2  A    between atoms: N4_10  and  C5_11 
REMARK    3  A    between atoms: C7_15  and  C8_16 
REMARK    4  A    between atoms: C8_16  and  N6_17 
REMARK    5  A    between atoms: C10_25  and  C11_26 
REMARK    6  A    between atoms: C11_26  and  O1_27 
REMARK    7  A    between atoms: C11_26  and  N9_29 
REMARK    8  A    between atoms: N9_29  and  C12_31 
REMARK    9  A    between atoms: C12_31  and  C13_32 
REMARK   10  A    between atoms: C14_35  and  C15_36 
REMARK   11  A    between atoms: C15_36  and  C16_38 
REMARK   12  A    between atoms: C16_38  and  O3_39 
ROOT
HETATM    1  C5  UNL     1      58.524  12.882  30.468  1.00  0.00     0.707 A 
HETATM    2  N5  UNL     1      58.440  11.630  29.986  1.00  0.00    -0.188 N 
ATOM      3  H5  UNL     1      59.261  11.212  29.547  1.00  0.00     0.184 HD
HETATM    4  C6  UNL     1      57.317  10.920  30.065  1.00  0.00     0.078 A 
HETATM    5  C7  UNL     1      57.297   9.658  29.522  1.00  0.00     0.037 A 
HETATM    6  C9  UNL     1      56.105   8.983  29.606  1.00  0.00     0.127 A 
HETATM    7  N7  UNL     1      56.062   7.668  29.045  1.00  0.00    -0.082 NA
HETATM    8  N8  UNL     1      55.028   9.516  30.181  1.00  0.00    -0.340 N 
ATOM      9  H8  UNL     1      54.179   8.952  30.205  1.00  0.00     0.167 HD
HETATM   10  C10 UNL     1      54.977  10.774  30.748  1.00  0.00     0.102 A 
HETATM   11  C17 UNL     1      56.177  11.448  30.656  1.00  0.00     0.091 A 
HETATM   12  C18 UNL     1      56.267  12.708  31.136  1.00  0.00     0.274 A 
HETATM   13  O5  UNL     1      55.339  13.277  31.665  1.00  0.00    -0.267 OA
HETATM   14  N12 UNL     1      57.431  13.383  31.030  1.00  0.00    -0.153 N 
ATOM     15  H12 UNL     1      57.473  14.332  31.403  1.00  0.00     0.187 HD
ENDROOT
BRANCH   1  16
HETATM   16  N4  UNL     1      59.762  13.570  30.344  1.00  0.00    -0.081 N 
HETATM   17  C4  UNL     1      59.938  14.715  29.526  1.00  0.00     0.169 A 
HETATM   18  C3  UNL     1      61.111  15.338  29.433  1.00  0.00     0.114 A 
HETATM   19  N15 UNL     1      62.273  14.936  30.121  1.00  0.00    -0.186 N 
HETATM   20  C19 UNL     1      62.147  13.776  30.968  1.00  0.00     0.692 A 
ATOM     21  H15 UNL     1      63.156  15.438  30.025  1.00  0.00     0.184 HD
HETATM   22  N13 UNL     1      60.886  13.134  31.046  1.00  0.00    -0.112 N 
HETATM   23  N14 UNL     1      63.172  13.351  31.628  1.00  0.00    -0.233 N 
ATOM     24  H13 UNL     1      60.796  12.313  31.645  1.00  0.00     0.206 HD
ATOM     25 2H14 UNL     1      63.082  12.530  32.227  1.00  0.00     0.174 HD
ATOM     26 1H14 UNL     1      64.079  13.813  31.571  1.00  0.00     0.174 HD
BRANCH  18  27
HETATM   27  C2  UNL     1      61.212  16.528  28.557  1.00  0.00     0.166 A 
HETATM   28  N3  UNL     1      60.199  17.239  28.043  1.00  0.00    -0.267 N 
HETATM   29  N2  UNL     1      60.729  18.207  27.328  1.00  0.00    -0.225 N 
ATOM     30  H3  UNL     1      59.204  17.062  28.180  1.00  0.00     0.190 HD
HETATM   31  N1  UNL     1      62.057  18.136  27.369  1.00  0.00    -0.223 N 
ATOM     32  H2  UNL     1      60.199  18.912  26.815  1.00  0.00     0.210 HD
HETATM   33  C1  UNL     1      62.903  19.073  26.675  1.00  0.00     0.202 C 
HETATM   34  N16 UNL     1      62.351  17.100  28.127  1.00  0.00    -0.265 N 
ATOM     35  H16 UNL     1      63.294  16.782  28.353  1.00  0.00     0.190 HD
ENDBRANCH  18  27
ENDBRANCH   1  16
BRANCH   5  36
HETATM   36  C8  UNL     1      58.533   9.102  28.890  1.00  0.00     0.274 C 
BRANCH  36  37
HETATM   37  N6  UNL     1      59.129   8.042  29.661  1.00  0.00    -0.075 N 
ATOM     38  H63 UNL     1      59.763   7.487  29.087  1.00  0.00     0.274 HD
ATOM     39  H62 UNL     1      59.797   8.414  30.336  1.00  0.00     0.274 HD
ATOM     40  H61 UNL     1      58.439   7.448  30.120  1.00  0.00     0.274 HD
ENDBRANCH  36  37
ENDBRANCH   5  36
BRANCH  10  41
HETATM   41  C11 UNL     1      53.766  11.223  31.435  1.00  0.00     0.164 C 
BRANCH  41  42
HETATM   42  O1  UNL     1      52.720  11.741  30.730  1.00  0.00    -0.345 OA
ATOM     43  H1  UNL     1      51.826  11.502  30.947  1.00  0.00     0.219 HD
ENDBRANCH  41  42
BRANCH  41  44
HETATM   44  N9  UNL     1      53.407  10.438  32.595  1.00  0.00    -0.361 N 
ATOM     45  H9  UNL     1      52.816   9.608  32.534  1.00  0.00     0.162 HD
BRANCH  44  46
HETATM   46  C12 UNL     1      53.936  10.905  33.821  1.00  0.00     0.208 C 
BRANCH  46  47
HETATM   47  C13 UNL     1      53.355  12.130  34.349  1.00  0.00     0.166 A 
HETATM   48  N10 UNL     1      53.245  13.287  33.672  1.00  0.00    -0.319 N 
HETATM   49  C14 UNL     1      52.667  14.188  34.464  1.00  0.00     0.176 A 
ATOM     50  H10 UNL     1      53.553  13.448  32.713  1.00  0.00     0.169 HD
HETATM   51  N11 UNL     1      52.419  13.596  35.623  1.00  0.00    -0.240 N 
HETATM   52  O4  UNL     1      52.839  12.364  35.531  1.00  0.00    -0.221 OA
ATOM     53  H11 UNL     1      51.980  14.024  36.438  1.00  0.00     0.196 HD
BRANCH  49  54
HETATM   54  C15 UNL     1      52.376  15.558  34.096  1.00  0.00     0.217 C 
HETATM   55  O2  UNL     1      52.766  16.069  33.013  1.00  0.00    -0.287 OA
BRANCH  54  56
HETATM   56  C16 UNL     1      51.580  16.462  34.992  1.00  0.00     0.251 C 
BRANCH  56  57
HETATM   57  O3  UNL     1      50.327  15.964  35.257  1.00  0.00    -0.393 OA
ATOM     58  H3  UNL     1      49.970  16.300  36.071  1.00  0.00     0.210 HD
ENDBRANCH  56  57
ENDBRANCH  54  56
ENDBRANCH  49  54
ENDBRANCH  46  47
ENDBRANCH  44  46
ENDBRANCH  41  44
ENDBRANCH  10  41
TORSDOF 12
ENDMDL
MODEL 3
REMARK VINA RESULT: -7.517629950      2.426      4.349
REMARK  12 active torsions:
REMARK  status: ('A' for Active; 'I' for Inactive)
REMARK    1  A    between atoms: C2_7  and  C3_8 
REMARK    2  A    between atoms: N4_10  and  C5_11 
REMARK    3  A    between atoms: C7_15  and  C8_16 
REMARK    4  A    between atoms: C8_16  and  N6_17 
REMARK    5  A    between atoms: C10_25  and  C11_26 
REMARK    6  A    between atoms: C11_26  and  O1_27 
REMARK    7  A    between atoms: C11_26  and  N9_29 
REMARK    8  A    between atoms: N9_29  and  C12_31 
REMARK    9  A    between atoms: C12_31  and  C13_32 
REMARK   10  A    between atoms: C14_35  and  C15_36 
REMARK   11  A    between atoms: C15_36  and  C16_38 
REMARK   12  A    between atoms: C16_38  and  O3_39 
ROOT
HETATM    1  C5  UNL     1      57.188  12.216  30.952  1.00  0.00     0.707 A 
HETATM    2  N5  UNL     1      57.619  11.861  29.729  1.00  0.00    -0.188 N 
ATOM      3  H5  UNL     1      56.951  11.474  29.062  1.00  0.00     0.184 HD
HETATM    4  C6  UNL     1      58.891  12.001  29.364  1.00  0.00     0.078 A 
HETATM    5  C7  UNL     1      59.264  11.587  28.108  1.00  0.00     0.037 A 
HETATM    6  C9  UNL     1      60.593  11.727  27.797  1.00  0.00     0.127 A 
HETATM    7  N7  UNL     1      61.004  11.300  26.494  1.00  0.00    -0.082 NA
HETATM    8  N8  UNL     1      61.474  12.237  28.657  1.00  0.00    -0.340 N 
ATOM      9  H8  UNL     1      62.444  12.309  28.352  1.00  0.00     0.167 HD
HETATM   10  C10 UNL     1      61.170  12.673  29.931  1.00  0.00     0.102 A 
HETATM   11  C17 UNL     1      59.833  12.525  30.239  1.00  0.00     0.091 A 
HETATM   12  C18 UNL     1      59.394  12.878  31.467  1.00  0.00     0.274 A 
HETATM   13  O5  UNL     1      60.122  13.339  32.318  1.00  0.00    -0.267 OA
HETATM   14  N12 UNL     1      58.092  12.716  31.786  1.00  0.00    -0.153 N 
ATOM     15  H12 UNL     1      57.786  12.992  32.719  1.00  0.00     0.187 HD
ENDROOT
BRANCH   1  16
HETATM   16  N4  UNL     1      55.812  12.035  31.260  1.00  0.00    -0.081 N 
HETATM   17  C4  UNL     1      55.130  12.786  32.251  1.00  0.00     0.169 A 
HETATM   18  C3  UNL     1      53.840  12.593  32.515  1.00  0.00     0.114 A 
HETATM   19  N15 UNL     1      53.034  11.645  31.852  1.00  0.00    -0.186 N 
HETATM   20  C19 UNL     1      53.680  10.855  30.834  1.00  0.00     0.692 A 
ATOM     21  H15 UNL     1      52.047  11.525  32.081  1.00  0.00     0.184 HD
HETATM   22  N13 UNL     1      55.054  11.084  30.576  1.00  0.00    -0.112 N 
HETATM   23  N14 UNL     1      53.002   9.969  30.186  1.00  0.00    -0.233 N 
ATOM     24  H13 UNL     1      55.512  10.526  29.855  1.00  0.00     0.206 HD
ATOM     25 2H14 UNL     1      53.459   9.410  29.465  1.00  0.00     0.174 HD
ATOM     26 1H14 UNL     1      52.012   9.804  30.372  1.00  0.00     0.174 HD
BRANCH  18  27
HETATM   27  C2  UNL     1      53.201  13.418  33.566  1.00  0.00     0.166 A 
HETATM   28  N3  UNL     1      52.832  13.018  34.791  1.00  0.00    -0.267 N 
HETATM   29  N2  UNL     1      52.310  14.062  35.398  1.00  0.00    -0.225 N 
ATOM     30  H3  UNL     1      52.937  12.081  35.180  1.00  0.00     0.190 HD
HETATM   31  N1  UNL     1      52.333  15.121  34.593  1.00  0.00    -0.223 N 
ATOM     32  H2  UNL     1      51.940  14.060  36.349  1.00  0.00     0.210 HD
HETATM   33  C1  UNL     1      51.824  16.408  34.995  1.00  0.00     0.202 C 
HETATM   34  N16 UNL     1      52.883  14.721  33.466  1.00  0.00    -0.265 N 
ATOM     35  H16 UNL     1      53.043  15.307  32.646  1.00  0.00     0.190 HD
ENDBRANCH  18  27
ENDBRANCH   1  16
BRANCH   5  36
HETATM   36  C8  UNL     1      58.239  11.025  27.177  1.00  0.00     0.274 C 
BRANCH  36  37
HETATM   37  N6  UNL     1      57.914  11.917  26.095  1.00  0.00    -0.075 N 
ATOM     38  H63 UNL     1      57.570  12.809  26.450  1.00  0.00     0.274 HD
ATOM     39  H62 UNL     1      58.758  12.240  25.623  1.00  0.00     0.274 HD
ATOM     40  H61 UNL     1      57.257  11.512  25.429  1.00  0.00     0.274 HD
ENDBRANCH  36  37
ENDBRANCH   5  36
BRANCH  10  41
HETATM   41  C11 UNL     1      62.199  13.302  30.759  1.00  0.00     0.164 C 
BRANCH  41  42
HETATM   42  O1  UNL     1      62.748  12.630  31.812  1.00  0.00    -0.345 OA
ATOM     43  H1  UNL     1      62.445  12.791  32.698  1.00  0.00     0.219 HD
ENDBRANCH  41  42
BRANCH  41  44
HETATM   44  N9  UNL     1      63.100  14.175  30.039  1.00  0.00    -0.361 N 
ATOM     45  H9  UNL     1      63.994  13.854  29.669  1.00  0.00     0.162 HD
BRANCH  44  46
HETATM   46  C12 UNL     1      62.648  15.506  29.887  1.00  0.00     0.208 C 
BRANCH  46  47
HETATM   47  C13 UNL     1      61.811  15.776  28.729  1.00  0.00     0.166 A 
HETATM   48  N10 UNL     1      60.466  15.746  28.723  1.00  0.00    -0.319 N 
HETATM   49  C14 UNL     1      60.041  16.042  27.497  1.00  0.00     0.176 A 
ATOM     50  H10 UNL     1      59.872  15.532  29.524  1.00  0.00     0.169 HD
HETATM   51  N11 UNL     1      61.112  16.254  26.747  1.00  0.00    -0.240 N 
HETATM   52  O4  UNL     1      62.160  16.090  27.505  1.00  0.00    -0.221 OA
ATOM     53  H11 UNL     1      61.116  16.501  25.757  1.00  0.00     0.196 HD
BRANCH  49  54
HETATM   54  C15 UNL     1      58.653  16.110  27.089  1.00  0.00     0.217 C 
HETATM   55  O2  UNL     1      57.748  16.571  27.833  1.00  0.00    -0.287 OA
BRANCH  54  56
HETATM   56  C16 UNL     1      58.205  15.633  25.738  1.00  0.00     0.251 C 
BRANCH  56  57
HETATM   57  O3  UNL     1      58.968  14.589  25.273  1.00  0.00    -0.393 OA
ATOM     58  H3  UNL     1      59.658  14.879  24.688  1.00  0.00     0.210 HD
ENDBRANCH  56  57
ENDBRANCH  54  56
ENDBRANCH  49  54
ENDBRANCH  46  47
ENDBRANCH  44  46
ENDBRANCH  41  44
ENDBRANCH  10  41
TORSDOF 12
ENDMDL
MODEL 4
REMARK VINA RESULT: -7.433665534      1.118      2.914
REMARK  12 active torsions:
REMARK  status: ('A' for Active; 'I' for Inactive)
REMARK    1  A    between atoms: C2_7  and  C3_8 
REMARK    2  A    between atoms: N4_10  and  C5_11 
REMARK    3  A    between atoms: C7_15  and  C8_16 
REMARK    4  A    between atoms: C8_16  and  N6_17 
REMARK    5  A    between atoms: C10_25  and  C11_26 
REMARK    6  A    between atoms: C11_26  and  O1_27 
REMARK    7  A    between atoms: C11_26  and  N9_29 
REMARK    8  A    between atoms: N9_29  and  C12_31 
REMARK    9  A    between atoms: C12_31  and  C13_32 
REMARK   10  A    between atoms: C14_35  and  C15_36 
REMARK   11  A    between atoms: C15_36  and  C16_38 
REMARK   12  A    between atoms: C16_38  and  O3_39 
ROOT
HETATM    1  C5  UNL     1      58.395  13.611  30.779  1.00  0.00     0.707 A 
HETATM    2  N5  UNL     1      59.490  13.119  31.383  1.00  0.00    -0.188 N 
ATOM      3  H5  UNL     1      59.381  12.395  32.094  1.00  0.00     0.184 HD
HETATM    4  C6  UNL     1      60.712  13.549  31.081  1.00  0.00     0.078 A 
HETATM    5  C7  UNL     1      61.783  13.022  31.762  1.00  0.00     0.037 A 
HETATM    6  C9  UNL     1      63.016  13.523  31.430  1.00  0.00     0.127 A 
HETATM    7  N7  UNL     1      64.144  12.989  32.129  1.00  0.00    -0.082 NA
HETATM    8  N8  UNL     1      63.172  14.464  30.500  1.00  0.00    -0.340 N 
ATOM      9  H8  UNL     1      64.121  14.786  30.309  1.00  0.00     0.167 HD
HETATM   10  C10 UNL     1      62.145  15.037  29.777  1.00  0.00     0.102 A 
HETATM   11  C17 UNL     1      60.908  14.531  30.119  1.00  0.00     0.091 A 
HETATM   12  C18 UNL     1      59.802  15.023  29.517  1.00  0.00     0.274 A 
HETATM   13  O5  UNL     1      59.845  15.887  28.670  1.00  0.00    -0.267 OA
HETATM   14  N12 UNL     1      58.585  14.551  29.862  1.00  0.00    -0.153 N 
ATOM     15  H12 UNL     1      57.767  14.938  29.391  1.00  0.00     0.187 HD
ENDROOT
BRANCH   1  16
HETATM   16  N4  UNL     1      57.126  13.095  31.161  1.00  0.00    -0.081 N 
HETATM   17  C4  UNL     1      56.117  13.881  31.775  1.00  0.00     0.169 A 
HETATM   18  C3  UNL     1      54.938  13.367  32.118  1.00  0.00     0.114 A 
HETATM   19  N15 UNL     1      54.576  12.021  31.913  1.00  0.00    -0.186 N 
HETATM   20  C19 UNL     1      55.566  11.178  31.292  1.00  0.00     0.692 A 
ATOM     21  H15 UNL     1      53.662  11.662  32.191  1.00  0.00     0.184 HD
HETATM   22  N13 UNL     1      56.812  11.754  30.937  1.00  0.00    -0.112 N 
HETATM   23  N14 UNL     1      55.302   9.934  31.073  1.00  0.00    -0.233 N 
ATOM     24  H13 UNL     1      57.513  11.159  30.496  1.00  0.00     0.206 HD
ATOM     25 2H14 UNL     1      56.004   9.338  30.633  1.00  0.00     0.174 HD
ATOM     26 1H14 UNL     1      54.405   9.520  31.328  1.00  0.00     0.174 HD
BRANCH  18  27
HETATM   27  C2  UNL     1      53.939  14.255  32.755  1.00  0.00     0.166 A 
HETATM   28  N3  UNL     1      53.539  15.460  32.323  1.00  0.00    -0.267 N 
HETATM   29  N2  UNL     1      52.642  15.900  33.179  1.00  0.00    -0.225 N 
ATOM     30  H3  UNL     1      53.868  15.944  31.488  1.00  0.00     0.190 HD
HETATM   31  N1  UNL     1      52.456  15.009  34.150  1.00  0.00    -0.223 N 
ATOM     32  H2  UNL     1      52.158  16.795  33.108  1.00  0.00     0.210 HD
HETATM   33  C1  UNL     1      51.527  15.225  35.229  1.00  0.00     0.202 C 
HETATM   34  N16 UNL     1      53.256  13.997  33.886  1.00  0.00    -0.265 N 
ATOM     35  H16 UNL     1      53.345  13.151  34.449  1.00  0.00     0.190 HD
ENDBRANCH  18  27
ENDBRANCH   1  16
BRANCH   5  36
HETATM   36  C8  UNL     1      61.557  11.964  32.794  1.00  0.00     0.274 C 
BRANCH  36  37
HETATM   37  N6  UNL     1      61.231  10.683  32.224  1.00  0.00    -0.075 N 
ATOM     38  H63 UNL     1      61.108   9.981  32.952  1.00  0.00     0.274 HD
ATOM     39  H62 UNL     1      60.288  10.687  31.835  1.00  0.00     0.274 HD
ATOM     40  H61 UNL     1      61.910  10.373  31.529  1.00  0.00     0.274 HD
ENDBRANCH  36  37
ENDBRANCH   5  36
BRANCH  10  41
HETATM   41  C11 UNL     1      62.439  15.998  28.713  1.00  0.00     0.164 C 
BRANCH  41  42
HETATM   42  O1  UNL     1      62.370  17.339  28.952  1.00  0.00    -0.345 OA
ATOM     43  H1  UNL     1      62.344  17.957  28.231  1.00  0.00     0.219 HD
ENDBRANCH  41  42
BRANCH  41  44
HETATM   44  N9  UNL     1      63.478  15.581  27.797  1.00  0.00    -0.361 N 
ATOM     45  H9  UNL     1      64.460  15.532  28.068  1.00  0.00     0.162 HD
BRANCH  44  46
HETATM   46  C12 UNL     1      63.030  15.247  26.498  1.00  0.00     0.208 C 
BRANCH  46  47
HETATM   47  C13 UNL     1      61.866  14.378  26.420  1.00  0.00     0.166 A 
HETATM   48  N10 UNL     1      60.635  14.767  26.042  1.00  0.00    -0.319 N 
HETATM   49  C14 UNL     1      59.824  13.713  26.089  1.00  0.00     0.176 A 
ATOM     50  H10 UNL     1      60.367  15.712  25.766  1.00  0.00     0.169 HD
HETATM   51  N11 UNL     1      60.544  12.677  26.492  1.00  0.00    -0.240 N 
HETATM   52  O4  UNL     1      61.764  13.098  26.684  1.00  0.00    -0.221 OA
ATOM     53  H11 UNL     1      60.207  11.723  26.628  1.00  0.00     0.196 HD
BRANCH  49  54
HETATM   54  C15 UNL     1      58.414  13.728  25.754  1.00  0.00     0.217 C 
HETATM   55  O2  UNL     1      57.705  12.688  25.751  1.00  0.00    -0.287 OA
BRANCH  54  56
HETATM   56  C16 UNL     1      57.706  15.000  25.390  1.00  0.00     0.251 C 
BRANCH  56  57
HETATM   57  O3  UNL     1      57.755  15.933  26.397  1.00  0.00    -0.393 OA
ATOM     58  H3  UNL     1      57.508  15.569  27.239  1.00  0.00     0.210 HD
ENDBRANCH  56  57
ENDBRANCH  54  56
ENDBRANCH  49  54
ENDBRANCH  46  47
ENDBRANCH  44  46
ENDBRANCH  41  44
ENDBRANCH  10  41
TORSDOF 12
ENDMDL
MODEL 5
REMARK VINA RESULT: -7.413607863      4.498      9.836
REMARK  12 active torsions:
REMARK  status: ('A' for Active; 'I' for Inactive)
REMARK    1  A    between atoms: C2_7  and  C3_8 
REMARK    2  A    between atoms: N4_10  and  C5_11 
REMARK    3  A    between atoms: C7_15  and  C8_16 
REMARK    4  A    between atoms: C8_16  and  N6_17 
REMARK    5  A    between atoms: C10_25  and  C11_26 
REMARK    6  A    between atoms: C11_26  and  O1_27 
REMARK    7  A    between atoms: C11_26  and  N9_29 
REMARK    8  A    between atoms: N9_29  and  C12_31 
REMARK    9  A    between atoms: C12_31  and  C13_32 
REMARK   10  A    between atoms: C14_35  and  C15_36 
REMARK   11  A    between atoms: C15_36  and  C16_38 
REMARK   12  A    between atoms: C16_38  and  O3_39 
ROOT
HETATM    1  C5  UNL     1      58.187  11.744  30.118  1.00  0.00     0.707 A 
HETATM    2  N5  UNL     1      56.954  12.110  30.508  1.00  0.00    -0.188 N 
ATOM      3  H5  UNL     1      56.787  13.080  30.778  1.00  0.00     0.184 HD
HETATM    4  C6  UNL     1      55.945  11.244  30.551  1.00  0.00     0.078 A 
HETATM    5  C7  UNL     1      54.719  11.683  30.989  1.00  0.00     0.037 A 
HETATM    6  C9  UNL     1      53.723  10.741  31.042  1.00  0.00     0.127 A 
HETATM    7  N7  UNL     1      52.439  11.177  31.497  1.00  0.00    -0.082 NA
HETATM    8  N8  UNL     1      53.927   9.473  30.686  1.00  0.00    -0.340 N 
ATOM      9  H8  UNL     1      53.137   8.832  30.752  1.00  0.00     0.167 HD
HETATM   10  C10 UNL     1      55.128   8.963  30.236  1.00  0.00     0.102 A 
HETATM   11  C17 UNL     1      56.126   9.915  30.190  1.00  0.00     0.091 A 
HETATM   12  C18 UNL     1      57.369   9.554  29.801  1.00  0.00     0.274 A 
HETATM   13  O5  UNL     1      57.651   8.423  29.471  1.00  0.00    -0.267 OA
HETATM   14  N12 UNL     1      58.357  10.473  29.776  1.00  0.00    -0.153 N 
ATOM     15  H12 UNL     1      59.285  10.174  29.477  1.00  0.00     0.187 HD
ENDROOT
BRANCH   1  16
HETATM   16  N4  UNL     1      59.209  12.732  30.099  1.00  0.00    -0.081 N 
HETATM   17  C4  UNL     1      59.126  13.925  29.336  1.00  0.00     0.169 A 
HETATM   18  C3  UNL     1      60.100  14.833  29.342  1.00  0.00     0.114 A 
HETATM   19  N15 UNL     1      61.288  14.708  30.090  1.00  0.00    -0.186 N 
HETATM   20  C19 UNL     1      61.422  13.512  30.884  1.00  0.00     0.692 A 
ATOM     21  H15 UNL     1      62.014  15.424  30.069  1.00  0.00     0.184 HD
HETATM   22  N13 UNL     1      60.368  12.565  30.857  1.00  0.00    -0.112 N 
HETATM   23  N14 UNL     1      62.484  13.332  31.594  1.00  0.00    -0.233 N 
ATOM     24  H13 UNL     1      60.462  11.719  31.419  1.00  0.00     0.206 HD
ATOM     25 2H14 UNL     1      62.579  12.485  32.156  1.00  0.00     0.174 HD
ATOM     26 1H14 UNL     1      63.243  14.014  31.613  1.00  0.00     0.174 HD
BRANCH  18  27
HETATM   27  C2  UNL     1      59.936  16.051  28.517  1.00  0.00     0.166 A 
HETATM   28  N3  UNL     1      58.831  16.442  27.866  1.00  0.00    -0.267 N 
HETATM   29  N2  UNL     1      59.117  17.575  27.263  1.00  0.00    -0.225 N 
ATOM     30  H3  UNL     1      57.936  15.952  27.843  1.00  0.00     0.190 HD
HETATM   31  N1  UNL     1      60.378  17.922  27.509  1.00  0.00    -0.223 N 
ATOM     32  H2  UNL     1      58.466  18.111  26.689  1.00  0.00     0.210 HD
HETATM   33  C1  UNL     1      60.966  19.124  26.976  1.00  0.00     0.202 C 
HETATM   34  N16 UNL     1      60.879  16.982  28.282  1.00  0.00    -0.265 N 
ATOM     35  H16 UNL     1      61.832  16.961  28.646  1.00  0.00     0.190 HD
ENDBRANCH  18  27
ENDBRANCH   1  16
BRANCH   5  36
HETATM   36  C8  UNL     1      54.538  13.117  31.374  1.00  0.00     0.274 C 
BRANCH  36  37
HETATM   37  N6  UNL     1      54.295  13.294  32.781  1.00  0.00    -0.075 N 
ATOM     38  H63 UNL     1      53.474  12.768  33.078  1.00  0.00     0.274 HD
ATOM     39  H62 UNL     1      55.007  12.819  33.336  1.00  0.00     0.274 HD
ATOM     40  H61 UNL     1      54.217  14.274  33.051  1.00  0.00     0.274 HD
ENDBRANCH  36  37
ENDBRANCH   5  36
BRANCH  10  41
HETATM   41  C11 UNL     1      55.216   7.574  29.784  1.00  0.00     0.164 C 
BRANCH  41  42
HETATM   42  O1  UNL     1      55.358   7.284  28.459  1.00  0.00    -0.345 OA
ATOM     43  H1  UNL     1      56.172   7.474  28.008  1.00  0.00     0.219 HD
ENDBRANCH  41  42
BRANCH  41  44
HETATM   44  N9  UNL     1      55.909   6.689  30.694  1.00  0.00    -0.361 N 
ATOM     45  H9  UNL     1      56.670   6.080  30.393  1.00  0.00     0.162 HD
BRANCH  44  46
HETATM   46  C12 UNL     1      55.452   6.730  32.032  1.00  0.00     0.208 C 
BRANCH  46  47
HETATM   47  C13 UNL     1      56.339   6.160  33.034  1.00  0.00     0.166 A 
HETATM   48  N10 UNL     1      57.326   5.281  32.782  1.00  0.00    -0.319 N 
HETATM   49  C14 UNL     1      57.928   4.979  33.931  1.00  0.00     0.176 A 
ATOM     50  H10 UNL     1      57.572   4.908  31.866  1.00  0.00     0.169 HD
HETATM   51  N11 UNL     1      57.321   5.665  34.888  1.00  0.00    -0.240 N 
HETATM   52  O4  UNL     1      56.373   6.365  34.328  1.00  0.00    -0.221 OA
ATOM     53  H11 UNL     1      57.552   5.649  35.882  1.00  0.00     0.196 HD
BRANCH  49  54
HETATM   54  C15 UNL     1      59.041   4.064  34.075  1.00  0.00     0.217 C 
HETATM   55  O2  UNL     1      60.161   4.265  33.536  1.00  0.00    -0.287 OA
BRANCH  54  56
HETATM   56  C16 UNL     1      58.925   2.806  34.885  1.00  0.00     0.251 C 
BRANCH  56  57
HETATM   57  O3  UNL     1      58.486   3.046  36.164  1.00  0.00    -0.393 OA
ATOM     58  H3  UNL     1      57.829   2.418  36.445  1.00  0.00     0.210 HD
ENDBRANCH  56  57
ENDBRANCH  54  56
ENDBRANCH  49  54
ENDBRANCH  46  47
ENDBRANCH  44  46
ENDBRANCH  41  44
ENDBRANCH  10  41
TORSDOF 12
ENDMDL
