MODEL 1
REMARK VINA RESULT: -4.758380792      0.000      0.000
REMARK  2 active torsions:
REMARK  status: ('A' for Active; 'I' for Inactive)
REMARK    1  A    between atoms: O1_1  and  C1_3 
REMARK    2  A    between atoms: C1_3  and  C2_4 
ROOT
HETATM    1  C2  UNL     1      22.277  43.434 -10.164  1.00  0.00     0.182 C 
HETATM    2  C3  UNL     1      21.067  42.559 -10.152  1.00  0.00     0.045 C 
HETATM    3  C4  UNL     1      20.060  43.292  -9.309  1.00  0.00     0.033 C 
HETATM    4  C5  UNL     1      20.507  44.721  -9.403  1.00  0.00     0.273 C 
HETATM    5  N1  UNL     1      21.735  44.753 -10.152  1.00  0.00     0.100 N 
HETATM    6  C6  UNL     1      22.832  45.161  -9.264  1.00  0.00     0.276 C 
HETATM    7  C7  UNL     1      22.981  43.703  -8.898  1.00  0.00     0.074 C 
ENDROOT
BRANCH   1   8
HETATM    8  C1  UNL     1      23.198  43.084 -11.291  1.00  0.00     0.206 C 
BRANCH   8   9
HETATM    9  O1  UNL     1      22.567  42.483 -12.366  1.00  0.00    -0.398 OA
ATOM     10  H1  UNL     1      22.493  43.042 -13.130  1.00  0.00     0.209 HD
ENDBRANCH   8   9
ENDBRANCH   1   8
TORSDOF 2
ENDMDL
MODEL 2
REMARK VINA RESULT: -4.697577692      1.827      2.927
REMARK  2 active torsions:
REMARK  status: ('A' for Active; 'I' for Inactive)
REMARK    1  A    between atoms: O1_1  and  C1_3 
REMARK    2  A    between atoms: C1_3  and  C2_4 
ROOT
HETATM    1  C2  UNL     1      20.877  44.011  -9.530  1.00  0.00     0.182 C 
HETATM    2  C3  UNL     1      21.853  43.346 -10.444  1.00  0.00     0.045 C 
HETATM    3  C4  UNL     1      23.079  44.217 -10.410  1.00  0.00     0.033 C 
HETATM    4  C5  UNL     1      22.959  44.929  -9.096  1.00  0.00     0.273 C 
HETATM    5  N1  UNL     1      21.702  44.559  -8.503  1.00  0.00     0.100 N 
HETATM    6  C6  UNL     1      20.820  45.733  -8.468  1.00  0.00     0.276 C 
HETATM    7  C7  UNL     1      20.383  45.358  -9.864  1.00  0.00     0.074 C 
ENDROOT
BRANCH   1   8
HETATM    8  C1  UNL     1      19.792  43.070  -9.106  1.00  0.00     0.206 C 
BRANCH   8   9
HETATM    9  O1  UNL     1      18.693  43.065  -9.946  1.00  0.00    -0.398 OA
ATOM     10  H1  UNL     1      18.511  42.218 -10.336  1.00  0.00     0.209 HD
ENDBRANCH   8   9
ENDBRANCH   1   8
TORSDOF 2
ENDMDL
MODEL 3
REMARK VINA RESULT: -4.531166147      1.441      2.628
REMARK  2 active torsions:
REMARK  status: ('A' for Active; 'I' for Inactive)
REMARK    1  A    between atoms: O1_1  and  C1_3 
REMARK    2  A    between atoms: C1_3  and  C2_4 
ROOT
HETATM    1  C2  UNL     1      21.925  43.666 -10.032  1.00  0.00     0.182 C 
HETATM    2  C3  UNL     1      22.928  43.466 -11.121  1.00  0.00     0.045 C 
HETATM    3  C4  UNL     1      23.957  44.542 -10.908  1.00  0.00     0.033 C 
HETATM    4  C5  UNL     1      23.817  44.870  -9.452  1.00  0.00     0.273 C 
HETATM    5  N1  UNL     1      22.713  44.109  -8.929  1.00  0.00     0.100 N 
HETATM    6  C6  UNL     1      21.625  45.025  -8.562  1.00  0.00     0.276 C 
HETATM    7  C7  UNL     1      21.149  44.918  -9.991  1.00  0.00     0.074 C 
ENDROOT
BRANCH   1   8
HETATM    8  C1  UNL     1      21.086  42.442  -9.825  1.00  0.00     0.206 C 
BRANCH   8   9
HETATM    9  O1  UNL     1      20.112  42.260 -10.790  1.00  0.00    -0.398 OA
ATOM     10  H1  UNL     1      19.342  41.800 -10.478  1.00  0.00     0.209 HD
ENDBRANCH   8   9
ENDBRANCH   1   8
TORSDOF 2
ENDMDL
MODEL 4
REMARK VINA RESULT: -4.528093141      0.991      1.074
REMARK  2 active torsions:
REMARK  status: ('A' for Active; 'I' for Inactive)
REMARK    1  A    between atoms: O1_1  and  C1_3 
REMARK    2  A    between atoms: C1_3  and  C2_4 
ROOT
HETATM    1  C2  UNL     1      22.705  43.905 -10.232  1.00  0.00     0.182 C 
HETATM    2  C3  UNL     1      22.040  42.656 -10.712  1.00  0.00     0.045 C 
HETATM    3  C4  UNL     1      20.753  42.576  -9.939  1.00  0.00     0.033 C 
HETATM    4  C5  UNL     1      20.493  44.001  -9.553  1.00  0.00     0.273 C 
HETATM    5  N1  UNL     1      21.615  44.790  -9.987  1.00  0.00     0.100 N 
HETATM    6  C6  UNL     1      22.334  45.296  -8.810  1.00  0.00     0.276 C 
HETATM    7  C7  UNL     1      23.115  44.003  -8.821  1.00  0.00     0.074 C 
ENDROOT
BRANCH   1   8
HETATM    8  C1  UNL     1      23.760  44.368 -11.190  1.00  0.00     0.206 C 
BRANCH   8   9
HETATM    9  O1  UNL     1      24.359  43.345 -11.903  1.00  0.00    -0.398 OA
ATOM     10  H1  UNL     1      24.769  43.628 -12.711  1.00  0.00     0.209 HD
ENDBRANCH   8   9
ENDBRANCH   1   8
TORSDOF 2
ENDMDL
MODEL 5
REMARK VINA RESULT: -4.411630745      2.315      3.583
REMARK  2 active torsions:
REMARK  status: ('A' for Active; 'I' for Inactive)
REMARK    1  A    between atoms: O1_1  and  C1_3 
REMARK    2  A    between atoms: C1_3  and  C2_4 
ROOT
HETATM    1  C2  UNL     1      20.854  44.875  -9.225  1.00  0.00     0.182 C 
HETATM    2  C3  UNL     1      22.301  45.204  -9.055  1.00  0.00     0.045 C 
HETATM    3  C4  UNL     1      23.014  43.882  -9.120  1.00  0.00     0.033 C 
HETATM    4  C5  UNL     1      22.063  43.015  -9.890  1.00  0.00     0.273 C 
HETATM    5  N1  UNL     1      20.866  43.776 -10.132  1.00  0.00     0.100 N 
HETATM    6  C6  UNL     1      19.755  43.182  -9.376  1.00  0.00     0.276 C 
HETATM    7  C7  UNL     1      20.183  44.043  -8.211  1.00  0.00     0.074 C 
ENDROOT
BRANCH   1   8
HETATM    8  C1  UNL     1      20.059  46.081  -9.623  1.00  0.00     0.206 C 
BRANCH   8   9
HETATM    9  O1  UNL     1      20.084  47.103  -8.691  1.00  0.00    -0.398 OA
ATOM     10  H1  UNL     1      19.292  47.170  -8.172  1.00  0.00     0.209 HD
ENDBRANCH   8   9
ENDBRANCH   1   8
TORSDOF 2
ENDMDL
