MODEL 1
REMARK VINA RESULT: -5.832430918      0.000      0.000
REMARK  3 active torsions:
REMARK  status: ('A' for Active; 'I' for Inactive)
REMARK    1  A    between atoms: N1_1  and  C1_5 
REMARK    2  A    between atoms: C1_5  and  C2_6 
REMARK       I    between atoms: C2_6  and  N2_8 
REMARK    3  A    between atoms: C5_11  and  N3_12 
ROOT
HETATM    1  C2  UNL     1      21.503  43.289 -10.562  1.00  0.00     0.245 C 
HETATM    2  O1  UNL     1      21.176  42.504 -11.515  1.00  0.00    -0.272 OA
HETATM    3  N2  UNL     1      22.847  43.675 -10.370  1.00  0.00    -0.349 N 
HETATM    4  C3  UNL     1      23.338  44.550  -9.336  1.00  0.00     0.128 C 
HETATM    5  C4  UNL     1      24.509  45.266  -9.999  1.00  0.00     0.047 C 
HETATM    6  C5  UNL     1      24.584  44.646 -11.410  1.00  0.00     0.108 C 
HETATM    7  C9  UNL     1      24.033  43.305 -11.132  1.00  0.00     0.151 C 
ENDROOT
BRANCH   6   8
HETATM    8  N3  UNL     1      25.863  44.792 -11.963  1.00  0.00    -0.333 N 
HETATM    9  C6  UNL     1      26.874  43.825 -11.506  1.00  0.00     0.252 A 
HETATM   10  N4  UNL     1      28.153  44.012 -12.120  1.00  0.00    -0.348 N 
HETATM   11  C7  UNL     1      28.421  44.920 -12.958  1.00  0.00     0.191 A 
ATOM     12  H4  UNL     1      28.900  43.368 -11.863  1.00  0.00     0.163 HD
HETATM   13  N5  UNL     1      29.760  44.992 -13.497  1.00  0.00    -0.063 NA
HETATM   14  N6  UNL     1      27.440  45.832 -13.360  1.00  0.00    -0.305 N 
HETATM   15  C8  UNL     1      26.253  45.761 -12.888  1.00  0.00     0.194 A 
ATOM     16  H6  UNL     1      27.672  46.560 -14.036  1.00  0.00     0.171 HD
HETATM   17  N7  UNL     1      25.324  46.718 -13.334  1.00  0.00    -0.063 NA
ENDBRANCH   6   8
BRANCH   1  18
HETATM   18  C1  UNL     1      20.398  43.764  -9.678  1.00  0.00     0.332 C 
BRANCH  18  19
HETATM   19  N1  UNL     1      19.146  43.150 -10.004  1.00  0.00    -0.071 N 
ATOM     20  H13 UNL     1      18.597  43.740 -10.631  1.00  0.00     0.274 HD
ATOM     21  H12 UNL     1      19.278  42.344 -10.615  1.00  0.00     0.274 HD
ATOM     22  H11 UNL     1      18.614  42.900  -9.171  1.00  0.00     0.274 HD
ENDBRANCH  18  19
ENDBRANCH   1  18
TORSDOF 3
ENDMDL
MODEL 2
REMARK VINA RESULT: -5.827331851      2.300      6.540
REMARK  3 active torsions:
REMARK  status: ('A' for Active; 'I' for Inactive)
REMARK    1  A    between atoms: N1_1  and  C1_5 
REMARK    2  A    between atoms: C1_5  and  C2_6 
REMARK       I    between atoms: C2_6  and  N2_8 
REMARK    3  A    between atoms: C5_11  and  N3_12 
ROOT
HETATM    1  C2  UNL     1      27.766  45.757 -12.446  1.00  0.00     0.245 C 
HETATM    2  O1  UNL     1      27.914  44.897 -13.379  1.00  0.00    -0.272 OA
HETATM    3  N2  UNL     1      26.503  45.974 -11.855  1.00  0.00    -0.349 N 
HETATM    4  C3  UNL     1      26.211  46.911 -10.800  1.00  0.00     0.128 C 
HETATM    5  C4  UNL     1      25.098  46.230 -10.013  1.00  0.00     0.047 C 
HETATM    6  C5  UNL     1      24.834  44.919 -10.784  1.00  0.00     0.108 C 
HETATM    7  C9  UNL     1      25.223  45.338 -12.145  1.00  0.00     0.151 C 
ENDROOT
BRANCH   6   8
HETATM    8  N3  UNL     1      23.548  44.427 -10.529  1.00  0.00    -0.333 N 
HETATM    9  C6  UNL     1      22.808  45.096  -9.445  1.00  0.00     0.252 A 
HETATM   10  N4  UNL     1      21.496  44.562  -9.246  1.00  0.00    -0.348 N 
HETATM   11  C7  UNL     1      21.002  43.602  -9.905  1.00  0.00     0.191 A 
ATOM     12  H4  UNL     1      20.918  44.986  -8.521  1.00  0.00     0.163 HD
HETATM   13  N5  UNL     1      19.660  43.166  -9.594  1.00  0.00    -0.063 NA
HETATM   14  N6  UNL     1      21.738  42.982 -10.919  1.00  0.00    -0.305 N 
HETATM   15  C8  UNL     1      22.922  43.375 -11.199  1.00  0.00     0.194 A 
ATOM     16  H6  UNL     1      21.327  42.207 -11.441  1.00  0.00     0.171 HD
HETATM   17  N7  UNL     1      23.602  42.696 -12.225  1.00  0.00    -0.063 NA
ENDBRANCH   6   8
BRANCH   1  18
HETATM   18  C1  UNL     1      28.988  46.504 -12.026  1.00  0.00     0.332 C 
BRANCH  18  19
HETATM   19  N1  UNL     1      29.624  47.157 -13.129  1.00  0.00    -0.071 N 
ATOM     20  H13 UNL     1      30.033  46.480 -13.774  1.00  0.00     0.274 HD
ATOM     21  H12 UNL     1      28.939  47.581 -13.754  1.00  0.00     0.274 HD
ATOM     22  H11 UNL     1      30.317  47.840 -12.821  1.00  0.00     0.274 HD
ENDBRANCH  18  19
ENDBRANCH   1  18
TORSDOF 3
ENDMDL
MODEL 3
REMARK VINA RESULT: -5.622440434      3.286      6.518
REMARK  3 active torsions:
REMARK  status: ('A' for Active; 'I' for Inactive)
REMARK    1  A    between atoms: N1_1  and  C1_5 
REMARK    2  A    between atoms: C1_5  and  C2_6 
REMARK       I    between atoms: C2_6  and  N2_8 
REMARK    3  A    between atoms: C5_11  and  N3_12 
ROOT
HETATM    1  C2  UNL     1      28.228  47.805 -11.095  1.00  0.00     0.245 C 
HETATM    2  O1  UNL     1      28.847  47.201 -12.035  1.00  0.00    -0.272 OA
HETATM    3  N2  UNL     1      26.864  47.546 -10.841  1.00  0.00    -0.349 N 
HETATM    4  C3  UNL     1      26.061  48.161  -9.816  1.00  0.00     0.128 C 
HETATM    5  C4  UNL     1      25.079  47.063  -9.423  1.00  0.00     0.047 C 
HETATM    6  C5  UNL     1      25.428  45.888 -10.360  1.00  0.00     0.108 C 
HETATM    7  C9  UNL     1      25.954  46.632 -11.522  1.00  0.00     0.151 C 
ENDROOT
BRANCH   6   8
HETATM    8  N3  UNL     1      24.344  45.013 -10.505  1.00  0.00    -0.333 N 
HETATM    9  C6  UNL     1      23.203  45.250  -9.606  1.00  0.00     0.252 A 
HETATM   10  N4  UNL     1      22.121  44.337  -9.814  1.00  0.00    -0.348 N 
HETATM   11  C7  UNL     1      22.124  43.400 -10.664  1.00  0.00     0.191 A 
ATOM     12  H4  UNL     1      21.288  44.451  -9.238  1.00  0.00     0.163 HD
HETATM   13  N5  UNL     1      20.959  42.552 -10.764  1.00  0.00    -0.063 NA
HETATM   14  N6  UNL     1      23.232  43.195 -11.492  1.00  0.00    -0.305 N 
HETATM   15  C8  UNL     1      24.258  43.952 -11.408  1.00  0.00     0.194 A 
ATOM     16  H6  UNL     1      23.221  42.433 -12.171  1.00  0.00     0.171 HD
HETATM   17  N7  UNL     1      25.336  43.677 -12.268  1.00  0.00    -0.063 NA
ENDBRANCH   6   8
BRANCH   1  18
HETATM   18  C1  UNL     1      29.021  48.785 -10.295  1.00  0.00     0.332 C 
BRANCH  18  19
HETATM   19  N1  UNL     1      29.208  50.022 -10.991  1.00  0.00    -0.071 N 
ATOM     20  H13 UNL     1      28.372  50.606 -10.939  1.00  0.00     0.274 HD
ATOM     21  H12 UNL     1      29.860  50.630 -10.497  1.00  0.00     0.274 HD
ATOM     22  H11 UNL     1      29.498  49.876 -11.958  1.00  0.00     0.274 HD
ENDBRANCH  18  19
ENDBRANCH   1  18
TORSDOF 3
ENDMDL
MODEL 4
REMARK VINA RESULT: -5.485367481      1.689      2.017
REMARK  3 active torsions:
REMARK  status: ('A' for Active; 'I' for Inactive)
REMARK    1  A    between atoms: N1_1  and  C1_5 
REMARK    2  A    between atoms: C1_5  and  C2_6 
REMARK       I    between atoms: C2_6  and  N2_8 
REMARK    3  A    between atoms: C5_11  and  N3_12 
ROOT
HETATM    1  C2  UNL     1      20.887  44.391  -9.479  1.00  0.00     0.245 C 
HETATM    2  O1  UNL     1      20.679  45.524  -8.926  1.00  0.00    -0.272 OA
HETATM    3  N2  UNL     1      21.938  44.219 -10.405  1.00  0.00    -0.349 N 
HETATM    4  C3  UNL     1      22.271  42.997 -11.091  1.00  0.00     0.128 C 
HETATM    5  C4  UNL     1      23.785  43.074 -11.248  1.00  0.00     0.047 C 
HETATM    6  C5  UNL     1      24.161  44.439 -10.634  1.00  0.00     0.108 C 
HETATM    7  C9  UNL     1      22.915  45.188 -10.887  1.00  0.00     0.151 C 
ENDROOT
BRANCH   6   8
HETATM    8  N3  UNL     1      25.386  44.902 -11.132  1.00  0.00    -0.333 N 
HETATM    9  C6  UNL     1      26.039  44.041 -12.132  1.00  0.00     0.252 A 
HETATM   10  N4  UNL     1      27.274  44.577 -12.616  1.00  0.00    -0.348 N 
HETATM   11  C7  UNL     1      27.787  45.666 -12.228  1.00  0.00     0.191 A 
ATOM     12  H4  UNL     1      27.776  44.042 -13.324  1.00  0.00     0.163 HD
HETATM   13  N5  UNL     1      29.044  46.083 -12.805  1.00  0.00    -0.063 NA
HETATM   14  N6  UNL     1      27.146  46.452 -11.266  1.00  0.00    -0.305 N 
HETATM   15  C8  UNL     1      26.029  46.085 -10.763  1.00  0.00     0.194 A 
ATOM     16  H6  UNL     1      27.573  47.327 -10.962  1.00  0.00     0.171 HD
HETATM   17  N7  UNL     1      25.451  46.924  -9.795  1.00  0.00    -0.063 NA
ENDBRANCH   6   8
BRANCH   1  18
HETATM   18  C1  UNL     1      19.967  43.280  -9.093  1.00  0.00     0.332 C 
BRANCH  18  19
HETATM   19  N1  UNL     1      18.858  43.164  -9.991  1.00  0.00    -0.071 N 
ATOM     20  H13 UNL     1      18.449  42.230  -9.955  1.00  0.00     0.274 HD
ATOM     21  H12 UNL     1      18.058  43.704  -9.662  1.00  0.00     0.274 HD
ATOM     22  H11 UNL     1      19.110  43.421 -10.946  1.00  0.00     0.274 HD
ENDBRANCH  18  19
ENDBRANCH   1  18
TORSDOF 3
ENDMDL
MODEL 5
REMARK VINA RESULT: -5.432172884      2.724      6.511
REMARK  3 active torsions:
REMARK  status: ('A' for Active; 'I' for Inactive)
REMARK    1  A    between atoms: N1_1  and  C1_5 
REMARK    2  A    between atoms: C1_5  and  C2_6 
REMARK       I    between atoms: C2_6  and  N2_8 
REMARK    3  A    between atoms: C5_11  and  N3_12 
ROOT
HETATM    1  C2  UNL     1      29.006  45.778 -11.427  1.00  0.00     0.245 C 
HETATM    2  O1  UNL     1      29.509  45.107 -10.462  1.00  0.00    -0.272 OA
HETATM    3  N2  UNL     1      27.737  45.453 -11.951  1.00  0.00    -0.349 N 
HETATM    4  C3  UNL     1      27.067  46.130 -13.032  1.00  0.00     0.128 C 
HETATM    5  C4  UNL     1      25.591  46.010 -12.671  1.00  0.00     0.047 C 
HETATM    6  C5  UNL     1      25.585  45.186 -11.367  1.00  0.00     0.108 C 
HETATM    7  C9  UNL     1      26.816  44.393 -11.555  1.00  0.00     0.151 C 
ENDROOT
BRANCH   6   8
HETATM    8  N3  UNL     1      24.352  44.552 -11.170  1.00  0.00    -0.333 N 
HETATM    9  C6  UNL     1      24.013  43.493 -12.134  1.00  0.00     0.252 A 
HETATM   10  N4  UNL     1      22.752  42.871 -11.870  1.00  0.00    -0.348 N 
HETATM   11  C7  UNL     1      21.977  43.191 -10.923  1.00  0.00     0.191 A 
ATOM     12  H4  UNL     1      22.457  42.116 -12.488  1.00  0.00     0.163 HD
HETATM   13  N5  UNL     1      20.730  42.476 -10.776  1.00  0.00    -0.063 NA
HETATM   14  N6  UNL     1      22.324  44.212 -10.033  1.00  0.00    -0.305 N 
HETATM   15  C8  UNL     1      23.432  44.838 -10.159  1.00  0.00     0.194 A 
ATOM     16  H6  UNL     1      21.688  44.460  -9.275  1.00  0.00     0.171 HD
HETATM   17  N7  UNL     1      23.706  45.858  -9.231  1.00  0.00    -0.063 NA
ENDBRANCH   6   8
BRANCH   1  18
HETATM   18  C1  UNL     1      29.827  46.907 -11.956  1.00  0.00     0.332 C 
BRANCH  18  19
HETATM   19  N1  UNL     1      29.560  48.134 -11.268  1.00  0.00    -0.071 N 
ATOM     20  H13 UNL     1      30.111  48.902 -11.654  1.00  0.00     0.274 HD
ATOM     21  H12 UNL     1      28.626  48.482 -11.481  1.00  0.00     0.274 HD
ATOM     22  H11 UNL     1      29.702  48.047 -10.262  1.00  0.00     0.274 HD
ENDBRANCH  18  19
ENDBRANCH   1  18
TORSDOF 3
ENDMDL
