MODEL 1
REMARK VINA RESULT: -6.665534493      0.000      0.000
REMARK  5 active torsions:
REMARK  status: ('A' for Active; 'I' for Inactive)
REMARK    1  A    between atoms: N1_1  and  N2_4 
REMARK    2  A    between atoms: N2_4  and  N3_6 
REMARK    3  A    between atoms: N3_6  and  C1_8 
REMARK    4  A    between atoms: C3_16  and  N7_17 
REMARK       I    between atoms: N7_17  and  C4_19 
REMARK    5  A    between atoms: C4_19  and  C5_21 
ROOT
HETATM    1  C1  UNL     1      22.034  45.355  -9.107  1.00  0.00     0.181 A 
HETATM    2  N4  UNL     1      21.127  45.253  -8.127  1.00  0.00    -0.280 N 
ATOM      3  H4  UNL     1      21.240  45.829  -7.293  1.00  0.00     0.188 HD
HETATM    4  N5  UNL     1      20.106  44.447  -8.197  1.00  0.00    -0.294 N 
ATOM      5  H5  UNL     1      19.432  44.391  -7.434  1.00  0.00     0.187 HD
HETATM    6  C2  UNL     1      19.963  43.695  -9.294  1.00  0.00     0.199 A 
HETATM    7  N6  UNL     1      20.819  43.748 -10.291  1.00  0.00    -0.334 N 
ATOM      8  H6  UNL     1      20.680  43.159 -11.113  1.00  0.00     0.168 HD
HETATM    9  C3  UNL     1      21.883  44.581 -10.230  1.00  0.00     0.156 A 
ENDROOT
BRANCH   9  10
HETATM   10  N7  UNL     1      22.686  44.601 -11.217  1.00  0.00    -0.307 N 
HETATM   11  C4  UNL     1      23.871  43.895 -11.409  1.00  0.00     0.282 C 
HETATM   12  O1  UNL     1      23.831  42.709 -11.856  1.00  0.00    -0.269 OA
ATOM     13  H7  UNL     1      22.423  45.225 -11.979  1.00  0.00     0.170 HD
BRANCH  11  14
HETATM   14  C5  UNL     1      25.208  44.460 -11.119  1.00  0.00     0.473 C 
HETATM   15  N8  UNL     1      26.241  43.868 -11.951  1.00  0.00    -0.036 N 
HETATM   16  C6  UNL     1      27.308  44.869 -11.770  1.00  0.00     0.262 C 
ATOM     17  H82 UNL     1      26.492  42.903 -11.733  1.00  0.00     0.280 HD
ATOM     18  H81 UNL     1      25.977  43.664 -12.914  1.00  0.00     0.280 HD
HETATM   19  C7  UNL     1      26.539  46.134 -12.051  1.00  0.00     0.262 C 
HETATM   20  N9  UNL     1      25.258  45.878 -11.472  1.00  0.00    -0.036 N 
ATOM     21  H92 UNL     1      24.486  46.165 -12.073  1.00  0.00     0.280 HD
ATOM     22  H91 UNL     1      25.049  46.492 -10.684  1.00  0.00     0.280 HD
ENDBRANCH  11  14
ENDBRANCH   9  10
BRANCH   1  23
HETATM   23  N3  UNL     1      23.120  46.258  -8.953  1.00  0.00    -0.267 N 
ATOM     24  H3  UNL     1      24.065  45.939  -9.165  1.00  0.00     0.190 HD
BRANCH  23  25
HETATM   25  N2  UNL     1      22.943  47.434  -8.565  1.00  0.00    -0.248 N 
ATOM     26  H2  UNL     1      21.934  47.578  -8.544  1.00  0.00     0.207 HD
BRANCH  25  27
HETATM   27  N1  UNL     1      23.455  48.508  -8.191  1.00  0.00    -0.331 N 
ATOM     28  H12 UNL     1      24.002  48.252  -7.369  1.00  0.00     0.178 HD
ATOM     29  H11 UNL     1      23.563  49.510  -8.345  1.00  0.00     0.178 HD
ENDBRANCH  25  27
ENDBRANCH  23  25
ENDBRANCH   1  23
TORSDOF 5
ENDMDL
MODEL 2
REMARK VINA RESULT: -6.648967766      2.052      2.374
REMARK  5 active torsions:
REMARK  status: ('A' for Active; 'I' for Inactive)
REMARK    1  A    between atoms: N1_1  and  N2_4 
REMARK    2  A    between atoms: N2_4  and  N3_6 
REMARK    3  A    between atoms: N3_6  and  C1_8 
REMARK    4  A    between atoms: C3_16  and  N7_17 
REMARK       I    between atoms: N7_17  and  C4_19 
REMARK    5  A    between atoms: C4_19  and  C5_21 
ROOT
HETATM    1  C1  UNL     1      20.973  44.788  -9.121  1.00  0.00     0.181 A 
HETATM    2  N4  UNL     1      19.833  44.249  -9.574  1.00  0.00    -0.280 N 
ATOM      3  H4  UNL     1      18.952  44.716  -9.361  1.00  0.00     0.188 HD
HETATM    4  N5  UNL     1      19.806  43.152 -10.274  1.00  0.00    -0.294 N 
ATOM      5  H5  UNL     1      18.922  42.765 -10.605  1.00  0.00     0.187 HD
HETATM    6  C2  UNL     1      20.965  42.544 -10.550  1.00  0.00     0.199 A 
HETATM    7  N6  UNL     1      22.118  43.021 -10.135  1.00  0.00    -0.334 N 
ATOM      8  H6  UNL     1      22.983  42.531 -10.363  1.00  0.00     0.168 HD
HETATM    9  C3  UNL     1      22.159  44.160  -9.407  1.00  0.00     0.156 A 
ENDROOT
BRANCH   9  10
HETATM   10  N7  UNL     1      23.296  44.586  -9.025  1.00  0.00    -0.307 N 
HETATM   11  C4  UNL     1      24.084  45.605  -9.556  1.00  0.00     0.282 C 
HETATM   12  O1  UNL     1      23.860  46.809  -9.226  1.00  0.00    -0.269 OA
ATOM     13  H7  UNL     1      23.687  44.113  -8.212  1.00  0.00     0.170 HD
BRANCH  11  14
HETATM   14  C5  UNL     1      25.195  45.361 -10.504  1.00  0.00     0.473 C 
HETATM   15  N8  UNL     1      24.712  45.034 -11.834  1.00  0.00    -0.036 N 
HETATM   16  C6  UNL     1      25.944  45.270 -12.609  1.00  0.00     0.262 C 
ATOM     17  H82 UNL     1      24.286  44.113 -11.941  1.00  0.00     0.280 HD
ATOM     18  H81 UNL     1      23.883  45.541 -12.146  1.00  0.00     0.280 HD
HETATM   19  C7  UNL     1      26.325  46.635 -12.098  1.00  0.00     0.262 C 
HETATM   20  N9  UNL     1      25.973  46.581 -10.714  1.00  0.00    -0.036 N 
ATOM     21  H92 UNL     1      25.490  47.420 -10.394  1.00  0.00     0.280 HD
ATOM     22  H91 UNL     1      26.781  46.648 -10.095  1.00  0.00     0.280 HD
ENDBRANCH  11  14
ENDBRANCH   9  10
BRANCH   1  23
HETATM   23  N3  UNL     1      20.918  45.987  -8.362  1.00  0.00    -0.267 N 
ATOM     24  H3  UNL     1      21.366  46.018  -7.447  1.00  0.00     0.190 HD
BRANCH  23  25
HETATM   25  N2  UNL     1      20.332  47.006  -8.791  1.00  0.00    -0.248 N 
ATOM     26  H2  UNL     1      20.886  47.805  -8.481  1.00  0.00     0.207 HD
BRANCH  25  27
HETATM   27  N1  UNL     1      19.370  47.478  -9.429  1.00  0.00    -0.331 N 
ATOM     28  H12 UNL     1      18.731  46.691  -9.538  1.00  0.00     0.178 HD
ATOM     29  H11 UNL     1      18.953  48.292  -9.882  1.00  0.00     0.178 HD
ENDBRANCH  25  27
ENDBRANCH  23  25
ENDBRANCH   1  23
TORSDOF 5
ENDMDL
MODEL 3
REMARK VINA RESULT: -6.575407823      1.415      4.622
REMARK  5 active torsions:
REMARK  status: ('A' for Active; 'I' for Inactive)
REMARK    1  A    between atoms: N1_1  and  N2_4 
REMARK    2  A    between atoms: N2_4  and  N3_6 
REMARK    3  A    between atoms: N3_6  and  C1_8 
REMARK    4  A    between atoms: C3_16  and  N7_17 
REMARK       I    between atoms: N7_17  and  C4_19 
REMARK    5  A    between atoms: C4_19  and  C5_21 
ROOT
HETATM    1  C1  UNL     1      24.757  46.001 -10.178  1.00  0.00     0.181 A 
HETATM    2  N4  UNL     1      25.592  46.782 -10.875  1.00  0.00    -0.280 N 
ATOM      3  H4  UNL     1      25.883  47.672 -10.470  1.00  0.00     0.188 HD
HETATM    4  N5  UNL     1      26.047  46.451 -12.050  1.00  0.00    -0.294 N 
ATOM      5  H5  UNL     1      26.681  47.067 -12.557  1.00  0.00     0.187 HD
HETATM    6  C2  UNL     1      25.661  45.283 -12.575  1.00  0.00     0.199 A 
HETATM    7  N6  UNL     1      24.843  44.470 -11.942  1.00  0.00    -0.334 N 
ATOM      8  H6  UNL     1      24.569  43.588 -12.373  1.00  0.00     0.168 HD
HETATM    9  C3  UNL     1      24.364  44.804 -10.722  1.00  0.00     0.156 A 
ENDROOT
BRANCH   9  10
HETATM   10  N7  UNL     1      23.576  43.988 -10.145  1.00  0.00    -0.307 N 
HETATM   11  C4  UNL     1      22.231  43.727 -10.397  1.00  0.00     0.282 C 
HETATM   12  O1  UNL     1      21.910  42.915 -11.316  1.00  0.00    -0.269 OA
ATOM     13  H7  UNL     1      23.989  43.447  -9.386  1.00  0.00     0.170 HD
BRANCH  11  14
HETATM   14  C5  UNL     1      21.126  44.355  -9.637  1.00  0.00     0.473 C 
HETATM   15  N8  UNL     1      21.587  44.930  -8.385  1.00  0.00    -0.036 N 
HETATM   16  C6  UNL     1      20.444  45.810  -8.082  1.00  0.00     0.262 C 
ATOM     17  H82 UNL     1      21.844  44.265  -7.655  1.00  0.00     0.280 HD
ATOM     18  H81 UNL     1      22.503  45.378  -8.409  1.00  0.00     0.280 HD
HETATM   19  C7  UNL     1      20.297  46.523  -9.402  1.00  0.00     0.262 C 
HETATM   20  N9  UNL     1      20.587  45.505 -10.362  1.00  0.00    -0.036 N 
ATOM     21  H92 UNL     1      21.203  45.827 -11.109  1.00  0.00     0.280 HD
ATOM     22  H91 UNL     1      19.784  45.267 -10.944  1.00  0.00     0.280 HD
ENDBRANCH  11  14
ENDBRANCH   9  10
BRANCH   1  23
HETATM   23  N3  UNL     1      24.305  46.434  -8.903  1.00  0.00    -0.267 N 
ATOM     24  H3  UNL     1      24.041  45.739  -8.206  1.00  0.00     0.190 HD
BRANCH  23  25
HETATM   25  N2  UNL     1      24.225  47.650  -8.616  1.00  0.00    -0.248 N 
ATOM     26  H2  UNL     1      25.104  48.072  -8.914  1.00  0.00     0.207 HD
BRANCH  25  27
HETATM   27  N1  UNL     1      23.545  48.573  -8.126  1.00  0.00    -0.331 N 
ATOM     28  H12 UNL     1      23.219  49.102  -8.935  1.00  0.00     0.178 HD
ATOM     29  H11 UNL     1      23.180  49.023  -7.286  1.00  0.00     0.178 HD
ENDBRANCH  25  27
ENDBRANCH  23  25
ENDBRANCH   1  23
TORSDOF 5
ENDMDL
MODEL 4
REMARK VINA RESULT: -6.402223739      1.478      1.734
REMARK  5 active torsions:
REMARK  status: ('A' for Active; 'I' for Inactive)
REMARK    1  A    between atoms: N1_1  and  N2_4 
REMARK    2  A    between atoms: N2_4  and  N3_6 
REMARK    3  A    between atoms: N3_6  and  C1_8 
REMARK    4  A    between atoms: C3_16  and  N7_17 
REMARK       I    between atoms: N7_17  and  C4_19 
REMARK    5  A    between atoms: C4_19  and  C5_21 
ROOT
HETATM    1  C1  UNL     1      21.210  44.767  -9.430  1.00  0.00     0.181 A 
HETATM    2  N4  UNL     1      20.232  44.066  -8.840  1.00  0.00    -0.280 N 
ATOM      3  H4  UNL     1      19.744  44.479  -8.046  1.00  0.00     0.188 HD
HETATM    4  N5  UNL     1      19.880  42.878  -9.242  1.00  0.00    -0.294 N 
ATOM      5  H5  UNL     1      19.132  42.369  -8.773  1.00  0.00     0.187 HD
HETATM    6  C2  UNL     1      20.524  42.343 -10.285  1.00  0.00     0.199 A 
HETATM    7  N6  UNL     1      21.494  42.978 -10.907  1.00  0.00    -0.334 N 
ATOM      8  H6  UNL     1      21.964  42.540 -11.698  1.00  0.00     0.168 HD
HETATM    9  C3  UNL     1      21.868  44.213 -10.499  1.00  0.00     0.156 A 
ENDROOT
BRANCH   9  10
HETATM   10  N7  UNL     1      22.810  44.792 -11.129  1.00  0.00    -0.307 N 
HETATM   11  C4  UNL     1      24.131  44.392 -11.311  1.00  0.00     0.282 C 
HETATM   12  O1  UNL     1      24.419  43.578 -12.240  1.00  0.00    -0.269 OA
ATOM     13  H7  UNL     1      22.560  45.679 -11.564  1.00  0.00     0.170 HD
BRANCH  11  14
HETATM   14  C5  UNL     1      25.248  44.873 -10.465  1.00  0.00     0.473 C 
HETATM   15  N8  UNL     1      26.504  44.905 -11.193  1.00  0.00    -0.036 N 
HETATM   16  C6  UNL     1      27.283  45.784 -10.302  1.00  0.00     0.262 C 
ATOM     17  H82 UNL     1      26.923  43.998 -11.404  1.00  0.00     0.280 HD
ATOM     18  H81 UNL     1      26.449  45.194 -12.169  1.00  0.00     0.280 HD
HETATM   19  C7  UNL     1      26.310  46.922 -10.130  1.00  0.00     0.262 C 
HETATM   20  N9  UNL     1      25.041  46.268 -10.080  1.00  0.00    -0.036 N 
ATOM     21  H92 UNL     1      24.331  46.735 -10.644  1.00  0.00     0.280 HD
ATOM     22  H91 UNL     1      24.579  46.366  -9.176  1.00  0.00     0.280 HD
ENDBRANCH  11  14
ENDBRANCH   9  10
BRANCH   1  23
HETATM   23  N3  UNL     1      21.534  46.057  -8.931  1.00  0.00    -0.267 N 
ATOM     24  H3  UNL     1      22.478  46.235  -8.587  1.00  0.00     0.190 HD
BRANCH  23  25
HETATM   25  N2  UNL     1      20.689  46.979  -8.903  1.00  0.00    -0.248 N 
ATOM     26  H2  UNL     1      21.095  47.720  -8.331  1.00  0.00     0.207 HD
BRANCH  25  27
HETATM   27  N1  UNL     1      19.570  47.394  -9.264  1.00  0.00    -0.331 N 
ATOM     28  H12 UNL     1      19.691  48.403  -9.348  1.00  0.00     0.178 HD
ATOM     29  H11 UNL     1      18.605  47.169  -9.508  1.00  0.00     0.178 HD
ENDBRANCH  25  27
ENDBRANCH  23  25
ENDBRANCH   1  23
TORSDOF 5
ENDMDL
MODEL 5
REMARK VINA RESULT: -6.320020427      2.100      4.950
REMARK  5 active torsions:
REMARK  status: ('A' for Active; 'I' for Inactive)
REMARK    1  A    between atoms: N1_1  and  N2_4 
REMARK    2  A    between atoms: N2_4  and  N3_6 
REMARK    3  A    between atoms: N3_6  and  C1_8 
REMARK    4  A    between atoms: C3_16  and  N7_17 
REMARK       I    between atoms: N7_17  and  C4_19 
REMARK    5  A    between atoms: C4_19  and  C5_21 
ROOT
HETATM    1  C1  UNL     1      24.297  47.123  -9.185  1.00  0.00     0.181 A 
HETATM    2  N4  UNL     1      25.317  47.639  -9.883  1.00  0.00    -0.280 N 
ATOM      3  H4  UNL     1      25.637  48.581  -9.658  1.00  0.00     0.188 HD
HETATM    4  N5  UNL     1      25.915  46.986 -10.838  1.00  0.00    -0.294 N 
ATOM      5  H5  UNL     1      26.688  47.406 -11.352  1.00  0.00     0.187 HD
HETATM    6  C2  UNL     1      25.490  45.751 -11.128  1.00  0.00     0.199 A 
HETATM    7  N6  UNL     1      24.494  45.187 -10.480  1.00  0.00    -0.334 N 
ATOM      8  H6  UNL     1      24.195  44.244 -10.728  1.00  0.00     0.168 HD
HETATM    9  C3  UNL     1      23.865  45.856  -9.486  1.00  0.00     0.156 A 
ENDROOT
BRANCH   9  10
HETATM   10  N7  UNL     1      22.906  45.273  -8.886  1.00  0.00    -0.307 N 
HETATM   11  C4  UNL     1      21.700  44.798  -9.395  1.00  0.00     0.282 C 
HETATM   12  O1  UNL     1      21.654  43.652  -9.937  1.00  0.00    -0.269 OA
ATOM     13  H7  UNL     1      23.041  45.133  -7.885  1.00  0.00     0.170 HD
BRANCH  11  14
HETATM   14  C5  UNL     1      20.436  45.567  -9.337  1.00  0.00     0.473 C 
HETATM   15  N8  UNL     1      20.674  46.991  -9.185  1.00  0.00    -0.036 N 
HETATM   16  C6  UNL     1      19.351  47.506  -9.582  1.00  0.00     0.262 C 
ATOM     17  H82 UNL     1      21.015  47.292  -8.272  1.00  0.00     0.280 HD
ATOM     18  H81 UNL     1      21.472  47.368  -9.695  1.00  0.00     0.280 HD
HETATM   19  C7  UNL     1      19.148  46.758 -10.875  1.00  0.00     0.262 C 
HETATM   20  N9  UNL     1      19.716  45.475 -10.607  1.00  0.00    -0.036 N 
ATOM     21  H92 UNL     1      20.299  45.131 -11.370  1.00  0.00     0.280 HD
ATOM     22  H91 UNL     1      19.025  44.725 -10.619  1.00  0.00     0.280 HD
ENDBRANCH  11  14
ENDBRANCH   9  10
BRANCH   1  23
HETATM   23  N3  UNL     1      23.697  47.900  -8.158  1.00  0.00    -0.267 N 
ATOM     24  H3  UNL     1      23.058  47.451  -7.503  1.00  0.00     0.190 HD
BRANCH  23  25
HETATM   25  N2  UNL     1      23.935  49.123  -8.040  1.00  0.00    -0.248 N 
ATOM     26  H2  UNL     1      24.226  49.447  -8.962  1.00  0.00     0.207 HD
BRANCH  25  27
HETATM   27  N1  UNL     1      23.975  50.121  -7.293  1.00  0.00    -0.331 N 
ATOM     28  H12 UNL     1      23.476  49.826  -6.453  1.00  0.00     0.178 HD
ATOM     29  H11 UNL     1      24.281  51.084  -7.158  1.00  0.00     0.178 HD
ENDBRANCH  25  27
ENDBRANCH  23  25
ENDBRANCH   1  23
TORSDOF 5
ENDMDL
