MODEL 1
REMARK VINA RESULT: -7.834680664      0.000      0.000
REMARK  9 active torsions:
REMARK  status: ('A' for Active; 'I' for Inactive)
REMARK    1  A    between atoms: C2_2  and  C4_4 
REMARK    2  A    between atoms: C4_4  and  N1_5 
REMARK    3  A    between atoms: C4_4  and  C15_25 
REMARK       I    between atoms: N1_5  and  C5_7 
REMARK    4  A    between atoms: C5_7  and  C6_9 
REMARK    5  A    between atoms: C6_9  and  N2_10 
REMARK    6  A    between atoms: C6_9  and  C7_14 
REMARK    7  A    between atoms: C7_14  and  C8_15 
REMARK    8  A    between atoms: C12_19  and  C13_20 
REMARK       I    between atoms: C15_25  and  N3_27 
REMARK    9  A    between atoms: C19_32  and  O4_33 
ROOT
HETATM    1  N1  UNL     1      -3.280   5.713   9.791  1.00  0.00    -0.346 N 
ATOM      2  H1  UNL     1      -3.390   6.577  10.322  1.00  0.00     0.163 HD
HETATM    3  C5  UNL     1      -3.702   5.712   8.461  1.00  0.00     0.249 C 
HETATM    4  O1  UNL     1      -3.599   4.701   7.735  1.00  0.00    -0.271 OA
ENDROOT
BRANCH   3   5
HETATM    5  C6  UNL     1      -4.313   6.968   7.836  1.00  0.00     0.275 C 
BRANCH   5   6
HETATM    6  N2  UNL     1      -3.475   7.433   6.782  1.00  0.00    -0.066 N 
ATOM      7  H23 UNL     1      -2.538   7.664   7.109  1.00  0.00     0.275 HD
ATOM      8  H22 UNL     1      -3.224   6.687   6.132  1.00  0.00     0.275 HD
ATOM      9  H21 UNL     1      -3.924   8.218   6.310  1.00  0.00     0.275 HD
ENDBRANCH   5   6
BRANCH   5  10
HETATM   10  C7  UNL     1      -4.545   7.898   8.967  1.00  0.00     0.051 C 
BRANCH  10  11
HETATM   11  C8  UNL     1      -5.929   8.383   9.188  1.00  0.00    -0.041 C 
HETATM   12  C9  UNL     1      -6.213   9.022  10.502  1.00  0.00     0.015 C 
HETATM   13  C10 UNL     1      -6.834   7.145   9.080  1.00  0.00     0.010 C 
HETATM   14  C11 UNL     1      -8.128   7.607   8.498  1.00  0.00     0.014 C 
HETATM   15  C12 UNL     1      -7.687   8.676   7.530  1.00  0.00     0.094 C 
HETATM   16  C14 UNL     1      -6.432   9.275   8.072  1.00  0.00     0.022 C 
BRANCH  15  17
HETATM   17  C13 UNL     1      -8.816   9.657   7.384  1.00  0.00     0.391 C 
HETATM   18  F1  UNL     1      -8.914   9.948   6.017  1.00  0.00    -0.171 F 
HETATM   19  F2  UNL     1      -8.629  10.824   8.066  1.00  0.00    -0.171 F 
HETATM   20  F3  UNL     1     -10.029   9.050   7.711  1.00  0.00    -0.171 F 
ENDBRANCH  15  17
ENDBRANCH  10  11
ENDBRANCH   5  10
ENDBRANCH   3   5
BRANCH   1  21
HETATM   21  C4  UNL     1      -2.706   4.592  10.460  1.00  0.00     0.180 C 
BRANCH  21  22
HETATM   22  C2  UNL     1      -1.777   5.038  11.555  1.00  0.00     0.009 C 
HETATM   23  C1  UNL     1      -2.102   6.518  11.803  1.00  0.00     0.012 C 
HETATM   24  C3  UNL     1      -0.314   4.866  11.263  1.00  0.00     0.012 C 
ENDBRANCH  21  22
BRANCH  21  25
HETATM   25  C15 UNL     1      -3.665   3.553  10.825  1.00  0.00     0.246 C 
HETATM   26  O2  UNL     1      -4.885   3.955  10.964  1.00  0.00    -0.271 OA
HETATM   27  N3  UNL     1      -3.467   2.191  11.041  1.00  0.00    -0.302 N 
HETATM   28  C16 UNL     1      -2.175   1.580  10.886  1.00  0.00     0.298 C 
HETATM   29  C19 UNL     1      -4.552   1.313  11.438  1.00  0.00     0.226 C 
HETATM   30  O3  UNL     1      -2.303   0.422  10.082  1.00  0.00    -0.372 OA
HETATM   31  C17 UNL     1      -2.919  -0.528  10.901  1.00  0.00     0.174 C 
HETATM   32  C18 UNL     1      -4.354  -0.114  11.060  1.00  0.00     0.080 C 
BRANCH  29  33
HETATM   33  O4  UNL     1      -5.772   1.737  10.919  1.00  0.00    -0.376 OA
ATOM     34  H4  UNL     1      -5.758   1.770   9.970  1.00  0.00     0.212 HD
ENDBRANCH  29  33
ENDBRANCH  21  25
ENDBRANCH   1  21
TORSDOF 9
ENDMDL
MODEL 2
REMARK VINA RESULT: -7.792480585      5.503      6.957
REMARK  9 active torsions:
REMARK  status: ('A' for Active; 'I' for Inactive)
REMARK    1  A    between atoms: C2_2  and  C4_4 
REMARK    2  A    between atoms: C4_4  and  N1_5 
REMARK    3  A    between atoms: C4_4  and  C15_25 
REMARK       I    between atoms: N1_5  and  C5_7 
REMARK    4  A    between atoms: C5_7  and  C6_9 
REMARK    5  A    between atoms: C6_9  and  N2_10 
REMARK    6  A    between atoms: C6_9  and  C7_14 
REMARK    7  A    between atoms: C7_14  and  C8_15 
REMARK    8  A    between atoms: C12_19  and  C13_20 
REMARK       I    between atoms: C15_25  and  N3_27 
REMARK    9  A    between atoms: C19_32  and  O4_33 
ROOT
HETATM    1  N1  UNL     1      -3.957   4.388  14.513  1.00  0.00    -0.346 N 
ATOM      2  H1  UNL     1      -4.556   5.039  14.004  1.00  0.00     0.163 HD
HETATM    3  C5  UNL     1      -2.592   4.669  14.566  1.00  0.00     0.249 C 
HETATM    4  O1  UNL     1      -1.787   3.930  15.171  1.00  0.00    -0.271 OA
ENDROOT
BRANCH   3   5
HETATM    5  C6  UNL     1      -2.024   5.910  13.873  1.00  0.00     0.275 C 
BRANCH   5   6
HETATM    6  N2  UNL     1      -2.467   7.081  14.553  1.00  0.00    -0.066 N 
ATOM      7  H23 UNL     1      -1.754   7.457  15.177  1.00  0.00     0.275 HD
ATOM      8  H22 UNL     1      -2.552   7.881  13.927  1.00  0.00     0.275 HD
ATOM      9  H21 UNL     1      -3.340   6.881  15.042  1.00  0.00     0.275 HD
ENDBRANCH   5   6
BRANCH   5  10
HETATM   10  C7  UNL     1      -2.409   5.777  12.448  1.00  0.00     0.051 C 
BRANCH  10  11
HETATM   11  C8  UNL     1      -1.359   5.363  11.486  1.00  0.00    -0.041 C 
HETATM   12  C9  UNL     1      -0.031   6.021  11.618  1.00  0.00     0.015 C 
HETATM   13  C10 UNL     1      -1.902   5.714  10.091  1.00  0.00     0.010 C 
HETATM   14  C11 UNL     1      -1.375   4.682   9.151  1.00  0.00     0.014 C 
HETATM   15  C12 UNL     1      -1.378   3.435  10.000  1.00  0.00     0.094 C 
HETATM   16  C14 UNL     1      -1.174   3.861  11.415  1.00  0.00     0.022 C 
BRANCH  15  17
HETATM   17  C13 UNL     1      -0.305   2.522   9.479  1.00  0.00     0.391 C 
HETATM   18  F1  UNL     1       0.897   2.953  10.057  1.00  0.00    -0.171 F 
HETATM   19  F2  UNL     1      -0.167   2.543   8.122  1.00  0.00    -0.171 F 
HETATM   20  F3  UNL     1      -0.493   1.228   9.966  1.00  0.00    -0.171 F 
ENDBRANCH  15  17
ENDBRANCH  10  11
ENDBRANCH   5  10
ENDBRANCH   3   5
BRANCH   1  21
HETATM   21  C4  UNL     1      -4.576   3.255  15.120  1.00  0.00     0.180 C 
BRANCH  21  22
HETATM   22  C2  UNL     1      -6.032   3.516  15.385  1.00  0.00     0.009 C 
HETATM   23  C1  UNL     1      -6.217   5.034  15.248  1.00  0.00     0.012 C 
HETATM   24  C3  UNL     1      -6.535   3.048  16.721  1.00  0.00     0.012 C 
ENDBRANCH  21  22
BRANCH  21  25
HETATM   25  C15 UNL     1      -4.265   1.982  14.476  1.00  0.00     0.246 C 
HETATM   26  O2  UNL     1      -3.981   1.013  15.281  1.00  0.00    -0.271 OA
HETATM   27  N3  UNL     1      -4.233   1.651  13.122  1.00  0.00    -0.302 N 
HETATM   28  C16 UNL     1      -4.563   2.607  12.101  1.00  0.00     0.298 C 
HETATM   29  C19 UNL     1      -3.861   0.324  12.668  1.00  0.00     0.226 C 
HETATM   30  O3  UNL     1      -5.490   2.023  11.203  1.00  0.00    -0.372 OA
HETATM   31  C17 UNL     1      -4.746   1.114  10.447  1.00  0.00     0.174 C 
HETATM   32  C18 UNL     1      -4.424  -0.049  11.341  1.00  0.00     0.080 C 
BRANCH  29  33
HETATM   33  O4  UNL     1      -4.225  -0.656  13.588  1.00  0.00    -0.376 OA
ATOM     34  H4  UNL     1      -5.115  -0.957  13.447  1.00  0.00     0.212 HD
ENDBRANCH  29  33
ENDBRANCH  21  25
ENDBRANCH   1  21
TORSDOF 9
ENDMDL
MODEL 3
REMARK VINA RESULT: -7.751001592      1.211      1.285
REMARK  9 active torsions:
REMARK  status: ('A' for Active; 'I' for Inactive)
REMARK    1  A    between atoms: C2_2  and  C4_4 
REMARK    2  A    between atoms: C4_4  and  N1_5 
REMARK    3  A    between atoms: C4_4  and  C15_25 
REMARK       I    between atoms: N1_5  and  C5_7 
REMARK    4  A    between atoms: C5_7  and  C6_9 
REMARK    5  A    between atoms: C6_9  and  N2_10 
REMARK    6  A    between atoms: C6_9  and  C7_14 
REMARK    7  A    between atoms: C7_14  and  C8_15 
REMARK    8  A    between atoms: C12_19  and  C13_20 
REMARK       I    between atoms: C15_25  and  N3_27 
REMARK    9  A    between atoms: C19_32  and  O4_33 
ROOT
HETATM    1  N1  UNL     1      -3.160   5.837  11.082  1.00  0.00    -0.346 N 
ATOM      2  H1  UNL     1      -3.697   6.300  11.816  1.00  0.00     0.163 HD
HETATM    3  C5  UNL     1      -3.013   6.505   9.867  1.00  0.00     0.249 C 
HETATM    4  O1  UNL     1      -2.367   6.015   8.916  1.00  0.00    -0.271 OA
ENDROOT
BRANCH   3   5
HETATM    5  C6  UNL     1      -3.647   7.881   9.652  1.00  0.00     0.275 C 
BRANCH   5   6
HETATM    6  N2  UNL     1      -2.627   8.874   9.599  1.00  0.00    -0.066 N 
ATOM      7  H23 UNL     1      -2.310   9.150  10.528  1.00  0.00     0.275 HD
ATOM      8  H22 UNL     1      -1.744   8.501   9.248  1.00  0.00     0.275 HD
ATOM      9  H21 UNL     1      -2.952   9.669   9.050  1.00  0.00     0.275 HD
ENDBRANCH   5   6
BRANCH   5  10
HETATM   10  C7  UNL     1      -4.661   8.019  10.723  1.00  0.00     0.051 C 
BRANCH  10  11
HETATM   11  C8  UNL     1      -6.088   8.071  10.321  1.00  0.00    -0.041 C 
HETATM   12  C9  UNL     1      -7.095   8.004  11.414  1.00  0.00     0.015 C 
HETATM   13  C10 UNL     1      -6.316   6.848   9.417  1.00  0.00     0.010 C 
HETATM   14  C11 UNL     1      -7.338   7.246   8.406  1.00  0.00     0.014 C 
HETATM   15  C12 UNL     1      -7.001   8.694   8.153  1.00  0.00     0.094 C 
HETATM   16  C14 UNL     1      -6.407   9.237   9.409  1.00  0.00     0.022 C 
BRANCH  15  17
HETATM   17  C13 UNL     1      -8.262   9.391   7.725  1.00  0.00     0.391 C 
HETATM   18  F1  UNL     1      -8.204   9.494   6.329  1.00  0.00    -0.171 F 
HETATM   19  F2  UNL     1      -8.409  10.642   8.248  1.00  0.00    -0.171 F 
HETATM   20  F3  UNL     1      -9.371   8.583   7.980  1.00  0.00    -0.171 F 
ENDBRANCH  15  17
ENDBRANCH  10  11
ENDBRANCH   5  10
ENDBRANCH   3   5
BRANCH   1  21
HETATM   21  C4  UNL     1      -2.613   4.552  11.373  1.00  0.00     0.180 C 
BRANCH  21  22
HETATM   22  C2  UNL     1      -1.665   4.623  12.538  1.00  0.00     0.009 C 
HETATM   23  C1  UNL     1      -2.472   5.221  13.699  1.00  0.00     0.012 C 
HETATM   24  C3  UNL     1      -0.417   5.426  12.301  1.00  0.00     0.012 C 
ENDBRANCH  21  22
BRANCH  21  25
HETATM   25  C15 UNL     1      -3.597   3.475  11.419  1.00  0.00     0.246 C 
HETATM   26  O2  UNL     1      -4.824   3.857  11.555  1.00  0.00    -0.271 OA
HETATM   27  N3  UNL     1      -3.416   2.096  11.335  1.00  0.00    -0.302 N 
HETATM   28  C16 UNL     1      -2.117   1.513  11.142  1.00  0.00     0.298 C 
HETATM   29  C19 UNL     1      -4.530   1.171  11.440  1.00  0.00     0.226 C 
HETATM   30  O3  UNL     1      -2.184   0.570  10.087  1.00  0.00    -0.372 OA
HETATM   31  C17 UNL     1      -2.861  -0.529  10.621  1.00  0.00     0.174 C 
HETATM   32  C18 UNL     1      -4.304  -0.137  10.764  1.00  0.00     0.080 C 
BRANCH  29  33
HETATM   33  O4  UNL     1      -5.706   1.723  10.942  1.00  0.00    -0.376 OA
ATOM     34  H4  UNL     1      -6.306   1.053  10.635  1.00  0.00     0.212 HD
ENDBRANCH  29  33
ENDBRANCH  21  25
ENDBRANCH   1  21
TORSDOF 9
ENDMDL
MODEL 4
REMARK VINA RESULT: -7.726768870      5.014      6.891
REMARK  9 active torsions:
REMARK  status: ('A' for Active; 'I' for Inactive)
REMARK    1  A    between atoms: C2_2  and  C4_4 
REMARK    2  A    between atoms: C4_4  and  N1_5 
REMARK    3  A    between atoms: C4_4  and  C15_25 
REMARK       I    between atoms: N1_5  and  C5_7 
REMARK    4  A    between atoms: C5_7  and  C6_9 
REMARK    5  A    between atoms: C6_9  and  N2_10 
REMARK    6  A    between atoms: C6_9  and  C7_14 
REMARK    7  A    between atoms: C7_14  and  C8_15 
REMARK    8  A    between atoms: C12_19  and  C13_20 
REMARK       I    between atoms: C15_25  and  N3_27 
REMARK    9  A    between atoms: C19_32  and  O4_33 
ROOT
HETATM    1  N1  UNL     1      -3.201   2.396  12.325  1.00  0.00    -0.346 N 
ATOM      2  H1  UNL     1      -2.299   2.384  12.800  1.00  0.00     0.163 HD
HETATM    3  C5  UNL     1      -3.484   3.485  11.500  1.00  0.00     0.249 C 
HETATM    4  O1  UNL     1      -4.562   3.579  10.875  1.00  0.00    -0.271 OA
ENDROOT
BRANCH   3   5
HETATM    5  C6  UNL     1      -2.470   4.618  11.328  1.00  0.00     0.275 C 
BRANCH   5   6
HETATM    6  N2  UNL     1      -1.516   4.258  10.333  1.00  0.00    -0.066 N 
ATOM      7  H23 UNL     1      -0.781   3.657  10.704  1.00  0.00     0.275 HD
ATOM      8  H22 UNL     1      -1.903   3.610   9.646  1.00  0.00     0.275 HD
ATOM      9  H21 UNL     1      -1.142   5.101   9.898  1.00  0.00     0.275 HD
ENDBRANCH   5   6
BRANCH   5  10
HETATM   10  C7  UNL     1      -1.949   4.889  12.688  1.00  0.00     0.051 C 
BRANCH  10  11
HETATM   11  C8  UNL     1      -2.376   6.144  13.353  1.00  0.00    -0.041 C 
HETATM   12  C9  UNL     1      -3.694   6.122  14.043  1.00  0.00     0.015 C 
HETATM   13  C10 UNL     1      -2.463   7.203  12.242  1.00  0.00     0.010 C 
HETATM   14  C11 UNL     1      -2.083   8.507  12.859  1.00  0.00     0.014 C 
HETATM   15  C12 UNL     1      -1.018   8.103  13.847  1.00  0.00     0.094 C 
HETATM   16  C14 UNL     1      -1.326   6.710  14.286  1.00  0.00     0.022 C 
BRANCH  15  17
HETATM   17  C13 UNL     1      -1.023   9.108  14.965  1.00  0.00     0.391 C 
HETATM   18  F1  UNL     1      -1.902  10.128  14.576  1.00  0.00    -0.171 F 
HETATM   19  F2  UNL     1       0.198   9.660  15.221  1.00  0.00    -0.171 F 
HETATM   20  F3  UNL     1      -1.598   8.555  16.109  1.00  0.00    -0.171 F 
ENDBRANCH  15  17
ENDBRANCH  10  11
ENDBRANCH   5  10
ENDBRANCH   3   5
BRANCH   1  21
HETATM   21  C4  UNL     1      -4.085   1.299  12.552  1.00  0.00     0.180 C 
BRANCH  21  22
HETATM   22  C2  UNL     1      -3.726   0.131  11.675  1.00  0.00     0.009 C 
HETATM   23  C1  UNL     1      -2.280   0.377  11.220  1.00  0.00     0.012 C 
HETATM   24  C3  UNL     1      -4.620  -0.076  10.486  1.00  0.00     0.012 C 
ENDBRANCH  21  22
BRANCH  21  25
HETATM   25  C15 UNL     1      -4.312   0.991  13.960  1.00  0.00     0.246 C 
HETATM   26  O2  UNL     1      -3.650  -0.022  14.415  1.00  0.00    -0.271 OA
HETATM   27  N3  UNL     1      -5.132   1.625  14.892  1.00  0.00    -0.302 N 
HETATM   28  C16 UNL     1      -5.902   2.790  14.554  1.00  0.00     0.298 C 
HETATM   29  C19 UNL     1      -5.255   1.142  16.255  1.00  0.00     0.226 C 
HETATM   30  O3  UNL     1      -5.693   3.785  15.539  1.00  0.00    -0.372 OA
HETATM   31  C17 UNL     1      -6.403   3.347  16.660  1.00  0.00     0.174 C 
HETATM   32  C18 UNL     1      -5.645   2.188  17.241  1.00  0.00     0.080 C 
BRANCH  29  33
HETATM   33  O4  UNL     1      -4.080   0.542  16.697  1.00  0.00    -0.376 OA
ATOM     34  H4  UNL     1      -4.230  -0.349  16.991  1.00  0.00     0.212 HD
ENDBRANCH  29  33
ENDBRANCH  21  25
ENDBRANCH   1  21
TORSDOF 9
ENDMDL
MODEL 5
REMARK VINA RESULT: -7.714855818      3.167      4.690
REMARK  9 active torsions:
REMARK  status: ('A' for Active; 'I' for Inactive)
REMARK    1  A    between atoms: C2_2  and  C4_4 
REMARK    2  A    between atoms: C4_4  and  N1_5 
REMARK    3  A    between atoms: C4_4  and  C15_25 
REMARK       I    between atoms: N1_5  and  C5_7 
REMARK    4  A    between atoms: C5_7  and  C6_9 
REMARK    5  A    between atoms: C6_9  and  N2_10 
REMARK    6  A    between atoms: C6_9  and  C7_14 
REMARK    7  A    between atoms: C7_14  and  C8_15 
REMARK    8  A    between atoms: C12_19  and  C13_20 
REMARK       I    between atoms: C15_25  and  N3_27 
REMARK    9  A    between atoms: C19_32  and  O4_33 
ROOT
HETATM    1  N1  UNL     1      -4.106   4.188  14.256  1.00  0.00    -0.346 N 
ATOM      2  H1  UNL     1      -4.799   4.730  13.740  1.00  0.00     0.163 HD
HETATM    3  C5  UNL     1      -2.777   4.606  14.194  1.00  0.00     0.249 C 
HETATM    4  O1  UNL     1      -1.865   4.005  14.800  1.00  0.00    -0.271 OA
ENDROOT
BRANCH   3   5
HETATM    5  C6  UNL     1      -2.384   5.833  13.368  1.00  0.00     0.275 C 
BRANCH   5   6
HETATM    6  N2  UNL     1      -1.394   6.581  14.068  1.00  0.00    -0.066 N 
ATOM      7  H23 UNL     1      -1.732   6.918  14.969  1.00  0.00     0.275 HD
ATOM      8  H22 UNL     1      -0.634   5.992  14.407  1.00  0.00     0.275 HD
ATOM      9  H21 UNL     1      -1.057   7.339  13.475  1.00  0.00     0.275 HD
ENDBRANCH   5   6
BRANCH   5  10
HETATM   10  C7  UNL     1      -3.657   6.527  13.063  1.00  0.00     0.051 C 
BRANCH  10  11
HETATM   11  C8  UNL     1      -3.989   6.764  11.637  1.00  0.00    -0.041 C 
HETATM   12  C9  UNL     1      -3.508   5.751  10.660  1.00  0.00     0.015 C 
HETATM   13  C10 UNL     1      -3.329   8.103  11.266  1.00  0.00     0.010 C 
HETATM   14  C11 UNL     1      -4.216   8.755  10.259  1.00  0.00     0.014 C 
HETATM   15  C12 UNL     1      -5.592   8.354  10.727  1.00  0.00     0.094 C 
HETATM   16  C14 UNL     1      -5.462   7.031  11.406  1.00  0.00     0.022 C 
BRANCH  15  17
HETATM   17  C13 UNL     1      -6.497   8.335   9.528  1.00  0.00     0.391 C 
HETATM   18  F1  UNL     1      -5.964   7.388   8.643  1.00  0.00    -0.171 F 
HETATM   19  F2  UNL     1      -6.587   9.533   8.881  1.00  0.00    -0.171 F 
HETATM   20  F3  UNL     1      -7.752   7.833   9.877  1.00  0.00    -0.171 F 
ENDBRANCH  15  17
ENDBRANCH  10  11
ENDBRANCH   5  10
ENDBRANCH   3   5
BRANCH   1  21
HETATM   21  C4  UNL     1      -4.567   3.055  14.992  1.00  0.00     0.180 C 
BRANCH  21  22
HETATM   22  C2  UNL     1      -5.990   3.247  15.437  1.00  0.00     0.009 C 
HETATM   23  C1  UNL     1      -6.259   4.755  15.344  1.00  0.00     0.012 C 
HETATM   24  C3  UNL     1      -6.302   2.745  16.818  1.00  0.00     0.012 C 
ENDBRANCH  21  22
BRANCH  21  25
HETATM   25  C15 UNL     1      -4.262   1.770  14.371  1.00  0.00     0.246 C 
HETATM   26  O2  UNL     1      -3.983   0.814  15.194  1.00  0.00    -0.271 OA
HETATM   27  N3  UNL     1      -4.232   1.414  13.024  1.00  0.00    -0.302 N 
HETATM   28  C16 UNL     1      -4.558   2.353  11.985  1.00  0.00     0.298 C 
HETATM   29  C19 UNL     1      -3.866   0.077  12.594  1.00  0.00     0.226 C 
HETATM   30  O3  UNL     1      -5.488   1.757  11.099  1.00  0.00    -0.372 OA
HETATM   31  C17 UNL     1      -4.749   0.831  10.359  1.00  0.00     0.174 C 
HETATM   32  C18 UNL     1      -4.431  -0.317  11.274  1.00  0.00     0.080 C 
BRANCH  29  33
HETATM   33  O4  UNL     1      -4.235  -0.884  13.531  1.00  0.00    -0.376 OA
ATOM     34  H4  UNL     1      -4.893  -0.555  14.131  1.00  0.00     0.212 HD
ENDBRANCH  29  33
ENDBRANCH  21  25
ENDBRANCH   1  21
TORSDOF 9
ENDMDL
