MODEL 1
REMARK VINA RESULT: -7.241564225      0.000      0.000
REMARK  10 active torsions:
REMARK  status: ('A' for Active; 'I' for Inactive)
REMARK    1  A    between atoms: C2_4  and  C3_5 
REMARK    2  A    between atoms: C3_5  and  O3_6 
REMARK    3  A    between atoms: C3_5  and  C4_8 
REMARK    4  A    between atoms: C4_8  and  O4_9 
REMARK    5  A    between atoms: C4_8  and  C5_11 
REMARK    6  A    between atoms: C5_11  and  O5_12 
REMARK    7  A    between atoms: C6_14  and  O6_15 
REMARK    8  A    between atoms: O6_15  and  C7_16 
REMARK    9  A    between atoms: C7_16  and  C8_17 
REMARK   10  A    between atoms: N1_19  and  C9_20 
ROOT
HETATM    1  O1  UNL     1      -5.148   3.299  10.457  1.00  0.00    -0.238 OA
HETATM    2  C1  UNL     1      -4.480   2.415  11.040  1.00  0.00     0.365 C 
HETATM    3  O2  UNL     1      -4.454   1.069  10.666  1.00  0.00    -0.291 OA
HETATM    4  C2  UNL     1      -4.228   0.332  11.820  1.00  0.00     0.213 C 
HETATM    5  C6  UNL     1      -3.707   1.325  12.873  1.00  0.00     0.260 C 
HETATM    6  N1  UNL     1      -3.618   2.585  12.189  1.00  0.00    -0.293 N 
ENDROOT
BRANCH   6   7
HETATM    7  C9  UNL     1      -2.903   3.792  12.439  1.00  0.00     0.099 C 
HETATM    8  C10 UNL     1      -1.408   3.426  12.384  1.00  0.00     0.026 C 
HETATM    9  C11 UNL     1      -0.663   4.348  11.442  1.00  0.00     0.002 C 
HETATM   10  C12 UNL     1      -0.218   5.522  12.291  1.00  0.00     0.000 C 
HETATM   11  C13 UNL     1      -1.497   6.165  12.799  1.00  0.00     0.005 C 
HETATM   12  C14 UNL     1      -2.055   5.496  13.994  1.00  0.00    -0.003 C 
HETATM   13  C15 UNL     1      -3.115   6.366  14.636  1.00  0.00     0.047 C 
HETATM   14  C17 UNL     1      -3.125   4.459  13.735  1.00  0.00     0.051 C 
HETATM   15  C16 UNL     1      -4.144   5.515  13.876  1.00  0.00     0.119 C 
HETATM   16 CL1  UNL     1      -4.801   6.278  12.446  1.00  0.00    -0.101 Cl
HETATM   17 CL2  UNL     1      -5.463   5.154  15.045  1.00  0.00    -0.101 Cl
ENDBRANCH   6   7
BRANCH   5  18
HETATM   18  O6  UNL     1      -4.685   1.347  13.860  1.00  0.00    -0.361 OA
BRANCH  18  19
HETATM   19  C7  UNL     1      -4.340   0.654  14.996  1.00  0.00     0.202 C 
BRANCH  19  20
HETATM   20  C8  UNL     1      -4.441   1.474  16.247  1.00  0.00     0.248 C 
HETATM   21  F1  UNL     1      -3.590   2.559  16.233  1.00  0.00    -0.253 F 
ENDBRANCH  19  20
ENDBRANCH  18  19
ENDBRANCH   5  18
BRANCH   4  22
HETATM   22  C3  UNL     1      -3.355  -0.864  11.692  1.00  0.00     0.182 C 
BRANCH  22  23
HETATM   23  O3  UNL     1      -4.143  -2.007  11.500  1.00  0.00    -0.390 OA
ATOM     24  H3  UNL     1      -3.610  -2.786  11.607  1.00  0.00     0.210 HD
ENDBRANCH  22  23
BRANCH  22  25
HETATM   25  C4  UNL     1      -2.328  -0.835  10.614  1.00  0.00     0.173 C 
BRANCH  25  26
HETATM   26  O4  UNL     1      -3.040  -0.494   9.429  1.00  0.00    -0.391 OA
ATOM     27  H4  UNL     1      -2.544   0.215   9.036  1.00  0.00     0.210 HD
ENDBRANCH  25  26
BRANCH  25  28
HETATM   28  C5  UNL     1      -1.331   0.313  10.774  1.00  0.00     0.198 C 
BRANCH  28  29
HETATM   29  O5  UNL     1      -1.460   1.204   9.686  1.00  0.00    -0.398 OA
ATOM     30  H5  UNL     1      -0.603   1.378   9.316  1.00  0.00     0.209 HD
ENDBRANCH  28  29
ENDBRANCH  25  28
ENDBRANCH  22  25
ENDBRANCH   4  22
TORSDOF 10
ENDMDL
MODEL 2
REMARK VINA RESULT: -7.154086138      2.311      4.508
REMARK  10 active torsions:
REMARK  status: ('A' for Active; 'I' for Inactive)
REMARK    1  A    between atoms: C2_4  and  C3_5 
REMARK    2  A    between atoms: C3_5  and  O3_6 
REMARK    3  A    between atoms: C3_5  and  C4_8 
REMARK    4  A    between atoms: C4_8  and  O4_9 
REMARK    5  A    between atoms: C4_8  and  C5_11 
REMARK    6  A    between atoms: C5_11  and  O5_12 
REMARK    7  A    between atoms: C6_14  and  O6_15 
REMARK    8  A    between atoms: O6_15  and  C7_16 
REMARK    9  A    between atoms: C7_16  and  C8_17 
REMARK   10  A    between atoms: N1_19  and  C9_20 
ROOT
HETATM    1  O1  UNL     1      -4.720   1.528  10.376  1.00  0.00    -0.238 OA
HETATM    2  C1  UNL     1      -4.373   1.961  11.499  1.00  0.00     0.365 C 
HETATM    3  O2  UNL     1      -4.785   1.414  12.717  1.00  0.00    -0.291 OA
HETATM    4  C2  UNL     1      -4.808   2.451  13.639  1.00  0.00     0.213 C 
HETATM    5  C6  UNL     1      -3.992   3.599  13.020  1.00  0.00     0.260 C 
HETATM    6  N1  UNL     1      -3.501   3.081  11.773  1.00  0.00    -0.293 N 
ENDROOT
BRANCH   6   7
HETATM    7  C9  UNL     1      -2.434   3.453  10.906  1.00  0.00     0.099 C 
HETATM    8  C10 UNL     1      -1.235   2.567  11.294  1.00  0.00     0.026 C 
HETATM    9  C11 UNL     1      -0.662   1.873  10.075  1.00  0.00     0.002 C 
HETATM   10  C12 UNL     1       0.379   2.824   9.518  1.00  0.00     0.000 C 
HETATM   11  C13 UNL     1      -0.384   4.080   9.134  1.00  0.00     0.005 C 
HETATM   12  C14 UNL     1      -0.625   4.992  10.272  1.00  0.00    -0.003 C 
HETATM   13  C15 UNL     1      -1.079   6.347   9.773  1.00  0.00     0.047 C 
HETATM   14  C17 UNL     1      -1.962   4.849  10.965  1.00  0.00     0.051 C 
HETATM   15  C16 UNL     1      -2.512   5.871  10.057  1.00  0.00     0.119 C 
HETATM   16 CL1  UNL     1      -3.406   5.375   8.638  1.00  0.00    -0.101 Cl
HETATM   17 CL2  UNL     1      -3.350   7.242  10.867  1.00  0.00    -0.101 Cl
ENDBRANCH   6   7
BRANCH   5  18
HETATM   18  O6  UNL     1      -4.909   4.624  12.823  1.00  0.00    -0.361 OA
BRANCH  18  19
HETATM   19  C7  UNL     1      -4.719   5.703  13.654  1.00  0.00     0.202 C 
BRANCH  19  20
HETATM   20  C8  UNL     1      -3.345   5.761  14.250  1.00  0.00     0.248 C 
HETATM   21  F1  UNL     1      -2.879   7.054  14.365  1.00  0.00    -0.253 F 
ENDBRANCH  19  20
ENDBRANCH  18  19
ENDBRANCH   5  18
BRANCH   4  22
HETATM   22  C3  UNL     1      -4.369   2.128  15.022  1.00  0.00     0.182 C 
BRANCH  22  23
HETATM   23  O3  UNL     1      -4.912   3.056  15.920  1.00  0.00    -0.390 OA
ATOM     24  H3  UNL     1      -5.854   3.103  15.804  1.00  0.00     0.210 HD
ENDBRANCH  22  23
BRANCH  22  25
HETATM   25  C4  UNL     1      -4.690   0.765  15.529  1.00  0.00     0.173 C 
BRANCH  25  26
HETATM   26  O4  UNL     1      -3.502   0.318  16.174  1.00  0.00    -0.391 OA
ATOM     27  H4  UNL     1      -3.126  -0.325  15.585  1.00  0.00     0.210 HD
ENDBRANCH  25  26
BRANCH  25  28
HETATM   28  C5  UNL     1      -5.725   0.778  16.655  1.00  0.00     0.198 C 
BRANCH  28  29
HETATM   29  O5  UNL     1      -5.756  -0.488  17.279  1.00  0.00    -0.398 OA
ATOM     30  H5  UNL     1      -5.532  -0.393  18.197  1.00  0.00     0.209 HD
ENDBRANCH  28  29
ENDBRANCH  25  28
ENDBRANCH  22  25
ENDBRANCH   4  22
TORSDOF 10
ENDMDL
MODEL 3
REMARK VINA RESULT: -7.084778878      0.871      1.685
REMARK  10 active torsions:
REMARK  status: ('A' for Active; 'I' for Inactive)
REMARK    1  A    between atoms: C2_4  and  C3_5 
REMARK    2  A    between atoms: C3_5  and  O3_6 
REMARK    3  A    between atoms: C3_5  and  C4_8 
REMARK    4  A    between atoms: C4_8  and  O4_9 
REMARK    5  A    between atoms: C4_8  and  C5_11 
REMARK    6  A    between atoms: C5_11  and  O5_12 
REMARK    7  A    between atoms: C6_14  and  O6_15 
REMARK    8  A    between atoms: O6_15  and  C7_16 
REMARK    9  A    between atoms: C7_16  and  C8_17 
REMARK   10  A    between atoms: N1_19  and  C9_20 
ROOT
HETATM    1  O1  UNL     1      -5.164   3.516  10.348  1.00  0.00    -0.238 OA
HETATM    2  C1  UNL     1      -4.427   2.606  10.789  1.00  0.00     0.365 C 
HETATM    3  O2  UNL     1      -4.315   1.335  10.219  1.00  0.00    -0.291 OA
HETATM    4  C2  UNL     1      -4.018   0.453  11.249  1.00  0.00     0.213 C 
HETATM    5  C6  UNL     1      -3.547   1.316  12.433  1.00  0.00     0.260 C 
HETATM    6  N1  UNL     1      -3.557   2.666  11.942  1.00  0.00    -0.293 N 
ENDROOT
BRANCH   6   7
HETATM    7  C9  UNL     1      -2.923   3.870  12.363  1.00  0.00     0.099 C 
HETATM    8  C10 UNL     1      -1.409   3.585  12.353  1.00  0.00     0.026 C 
HETATM    9  C11 UNL     1      -0.667   4.641  11.562  1.00  0.00     0.002 C 
HETATM   10  C12 UNL     1      -0.331   5.734  12.558  1.00  0.00     0.000 C 
HETATM   11  C13 UNL     1      -1.668   6.253  13.058  1.00  0.00     0.005 C 
HETATM   12  C14 UNL     1      -2.249   5.430  14.139  1.00  0.00    -0.003 C 
HETATM   13  C15 UNL     1      -3.387   6.170  14.810  1.00  0.00     0.047 C 
HETATM   14  C17 UNL     1      -3.247   4.378  13.709  1.00  0.00     0.051 C 
HETATM   15  C16 UNL     1      -4.328   5.361  13.905  1.00  0.00     0.119 C 
HETATM   16 CL1  UNL     1      -4.950   6.246  12.531  1.00  0.00    -0.101 Cl
HETATM   17 CL2  UNL     1      -5.684   4.809  14.950  1.00  0.00    -0.101 Cl
ENDBRANCH   6   7
BRANCH   5  18
HETATM   18  O6  UNL     1      -4.506   1.123  13.420  1.00  0.00    -0.361 OA
BRANCH  18  19
HETATM   19  C7  UNL     1      -4.046   0.417  14.507  1.00  0.00     0.202 C 
BRANCH  19  20
HETATM   20  C8  UNL     1      -4.472   1.001  15.820  1.00  0.00     0.248 C 
HETATM   21  F1  UNL     1      -3.785   2.158  16.126  1.00  0.00    -0.253 F 
ENDBRANCH  19  20
ENDBRANCH  18  19
ENDBRANCH   5  18
BRANCH   4  22
HETATM   22  C3  UNL     1      -3.067  -0.645  10.938  1.00  0.00     0.182 C 
BRANCH  22  23
HETATM   23  O3  UNL     1      -1.750  -0.184  11.067  1.00  0.00    -0.390 OA
ATOM     24  H3  UNL     1      -1.645   0.627  10.584  1.00  0.00     0.210 HD
ENDBRANCH  22  23
BRANCH  22  25
HETATM   25  C4  UNL     1      -3.191  -1.892  11.744  1.00  0.00     0.173 C 
BRANCH  25  26
HETATM   26  O4  UNL     1      -4.584  -2.185  11.765  1.00  0.00    -0.391 OA
ATOM     27  H4  UNL     1      -4.775  -2.547  10.907  1.00  0.00     0.210 HD
ENDBRANCH  25  26
BRANCH  25  28
HETATM   28  C5  UNL     1      -2.580  -3.111  11.051  1.00  0.00     0.198 C 
BRANCH  28  29
HETATM   29  O5  UNL     1      -3.316  -4.265  11.396  1.00  0.00    -0.398 OA
ATOM     30  H5  UNL     1      -3.151  -4.947  10.756  1.00  0.00     0.209 HD
ENDBRANCH  28  29
ENDBRANCH  25  28
ENDBRANCH  22  25
ENDBRANCH   4  22
TORSDOF 10
ENDMDL
MODEL 4
REMARK VINA RESULT: -7.069461229      2.410      3.276
REMARK  10 active torsions:
REMARK  status: ('A' for Active; 'I' for Inactive)
REMARK    1  A    between atoms: C2_4  and  C3_5 
REMARK    2  A    between atoms: C3_5  and  O3_6 
REMARK    3  A    between atoms: C3_5  and  C4_8 
REMARK    4  A    between atoms: C4_8  and  O4_9 
REMARK    5  A    between atoms: C4_8  and  C5_11 
REMARK    6  A    between atoms: C5_11  and  O5_12 
REMARK    7  A    between atoms: C6_14  and  O6_15 
REMARK    8  A    between atoms: O6_15  and  C7_16 
REMARK    9  A    between atoms: C7_16  and  C8_17 
REMARK   10  A    between atoms: N1_19  and  C9_20 
ROOT
HETATM    1  O1  UNL     1      -4.051   4.434   9.703  1.00  0.00    -0.238 OA
HETATM    2  C1  UNL     1      -3.844   3.641  10.650  1.00  0.00     0.365 C 
HETATM    3  O2  UNL     1      -4.009   2.255  10.569  1.00  0.00    -0.291 OA
HETATM    4  C2  UNL     1      -4.363   1.815  11.837  1.00  0.00     0.213 C 
HETATM    5  C6  UNL     1      -4.009   2.957  12.806  1.00  0.00     0.260 C 
HETATM    6  N1  UNL     1      -3.404   3.970  11.987  1.00  0.00    -0.293 N 
ENDROOT
BRANCH   6   7
HETATM    7  C9  UNL     1      -2.554   5.080  12.263  1.00  0.00     0.099 C 
HETATM    8  C10 UNL     1      -3.408   6.090  13.052  1.00  0.00     0.026 C 
HETATM    9  C11 UNL     1      -2.706   6.506  14.328  1.00  0.00     0.002 C 
HETATM   10  C12 UNL     1      -1.857   7.704  13.953  1.00  0.00     0.000 C 
HETATM   11  C13 UNL     1      -0.869   7.193  12.919  1.00  0.00     0.005 C 
HETATM   12  C14 UNL     1      -1.425   7.144  11.550  1.00  0.00    -0.003 C 
HETATM   13  C15 UNL     1      -0.315   6.953  10.538  1.00  0.00     0.047 C 
HETATM   14  C17 UNL     1      -1.992   5.812  11.112  1.00  0.00     0.051 C 
HETATM   15  C16 UNL     1      -0.671   5.459  10.565  1.00  0.00     0.119 C 
HETATM   16 CL1  UNL     1       0.420   4.471  11.510  1.00  0.00    -0.101 Cl
HETATM   17 CL2  UNL     1      -0.674   4.908   8.852  1.00  0.00    -0.101 Cl
ENDBRANCH   6   7
BRANCH   5  18
HETATM   18  O6  UNL     1      -5.228   3.378  13.323  1.00  0.00    -0.361 OA
BRANCH  18  19
HETATM   19  C7  UNL     1      -5.306   3.294  14.693  1.00  0.00     0.202 C 
BRANCH  19  20
HETATM   20  C8  UNL     1      -5.995   4.466  15.324  1.00  0.00     0.248 C 
HETATM   21  F1  UNL     1      -6.359   5.420  14.396  1.00  0.00    -0.253 F 
ENDBRANCH  19  20
ENDBRANCH  18  19
ENDBRANCH   5  18
BRANCH   4  22
HETATM   22  C3  UNL     1      -3.802   0.510  12.274  1.00  0.00     0.182 C 
BRANCH  22  23
HETATM   23  O3  UNL     1      -4.215   0.231  13.584  1.00  0.00    -0.390 OA
ATOM     24  H3  UNL     1      -3.489   0.355  14.183  1.00  0.00     0.210 HD
ENDBRANCH  22  23
BRANCH  22  25
HETATM   25  C4  UNL     1      -4.126  -0.677  11.435  1.00  0.00     0.173 C 
BRANCH  25  26
HETATM   26  O4  UNL     1      -5.005  -0.192  10.426  1.00  0.00    -0.391 OA
ATOM     27  H4  UNL     1      -5.793  -0.716  10.510  1.00  0.00     0.210 HD
ENDBRANCH  25  26
BRANCH  25  28
HETATM   28  C5  UNL     1      -2.923  -1.190  10.643  1.00  0.00     0.198 C 
BRANCH  28  29
HETATM   29  O5  UNL     1      -2.753  -0.404   9.483  1.00  0.00    -0.398 OA
ATOM     30  H5  UNL     1      -3.574   0.019   9.264  1.00  0.00     0.209 HD
ENDBRANCH  28  29
ENDBRANCH  25  28
ENDBRANCH  22  25
ENDBRANCH   4  22
TORSDOF 10
ENDMDL
MODEL 5
REMARK VINA RESULT: -7.061911170      2.416      4.588
REMARK  10 active torsions:
REMARK  status: ('A' for Active; 'I' for Inactive)
REMARK    1  A    between atoms: C2_4  and  C3_5 
REMARK    2  A    between atoms: C3_5  and  O3_6 
REMARK    3  A    between atoms: C3_5  and  C4_8 
REMARK    4  A    between atoms: C4_8  and  O4_9 
REMARK    5  A    between atoms: C4_8  and  C5_11 
REMARK    6  A    between atoms: C5_11  and  O5_12 
REMARK    7  A    between atoms: C6_14  and  O6_15 
REMARK    8  A    between atoms: O6_15  and  C7_16 
REMARK    9  A    between atoms: C7_16  and  C8_17 
REMARK   10  A    between atoms: N1_19  and  C9_20 
ROOT
HETATM    1  O1  UNL     1      -3.277   1.247  10.612  1.00  0.00    -0.238 OA
HETATM    2  C1  UNL     1      -3.376   1.844  11.708  1.00  0.00     0.365 C 
HETATM    3  O2  UNL     1      -4.020   1.325  12.834  1.00  0.00    -0.291 OA
HETATM    4  C2  UNL     1      -4.522   2.405  13.548  1.00  0.00     0.213 C 
HETATM    5  C6  UNL     1      -3.797   3.652  13.012  1.00  0.00     0.260 C 
HETATM    6  N1  UNL     1      -2.863   3.154  12.040  1.00  0.00    -0.293 N 
ENDROOT
BRANCH   6   7
HETATM    7  C9  UNL     1      -1.678   3.685  11.454  1.00  0.00     0.099 C 
HETATM    8  C10 UNL     1      -0.740   2.486  11.217  1.00  0.00     0.026 C 
HETATM    9  C11 UNL     1      -0.248   2.464   9.785  1.00  0.00     0.002 C 
HETATM   10  C12 UNL     1       1.018   3.298   9.777  1.00  0.00     0.000 C 
HETATM   11  C13 UNL     1       0.586   4.694  10.192  1.00  0.00     0.005 C 
HETATM   12  C14 UNL     1       0.471   4.861  11.656  1.00  0.00    -0.003 C 
HETATM   13  C15 UNL     1       0.371   6.329  12.012  1.00  0.00     0.047 C 
HETATM   14  C17 UNL     1      -0.911   4.671  12.240  1.00  0.00     0.051 C 
HETATM   15  C16 UNL     1      -1.150   6.116  12.077  1.00  0.00     0.119 C 
HETATM   16 CL1  UNL     1      -2.024   6.695  10.678  1.00  0.00    -0.101 Cl
HETATM   17 CL2  UNL     1      -1.717   6.969  13.556  1.00  0.00    -0.101 Cl
ENDBRANCH   6   7
BRANCH   5  18
HETATM   18  O6  UNL     1      -4.794   4.416  12.418  1.00  0.00    -0.361 OA
BRANCH  18  19
HETATM   19  C7  UNL     1      -4.814   5.724  12.842  1.00  0.00     0.202 C 
BRANCH  19  20
HETATM   20  C8  UNL     1      -5.240   6.689  11.778  1.00  0.00     0.248 C 
HETATM   21  F1  UNL     1      -6.509   7.185  11.998  1.00  0.00    -0.253 F 
ENDBRANCH  19  20
ENDBRANCH  18  19
ENDBRANCH   5  18
BRANCH   4  22
HETATM   22  C3  UNL     1      -4.465   2.313  15.030  1.00  0.00     0.182 C 
BRANCH  22  23
HETATM   23  O3  UNL     1      -5.435   3.152  15.594  1.00  0.00    -0.390 OA
ATOM     24  H3  UNL     1      -5.633   2.866  16.478  1.00  0.00     0.210 HD
ENDBRANCH  22  23
BRANCH  22  25
HETATM   25  C4  UNL     1      -4.634   0.959  15.627  1.00  0.00     0.173 C 
BRANCH  25  26
HETATM   26  O4  UNL     1      -3.401   0.685  16.284  1.00  0.00    -0.391 OA
ATOM     27  H4  UNL     1      -3.247  -0.243  16.147  1.00  0.00     0.210 HD
ENDBRANCH  25  26
BRANCH  25  28
HETATM   28  C5  UNL     1      -5.657   0.934  16.764  1.00  0.00     0.198 C 
BRANCH  28  29
HETATM   29  O5  UNL     1      -5.859  -0.398  17.186  1.00  0.00    -0.398 OA
ATOM     30  H5  UNL     1      -6.751  -0.501  17.492  1.00  0.00     0.209 HD
ENDBRANCH  28  29
ENDBRANCH  25  28
ENDBRANCH  22  25
ENDBRANCH   4  22
TORSDOF 10
ENDMDL
