MODEL 1
REMARK VINA RESULT: -6.604702407      0.000      0.000
REMARK  14 active torsions:
REMARK  status: ('A' for Active; 'I' for Inactive)
REMARK    1  A    between atoms: C4_4  and  C5_5 
REMARK    2  A    between atoms: C5_5  and  C6_6 
REMARK    3  A    between atoms: C9_9  and  O1_11 
REMARK    4  A    between atoms: C22_26  and  C23_27 
REMARK    5  A    between atoms: C22_26  and  C33_40 
REMARK    6  A    between atoms: C23_27  and  C24_28 
REMARK    7  A    between atoms: C24_28  and  C25_29 
REMARK    8  A    between atoms: C25_29  and  C26_30 
REMARK    9  A    between atoms: C29_33  and  C30_34 
REMARK   10  A    between atoms: C30_34  and  O4_35 
REMARK   11  A    between atoms: C31_37  and  C32_38 
REMARK   12  A    between atoms: C33_40  and  O6_41 
REMARK   13  A    between atoms: O6_41  and  C34_42 
REMARK   14  A    between atoms: C34_42  and  C35_44 
ROOT
HETATM    1  C6  UNL     1     -18.057   4.101  -1.859  1.00  0.00     0.092 C 
HETATM    2  C7  UNL     1     -17.794   4.381  -3.323  1.00  0.00     0.046 C 
HETATM    3  C8  UNL     1     -18.847   5.089  -4.067  1.00  0.00     0.041 C 
HETATM    4  C9  UNL     1     -20.202   5.225  -3.517  1.00  0.00     0.061 C 
HETATM    5  C10 UNL     1     -20.684   6.665  -3.820  1.00  0.00     0.046 C 
HETATM    6  C11 UNL     1     -20.381   5.038  -2.038  1.00  0.00     0.047 C 
HETATM    7  C12 UNL     1     -21.390   6.008  -1.487  1.00  0.00     0.018 C 
HETATM    8  C13 UNL     1     -19.048   5.073  -1.402  1.00  0.00    -0.042 C 
HETATM    9  C14 UNL     1     -18.990   6.041  -0.504  1.00  0.00    -0.008 C 
HETATM   10  C15 UNL     1     -17.873   6.511   0.396  1.00  0.00     0.080 C 
HETATM   11  C16 UNL     1     -18.093   5.854   1.737  1.00  0.00     0.022 C 
HETATM   12  C17 UNL     1     -16.629   6.052  -0.278  1.00  0.00     0.196 C 
HETATM   13  O2  UNL     1     -15.956   6.922  -0.735  1.00  0.00    -0.291 OA
HETATM   14  C18 UNL     1     -16.237   4.609  -0.383  1.00  0.00     0.230 C 
HETATM   15  C19 UNL     1     -14.806   4.648  -0.938  1.00  0.00     0.085 C 
HETATM   16  C20 UNL     1     -14.169   3.286  -0.901  1.00  0.00     0.087 C 
HETATM   17  C21 UNL     1     -14.312   2.788   0.485  1.00  0.00     0.163 C 
HETATM   18  O3  UNL     1     -13.639   1.812   0.789  1.00  0.00    -0.295 OA
HETATM   19  C22 UNL     1     -15.218   3.458   1.407  1.00  0.00     0.146 C 
HETATM   20  O8  UNL     1     -16.260   4.146   0.923  1.00  0.00    -0.327 OA
HETATM   21  O9  UNL     1     -16.973   3.836  -1.139  1.00  0.00    -0.333 OA
ENDROOT
BRANCH  19  22
HETATM   22  C23 UNL     1     -15.818   2.336   2.313  1.00  0.00     0.048 C 
BRANCH  22  23
HETATM   23  C24 UNL     1     -16.930   1.646   1.651  1.00  0.00     0.004 C 
BRANCH  23  24
HETATM   24  C25 UNL     1     -16.776   0.181   1.531  1.00  0.00     0.005 C 
BRANCH  24  25
HETATM   25  C26 UNL     1     -17.834  -0.763   1.930  1.00  0.00    -0.003 C 
HETATM   26  C27 UNL     1     -17.475  -1.115   3.418  1.00  0.00     0.006 C 
HETATM   27  C28 UNL     1     -18.034  -2.487   3.637  1.00  0.00     0.008 C 
HETATM   28  C29 UNL     1     -17.752  -3.181   2.314  1.00  0.00     0.020 C 
HETATM   29  C31 UNL     1     -17.943  -2.079   1.267  1.00  0.00     0.057 C 
BRANCH  28  30
HETATM   30  C30 UNL     1     -16.380  -3.782   2.255  1.00  0.00     0.169 C 
BRANCH  30  31
HETATM   31  O4  UNL     1     -16.398  -4.924   3.069  1.00  0.00    -0.400 OA
ATOM     32  H4  UNL     1     -15.587  -4.925   3.564  1.00  0.00     0.209 HD
ENDBRANCH  30  31
ENDBRANCH  28  30
BRANCH  29  33
HETATM   33  C32 UNL     1     -19.337  -2.338   0.740  1.00  0.00     0.236 C 
HETATM   34  O5  UNL     1     -19.880  -3.386   0.913  1.00  0.00    -0.306 OA
ENDBRANCH  29  33
ENDBRANCH  24  25
ENDBRANCH  23  24
ENDBRANCH  22  23
ENDBRANCH  19  22
BRANCH  19  35
HETATM   35  C33 UNL     1     -14.463   4.342   2.412  1.00  0.00     0.225 C 
BRANCH  35  36
HETATM   36  O6  UNL     1     -13.355   4.955   1.802  1.00  0.00    -0.314 OA
BRANCH  36  37
HETATM   37  C34 UNL     1     -12.936   6.189   2.267  1.00  0.00     0.289 C 
HETATM   38  O7  UNL     1     -12.281   6.222   3.336  1.00  0.00    -0.260 OA
BRANCH  37  39
HETATM   39  C35 UNL     1     -13.257   7.410   1.524  1.00  0.00     0.024 C 
HETATM   40  C36 UNL     1     -12.443   7.842   0.361  1.00  0.00     0.056 C 
HETATM   41  C37 UNL     1     -14.292   8.146   1.894  1.00  0.00     0.097 C 
HETATM   42 CL1  UNL     1     -15.319   7.732   3.247  1.00  0.00    -0.096 Cl
ENDBRANCH  37  39
ENDBRANCH  36  37
ENDBRANCH  35  36
ENDBRANCH  19  35
BRANCH   1  43
HETATM   43  C5  UNL     1     -18.790   2.728  -1.860  1.00  0.00     0.070 C 
BRANCH  43  44
HETATM   44  C4  UNL     1     -17.696   1.697  -1.893  1.00  0.00    -0.021 C 
HETATM   45  C2  UNL     1     -17.934   0.387  -2.013  1.00  0.00    -0.091 C 
HETATM   46  C1  UNL     1     -19.321  -0.129  -2.124  1.00  0.00     0.042 C 
HETATM   47  C3  UNL     1     -16.818  -0.600  -2.042  1.00  0.00     0.042 C 
ENDBRANCH  43  44
ENDBRANCH   1  43
BRANCH   4  48
HETATM   48  O1  UNL     1     -21.149   4.452  -4.241  1.00  0.00    -0.390 OA
ATOM     49  H1  UNL     1     -21.289   3.600  -3.845  1.00  0.00     0.210 HD
ENDBRANCH   4  48
TORSDOF 14
ENDMDL
MODEL 2
REMARK VINA RESULT: -6.587063542      3.110      4.790
REMARK  14 active torsions:
REMARK  status: ('A' for Active; 'I' for Inactive)
REMARK    1  A    between atoms: C4_4  and  C5_5 
REMARK    2  A    between atoms: C5_5  and  C6_6 
REMARK    3  A    between atoms: C9_9  and  O1_11 
REMARK    4  A    between atoms: C22_26  and  C23_27 
REMARK    5  A    between atoms: C22_26  and  C33_40 
REMARK    6  A    between atoms: C23_27  and  C24_28 
REMARK    7  A    between atoms: C24_28  and  C25_29 
REMARK    8  A    between atoms: C25_29  and  C26_30 
REMARK    9  A    between atoms: C29_33  and  C30_34 
REMARK   10  A    between atoms: C30_34  and  O4_35 
REMARK   11  A    between atoms: C31_37  and  C32_38 
REMARK   12  A    between atoms: C33_40  and  O6_41 
REMARK   13  A    between atoms: O6_41  and  C34_42 
REMARK   14  A    between atoms: C34_42  and  C35_44 
ROOT
HETATM    1  C6  UNL     1     -16.593   5.417  -1.770  1.00  0.00     0.092 C 
HETATM    2  C7  UNL     1     -16.638   5.129  -3.255  1.00  0.00     0.046 C 
HETATM    3  C8  UNL     1     -17.956   5.183  -3.906  1.00  0.00     0.041 C 
HETATM    4  C9  UNL     1     -19.192   5.189  -3.112  1.00  0.00     0.061 C 
HETATM    5  C10 UNL     1     -20.157   6.208  -3.765  1.00  0.00     0.046 C 
HETATM    6  C11 UNL     1     -19.097   5.586  -1.667  1.00  0.00     0.047 C 
HETATM    7  C12 UNL     1     -20.284   6.410  -1.251  1.00  0.00     0.018 C 
HETATM    8  C13 UNL     1     -17.776   6.210  -1.445  1.00  0.00    -0.042 C 
HETATM    9  C14 UNL     1     -17.919   7.441  -0.986  1.00  0.00    -0.008 C 
HETATM   10  C15 UNL     1     -16.907   8.501  -0.621  1.00  0.00     0.080 C 
HETATM   11  C16 UNL     1     -16.714   8.418   0.873  1.00  0.00     0.022 C 
HETATM   12  C17 UNL     1     -15.685   8.133  -1.386  1.00  0.00     0.196 C 
HETATM   13  O2  UNL     1     -15.405   8.878  -2.272  1.00  0.00    -0.291 OA
HETATM   14  C18 UNL     1     -14.858   6.922  -1.078  1.00  0.00     0.230 C 
HETATM   15  C19 UNL     1     -13.609   7.086  -1.956  1.00  0.00     0.085 C 
HETATM   16  C20 UNL     1     -12.561   6.066  -1.610  1.00  0.00     0.087 C 
HETATM   17  C21 UNL     1     -12.342   6.160  -0.149  1.00  0.00     0.163 C 
HETATM   18  O3  UNL     1     -11.350   5.596   0.294  1.00  0.00    -0.295 OA
HETATM   19  C22 UNL     1     -13.284   6.899   0.680  1.00  0.00     0.146 C 
HETATM   20  O8  UNL     1     -14.550   7.044   0.268  1.00  0.00    -0.327 OA
HETATM   21  O9  UNL     1     -15.394   5.750  -1.304  1.00  0.00    -0.333 OA
ENDROOT
BRANCH  19  22
HETATM   22  C23 UNL     1     -13.351   6.135   2.040  1.00  0.00     0.048 C 
BRANCH  22  23
HETATM   23  C24 UNL     1     -14.144   4.906   1.929  1.00  0.00     0.004 C 
BRANCH  23  24
HETATM   24  C25 UNL     1     -14.946   4.567   3.123  1.00  0.00     0.005 C 
BRANCH  24  25
HETATM   25  C26 UNL     1     -16.391   4.291   3.056  1.00  0.00    -0.003 C 
HETATM   26  C27 UNL     1     -16.923   5.347   2.021  1.00  0.00     0.006 C 
HETATM   27  C28 UNL     1     -18.351   5.581   2.407  1.00  0.00     0.008 C 
HETATM   28  C29 UNL     1     -18.299   5.559   3.926  1.00  0.00     0.020 C 
HETATM   29  C31 UNL     1     -17.242   4.497   4.246  1.00  0.00     0.057 C 
BRANCH  28  30
HETATM   30  C30 UNL     1     -17.953   6.894   4.514  1.00  0.00     0.169 C 
BRANCH  30  31
HETATM   31  O4  UNL     1     -17.569   6.667   5.844  1.00  0.00    -0.400 OA
ATOM     32  H4  UNL     1     -17.202   7.481   6.169  1.00  0.00     0.209 HD
ENDBRANCH  30  31
ENDBRANCH  28  30
BRANCH  29  33
HETATM   33  C32 UNL     1     -18.068   3.272   4.575  1.00  0.00     0.236 C 
HETATM   34  O5  UNL     1     -17.856   2.224   4.048  1.00  0.00    -0.306 OA
ENDBRANCH  29  33
ENDBRANCH  24  25
ENDBRANCH  23  24
ENDBRANCH  22  23
ENDBRANCH  19  22
BRANCH  19  35
HETATM   35  C33 UNL     1     -12.733   8.274   1.086  1.00  0.00     0.225 C 
BRANCH  35  36
HETATM   36  O6  UNL     1     -11.813   8.151   2.142  1.00  0.00    -0.314 OA
BRANCH  36  37
HETATM   37  C34 UNL     1     -10.547   8.688   1.989  1.00  0.00     0.289 C 
HETATM   38  O7  UNL     1      -9.991   8.571   0.871  1.00  0.00    -0.260 OA
BRANCH  37  39
HETATM   39  C35 UNL     1      -9.889   9.366   3.108  1.00  0.00     0.024 C 
HETATM   40  C36 UNL     1      -9.941  10.843   3.253  1.00  0.00     0.056 C 
HETATM   41  C37 UNL     1      -9.233   8.654   4.008  1.00  0.00     0.097 C 
HETATM   42 CL1  UNL     1      -9.108   6.912   3.937  1.00  0.00    -0.096 Cl
ENDBRANCH  37  39
ENDBRANCH  36  37
ENDBRANCH  35  36
ENDBRANCH  19  35
BRANCH   1  43
HETATM   43  C5  UNL     1     -16.824   4.029  -1.106  1.00  0.00     0.070 C 
BRANCH  43  44
HETATM   44  C4  UNL     1     -15.473   3.371  -1.084  1.00  0.00    -0.021 C 
HETATM   45  C2  UNL     1     -15.191   2.313  -0.316  1.00  0.00    -0.091 C 
HETATM   46  C1  UNL     1     -16.221   1.719   0.573  1.00  0.00     0.042 C 
HETATM   47  C3  UNL     1     -13.836   1.692  -0.326  1.00  0.00     0.042 C 
ENDBRANCH  43  44
ENDBRANCH   1  43
BRANCH   4  48
HETATM   48  O1  UNL     1     -19.921   3.978  -3.256  1.00  0.00    -0.390 OA
ATOM     49  H1  UNL     1     -20.444   3.785  -2.486  1.00  0.00     0.210 HD
ENDBRANCH   4  48
TORSDOF 14
ENDMDL
MODEL 3
REMARK VINA RESULT: -6.521356240      3.464      8.235
REMARK  14 active torsions:
REMARK  status: ('A' for Active; 'I' for Inactive)
REMARK    1  A    between atoms: C4_4  and  C5_5 
REMARK    2  A    between atoms: C5_5  and  C6_6 
REMARK    3  A    between atoms: C9_9  and  O1_11 
REMARK    4  A    between atoms: C22_26  and  C23_27 
REMARK    5  A    between atoms: C22_26  and  C33_40 
REMARK    6  A    between atoms: C23_27  and  C24_28 
REMARK    7  A    between atoms: C24_28  and  C25_29 
REMARK    8  A    between atoms: C25_29  and  C26_30 
REMARK    9  A    between atoms: C29_33  and  C30_34 
REMARK   10  A    between atoms: C30_34  and  O4_35 
REMARK   11  A    between atoms: C31_37  and  C32_38 
REMARK   12  A    between atoms: C33_40  and  O6_41 
REMARK   13  A    between atoms: O6_41  and  C34_42 
REMARK   14  A    between atoms: C34_42  and  C35_44 
ROOT
HETATM    1  C6  UNL     1     -14.733   8.830  -0.300  1.00  0.00     0.092 C 
HETATM    2  C7  UNL     1     -14.220   9.437  -1.589  1.00  0.00     0.046 C 
HETATM    3  C8  UNL     1     -13.240  10.527  -1.469  1.00  0.00     0.041 C 
HETATM    4  C9  UNL     1     -13.019  11.209  -0.186  1.00  0.00     0.061 C 
HETATM    5  C10 UNL     1     -11.494  11.428  -0.034  1.00  0.00     0.046 C 
HETATM    6  C11 UNL     1     -13.457  10.507   1.066  1.00  0.00     0.047 C 
HETATM    7  C12 UNL     1     -12.476  10.730   2.185  1.00  0.00     0.018 C 
HETATM    8  C13 UNL     1     -13.735   9.094   0.733  1.00  0.00    -0.042 C 
HETATM    9  C14 UNL     1     -12.975   8.291   1.457  1.00  0.00    -0.008 C 
HETATM   10  C15 UNL     1     -12.849   6.787   1.491  1.00  0.00     0.080 C 
HETATM   11  C16 UNL     1     -13.712   6.308   2.632  1.00  0.00     0.022 C 
HETATM   12  C17 UNL     1     -13.345   6.339   0.161  1.00  0.00     0.196 C 
HETATM   13  O2  UNL     1     -12.509   5.894  -0.561  1.00  0.00    -0.291 OA
HETATM   14  C18 UNL     1     -14.782   6.433  -0.254  1.00  0.00     0.230 C 
HETATM   15  C19 UNL     1     -14.843   5.655  -1.576  1.00  0.00     0.085 C 
HETATM   16  C20 UNL     1     -16.263   5.457  -2.028  1.00  0.00     0.087 C 
HETATM   17  C21 UNL     1     -16.991   4.854  -0.889  1.00  0.00     0.163 C 
HETATM   18  O3  UNL     1     -18.093   4.381  -1.131  1.00  0.00    -0.295 OA
HETATM   19  C22 UNL     1     -16.387   4.846   0.436  1.00  0.00     0.146 C 
HETATM   20  O8  UNL     1     -15.477   5.778   0.750  1.00  0.00    -0.327 OA
HETATM   21  O9  UNL     1     -15.283   7.628  -0.432  1.00  0.00    -0.333 OA
ENDROOT
BRANCH  19  22
HETATM   22  C23 UNL     1     -17.563   5.025   1.447  1.00  0.00     0.048 C 
BRANCH  22  23
HETATM   23  C24 UNL     1     -17.787   6.439   1.768  1.00  0.00     0.004 C 
BRANCH  23  24
HETATM   24  C25 UNL     1     -17.966   6.734   3.204  1.00  0.00     0.005 C 
BRANCH  24  25
HETATM   25  C26 UNL     1     -16.956   7.454   3.998  1.00  0.00    -0.003 C 
HETATM   26  C27 UNL     1     -17.116   6.847   5.439  1.00  0.00     0.006 C 
HETATM   27  C28 UNL     1     -16.664   7.933   6.367  1.00  0.00     0.008 C 
HETATM   28  C29 UNL     1     -17.209   9.190   5.709  1.00  0.00     0.020 C 
HETATM   29  C31 UNL     1     -17.076   8.911   4.208  1.00  0.00     0.057 C 
BRANCH  28  30
HETATM   30  C30 UNL     1     -18.626   9.483   6.103  1.00  0.00     0.169 C 
BRANCH  30  31
HETATM   31  O4  UNL     1     -18.605   9.861   7.453  1.00  0.00    -0.400 OA
ATOM     32  H4  UNL     1     -17.723  10.156   7.646  1.00  0.00     0.209 HD
ENDBRANCH  30  31
ENDBRANCH  28  30
BRANCH  29  33
HETATM   33  C32 UNL     1     -15.809   9.648   3.830  1.00  0.00     0.236 C 
HETATM   34  O5  UNL     1     -15.814  10.823   3.625  1.00  0.00    -0.306 OA
ENDBRANCH  29  33
ENDBRANCH  24  25
ENDBRANCH  23  24
ENDBRANCH  22  23
ENDBRANCH  19  22
BRANCH  19  35
HETATM   35  C33 UNL     1     -15.827   3.463   0.802  1.00  0.00     0.225 C 
BRANCH  35  36
HETATM   36  O6  UNL     1     -16.730   2.762   1.621  1.00  0.00    -0.314 OA
BRANCH  36  37
HETATM   37  C34 UNL     1     -16.380   2.510   2.936  1.00  0.00     0.289 C 
HETATM   38  O7  UNL     1     -15.164   2.559   3.239  1.00  0.00    -0.260 OA
BRANCH  37  39
HETATM   39  C35 UNL     1     -17.408   2.195   3.930  1.00  0.00     0.024 C 
HETATM   40  C36 UNL     1     -17.941   3.236   4.845  1.00  0.00     0.056 C 
HETATM   41  C37 UNL     1     -17.874   0.961   4.019  1.00  0.00     0.097 C 
HETATM   42 CL1  UNL     1     -17.321  -0.341   2.993  1.00  0.00    -0.096 Cl
ENDBRANCH  37  39
ENDBRANCH  36  37
ENDBRANCH  35  36
ENDBRANCH  19  35
BRANCH   1  43
HETATM   43  C5  UNL     1     -15.962   9.709   0.071  1.00  0.00     0.070 C 
BRANCH  43  44
HETATM   44  C4  UNL     1     -17.125   9.088  -0.651  1.00  0.00    -0.021 C 
HETATM   45  C2  UNL     1     -17.859   9.749  -1.553  1.00  0.00    -0.091 C 
HETATM   46  C1  UNL     1     -17.555  11.161  -1.896  1.00  0.00     0.042 C 
HETATM   47  C3  UNL     1     -19.004   9.094  -2.245  1.00  0.00     0.042 C 
ENDBRANCH  43  44
ENDBRANCH   1  43
BRANCH   4  48
HETATM   48  O1  UNL     1     -13.496  12.547  -0.208  1.00  0.00    -0.390 OA
ATOM     49  H1  UNL     1     -13.227  13.007  -0.995  1.00  0.00     0.210 HD
ENDBRANCH   4  48
TORSDOF 14
ENDMDL
MODEL 4
REMARK VINA RESULT: -6.455947131      4.229      8.410
REMARK  14 active torsions:
REMARK  status: ('A' for Active; 'I' for Inactive)
REMARK    1  A    between atoms: C4_4  and  C5_5 
REMARK    2  A    between atoms: C5_5  and  C6_6 
REMARK    3  A    between atoms: C9_9  and  O1_11 
REMARK    4  A    between atoms: C22_26  and  C23_27 
REMARK    5  A    between atoms: C22_26  and  C33_40 
REMARK    6  A    between atoms: C23_27  and  C24_28 
REMARK    7  A    between atoms: C24_28  and  C25_29 
REMARK    8  A    between atoms: C25_29  and  C26_30 
REMARK    9  A    between atoms: C29_33  and  C30_34 
REMARK   10  A    between atoms: C30_34  and  O4_35 
REMARK   11  A    between atoms: C31_37  and  C32_38 
REMARK   12  A    between atoms: C33_40  and  O6_41 
REMARK   13  A    between atoms: O6_41  and  C34_42 
REMARK   14  A    between atoms: C34_42  and  C35_44 
ROOT
HETATM    1  C6  UNL     1     -17.484   5.872  -0.142  1.00  0.00     0.092 C 
HETATM    2  C7  UNL     1     -17.454   4.509  -0.798  1.00  0.00     0.046 C 
HETATM    3  C8  UNL     1     -18.496   4.226  -1.797  1.00  0.00     0.041 C 
HETATM    4  C9  UNL     1     -19.685   5.081  -1.915  1.00  0.00     0.061 C 
HETATM    5  C10 UNL     1     -19.971   5.273  -3.423  1.00  0.00     0.046 C 
HETATM    6  C11 UNL     1     -19.614   6.464  -1.333  1.00  0.00     0.047 C 
HETATM    7  C12 UNL     1     -20.331   7.457  -2.207  1.00  0.00     0.018 C 
HETATM    8  C13 UNL     1     -18.199   6.773  -1.043  1.00  0.00    -0.042 C 
HETATM    9  C14 UNL     1     -17.818   7.853  -1.702  1.00  0.00    -0.008 C 
HETATM   10  C15 UNL     1     -16.492   8.571  -1.774  1.00  0.00     0.080 C 
HETATM   11  C16 UNL     1     -16.564   9.712  -0.789  1.00  0.00     0.022 C 
HETATM   12  C17 UNL     1     -15.486   7.541  -1.396  1.00  0.00     0.196 C 
HETATM   13  O2  UNL     1     -14.777   7.185  -2.284  1.00  0.00    -0.291 OA
HETATM   14  C18 UNL     1     -15.363   6.984  -0.010  1.00  0.00     0.230 C 
HETATM   15  C19 UNL     1     -14.073   6.153  -0.053  1.00  0.00     0.085 C 
HETATM   16  C20 UNL     1     -13.672   5.696   1.322  1.00  0.00     0.087 C 
HETATM   17  C21 UNL     1     -13.636   6.903   2.177  1.00  0.00     0.163 C 
HETATM   18  O3  UNL     1     -13.087   6.788   3.265  1.00  0.00    -0.295 OA
HETATM   19  C22 UNL     1     -14.233   8.145   1.706  1.00  0.00     0.146 C 
HETATM   20  O8  UNL     1     -15.219   8.099   0.801  1.00  0.00    -0.327 OA
HETATM   21  O9  UNL     1     -16.343   6.239   0.431  1.00  0.00    -0.333 OA
ENDROOT
BRANCH  19  22
HETATM   22  C23 UNL     1     -14.830   8.842   2.969  1.00  0.00     0.048 C 
BRANCH  22  23
HETATM   23  C24 UNL     1     -15.927   9.748   2.616  1.00  0.00     0.004 C 
BRANCH  23  24
HETATM   24  C25 UNL     1     -16.416  10.601   3.719  1.00  0.00     0.005 C 
BRANCH  24  25
HETATM   25  C26 UNL     1     -16.345  12.071   3.677  1.00  0.00    -0.003 C 
HETATM   26  C27 UNL     1     -15.875  12.378   2.210  1.00  0.00     0.006 C 
HETATM   27  C28 UNL     1     -15.156  13.689   2.301  1.00  0.00     0.008 C 
HETATM   28  C29 UNL     1     -14.412  13.576   3.622  1.00  0.00     0.020 C 
HETATM   29  C31 UNL     1     -15.372  12.792   4.523  1.00  0.00     0.057 C 
BRANCH  28  30
HETATM   30  C30 UNL     1     -13.085  12.891   3.484  1.00  0.00     0.169 C 
BRANCH  30  31
HETATM   31  O4  UNL     1     -12.353  13.180   4.644  1.00  0.00    -0.400 OA
ATOM     32  H4  UNL     1     -11.433  13.111   4.416  1.00  0.00     0.209 HD
ENDBRANCH  30  31
ENDBRANCH  28  30
BRANCH  29  33
HETATM   33  C32 UNL     1     -16.030  13.874   5.353  1.00  0.00     0.236 C 
HETATM   34  O5  UNL     1     -16.906  13.618   6.121  1.00  0.00    -0.306 OA
ENDBRANCH  29  33
ENDBRANCH  24  25
ENDBRANCH  23  24
ENDBRANCH  22  23
ENDBRANCH  19  22
BRANCH  19  35
HETATM   35  C33 UNL     1     -13.170   9.148   1.231  1.00  0.00     0.225 C 
BRANCH  35  36
HETATM   36  O6  UNL     1     -12.292   9.476   2.278  1.00  0.00    -0.314 OA
BRANCH  36  37
HETATM   37  C34 UNL     1     -10.930   9.342   2.072  1.00  0.00     0.289 C 
HETATM   38  O7  UNL     1     -10.548   8.766   1.025  1.00  0.00    -0.260 OA
BRANCH  37  39
HETATM   39  C35 UNL     1      -9.976   9.860   3.055  1.00  0.00     0.024 C 
HETATM   40  C36 UNL     1      -9.645  11.305   3.122  1.00  0.00     0.056 C 
HETATM   41  C37 UNL     1      -9.395   9.027   3.903  1.00  0.00     0.097 C 
HETATM   42 CL1  UNL     1      -9.711   7.308   3.915  1.00  0.00    -0.096 Cl
ENDBRANCH  37  39
ENDBRANCH  36  37
ENDBRANCH  35  36
ENDBRANCH  19  35
BRANCH   1  43
HETATM   43  C5  UNL     1     -18.418   5.683   1.087  1.00  0.00     0.070 C 
BRANCH  43  44
HETATM   44  C4  UNL     1     -17.814   6.525   2.177  1.00  0.00    -0.021 C 
HETATM   45  C2  UNL     1     -17.872   6.193   3.471  1.00  0.00    -0.091 C 
HETATM   46  C1  UNL     1     -18.549   4.947   3.909  1.00  0.00     0.042 C 
HETATM   47  C3  UNL     1     -17.259   7.058   4.517  1.00  0.00     0.042 C 
ENDBRANCH  43  44
ENDBRANCH   1  43
BRANCH   4  48
HETATM   48  O1  UNL     1     -20.863   4.413  -1.486  1.00  0.00    -0.390 OA
ATOM     49  H1  UNL     1     -20.747   3.998  -0.639  1.00  0.00     0.210 HD
ENDBRANCH   4  48
TORSDOF 14
ENDMDL
MODEL 5
REMARK VINA RESULT: -6.429085710      3.021      4.675
REMARK  14 active torsions:
REMARK  status: ('A' for Active; 'I' for Inactive)
REMARK    1  A    between atoms: C4_4  and  C5_5 
REMARK    2  A    between atoms: C5_5  and  C6_6 
REMARK    3  A    between atoms: C9_9  and  O1_11 
REMARK    4  A    between atoms: C22_26  and  C23_27 
REMARK    5  A    between atoms: C22_26  and  C33_40 
REMARK    6  A    between atoms: C23_27  and  C24_28 
REMARK    7  A    between atoms: C24_28  and  C25_29 
REMARK    8  A    between atoms: C25_29  and  C26_30 
REMARK    9  A    between atoms: C29_33  and  C30_34 
REMARK   10  A    between atoms: C30_34  and  O4_35 
REMARK   11  A    between atoms: C31_37  and  C32_38 
REMARK   12  A    between atoms: C33_40  and  O6_41 
REMARK   13  A    between atoms: O6_41  and  C34_42 
REMARK   14  A    between atoms: C34_42  and  C35_44 
ROOT
HETATM    1  C6  UNL     1     -16.670   5.302  -1.742  1.00  0.00     0.092 C 
HETATM    2  C7  UNL     1     -16.704   5.045  -3.233  1.00  0.00     0.046 C 
HETATM    3  C8  UNL     1     -18.018   5.108  -3.891  1.00  0.00     0.041 C 
HETATM    4  C9  UNL     1     -19.260   5.092  -3.107  1.00  0.00     0.061 C 
HETATM    5  C10 UNL     1     -20.224   6.121  -3.744  1.00  0.00     0.046 C 
HETATM    6  C11 UNL     1     -19.176   5.459  -1.653  1.00  0.00     0.047 C 
HETATM    7  C12 UNL     1     -20.369   6.270  -1.228  1.00  0.00     0.018 C 
HETATM    8  C13 UNL     1     -17.859   6.083  -1.408  1.00  0.00    -0.042 C 
HETATM    9  C14 UNL     1     -18.010   7.304  -0.924  1.00  0.00    -0.008 C 
HETATM   10  C15 UNL     1     -17.005   8.360  -0.531  1.00  0.00     0.080 C 
HETATM   11  C16 UNL     1     -16.822   8.247   0.963  1.00  0.00     0.022 C 
HETATM   12  C17 UNL     1     -15.776   8.013  -1.295  1.00  0.00     0.196 C 
HETATM   13  O2  UNL     1     -15.493   8.777  -2.163  1.00  0.00    -0.291 OA
HETATM   14  C18 UNL     1     -14.947   6.798  -1.006  1.00  0.00     0.230 C 
HETATM   15  C19 UNL     1     -13.692   6.986  -1.872  1.00  0.00     0.085 C 
HETATM   16  C20 UNL     1     -12.643   5.962  -1.540  1.00  0.00     0.087 C 
HETATM   17  C21 UNL     1     -12.434   6.026  -0.076  1.00  0.00     0.163 C 
HETATM   18  O3  UNL     1     -11.443   5.457   0.362  1.00  0.00    -0.295 OA
HETATM   19  C22 UNL     1     -13.384   6.745   0.762  1.00  0.00     0.146 C 
HETATM   20  O8  UNL     1     -14.648   6.893   0.344  1.00  0.00    -0.327 OA
HETATM   21  O9  UNL     1     -15.477   5.630  -1.260  1.00  0.00    -0.333 OA
ENDROOT
BRANCH  19  22
HETATM   22  C23 UNL     1     -13.458   5.952   2.105  1.00  0.00     0.048 C 
BRANCH  22  23
HETATM   23  C24 UNL     1     -14.251   4.726   1.965  1.00  0.00     0.004 C 
BRANCH  23  24
HETATM   24  C25 UNL     1     -15.046   4.354   3.153  1.00  0.00     0.005 C 
BRANCH  24  25
HETATM   25  C26 UNL     1     -16.503   4.152   3.102  1.00  0.00    -0.003 C 
HETATM   26  C27 UNL     1     -16.988   5.213   2.049  1.00  0.00     0.006 C 
HETATM   27  C28 UNL     1     -18.400   5.527   2.439  1.00  0.00     0.008 C 
HETATM   28  C29 UNL     1     -18.338   5.533   3.958  1.00  0.00     0.020 C 
HETATM   29  C31 UNL     1     -17.334   4.425   4.293  1.00  0.00     0.057 C 
BRANCH  28  30
HETATM   30  C30 UNL     1     -17.919   6.860   4.517  1.00  0.00     0.169 C 
BRANCH  30  31
HETATM   31  O4  UNL     1     -17.537   6.641   5.849  1.00  0.00    -0.400 OA
ATOM     32  H4  UNL     1     -17.232   7.473   6.190  1.00  0.00     0.209 HD
ENDBRANCH  30  31
ENDBRANCH  28  30
BRANCH  29  33
HETATM   33  C32 UNL     1     -18.219   3.251   4.653  1.00  0.00     0.236 C 
HETATM   34  O5  UNL     1     -18.069   2.184   4.142  1.00  0.00    -0.306 OA
ENDBRANCH  29  33
ENDBRANCH  24  25
ENDBRANCH  23  24
ENDBRANCH  22  23
ENDBRANCH  19  22
BRANCH  19  35
HETATM   35  C33 UNL     1     -12.842   8.113   1.200  1.00  0.00     0.225 C 
BRANCH  35  36
HETATM   36  O6  UNL     1     -13.717   8.727   2.114  1.00  0.00    -0.314 OA
BRANCH  36  37
HETATM   37  C34 UNL     1     -13.637  10.096   2.298  1.00  0.00     0.289 C 
HETATM   38  O7  UNL     1     -12.518  10.585   2.584  1.00  0.00    -0.260 OA
BRANCH  37  39
HETATM   39  C35 UNL     1     -14.830  10.934   2.160  1.00  0.00     0.024 C 
HETATM   40  C36 UNL     1     -15.762  11.141   3.296  1.00  0.00     0.056 C 
HETATM   41  C37 UNL     1     -15.086  11.520   1.002  1.00  0.00     0.097 C 
HETATM   42 CL1  UNL     1     -14.058  11.346  -0.400  1.00  0.00    -0.096 Cl
ENDBRANCH  37  39
ENDBRANCH  36  37
ENDBRANCH  35  36
ENDBRANCH  19  35
BRANCH   1  43
HETATM   43  C5  UNL     1     -16.901   3.900  -1.108  1.00  0.00     0.070 C 
BRANCH  43  44
HETATM   44  C4  UNL     1     -15.546   3.249  -1.084  1.00  0.00    -0.021 C 
HETATM   45  C2  UNL     1     -15.262   2.188  -0.322  1.00  0.00    -0.091 C 
HETATM   46  C1  UNL     1     -16.292   1.583   0.558  1.00  0.00     0.042 C 
HETATM   47  C3  UNL     1     -13.904   1.574  -0.330  1.00  0.00     0.042 C 
ENDBRANCH  43  44
ENDBRANCH   1  43
BRANCH   4  48
HETATM   48  O1  UNL     1     -19.982   3.882  -3.280  1.00  0.00    -0.390 OA
ATOM     49  H1  UNL     1     -20.883   4.040  -3.539  1.00  0.00     0.210 HD
ENDBRANCH   4  48
TORSDOF 14
ENDMDL
