MODEL 1
REMARK VINA RESULT: -8.546483932      0.000      0.000
REMARK  14 active torsions:
REMARK  status: ('A' for Active; 'I' for Inactive)
REMARK    1  A    between atoms: C2_2  and  C3_3 
REMARK    2  A    between atoms: C2_2  and  C5_7 
REMARK    3  A    between atoms: C3_3  and  O2_5 
REMARK    4  A    between atoms: C7_9  and  O3_10 
REMARK    5  A    between atoms: O3_10  and  C8_11 
REMARK    6  A    between atoms: C8_11  and  C9_13 
REMARK    7  A    between atoms: C15_20  and  C16_21 
REMARK    8  A    between atoms: C16_21  and  S1_23 
REMARK    9  A    between atoms: S1_23  and  C17_24 
REMARK   10  A    between atoms: C17_24  and  C18_25 
REMARK   11  A    between atoms: C18_25  and  O6_26 
REMARK   12  A    between atoms: C18_25  and  C19_28 
REMARK   13  A    between atoms: C19_28  and  C21_30 
REMARK   14  A    between atoms: C27_36  and  O7_37 
ROOT
HETATM    1  C16 UNL     1     -19.448   0.675   5.188  1.00  0.00     0.196 C 
HETATM    2  O5  UNL     1     -20.210   1.684   5.137  1.00  0.00    -0.285 OA
ENDROOT
BRANCH   1   3
HETATM    3  C15 UNL     1     -19.845  -0.532   5.888  1.00  0.00     0.125 C 
HETATM    4  C7  UNL     1     -20.562  -1.616   5.189  1.00  0.00     0.149 C 
HETATM    5  C6  UNL     1     -21.869  -1.864   6.038  1.00  0.00     0.047 C 
HETATM    6  C5  UNL     1     -22.165  -0.488   6.490  1.00  0.00     0.055 C 
HETATM    7  C35 UNL     1     -20.815  -0.078   6.995  1.00  0.00    -0.066 C 
HETATM    8  C36 UNL     1     -20.483   0.478   8.105  1.00  0.00     0.016 C 
BRANCH   4   9
HETATM    9  O3  UNL     1     -19.841  -2.862   5.228  1.00  0.00    -0.311 OA
BRANCH   9  10
HETATM   10  C8  UNL     1     -19.646  -3.643   4.102  1.00  0.00     0.295 C 
HETATM   11  O4  UNL     1     -19.897  -4.865   4.215  1.00  0.00    -0.259 OA
BRANCH  10  12
HETATM   12  C9  UNL     1     -19.167  -3.030   2.852  1.00  0.00     0.061 A 
HETATM   13  C10 UNL     1     -17.853  -2.680   2.738  1.00  0.00     0.019 A 
HETATM   14  C11 UNL     1     -17.403  -2.092   1.562  1.00  0.00     0.001 A 
HETATM   15  C12 UNL     1     -18.240  -1.848   0.498  1.00  0.00     0.002 A 
HETATM   16  C13 UNL     1     -19.578  -2.213   0.640  1.00  0.00     0.025 A 
HETATM   17  C14 UNL     1     -20.031  -2.795   1.800  1.00  0.00     0.050 A 
HETATM   18 CL1  UNL     1     -21.715  -3.268   2.006  1.00  0.00    -0.083 Cl
ENDBRANCH  10  12
ENDBRANCH   9  10
ENDBRANCH   4   9
BRANCH   6  19
HETATM   19  C2  UNL     1     -23.249  -0.314   7.454  1.00  0.00     0.016 C 
HETATM   20  C1  UNL     1     -23.268  -0.972   8.619  1.00  0.00     0.026 C 
BRANCH  19  21
HETATM   21  C3  UNL     1     -24.368   0.576   7.127  1.00  0.00     0.288 C 
HETATM   22  O1  UNL     1     -24.154   1.708   6.621  1.00  0.00    -0.260 OA
BRANCH  21  23
HETATM   23  O2  UNL     1     -25.709   0.260   7.338  1.00  0.00    -0.323 OA
HETATM   24  C4  UNL     1     -26.294   0.391   8.626  1.00  0.00     0.213 C 
ENDBRANCH  21  23
ENDBRANCH  19  21
ENDBRANCH   6  19
ENDBRANCH   1   3
BRANCH   1  25
HETATM   25  S1  UNL     1     -17.899   0.926   4.319  1.00  0.00    -0.089 SA
BRANCH  25  26
HETATM   26  C17 UNL     1     -17.172   2.517   4.784  1.00  0.00     0.114 C 
BRANCH  26  27
HETATM   27  C18 UNL     1     -16.531   3.299   3.681  1.00  0.00     0.132 C 
BRANCH  27  28
HETATM   28  O6  UNL     1     -15.186   3.085   3.678  1.00  0.00    -0.394 OA
ATOM     29  H6  UNL     1     -14.761   3.689   3.080  1.00  0.00     0.210 HD
ENDBRANCH  27  28
BRANCH  27  30
HETATM   30  C19 UNL     1     -17.005   4.684   3.494  1.00  0.00     0.016 C 
HETATM   31  C20 UNL     1     -18.428   4.818   4.135  1.00  0.00     0.013 C 
BRANCH  30  32
HETATM   32  C21 UNL     1     -17.147   5.235   2.138  1.00  0.00    -0.000 C 
HETATM   33  C22 UNL     1     -17.038   4.227   1.020  1.00  0.00     0.009 C 
HETATM   34  C23 UNL     1     -16.975   4.880  -0.318  1.00  0.00     0.038 C 
HETATM   35  C24 UNL     1     -17.814   6.134  -0.413  1.00  0.00     0.063 C 
HETATM   36  C25 UNL     1     -17.374   6.802  -1.709  1.00  0.00     0.041 C 
HETATM   37  O8  UNL     1     -19.122   5.773  -0.361  1.00  0.00    -0.367 OA
HETATM   38  C31 UNL     1     -17.532   7.134   0.679  1.00  0.00     0.047 C 
HETATM   39  C26 UNL     1     -18.551   7.577  -2.226  1.00  0.00     0.038 C 
HETATM   40  C27 UNL     1     -19.583   6.525  -2.616  1.00  0.00     0.152 C 
HETATM   41  C28 UNL     1     -19.858   5.588  -1.462  1.00  0.00     0.080 C 
HETATM   42  C29 UNL     1     -19.882   4.170  -2.029  1.00  0.00     0.048 C 
HETATM   43  C30 UNL     1     -21.329   5.856  -1.074  1.00  0.00     0.048 C 
HETATM   44  C32 UNL     1     -16.635   6.582   1.800  1.00  0.00    -0.041 C 
HETATM   45  C33 UNL     1     -16.939   7.525   2.984  1.00  0.00     0.015 C 
HETATM   46  C34 UNL     1     -15.203   6.746   1.491  1.00  0.00     0.015 C 
BRANCH  40  47
HETATM   47  O7  UNL     1     -19.043   5.824  -3.687  1.00  0.00    -0.393 OA
ATOM     48  H7  UNL     1     -18.656   5.036  -3.325  1.00  0.00     0.210 HD
ENDBRANCH  40  47
ENDBRANCH  30  32
ENDBRANCH  27  30
ENDBRANCH  26  27
ENDBRANCH  25  26
ENDBRANCH   1  25
TORSDOF 14
ENDMDL
MODEL 2
REMARK VINA RESULT: -8.528636829      3.595      6.481
REMARK  14 active torsions:
REMARK  status: ('A' for Active; 'I' for Inactive)
REMARK    1  A    between atoms: C2_2  and  C3_3 
REMARK    2  A    between atoms: C2_2  and  C5_7 
REMARK    3  A    between atoms: C3_3  and  O2_5 
REMARK    4  A    between atoms: C7_9  and  O3_10 
REMARK    5  A    between atoms: O3_10  and  C8_11 
REMARK    6  A    between atoms: C8_11  and  C9_13 
REMARK    7  A    between atoms: C15_20  and  C16_21 
REMARK    8  A    between atoms: C16_21  and  S1_23 
REMARK    9  A    between atoms: S1_23  and  C17_24 
REMARK   10  A    between atoms: C17_24  and  C18_25 
REMARK   11  A    between atoms: C18_25  and  O6_26 
REMARK   12  A    between atoms: C18_25  and  C19_28 
REMARK   13  A    between atoms: C19_28  and  C21_30 
REMARK   14  A    between atoms: C27_36  and  O7_37 
ROOT
HETATM    1  C16 UNL     1     -16.342  -0.830  -1.119  1.00  0.00     0.196 C 
HETATM    2  O5  UNL     1     -15.698  -1.916  -1.186  1.00  0.00    -0.285 OA
ENDROOT
BRANCH   1   3
HETATM    3  C15 UNL     1     -17.518  -0.703  -0.279  1.00  0.00     0.125 C 
HETATM    4  C7  UNL     1     -17.674  -1.522   0.939  1.00  0.00     0.149 C 
HETATM    5  C6  UNL     1     -19.068  -2.243   0.777  1.00  0.00     0.047 C 
HETATM    6  C5  UNL     1     -19.094  -2.463  -0.685  1.00  0.00     0.055 C 
HETATM    7  C35 UNL     1     -18.714  -1.095  -1.165  1.00  0.00    -0.066 C 
HETATM    8  C36 UNL     1     -19.257  -0.357  -2.067  1.00  0.00     0.016 C 
BRANCH   4   9
HETATM    9  O3  UNL     1     -17.798  -0.718   2.126  1.00  0.00    -0.311 OA
BRANCH   9  10
HETATM   10  C8  UNL     1     -17.643  -1.242   3.398  1.00  0.00     0.295 C 
HETATM   11  O4  UNL     1     -16.524  -1.736   3.670  1.00  0.00    -0.259 OA
BRANCH  10  12
HETATM   12  C9  UNL     1     -18.760  -1.201   4.356  1.00  0.00     0.061 A 
HETATM   13  C10 UNL     1     -19.439  -2.349   4.643  1.00  0.00     0.019 A 
HETATM   14  C11 UNL     1     -20.501  -2.308   5.539  1.00  0.00     0.001 A 
HETATM   15  C12 UNL     1     -20.897  -1.142   6.153  1.00  0.00     0.002 A 
HETATM   16  C13 UNL     1     -20.189   0.017   5.841  1.00  0.00     0.025 A 
HETATM   17  C14 UNL     1     -19.137  -0.015   4.956  1.00  0.00     0.050 A 
HETATM   18 CL1  UNL     1     -18.225   1.434   4.545  1.00  0.00    -0.083 Cl
ENDBRANCH  10  12
ENDBRANCH   9  10
ENDBRANCH   4   9
BRANCH   6  19
HETATM   19  C2  UNL     1     -20.327  -2.988  -1.266  1.00  0.00     0.016 C 
HETATM   20  C1  UNL     1     -20.330  -3.655  -2.426  1.00  0.00     0.026 C 
BRANCH  19  21
HETATM   21  C3  UNL     1     -21.603  -2.749  -0.586  1.00  0.00     0.288 C 
HETATM   22  O1  UNL     1     -22.193  -1.644  -0.709  1.00  0.00    -0.260 OA
BRANCH  21  23
HETATM   23  O2  UNL     1     -22.249  -3.683   0.222  1.00  0.00    -0.323 OA
HETATM   24  C4  UNL     1     -23.630  -3.965   0.048  1.00  0.00     0.213 C 
ENDBRANCH  21  23
ENDBRANCH  19  21
ENDBRANCH   6  19
ENDBRANCH   1   3
BRANCH   1  25
HETATM   25  S1  UNL     1     -15.637   0.463  -2.144  1.00  0.00    -0.089 SA
BRANCH  25  26
HETATM   26  C17 UNL     1     -13.907   0.744  -1.696  1.00  0.00     0.114 C 
BRANCH  26  27
HETATM   27  C18 UNL     1     -13.635   1.919  -0.813  1.00  0.00     0.132 C 
BRANCH  27  28
HETATM   28  O6  UNL     1     -13.509   1.512   0.482  1.00  0.00    -0.394 OA
ATOM     29  H6  UNL     1     -13.435   2.266   1.055  1.00  0.00     0.210 HD
ENDBRANCH  27  28
BRANCH  27  30
HETATM   30  C19 UNL     1     -14.426   3.137  -1.073  1.00  0.00     0.016 C 
HETATM   31  C20 UNL     1     -13.523   4.170  -1.830  1.00  0.00     0.013 C 
BRANCH  30  32
HETATM   32  C21 UNL     1     -15.005   3.892   0.049  1.00  0.00    -0.000 C 
HETATM   33  C22 UNL     1     -14.004   4.456   1.028  1.00  0.00     0.009 C 
HETATM   34  C23 UNL     1     -14.662   5.016   2.241  1.00  0.00     0.038 C 
HETATM   35  C24 UNL     1     -15.995   5.669   1.953  1.00  0.00     0.063 C 
HETATM   36  C25 UNL     1     -16.631   5.883   3.321  1.00  0.00     0.041 C 
HETATM   37  O8  UNL     1     -15.767   6.798   1.236  1.00  0.00    -0.367 OA
HETATM   38  C31 UNL     1     -16.949   4.783   1.193  1.00  0.00     0.047 C 
HETATM   39  C26 UNL     1     -17.526   7.082   3.207  1.00  0.00     0.038 C 
HETATM   40  C27 UNL     1     -16.587   8.262   2.982  1.00  0.00     0.152 C 
HETATM   41  C28 UNL     1     -15.669   8.003   1.808  1.00  0.00     0.080 C 
HETATM   42  C29 UNL     1     -14.267   8.441   2.228  1.00  0.00     0.048 C 
HETATM   43  C30 UNL     1     -16.079   9.045   0.745  1.00  0.00     0.048 C 
HETATM   44  C32 UNL     1     -16.297   3.498   0.653  1.00  0.00    -0.041 C 
HETATM   45  C33 UNL     1     -17.252   3.075  -0.484  1.00  0.00     0.015 C 
HETATM   46  C34 UNL     1     -16.320   2.410   1.647  1.00  0.00     0.015 C 
BRANCH  40  47
HETATM   47  O7  UNL     1     -15.847   8.404   4.150  1.00  0.00    -0.393 OA
ATOM     48  H7  UNL     1     -15.951   9.307   4.425  1.00  0.00     0.210 HD
ENDBRANCH  40  47
ENDBRANCH  30  32
ENDBRANCH  27  30
ENDBRANCH  26  27
ENDBRANCH  25  26
ENDBRANCH   1  25
TORSDOF 14
ENDMDL
MODEL 3
REMARK VINA RESULT: -8.375491891      5.800     10.278
REMARK  14 active torsions:
REMARK  status: ('A' for Active; 'I' for Inactive)
REMARK    1  A    between atoms: C2_2  and  C3_3 
REMARK    2  A    between atoms: C2_2  and  C5_7 
REMARK    3  A    between atoms: C3_3  and  O2_5 
REMARK    4  A    between atoms: C7_9  and  O3_10 
REMARK    5  A    between atoms: O3_10  and  C8_11 
REMARK    6  A    between atoms: C8_11  and  C9_13 
REMARK    7  A    between atoms: C15_20  and  C16_21 
REMARK    8  A    between atoms: C16_21  and  S1_23 
REMARK    9  A    between atoms: S1_23  and  C17_24 
REMARK   10  A    between atoms: C17_24  and  C18_25 
REMARK   11  A    between atoms: C18_25  and  O6_26 
REMARK   12  A    between atoms: C18_25  and  C19_28 
REMARK   13  A    between atoms: C19_28  and  C21_30 
REMARK   14  A    between atoms: C27_36  and  O7_37 
ROOT
HETATM    1  C16 UNL     1     -14.952   6.435  -0.345  1.00  0.00     0.196 C 
HETATM    2  O5  UNL     1     -14.859   7.455  -1.086  1.00  0.00    -0.285 OA
ENDROOT
BRANCH   1   3
HETATM    3  C15 UNL     1     -15.975   6.342   0.680  1.00  0.00     0.125 C 
HETATM    4  C7  UNL     1     -15.675   6.672   2.087  1.00  0.00     0.149 C 
HETATM    5  C6  UNL     1     -16.112   5.400   2.913  1.00  0.00     0.047 C 
HETATM    6  C5  UNL     1     -15.770   4.324   1.958  1.00  0.00     0.055 C 
HETATM    7  C35 UNL     1     -16.406   4.863   0.713  1.00  0.00    -0.066 C 
HETATM    8  C36 UNL     1     -17.178   4.285  -0.137  1.00  0.00     0.016 C 
BRANCH   4   9
HETATM    9  O3  UNL     1     -16.494   7.746   2.583  1.00  0.00    -0.311 OA
BRANCH   9  10
HETATM   10  C8  UNL     1     -16.026   8.676   3.496  1.00  0.00     0.295 C 
HETATM   11  O4  UNL     1     -14.995   9.310   3.175  1.00  0.00    -0.259 OA
BRANCH  10  12
HETATM   12  C9  UNL     1     -16.735   8.880   4.771  1.00  0.00     0.061 A 
HETATM   13  C10 UNL     1     -16.979   7.809   5.581  1.00  0.00     0.019 A 
HETATM   14  C11 UNL     1     -17.658   8.001   6.779  1.00  0.00     0.001 A 
HETATM   15  C12 UNL     1     -18.095   9.241   7.182  1.00  0.00     0.002 A 
HETATM   16  C13 UNL     1     -17.835  10.318   6.337  1.00  0.00     0.025 A 
HETATM   17  C14 UNL     1     -17.165  10.137   5.150  1.00  0.00     0.050 A 
HETATM   18 CL1  UNL     1     -16.822  11.479   4.063  1.00  0.00    -0.083 Cl
ENDBRANCH  10  12
ENDBRANCH   9  10
ENDBRANCH   4   9
BRANCH   6  19
HETATM   19  C2  UNL     1     -16.175   2.963   2.303  1.00  0.00     0.016 C 
HETATM   20  C1  UNL     1     -17.079   2.718   3.260  1.00  0.00     0.026 C 
BRANCH  19  21
HETATM   21  C3  UNL     1     -15.552   1.829   1.613  1.00  0.00     0.288 C 
HETATM   22  O1  UNL     1     -14.334   1.866   1.299  1.00  0.00    -0.260 OA
BRANCH  21  23
HETATM   23  O2  UNL     1     -16.225   0.661   1.259  1.00  0.00    -0.323 OA
HETATM   24  C4  UNL     1     -16.743   0.488  -0.052  1.00  0.00     0.213 C 
ENDBRANCH  21  23
ENDBRANCH  19  21
ENDBRANCH   6  19
ENDBRANCH   1   3
BRANCH   1  25
HETATM   25  S1  UNL     1     -13.719   5.187  -0.717  1.00  0.00    -0.089 SA
BRANCH  25  26
HETATM   26  C17 UNL     1     -12.603   4.970   0.690  1.00  0.00     0.114 C 
BRANCH  26  27
HETATM   27  C18 UNL     1     -11.419   5.883   0.742  1.00  0.00     0.132 C 
BRANCH  27  28
HETATM   28  O6  UNL     1     -10.349   5.294   0.138  1.00  0.00    -0.394 OA
ATOM     29  H6  UNL     1     -10.532   5.153  -0.784  1.00  0.00     0.210 HD
ENDBRANCH  27  28
BRANCH  27  30
HETATM   30  C19 UNL     1     -11.183   6.587   2.018  1.00  0.00     0.016 C 
HETATM   31  C20 UNL     1     -12.477   6.479   2.896  1.00  0.00     0.013 C 
BRANCH  30  32
HETATM   32  C21 UNL     1     -10.845   8.017   2.017  1.00  0.00    -0.000 C 
HETATM   33  C22 UNL     1     -11.278   8.779   0.788  1.00  0.00     0.009 C 
HETATM   34  C23 UNL     1     -10.717  10.159   0.759  1.00  0.00     0.038 C 
HETATM   35  C24 UNL     1     -10.609  10.792   2.129  1.00  0.00     0.063 C 
HETATM   36  C25 UNL     1      -9.745  12.028   1.922  1.00  0.00     0.041 C 
HETATM   37  O8  UNL     1     -11.865  11.029   2.585  1.00  0.00    -0.367 OA
HETATM   38  C31 UNL     1      -9.871   9.939   3.129  1.00  0.00     0.047 C 
HETATM   39  C26 UNL     1     -10.158  13.032   2.958  1.00  0.00     0.038 C 
HETATM   40  C27 UNL     1     -11.579  13.434   2.581  1.00  0.00     0.152 C 
HETATM   41  C28 UNL     1     -12.465  12.216   2.443  1.00  0.00     0.080 C 
HETATM   42  C29 UNL     1     -13.298  12.406   1.177  1.00  0.00     0.048 C 
HETATM   43  C30 UNL     1     -13.496  12.342   3.587  1.00  0.00     0.048 C 
HETATM   44  C32 UNL     1      -9.594   8.510   2.634  1.00  0.00    -0.041 C 
HETATM   45  C33 UNL     1      -9.361   7.727   3.945  1.00  0.00     0.015 C 
HETATM   46  C34 UNL     1      -8.337   8.427   1.868  1.00  0.00     0.015 C 
BRANCH  40  47
HETATM   47  O7  UNL     1     -11.489  14.104   1.366  1.00  0.00    -0.393 OA
ATOM     48  H7  UNL     1     -12.328  14.529   1.231  1.00  0.00     0.210 HD
ENDBRANCH  40  47
ENDBRANCH  30  32
ENDBRANCH  27  30
ENDBRANCH  26  27
ENDBRANCH  25  26
ENDBRANCH   1  25
TORSDOF 14
ENDMDL
MODEL 4
REMARK VINA RESULT: -8.373287900      3.803      7.981
REMARK  14 active torsions:
REMARK  status: ('A' for Active; 'I' for Inactive)
REMARK    1  A    between atoms: C2_2  and  C3_3 
REMARK    2  A    between atoms: C2_2  and  C5_7 
REMARK    3  A    between atoms: C3_3  and  O2_5 
REMARK    4  A    between atoms: C7_9  and  O3_10 
REMARK    5  A    between atoms: O3_10  and  C8_11 
REMARK    6  A    between atoms: C8_11  and  C9_13 
REMARK    7  A    between atoms: C15_20  and  C16_21 
REMARK    8  A    between atoms: C16_21  and  S1_23 
REMARK    9  A    between atoms: S1_23  and  C17_24 
REMARK   10  A    between atoms: C17_24  and  C18_25 
REMARK   11  A    between atoms: C18_25  and  O6_26 
REMARK   12  A    between atoms: C18_25  and  C19_28 
REMARK   13  A    between atoms: C19_28  and  C21_30 
REMARK   14  A    between atoms: C27_36  and  O7_37 
ROOT
HETATM    1  C16 UNL     1     -15.853   2.350   1.424  1.00  0.00     0.196 C 
HETATM    2  O5  UNL     1     -14.998   1.487   1.072  1.00  0.00    -0.285 OA
ENDROOT
BRANCH   1   3
HETATM    3  C15 UNL     1     -16.134   2.602   2.825  1.00  0.00     0.125 C 
HETATM    4  C7  UNL     1     -17.480   2.373   3.385  1.00  0.00     0.149 C 
HETATM    5  C6  UNL     1     -17.883   3.738   4.066  1.00  0.00     0.047 C 
HETATM    6  C5  UNL     1     -17.245   4.702   3.145  1.00  0.00     0.055 C 
HETATM    7  C35 UNL     1     -15.874   4.105   3.044  1.00  0.00    -0.066 C 
HETATM    8  C36 UNL     1     -14.721   4.661   3.156  1.00  0.00     0.016 C 
BRANCH   4   9
HETATM    9  O3  UNL     1     -17.472   1.404   4.449  1.00  0.00    -0.311 OA
BRANCH   9  10
HETATM   10  C8  UNL     1     -17.895   0.099   4.268  1.00  0.00     0.295 C 
HETATM   11  O4  UNL     1     -17.200  -0.618   3.512  1.00  0.00    -0.259 OA
BRANCH  10  12
HETATM   12  C9  UNL     1     -19.106  -0.387   4.950  1.00  0.00     0.061 A 
HETATM   13  C10 UNL     1     -19.895   0.497   5.626  1.00  0.00     0.019 A 
HETATM   14  C11 UNL     1     -21.033   0.037   6.279  1.00  0.00     0.001 A 
HETATM   15  C12 UNL     1     -21.397  -1.290   6.267  1.00  0.00     0.002 A 
HETATM   16  C13 UNL     1     -20.574  -2.173   5.571  1.00  0.00     0.025 A 
HETATM   17  C14 UNL     1     -19.447  -1.726   4.923  1.00  0.00     0.050 A 
HETATM   18 CL1  UNL     1     -18.390  -2.819   4.035  1.00  0.00    -0.083 Cl
ENDBRANCH  10  12
ENDBRANCH   9  10
ENDBRANCH   4   9
BRANCH   6  19
HETATM   19  C2  UNL     1     -17.263   6.112   3.527  1.00  0.00     0.016 C 
HETATM   20  C1  UNL     1     -17.732   6.515   4.714  1.00  0.00     0.026 C 
BRANCH  19  21
HETATM   21  C3  UNL     1     -16.791   7.123   2.575  1.00  0.00     0.288 C 
HETATM   22  O1  UNL     1     -17.250   7.157   1.403  1.00  0.00    -0.260 OA
BRANCH  21  23
HETATM   23  O2  UNL     1     -15.835   8.093   2.869  1.00  0.00    -0.323 OA
HETATM   24  C4  UNL     1     -16.193   9.464   2.958  1.00  0.00     0.213 C 
ENDBRANCH  21  23
ENDBRANCH  19  21
ENDBRANCH   6  19
ENDBRANCH   1   3
BRANCH   1  25
HETATM   25  S1  UNL     1     -16.623   3.178   0.031  1.00  0.00    -0.089 SA
BRANCH  25  26
HETATM   26  C17 UNL     1     -15.358   3.883  -1.054  1.00  0.00     0.114 C 
BRANCH  26  27
HETATM   27  C18 UNL     1     -14.975   5.304  -0.788  1.00  0.00     0.132 C 
BRANCH  27  28
HETATM   28  O6  UNL     1     -16.023   6.130  -1.064  1.00  0.00    -0.394 OA
ATOM     29  H6  UNL     1     -16.302   6.012  -1.966  1.00  0.00     0.210 HD
ENDBRANCH  27  28
BRANCH  27  30
HETATM   30  C19 UNL     1     -13.635   5.723  -1.244  1.00  0.00     0.016 C 
HETATM   31  C20 UNL     1     -12.698   4.467  -1.267  1.00  0.00     0.013 C 
BRANCH  30  32
HETATM   32  C21 UNL     1     -12.886   6.739  -0.491  1.00  0.00    -0.000 C 
HETATM   33  C22 UNL     1     -13.114   6.730   1.001  1.00  0.00     0.009 C 
HETATM   34  C23 UNL     1     -12.498   7.912   1.668  1.00  0.00     0.038 C 
HETATM   35  C24 UNL     1     -11.199   8.351   1.032  1.00  0.00     0.063 C 
HETATM   36  C25 UNL     1     -10.909   9.719   1.636  1.00  0.00     0.041 C 
HETATM   37  O8  UNL     1     -10.265   7.398   1.277  1.00  0.00    -0.367 OA
HETATM   38  C31 UNL     1     -11.301   8.574  -0.456  1.00  0.00     0.047 C 
HETATM   39  C26 UNL     1      -9.418   9.890   1.642  1.00  0.00     0.038 C 
HETATM   40  C27 UNL     1      -8.902   8.862   2.642  1.00  0.00     0.152 C 
HETATM   41  C28 UNL     1      -9.411   7.479   2.304  1.00  0.00     0.080 C 
HETATM   42  C29 UNL     1      -9.864   6.834   3.613  1.00  0.00     0.048 C 
HETATM   43  C30 UNL     1      -8.152   6.676   1.912  1.00  0.00     0.048 C 
HETATM   44  C32 UNL     1     -12.625   8.079  -1.062  1.00  0.00    -0.041 C 
HETATM   45  C33 UNL     1     -12.279   7.907  -2.557  1.00  0.00     0.015 C 
HETATM   46  C34 UNL     1     -13.681   9.106  -0.992  1.00  0.00     0.015 C 
BRANCH  40  47
HETATM   47  O7  UNL     1      -9.371   9.257   3.889  1.00  0.00    -0.393 OA
ATOM     48  H7  UNL     1      -9.184   8.541   4.485  1.00  0.00     0.210 HD
ENDBRANCH  40  47
ENDBRANCH  30  32
ENDBRANCH  27  30
ENDBRANCH  26  27
ENDBRANCH  25  26
ENDBRANCH   1  25
TORSDOF 14
ENDMDL
MODEL 5
REMARK VINA RESULT: -8.288260131      1.922      2.987
REMARK  14 active torsions:
REMARK  status: ('A' for Active; 'I' for Inactive)
REMARK    1  A    between atoms: C2_2  and  C3_3 
REMARK    2  A    between atoms: C2_2  and  C5_7 
REMARK    3  A    between atoms: C3_3  and  O2_5 
REMARK    4  A    between atoms: C7_9  and  O3_10 
REMARK    5  A    between atoms: O3_10  and  C8_11 
REMARK    6  A    between atoms: C8_11  and  C9_13 
REMARK    7  A    between atoms: C15_20  and  C16_21 
REMARK    8  A    between atoms: C16_21  and  S1_23 
REMARK    9  A    between atoms: S1_23  and  C17_24 
REMARK   10  A    between atoms: C17_24  and  C18_25 
REMARK   11  A    between atoms: C18_25  and  O6_26 
REMARK   12  A    between atoms: C18_25  and  C19_28 
REMARK   13  A    between atoms: C19_28  and  C21_30 
REMARK   14  A    between atoms: C27_36  and  O7_37 
ROOT
HETATM    1  C16 UNL     1     -19.334   0.292   5.169  1.00  0.00     0.196 C 
HETATM    2  O5  UNL     1     -19.744   1.488   5.196  1.00  0.00    -0.285 OA
ENDROOT
BRANCH   1   3
HETATM    3  C15 UNL     1     -20.008  -0.750   5.919  1.00  0.00     0.125 C 
HETATM    4  C7  UNL     1     -20.877  -1.733   5.244  1.00  0.00     0.149 C 
HETATM    5  C6  UNL     1     -22.261  -1.650   5.998  1.00  0.00     0.047 C 
HETATM    6  C5  UNL     1     -22.308  -0.209   6.323  1.00  0.00     0.055 C 
HETATM    7  C35 UNL     1     -20.940  -0.024   6.907  1.00  0.00    -0.066 C 
HETATM    8  C36 UNL     1     -20.579   0.553   7.997  1.00  0.00     0.016 C 
BRANCH   4   9
HETATM    9  O3  UNL     1     -20.422  -3.086   5.432  1.00  0.00    -0.311 OA
BRANCH   9  10
HETATM   10  C8  UNL     1     -20.139  -3.929   4.372  1.00  0.00     0.295 C 
HETATM   11  O4  UNL     1     -20.615  -5.086   4.431  1.00  0.00    -0.259 OA
BRANCH  10  12
HETATM   12  C9  UNL     1     -19.317  -3.452   3.247  1.00  0.00     0.061 A 
HETATM   13  C10 UNL     1     -17.958  -3.545   3.325  1.00  0.00     0.019 A 
HETATM   14  C11 UNL     1     -17.181  -3.085   2.268  1.00  0.00     0.001 A 
HETATM   15  C12 UNL     1     -17.737  -2.534   1.136  1.00  0.00     0.002 A 
HETATM   16  C13 UNL     1     -19.127  -2.449   1.082  1.00  0.00     0.025 A 
HETATM   17  C14 UNL     1     -19.902  -2.902   2.123  1.00  0.00     0.050 A 
HETATM   18 CL1  UNL     1     -21.660  -2.807   2.082  1.00  0.00    -0.083 Cl
ENDBRANCH  10  12
ENDBRANCH   9  10
ENDBRANCH   4   9
BRANCH   6  19
HETATM   19  C2  UNL     1     -23.398   0.254   7.179  1.00  0.00     0.016 C 
HETATM   20  C1  UNL     1     -24.284   1.166   6.760  1.00  0.00     0.026 C 
BRANCH  19  21
HETATM   21  C3  UNL     1     -23.510  -0.262   8.547  1.00  0.00     0.288 C 
HETATM   22  O1  UNL     1     -24.150  -1.321   8.778  1.00  0.00    -0.260 OA
BRANCH  21  23
HETATM   23  O2  UNL     1     -22.941   0.347   9.664  1.00  0.00    -0.323 OA
HETATM   24  C4  UNL     1     -23.652   1.336  10.395  1.00  0.00     0.213 C 
ENDBRANCH  21  23
ENDBRANCH  19  21
ENDBRANCH   6  19
ENDBRANCH   1   3
BRANCH   1  25
HETATM   25  S1  UNL     1     -17.889   0.073   4.129  1.00  0.00    -0.089 SA
BRANCH  25  26
HETATM   26  C17 UNL     1     -17.276   1.679   3.564  1.00  0.00     0.114 C 
BRANCH  26  27
HETATM   27  C18 UNL     1     -16.681   1.714   2.192  1.00  0.00     0.132 C 
BRANCH  27  28
HETATM   28  O6  UNL     1     -16.381   0.451   1.780  1.00  0.00    -0.394 OA
ATOM     29  H6  UNL     1     -16.518   0.372   0.843  1.00  0.00     0.210 HD
ENDBRANCH  27  28
BRANCH  27  30
HETATM   30  C19 UNL     1     -15.686   2.773   1.931  1.00  0.00     0.016 C 
HETATM   31  C20 UNL     1     -15.236   3.386   3.302  1.00  0.00     0.013 C 
BRANCH  30  32
HETATM   32  C21 UNL     1     -16.045   3.931   1.099  1.00  0.00    -0.000 C 
HETATM   33  C22 UNL     1     -17.051   4.875   1.712  1.00  0.00     0.009 C 
HETATM   34  C23 UNL     1     -17.526   5.896   0.737  1.00  0.00     0.038 C 
HETATM   35  C24 UNL     1     -16.456   6.344  -0.233  1.00  0.00     0.063 C 
HETATM   36  C25 UNL     1     -17.202   7.119  -1.310  1.00  0.00     0.041 C 
HETATM   37  O8  UNL     1     -15.530   7.055   0.459  1.00  0.00    -0.367 OA
HETATM   38  C31 UNL     1     -15.775   5.204  -0.947  1.00  0.00     0.047 C 
HETATM   39  C26 UNL     1     -16.248   8.140  -1.858  1.00  0.00     0.038 C 
HETATM   40  C27 UNL     1     -16.010   9.119  -0.714  1.00  0.00     0.152 C 
HETATM   41  C28 UNL     1     -15.561   8.390   0.533  1.00  0.00     0.080 C 
HETATM   42  C29 UNL     1     -16.338   8.984   1.706  1.00  0.00     0.048 C 
HETATM   43  C30 UNL     1     -14.111   8.865   0.772  1.00  0.00     0.048 C 
HETATM   44  C32 UNL     1     -16.127   3.821  -0.374  1.00  0.00    -0.041 C 
HETATM   45  C33 UNL     1     -14.958   2.936  -0.858  1.00  0.00     0.015 C 
HETATM   46  C34 UNL     1     -17.351   3.268  -0.983  1.00  0.00     0.015 C 
BRANCH  40  47
HETATM   47  O7  UNL     1     -17.221   9.761  -0.486  1.00  0.00    -0.393 OA
ATOM     48  H7  UNL     1     -17.182  10.102   0.400  1.00  0.00     0.210 HD
ENDBRANCH  40  47
ENDBRANCH  30  32
ENDBRANCH  27  30
ENDBRANCH  26  27
ENDBRANCH  25  26
ENDBRANCH   1  25
TORSDOF 14
ENDMDL
