MODEL 1
REMARK VINA RESULT: -8.107916984      0.000      0.000
REMARK  14 active torsions:
REMARK  status: ('A' for Active; 'I' for Inactive)
REMARK    1  A    between atoms: O1_2  and  C2_3 
REMARK    2  A    between atoms: C2_3  and  O2_4 
REMARK    3  A    between atoms: O2_4  and  C3_5 
REMARK    4  A    between atoms: C6_8  and  O3_9 
REMARK    5  A    between atoms: C8_13  and  C10_15 
REMARK    6  A    between atoms: C10_15  and  O5_16 
REMARK    7  A    between atoms: C11_18  and  O6_19 
REMARK    8  A    between atoms: O6_19  and  C12_20 
REMARK    9  A    between atoms: C12_20  and  C13_22 
REMARK   10  A    between atoms: C21_30  and  C22_31 
REMARK   11  A    between atoms: C22_31  and  O8_32 
REMARK   12  A    between atoms: O8_32  and  C23_33 
REMARK   13  A    between atoms: C31_42  and  C32_43 
REMARK   14  A    between atoms: C32_43  and  C33_44 
ROOT
HETATM    1  C3  UNL     1     -14.147   7.340   0.615  1.00  0.00     0.176 C 
HETATM    2  C4  UNL     1     -14.385   6.163  -0.228  1.00  0.00     0.079 C 
HETATM    3  C5  UNL     1     -14.355   5.103   0.919  1.00  0.00     0.052 C 
HETATM    4  C6  UNL     1     -13.227   5.641   1.664  1.00  0.00     0.265 C 
HETATM    5  O4  UNL     1     -12.875   6.921   1.134  1.00  0.00    -0.325 OA
HETATM    6  C7  UNL     1     -15.758   5.173   1.428  1.00  0.00     0.016 C 
HETATM    7  C8  UNL     1     -16.190   4.012   2.238  1.00  0.00     0.009 C 
HETATM    8  C9  UNL     1     -14.934   3.470   2.960  1.00  0.00     0.020 C 
HETATM    9  C11 UNL     1     -17.235   4.195   3.263  1.00  0.00     0.142 C 
HETATM   10  C17 UNL     1     -18.036   5.471   3.092  1.00  0.00     0.034 C 
HETATM   11  C18 UNL     1     -17.080   6.646   2.992  1.00  0.00     0.012 C 
HETATM   12  C19 UNL     1     -16.200   6.556   1.786  1.00  0.00    -0.028 C 
HETATM   13  C20 UNL     1     -17.055   7.210   0.678  1.00  0.00     0.016 C 
HETATM   14  C21 UNL     1     -14.974   7.475   1.909  1.00  0.00     0.081 C 
ENDROOT
BRANCH  14  15
HETATM   15  C22 UNL     1     -15.276   8.910   2.064  1.00  0.00     0.179 C 
BRANCH  15  16
HETATM   16  O8  UNL     1     -14.512   9.774   2.756  1.00  0.00    -0.380 OA
BRANCH  16  17
HETATM   17  C23 UNL     1     -14.285  11.016   2.236  1.00  0.00     0.176 C 
HETATM   18  C24 UNL     1     -15.472  11.337   1.232  1.00  0.00     0.203 C 
HETATM   19  O9  UNL     1     -15.261  12.668   1.003  1.00  0.00    -0.377 OA
HETATM   20  C25 UNL     1     -14.853  13.255   2.198  1.00  0.00     0.175 C 
HETATM   21  C26 UNL     1     -15.916  14.180   2.619  1.00  0.00     0.004 C 
HETATM   22  C37 UNL     1     -14.615  12.118   3.186  1.00  0.00     0.185 C 
HETATM   23  C27 UNL     1     -16.401  14.452   3.803  1.00  0.00    -0.017 C 
HETATM   24  C28 UNL     1     -15.961  13.840   5.120  1.00  0.00    -0.004 C 
HETATM   25  C29 UNL     1     -16.737  14.564   6.175  1.00  0.00     0.021 C 
HETATM   26  C30 UNL     1     -14.496  14.311   5.356  1.00  0.00     0.021 C 
HETATM   27  C31 UNL     1     -16.036  12.379   5.056  1.00  0.00     0.137 C 
HETATM   28  O10 UNL     1     -15.773  11.847   3.793  1.00  0.00    -0.374 OA
BRANCH  27  29
HETATM   29  C32 UNL     1     -17.342  11.753   5.424  1.00  0.00     0.060 C 
BRANCH  29  30
HETATM   30  C33 UNL     1     -17.503  10.321   5.283  1.00  0.00    -0.022 C 
HETATM   31  C34 UNL     1     -17.422   9.535   6.355  1.00  0.00    -0.091 C 
HETATM   32  C35 UNL     1     -17.586   8.043   6.231  1.00  0.00     0.042 C 
HETATM   33  C36 UNL     1     -17.179  10.085   7.730  1.00  0.00     0.042 C 
ENDBRANCH  29  30
ENDBRANCH  27  29
ENDBRANCH  16  17
ENDBRANCH  15  16
ENDBRANCH  14  15
BRANCH   1  34
HETATM   34  O2  UNL     1     -14.104   8.496  -0.066  1.00  0.00    -0.330 OA
BRANCH  34  35
HETATM   35  C2  UNL     1     -13.055   8.774  -0.846  1.00  0.00     0.341 C 
BRANCH  35  36
HETATM   36  O1  UNL     1     -12.519  10.014  -0.580  1.00  0.00    -0.372 OA
HETATM   37  C1  UNL     1     -11.370   9.981   0.189  1.00  0.00     0.204 C 
ENDBRANCH  35  36
ENDBRANCH  34  35
ENDBRANCH   1  34
BRANCH   4  38
HETATM   38  O3  UNL     1     -12.080   4.878   1.268  1.00  0.00    -0.371 OA
ATOM     39  H3  UNL     1     -11.332   5.277   1.696  1.00  0.00     0.212 HD
ENDBRANCH   4  38
BRANCH   7  40
HETATM   40  C10 UNL     1     -16.494   2.817   1.299  1.00  0.00     0.176 C 
BRANCH  40  41
HETATM   41  O5  UNL     1     -16.061   1.623   1.791  1.00  0.00    -0.400 OA
ATOM     42  H5  UNL     1     -15.143   1.629   2.036  1.00  0.00     0.209 HD
ENDBRANCH  40  41
ENDBRANCH   7  40
BRANCH   9  43
HETATM   43  O6  UNL     1     -17.978   3.073   3.552  1.00  0.00    -0.312 OA
BRANCH  43  44
HETATM   44  C12 UNL     1     -18.066   2.422   4.754  1.00  0.00     0.283 C 
HETATM   45  O7  UNL     1     -17.200   2.674   5.586  1.00  0.00    -0.260 OA
BRANCH  44  46
HETATM   46  C13 UNL     1     -19.133   1.474   5.041  1.00  0.00     0.084 C 
HETATM   47  C14 UNL     1     -19.055   0.186   4.814  1.00  0.00    -0.082 C 
HETATM   48  C15 UNL     1     -17.831  -0.410   4.230  1.00  0.00     0.043 C 
HETATM   49  C16 UNL     1     -20.195  -0.708   5.135  1.00  0.00     0.043 C 
ENDBRANCH  44  46
ENDBRANCH  43  44
ENDBRANCH   9  43
TORSDOF 14
ENDMDL
MODEL 2
REMARK VINA RESULT: -7.843014359      3.482     10.475
REMARK  14 active torsions:
REMARK  status: ('A' for Active; 'I' for Inactive)
REMARK    1  A    between atoms: O1_2  and  C2_3 
REMARK    2  A    between atoms: C2_3  and  O2_4 
REMARK    3  A    between atoms: O2_4  and  C3_5 
REMARK    4  A    between atoms: C6_8  and  O3_9 
REMARK    5  A    between atoms: C8_13  and  C10_15 
REMARK    6  A    between atoms: C10_15  and  O5_16 
REMARK    7  A    between atoms: C11_18  and  O6_19 
REMARK    8  A    between atoms: O6_19  and  C12_20 
REMARK    9  A    between atoms: C12_20  and  C13_22 
REMARK   10  A    between atoms: C21_30  and  C22_31 
REMARK   11  A    between atoms: C22_31  and  O8_32 
REMARK   12  A    between atoms: O8_32  and  C23_33 
REMARK   13  A    between atoms: C31_42  and  C32_43 
REMARK   14  A    between atoms: C32_43  and  C33_44 
ROOT
HETATM    1  C3  UNL     1     -16.827   0.540  -1.760  1.00  0.00     0.176 C 
HETATM    2  C4  UNL     1     -16.144   1.517  -2.616  1.00  0.00     0.079 C 
HETATM    3  C5  UNL     1     -16.971   2.765  -2.173  1.00  0.00     0.052 C 
HETATM    4  C6  UNL     1     -18.285   2.140  -2.146  1.00  0.00     0.265 C 
HETATM    5  O4  UNL     1     -18.141   0.726  -2.307  1.00  0.00    -0.325 OA
HETATM    6  C7  UNL     1     -16.254   3.173  -0.928  1.00  0.00     0.016 C 
HETATM    7  C8  UNL     1     -16.517   4.558  -0.476  1.00  0.00     0.009 C 
HETATM    8  C9  UNL     1     -17.960   4.909  -0.910  1.00  0.00     0.020 C 
HETATM    9  C11 UNL     1     -16.403   4.885   0.957  1.00  0.00     0.142 C 
HETATM   10  C17 UNL     1     -15.632   3.852   1.756  1.00  0.00     0.034 C 
HETATM   11  C18 UNL     1     -16.230   2.480   1.498  1.00  0.00     0.012 C 
HETATM   12  C19 UNL     1     -16.097   2.067   0.066  1.00  0.00    -0.028 C 
HETATM   13  C20 UNL     1     -14.695   1.420   0.017  1.00  0.00     0.016 C 
HETATM   14  C21 UNL     1     -17.055   0.918  -0.283  1.00  0.00     0.081 C 
ENDROOT
BRANCH  14  15
HETATM   15  C22 UNL     1     -16.867  -0.319   0.498  1.00  0.00     0.179 C 
BRANCH  15  16
HETATM   16  O8  UNL     1     -17.625  -0.671   1.552  1.00  0.00    -0.380 OA
BRANCH  16  17
HETATM   17  C23 UNL     1     -17.973  -1.983   1.704  1.00  0.00     0.176 C 
HETATM   18  C24 UNL     1     -16.874  -2.665   2.627  1.00  0.00     0.203 C 
HETATM   19  O9  UNL     1     -17.476  -3.860   2.902  1.00  0.00    -0.377 OA
HETATM   20  C25 UNL     1     -18.840  -3.631   3.072  1.00  0.00     0.175 C 
HETATM   21  C26 UNL     1     -19.159  -3.907   4.481  1.00  0.00     0.004 C 
HETATM   22  C37 UNL     1     -19.095  -2.183   2.667  1.00  0.00     0.185 C 
HETATM   23  C27 UNL     1     -19.963  -3.301   5.317  1.00  0.00    -0.017 C 
HETATM   24  C28 UNL     1     -20.818  -2.083   5.021  1.00  0.00    -0.004 C 
HETATM   25  C29 UNL     1     -21.629  -1.856   6.257  1.00  0.00     0.021 C 
HETATM   26  C30 UNL     1     -21.874  -2.531   3.968  1.00  0.00     0.021 C 
HETATM   27  C31 UNL     1     -19.991  -0.992   4.500  1.00  0.00     0.137 C 
HETATM   28  O10 UNL     1     -18.900  -1.412   3.741  1.00  0.00    -0.374 OA
BRANCH  27  29
HETATM   29  C32 UNL     1     -19.374  -0.074   5.505  1.00  0.00     0.060 C 
BRANCH  29  30
HETATM   30  C33 UNL     1     -19.394   1.354   5.264  1.00  0.00    -0.022 C 
HETATM   31  C34 UNL     1     -18.317   1.958   4.766  1.00  0.00    -0.091 C 
HETATM   32  C35 UNL     1     -18.315   3.442   4.508  1.00  0.00     0.042 C 
HETATM   33  C36 UNL     1     -17.064   1.203   4.429  1.00  0.00     0.042 C 
ENDBRANCH  29  30
ENDBRANCH  27  29
ENDBRANCH  16  17
ENDBRANCH  15  16
ENDBRANCH  14  15
BRANCH   1  34
HETATM   34  O2  UNL     1     -16.357  -0.711  -1.882  1.00  0.00    -0.330 OA
BRANCH  34  35
HETATM   35  C2  UNL     1     -15.320  -0.960  -2.688  1.00  0.00     0.341 C 
BRANCH  35  36
HETATM   36  O1  UNL     1     -14.237  -1.468  -2.007  1.00  0.00    -0.372 OA
HETATM   37  C1  UNL     1     -13.018  -0.970  -2.431  1.00  0.00     0.204 C 
ENDBRANCH  35  36
ENDBRANCH  34  35
ENDBRANCH   1  34
BRANCH   4  38
HETATM   38  O3  UNL     1     -18.918   2.474  -3.388  1.00  0.00    -0.371 OA
ATOM     39  H3  UNL     1     -19.329   1.677  -3.703  1.00  0.00     0.212 HD
ENDBRANCH   4  38
BRANCH   7  40
HETATM   40  C10 UNL     1     -15.723   5.547  -1.368  1.00  0.00     0.176 C 
BRANCH  40  41
HETATM   41  O5  UNL     1     -16.420   6.676  -1.671  1.00  0.00    -0.400 OA
ATOM     42  H5  UNL     1     -16.574   7.236  -0.918  1.00  0.00     0.209 HD
ENDBRANCH  40  41
ENDBRANCH   7  40
BRANCH   9  43
HETATM   43  O6  UNL     1     -16.087   6.195   1.238  1.00  0.00    -0.312 OA
BRANCH  43  44
HETATM   44  C12 UNL     1     -16.930   7.172   1.697  1.00  0.00     0.283 C 
HETATM   45  O7  UNL     1     -17.117   8.135   0.959  1.00  0.00    -0.260 OA
BRANCH  44  46
HETATM   46  C13 UNL     1     -17.580   7.083   2.997  1.00  0.00     0.084 C 
HETATM   47  C14 UNL     1     -17.206   7.758   4.055  1.00  0.00    -0.082 C 
HETATM   48  C15 UNL     1     -16.057   8.690   3.995  1.00  0.00     0.043 C 
HETATM   49  C16 UNL     1     -17.926   7.602   5.343  1.00  0.00     0.043 C 
ENDBRANCH  44  46
ENDBRANCH  43  44
ENDBRANCH   9  43
TORSDOF 14
ENDMDL
MODEL 3
REMARK VINA RESULT: -7.638250497      2.844     10.324
REMARK  14 active torsions:
REMARK  status: ('A' for Active; 'I' for Inactive)
REMARK    1  A    between atoms: O1_2  and  C2_3 
REMARK    2  A    between atoms: C2_3  and  O2_4 
REMARK    3  A    between atoms: O2_4  and  C3_5 
REMARK    4  A    between atoms: C6_8  and  O3_9 
REMARK    5  A    between atoms: C8_13  and  C10_15 
REMARK    6  A    between atoms: C10_15  and  O5_16 
REMARK    7  A    between atoms: C11_18  and  O6_19 
REMARK    8  A    between atoms: O6_19  and  C12_20 
REMARK    9  A    between atoms: C12_20  and  C13_22 
REMARK   10  A    between atoms: C21_30  and  C22_31 
REMARK   11  A    between atoms: C22_31  and  O8_32 
REMARK   12  A    between atoms: O8_32  and  C23_33 
REMARK   13  A    between atoms: C31_42  and  C32_43 
REMARK   14  A    between atoms: C32_43  and  C33_44 
ROOT
HETATM    1  C3  UNL     1     -15.992   2.171  -0.174  1.00  0.00     0.176 C 
HETATM    2  C4  UNL     1     -15.322   3.366  -0.700  1.00  0.00     0.079 C 
HETATM    3  C5  UNL     1     -16.512   4.355  -0.490  1.00  0.00     0.052 C 
HETATM    4  C6  UNL     1     -17.585   3.480  -0.936  1.00  0.00     0.265 C 
HETATM    5  O4  UNL     1     -17.075   2.157  -1.116  1.00  0.00    -0.325 OA
HETATM    6  C7  UNL     1     -16.334   4.738   0.943  1.00  0.00     0.016 C 
HETATM    7  C8  UNL     1     -17.039   5.973   1.355  1.00  0.00     0.009 C 
HETATM    8  C9  UNL     1     -18.314   6.079   0.486  1.00  0.00     0.020 C 
HETATM    9  C11 UNL     1     -17.457   6.132   2.760  1.00  0.00     0.142 C 
HETATM   10  C17 UNL     1     -16.757   5.183   3.713  1.00  0.00     0.034 C 
HETATM   11  C18 UNL     1     -16.909   3.763   3.197  1.00  0.00     0.012 C 
HETATM   12  C19 UNL     1     -16.244   3.570   1.871  1.00  0.00    -0.028 C 
HETATM   13  C20 UNL     1     -14.787   3.230   2.256  1.00  0.00     0.016 C 
HETATM   14  C21 UNL     1     -16.751   2.305   1.161  1.00  0.00     0.081 C 
ENDROOT
BRANCH  14  15
HETATM   15  C22 UNL     1     -16.535   1.042   1.893  1.00  0.00     0.179 C 
BRANCH  15  16
HETATM   16  O8  UNL     1     -17.523   0.278   2.393  1.00  0.00    -0.380 OA
BRANCH  16  17
HETATM   17  C23 UNL     1     -17.525  -1.059   2.119  1.00  0.00     0.176 C 
HETATM   18  C24 UNL     1     -16.517  -1.755   3.131  1.00  0.00     0.203 C 
HETATM   19  O9  UNL     1     -16.815  -3.073   2.925  1.00  0.00    -0.377 OA
HETATM   20  C25 UNL     1     -18.192  -3.182   2.740  1.00  0.00     0.175 C 
HETATM   21  C26 UNL     1     -18.730  -3.931   3.886  1.00  0.00     0.004 C 
HETATM   22  C37 UNL     1     -18.735  -1.761   2.637  1.00  0.00     0.185 C 
HETATM   23  C27 UNL     1     -19.835  -3.779   4.571  1.00  0.00    -0.017 C 
HETATM   24  C28 UNL     1     -20.901  -2.725   4.339  1.00  0.00    -0.004 C 
HETATM   25  C29 UNL     1     -21.999  -3.051   5.302  1.00  0.00     0.021 C 
HETATM   26  C30 UNL     1     -21.531  -3.034   2.948  1.00  0.00     0.021 C 
HETATM   27  C31 UNL     1     -20.309  -1.386   4.358  1.00  0.00     0.137 C 
HETATM   28  O10 UNL     1     -19.004  -1.330   3.871  1.00  0.00    -0.374 OA
BRANCH  27  29
HETATM   29  C32 UNL     1     -20.208  -0.712   5.688  1.00  0.00     0.060 C 
BRANCH  29  30
HETATM   30  C33 UNL     1     -21.276   0.166   6.118  1.00  0.00    -0.022 C 
HETATM   31  C34 UNL     1     -21.815   0.012   7.326  1.00  0.00    -0.091 C 
HETATM   32  C35 UNL     1     -22.928   0.912   7.794  1.00  0.00     0.042 C 
HETATM   33  C36 UNL     1     -21.342  -1.045   8.282  1.00  0.00     0.042 C 
ENDBRANCH  29  30
ENDBRANCH  27  29
ENDBRANCH  16  17
ENDBRANCH  15  16
ENDBRANCH  14  15
BRANCH   1  34
HETATM   34  O2  UNL     1     -15.231   1.066  -0.200  1.00  0.00    -0.330 OA
BRANCH  34  35
HETATM   35  C2  UNL     1     -14.070   1.069  -0.864  1.00  0.00     0.341 C 
BRANCH  35  36
HETATM   36  O1  UNL     1     -12.984   1.069  -0.019  1.00  0.00    -0.372 OA
HETATM   37  C1  UNL     1     -11.764   0.983  -0.666  1.00  0.00     0.204 C 
ENDBRANCH  35  36
ENDBRANCH  34  35
ENDBRANCH   1  34
BRANCH   4  38
HETATM   38  O3  UNL     1     -17.858   3.835  -2.298  1.00  0.00    -0.371 OA
ATOM     39  H3  UNL     1     -18.181   3.048  -2.721  1.00  0.00     0.212 HD
ENDBRANCH   4  38
BRANCH   7  40
HETATM   40  C10 UNL     1     -16.257   7.207   0.833  1.00  0.00     0.176 C 
BRANCH  40  41
HETATM   41  O5  UNL     1     -15.013   7.322   1.373  1.00  0.00    -0.400 OA
ATOM     42  H5  UNL     1     -14.386   7.731   0.787  1.00  0.00     0.209 HD
ENDBRANCH  40  41
ENDBRANCH   7  40
BRANCH   9  43
HETATM   43  O6  UNL     1     -17.557   7.432   3.200  1.00  0.00    -0.312 OA
BRANCH  43  44
HETATM   44  C12 UNL     1     -16.834   8.029   4.199  1.00  0.00     0.283 C 
HETATM   45  O7  UNL     1     -15.667   8.312   3.946  1.00  0.00    -0.260 OA
BRANCH  44  46
HETATM   46  C13 UNL     1     -17.414   8.319   5.503  1.00  0.00     0.084 C 
HETATM   47  C14 UNL     1     -17.586   9.528   5.980  1.00  0.00    -0.082 C 
HETATM   48  C15 UNL     1     -17.186  10.718   5.195  1.00  0.00     0.043 C 
HETATM   49  C16 UNL     1     -18.183   9.731   7.323  1.00  0.00     0.043 C 
ENDBRANCH  44  46
ENDBRANCH  43  44
ENDBRANCH   9  43
TORSDOF 14
ENDMDL
MODEL 4
REMARK VINA RESULT: -7.563002900      4.184     10.927
REMARK  14 active torsions:
REMARK  status: ('A' for Active; 'I' for Inactive)
REMARK    1  A    between atoms: O1_2  and  C2_3 
REMARK    2  A    between atoms: C2_3  and  O2_4 
REMARK    3  A    between atoms: O2_4  and  C3_5 
REMARK    4  A    between atoms: C6_8  and  O3_9 
REMARK    5  A    between atoms: C8_13  and  C10_15 
REMARK    6  A    between atoms: C10_15  and  O5_16 
REMARK    7  A    between atoms: C11_18  and  O6_19 
REMARK    8  A    between atoms: O6_19  and  C12_20 
REMARK    9  A    between atoms: C12_20  and  C13_22 
REMARK   10  A    between atoms: C21_30  and  C22_31 
REMARK   11  A    between atoms: C22_31  and  O8_32 
REMARK   12  A    between atoms: O8_32  and  C23_33 
REMARK   13  A    between atoms: C31_42  and  C32_43 
REMARK   14  A    between atoms: C32_43  and  C33_44 
ROOT
HETATM    1  C3  UNL     1     -17.773  -0.188  -2.170  1.00  0.00     0.176 C 
HETATM    2  C4  UNL     1     -17.376   0.653  -3.305  1.00  0.00     0.079 C 
HETATM    3  C5  UNL     1     -18.078   1.962  -2.823  1.00  0.00     0.052 C 
HETATM    4  C6  UNL     1     -19.318   1.365  -2.351  1.00  0.00     0.265 C 
HETATM    5  O4  UNL     1     -19.191  -0.059  -2.353  1.00  0.00    -0.325 OA
HETATM    6  C7  UNL     1     -17.056   2.525  -1.891  1.00  0.00     0.016 C 
HETATM    7  C8  UNL     1     -17.217   3.962  -1.575  1.00  0.00     0.009 C 
HETATM    8  C9  UNL     1     -18.732   4.272  -1.637  1.00  0.00     0.020 C 
HETATM    9  C11 UNL     1     -16.721   4.480  -0.286  1.00  0.00     0.142 C 
HETATM   10  C17 UNL     1     -15.736   3.554   0.400  1.00  0.00     0.034 C 
HETATM   11  C18 UNL     1     -16.348   2.168   0.504  1.00  0.00     0.012 C 
HETATM   12  C19 UNL     1     -16.605   1.562  -0.839  1.00  0.00    -0.028 C 
HETATM   13  C20 UNL     1     -15.256   0.895  -1.185  1.00  0.00     0.016 C 
HETATM   14  C21 UNL     1     -17.595   0.390  -0.753  1.00  0.00     0.081 C 
ENDROOT
BRANCH  14  15
HETATM   15  C22 UNL     1     -17.169  -0.732   0.106  1.00  0.00     0.179 C 
BRANCH  15  16
HETATM   16  O8  UNL     1     -17.672  -0.983   1.328  1.00  0.00    -0.380 OA
BRANCH  16  17
HETATM   17  C23 UNL     1     -18.108  -2.245   1.614  1.00  0.00     0.176 C 
HETATM   18  C24 UNL     1     -16.990  -2.947   2.496  1.00  0.00     0.203 C 
HETATM   19  O9  UNL     1     -17.658  -4.063   2.916  1.00  0.00    -0.377 OA
HETATM   20  C25 UNL     1     -18.979  -3.706   3.178  1.00  0.00     0.175 C 
HETATM   21  C26 UNL     1     -19.195  -3.848   4.625  1.00  0.00     0.004 C 
HETATM   22  C37 UNL     1     -19.154  -2.275   2.678  1.00  0.00     0.185 C 
HETATM   23  C27 UNL     1     -19.871  -3.115   5.472  1.00  0.00    -0.017 C 
HETATM   24  C28 UNL     1     -20.650  -1.853   5.148  1.00  0.00    -0.004 C 
HETATM   25  C29 UNL     1     -21.329  -1.467   6.424  1.00  0.00     0.021 C 
HETATM   26  C30 UNL     1     -21.826  -2.287   4.224  1.00  0.00     0.021 C 
HETATM   27  C31 UNL     1     -19.789  -0.879   4.475  1.00  0.00     0.137 C 
HETATM   28  O10 UNL     1     -18.805  -1.447   3.666  1.00  0.00    -0.374 OA
BRANCH  27  29
HETATM   29  C32 UNL     1     -19.015   0.055   5.348  1.00  0.00     0.060 C 
BRANCH  29  30
HETATM   30  C33 UNL     1     -17.833   0.702   4.817  1.00  0.00    -0.022 C 
HETATM   31  C34 UNL     1     -17.840   2.014   4.591  1.00  0.00    -0.091 C 
HETATM   32  C35 UNL     1     -16.622   2.707   4.038  1.00  0.00     0.042 C 
HETATM   33  C36 UNL     1     -19.040   2.867   4.881  1.00  0.00     0.042 C 
ENDBRANCH  29  30
ENDBRANCH  27  29
ENDBRANCH  16  17
ENDBRANCH  15  16
ENDBRANCH  14  15
BRANCH   1  34
HETATM   34  O2  UNL     1     -17.325  -1.451  -2.248  1.00  0.00    -0.330 OA
BRANCH  34  35
HETATM   35  C2  UNL     1     -18.076  -2.392  -2.828  1.00  0.00     0.341 C 
BRANCH  35  36
HETATM   36  O1  UNL     1     -18.405  -3.409  -1.961  1.00  0.00    -0.372 OA
HETATM   37  C1  UNL     1     -19.727  -3.398  -1.552  1.00  0.00     0.204 C 
ENDBRANCH  35  36
ENDBRANCH  34  35
ENDBRANCH   1  34
BRANCH   4  38
HETATM   38  O3  UNL     1     -20.276   1.536  -3.403  1.00  0.00    -0.371 OA
ATOM     39  H3  UNL     1     -20.824   2.270  -3.152  1.00  0.00     0.212 HD
ENDBRANCH   4  38
BRANCH   7  40
HETATM   40  C10 UNL     1     -16.723   4.809  -2.776  1.00  0.00     0.176 C 
BRANCH  40  41
HETATM   41  O5  UNL     1     -17.539   5.860  -3.065  1.00  0.00    -0.400 OA
ATOM     42  H5  UNL     1     -17.308   6.303  -3.873  1.00  0.00     0.209 HD
ENDBRANCH  40  41
ENDBRANCH   7  40
BRANCH   9  43
HETATM   43  O6  UNL     1     -16.372   5.810  -0.283  1.00  0.00    -0.312 OA
BRANCH  43  44
HETATM   44  C12 UNL     1     -17.090   6.856   0.235  1.00  0.00     0.283 C 
HETATM   45  O7  UNL     1     -17.944   7.355  -0.491  1.00  0.00    -0.260 OA
BRANCH  44  46
HETATM   46  C13 UNL     1     -16.859   7.359   1.582  1.00  0.00     0.084 C 
HETATM   47  C14 UNL     1     -17.446   6.887   2.654  1.00  0.00    -0.082 C 
HETATM   48  C15 UNL     1     -18.417   5.773   2.561  1.00  0.00     0.043 C 
HETATM   49  C16 UNL     1     -17.153   7.463   3.990  1.00  0.00     0.043 C 
ENDBRANCH  44  46
ENDBRANCH  43  44
ENDBRANCH   9  43
TORSDOF 14
ENDMDL
MODEL 5
REMARK VINA RESULT: -7.220507933      3.043     10.060
REMARK  14 active torsions:
REMARK  status: ('A' for Active; 'I' for Inactive)
REMARK    1  A    between atoms: O1_2  and  C2_3 
REMARK    2  A    between atoms: C2_3  and  O2_4 
REMARK    3  A    between atoms: O2_4  and  C3_5 
REMARK    4  A    between atoms: C6_8  and  O3_9 
REMARK    5  A    between atoms: C8_13  and  C10_15 
REMARK    6  A    between atoms: C10_15  and  O5_16 
REMARK    7  A    between atoms: C11_18  and  O6_19 
REMARK    8  A    between atoms: O6_19  and  C12_20 
REMARK    9  A    between atoms: C12_20  and  C13_22 
REMARK   10  A    between atoms: C21_30  and  C22_31 
REMARK   11  A    between atoms: C22_31  and  O8_32 
REMARK   12  A    between atoms: O8_32  and  C23_33 
REMARK   13  A    between atoms: C31_42  and  C32_43 
REMARK   14  A    between atoms: C32_43  and  C33_44 
ROOT
HETATM    1  C3  UNL     1     -15.430  14.151   2.789  1.00  0.00     0.176 C 
HETATM    2  C4  UNL     1     -14.916  15.502   3.042  1.00  0.00     0.079 C 
HETATM    3  C5  UNL     1     -16.251  16.114   3.573  1.00  0.00     0.052 C 
HETATM    4  C6  UNL     1     -17.152  15.505   2.606  1.00  0.00     0.265 C 
HETATM    5  O4  UNL     1     -16.439  14.530   1.841  1.00  0.00    -0.325 OA
HETATM    6  C7  UNL     1     -16.220  15.701   5.009  1.00  0.00     0.016 C 
HETATM    7  C8  UNL     1     -17.125  16.461   5.900  1.00  0.00     0.009 C 
HETATM    8  C9  UNL     1     -18.346  16.884   5.051  1.00  0.00     0.020 C 
HETATM    9  C11 UNL     1     -17.647  15.816   7.120  1.00  0.00     0.142 C 
HETATM   10  C17 UNL     1     -16.871  14.581   7.532  1.00  0.00     0.034 C 
HETATM   11  C18 UNL     1     -16.777  13.636   6.347  1.00  0.00     0.012 C 
HETATM   12  C19 UNL     1     -16.011  14.234   5.209  1.00  0.00    -0.028 C 
HETATM   13  C20 UNL     1     -14.546  13.885   5.551  1.00  0.00     0.016 C 
HETATM   14  C21 UNL     1     -16.280  13.489   3.892  1.00  0.00     0.081 C 
ENDROOT
BRANCH  14  15
HETATM   15  C22 UNL     1     -15.922  12.058   3.893  1.00  0.00     0.179 C 
BRANCH  15  16
HETATM   16  O8  UNL     1     -16.599  11.108   3.224  1.00  0.00    -0.380 OA
BRANCH  16  17
HETATM   17  C23 UNL     1     -15.924  10.319   2.337  1.00  0.00     0.176 C 
HETATM   18  C24 UNL     1     -14.513   9.977   2.981  1.00  0.00     0.203 C 
HETATM   19  O9  UNL     1     -14.074   8.999   2.134  1.00  0.00    -0.377 OA
HETATM   20  C25 UNL     1     -15.165   8.208   1.781  1.00  0.00     0.175 C 
HETATM   21  C26 UNL     1     -14.947   6.874   2.359  1.00  0.00     0.004 C 
HETATM   22  C37 UNL     1     -16.407   8.907   2.324  1.00  0.00     0.185 C 
HETATM   23  C27 UNL     1     -15.778   6.030   2.915  1.00  0.00    -0.017 C 
HETATM   24  C28 UNL     1     -17.268   6.234   3.117  1.00  0.00    -0.004 C 
HETATM   25  C29 UNL     1     -17.773   4.945   3.684  1.00  0.00     0.021 C 
HETATM   26  C30 UNL     1     -17.902   6.280   1.695  1.00  0.00     0.021 C 
HETATM   27  C31 UNL     1     -17.521   7.480   3.842  1.00  0.00     0.137 C 
HETATM   28  O10 UNL     1     -16.599   8.493   3.579  1.00  0.00    -0.374 OA
BRANCH  27  29
HETATM   29  C32 UNL     1     -17.527   7.403   5.335  1.00  0.00     0.060 C 
BRANCH  29  30
HETATM   30  C33 UNL     1     -16.832   8.420   6.097  1.00  0.00    -0.022 C 
HETATM   31  C34 UNL     1     -17.526   9.352   6.747  1.00  0.00    -0.091 C 
HETATM   32  C35 UNL     1     -16.825  10.420   7.545  1.00  0.00     0.042 C 
HETATM   33  C36 UNL     1     -19.027   9.385   6.731  1.00  0.00     0.042 C 
ENDBRANCH  29  30
ENDBRANCH  27  29
ENDBRANCH  16  17
ENDBRANCH  15  16
ENDBRANCH  14  15
BRANCH   1  34
HETATM   34  O2  UNL     1     -14.511  13.304   2.299  1.00  0.00    -0.330 OA
BRANCH  34  35
HETATM   35  C2  UNL     1     -13.281  13.742   2.016  1.00  0.00     0.341 C 
BRANCH  35  36
HETATM   36  O1  UNL     1     -12.332  12.752   2.130  1.00  0.00    -0.372 OA
HETATM   37  C1  UNL     1     -11.843  12.582   3.413  1.00  0.00     0.204 C 
ENDBRANCH  35  36
ENDBRANCH  34  35
ENDBRANCH   1  34
BRANCH   4  38
HETATM   38  O3  UNL     1     -17.392  16.494   1.597  1.00  0.00    -0.371 OA
ATOM     39  H3  UNL     1     -17.803  16.042   0.870  1.00  0.00     0.212 HD
ENDBRANCH   4  38
BRANCH   7  40
HETATM   40  C10 UNL     1     -16.507  17.853   6.191  1.00  0.00     0.176 C 
BRANCH  40  41
HETATM   41  O5  UNL     1     -15.446  17.802   7.044  1.00  0.00    -0.400 OA
ATOM     42  H5  UNL     1     -15.247  18.641   7.444  1.00  0.00     0.209 HD
ENDBRANCH  40  41
ENDBRANCH   7  40
BRANCH   9  43
HETATM   43  O6  UNL     1     -17.967  16.674   8.147  1.00  0.00    -0.312 OA
BRANCH  43  44
HETATM   44  C12 UNL     1     -19.170  16.784   8.793  1.00  0.00     0.283 C 
HETATM   45  O7  UNL     1     -19.134  16.924  10.012  1.00  0.00    -0.260 OA
BRANCH  44  46
HETATM   46  C13 UNL     1     -20.437  16.740   8.076  1.00  0.00     0.084 C 
HETATM   47  C14 UNL     1     -20.977  17.769   7.471  1.00  0.00    -0.082 C 
HETATM   48  C15 UNL     1     -20.307  19.090   7.476  1.00  0.00     0.043 C 
HETATM   49  C16 UNL     1     -22.275  17.635   6.766  1.00  0.00     0.043 C 
ENDBRANCH  44  46
ENDBRANCH  43  44
ENDBRANCH   9  43
TORSDOF 14
ENDMDL
