MODEL 1
REMARK VINA RESULT: -8.061926365      0.000      0.000
REMARK  3 active torsions:
REMARK  status: ('A' for Active; 'I' for Inactive)
REMARK    1  A    between atoms: O1_1  and  C1_3 
REMARK    2  A    between atoms: N1_7  and  C5_8 
REMARK    3  A    between atoms: C6_9  and  C7_10 
ROOT
HETATM    1  C5  UNL     1     -20.829  53.619  -1.458  1.00  0.00     0.046 A 
HETATM    2  C6  UNL     1     -22.014  53.062  -0.973  1.00  0.00    -0.011 A 
HETATM    3  C10 UNL     1     -23.025  53.793  -0.410  1.00  0.00     0.097 A 
HETATM    4  N2  UNL     1     -22.891  55.125  -0.297  1.00  0.00    -0.368 N 
ATOM      5  H2  UNL     1     -23.629  55.693   0.118  1.00  0.00     0.165 HD
HETATM    6  C11 UNL     1     -21.745  55.694  -0.752  1.00  0.00     0.017 A 
HETATM    7  C12 UNL     1     -20.742  54.959  -1.314  1.00  0.00    -0.008 A 
HETATM    8  C13 UNL     1     -19.412  55.540  -1.697  1.00  0.00     0.043 C 
HETATM    9  C14 UNL     1     -18.812  55.899  -0.341  1.00  0.00     0.005 C 
HETATM   10  C15 UNL     1     -19.292  57.226   0.138  1.00  0.00     0.001 C 
HETATM   11  C16 UNL     1     -20.673  57.283   0.691  1.00  0.00     0.006 C 
HETATM   12  C17 UNL     1     -21.729  57.188  -0.441  1.00  0.00     0.057 C 
ENDROOT
BRANCH   1  13
HETATM   13  N1  UNL     1     -19.791  52.843  -2.043  1.00  0.00    -0.377 N 
HETATM   14  C4  UNL     1     -18.713  52.492  -1.124  1.00  0.00     0.123 C 
HETATM   15  C3  UNL     1     -17.409  52.283  -1.779  1.00  0.00     0.022 C 
HETATM   16  C2  UNL     1     -17.447  51.665  -3.146  1.00  0.00     0.035 C 
HETATM   17  C1  UNL     1     -18.448  52.315  -4.059  1.00  0.00     0.136 C 
HETATM   18  C18 UNL     1     -19.793  52.399  -3.429  1.00  0.00     0.154 C 
BRANCH  17  19
HETATM   19  O1  UNL     1     -18.003  53.493  -4.626  1.00  0.00    -0.394 OA
ATOM     20  H1  UNL     1     -18.079  53.515  -5.573  1.00  0.00     0.210 HD
ENDBRANCH  17  19
ENDBRANCH   1  13
BRANCH   2  21
HETATM   21  C7  UNL     1     -22.129  51.580  -1.048  1.00  0.00     0.022 A 
HETATM   22  C8  UNL     1     -21.606  50.953   0.282  1.00  0.00     0.010 A 
HETATM   23  C9  UNL     1     -23.025  50.886  -0.056  1.00  0.00     0.010 A 
ENDBRANCH   2  21
TORSDOF 3
ENDMDL
MODEL 2
REMARK VINA RESULT: -8.048546872      3.049      5.725
REMARK  3 active torsions:
REMARK  status: ('A' for Active; 'I' for Inactive)
REMARK    1  A    between atoms: O1_1  and  C1_3 
REMARK    2  A    between atoms: N1_7  and  C5_8 
REMARK    3  A    between atoms: C6_9  and  C7_10 
ROOT
HETATM    1  C5  UNL     1     -20.794  55.331   1.424  1.00  0.00     0.046 A 
HETATM    2  C6  UNL     1     -21.981  55.882   0.939  1.00  0.00    -0.011 A 
HETATM    3  C10 UNL     1     -22.989  55.146   0.377  1.00  0.00     0.097 A 
HETATM    4  N2  UNL     1     -22.850  53.814   0.267  1.00  0.00    -0.368 N 
ATOM      5  H2  UNL     1     -23.587  53.243  -0.147  1.00  0.00     0.165 HD
HETATM    6  C11 UNL     1     -21.703  53.250   0.723  1.00  0.00     0.017 A 
HETATM    7  C12 UNL     1     -20.702  53.990   1.283  1.00  0.00    -0.008 A 
HETATM    8  C13 UNL     1     -19.370  53.415   1.667  1.00  0.00     0.043 C 
HETATM    9  C14 UNL     1     -18.769  53.056   0.313  1.00  0.00     0.005 C 
HETATM   10  C15 UNL     1     -19.244  51.726  -0.164  1.00  0.00     0.001 C 
HETATM   11  C16 UNL     1     -20.624  51.662  -0.717  1.00  0.00     0.006 C 
HETATM   12  C17 UNL     1     -21.681  51.756   0.415  1.00  0.00     0.057 C 
ENDROOT
BRANCH   1  13
HETATM   13  N1  UNL     1     -19.759  56.111   2.007  1.00  0.00    -0.377 N 
HETATM   14  C4  UNL     1     -18.674  56.450   1.092  1.00  0.00     0.123 C 
HETATM   15  C3  UNL     1     -17.374  56.664   1.753  1.00  0.00     0.022 C 
HETATM   16  C2  UNL     1     -17.420  57.298   3.113  1.00  0.00     0.035 C 
HETATM   17  C1  UNL     1     -18.429  56.660   4.027  1.00  0.00     0.136 C 
HETATM   18  C18 UNL     1     -19.770  56.572   3.388  1.00  0.00     0.154 C 
BRANCH  17  19
HETATM   19  O1  UNL     1     -17.990  55.489   4.610  1.00  0.00    -0.394 OA
ATOM     20  H1  UNL     1     -18.538  55.188   5.326  1.00  0.00     0.210 HD
ENDBRANCH  17  19
ENDBRANCH   1  13
BRANCH   2  21
HETATM   21  C7  UNL     1     -22.101  57.364   1.010  1.00  0.00     0.022 A 
HETATM   22  C8  UNL     1     -21.592  57.989  -0.326  1.00  0.00     0.010 A 
HETATM   23  C9  UNL     1     -23.008  58.051   0.023  1.00  0.00     0.010 A 
ENDBRANCH   2  21
TORSDOF 3
ENDMDL
MODEL 3
REMARK VINA RESULT: -7.886429971      1.961      2.589
REMARK  3 active torsions:
REMARK  status: ('A' for Active; 'I' for Inactive)
REMARK    1  A    between atoms: O1_1  and  C1_3 
REMARK    2  A    between atoms: N1_7  and  C5_8 
REMARK    3  A    between atoms: C6_9  and  C7_10 
ROOT
HETATM    1  C5  UNL     1     -21.062  54.163  -0.728  1.00  0.00     0.046 A 
HETATM    2  C6  UNL     1     -22.201  53.769  -1.431  1.00  0.00    -0.011 A 
HETATM    3  C10 UNL     1     -23.327  54.539  -1.552  1.00  0.00     0.097 A 
HETATM    4  N2  UNL     1     -23.366  55.745  -0.962  1.00  0.00    -0.368 N 
ATOM      5  H2  UNL     1     -24.192  56.339  -1.037  1.00  0.00     0.165 HD
HETATM    6  C11 UNL     1     -22.276  56.152  -0.263  1.00  0.00     0.017 A 
HETATM    7  C12 UNL     1     -21.156  55.380  -0.148  1.00  0.00    -0.008 A 
HETATM    8  C13 UNL     1     -19.994  55.742   0.730  1.00  0.00     0.043 C 
HETATM    9  C14 UNL     1     -20.595  55.627   2.127  1.00  0.00     0.005 C 
HETATM   10  C15 UNL     1     -21.319  56.870   2.516  1.00  0.00     0.001 C 
HETATM   11  C16 UNL     1     -22.664  57.083   1.914  1.00  0.00     0.006 C 
HETATM   12  C17 UNL     1     -22.546  57.489   0.422  1.00  0.00     0.057 C 
ENDROOT
BRANCH   1  13
HETATM   13  N1  UNL     1     -19.901  53.350  -0.617  1.00  0.00    -0.377 N 
HETATM   14  C4  UNL     1     -19.995  52.307   0.400  1.00  0.00     0.123 C 
HETATM   15  C3  UNL     1     -18.696  51.904   0.969  1.00  0.00     0.022 C 
HETATM   16  C2  UNL     1     -17.527  51.918   0.027  1.00  0.00     0.035 C 
HETATM   17  C1  UNL     1     -17.432  53.185  -0.776  1.00  0.00     0.136 C 
HETATM   18  C18 UNL     1     -18.719  53.505  -1.451  1.00  0.00     0.154 C 
BRANCH  17  19
HETATM   19  O1  UNL     1     -16.864  54.239  -0.088  1.00  0.00    -0.394 OA
ATOM     20  H1  UNL     1     -17.493  54.886   0.209  1.00  0.00     0.210 HD
ENDBRANCH  17  19
ENDBRANCH   1  13
BRANCH   2  21
HETATM   21  C7  UNL     1     -22.171  52.407  -2.032  1.00  0.00     0.022 A 
HETATM   22  C8  UNL     1     -22.991  52.410  -3.361  1.00  0.00     0.010 A 
HETATM   23  C9  UNL     1     -21.540  52.244  -3.390  1.00  0.00     0.010 A 
ENDBRANCH   2  21
TORSDOF 3
ENDMDL
MODEL 4
REMARK VINA RESULT: -7.884675850      2.267      4.829
REMARK  3 active torsions:
REMARK  status: ('A' for Active; 'I' for Inactive)
REMARK    1  A    between atoms: O1_1  and  C1_3 
REMARK    2  A    between atoms: N1_7  and  C5_8 
REMARK    3  A    between atoms: C6_9  and  C7_10 
ROOT
HETATM    1  C5  UNL     1     -21.059  54.817   0.723  1.00  0.00     0.046 A 
HETATM    2  C6  UNL     1     -22.199  55.211   1.427  1.00  0.00    -0.011 A 
HETATM    3  C10 UNL     1     -23.324  54.440   1.546  1.00  0.00     0.097 A 
HETATM    4  N2  UNL     1     -23.363  53.234   0.955  1.00  0.00    -0.368 N 
ATOM      5  H2  UNL     1     -24.189  52.640   1.030  1.00  0.00     0.165 HD
HETATM    6  C11 UNL     1     -22.273  52.828   0.256  1.00  0.00     0.017 A 
HETATM    7  C12 UNL     1     -21.153  53.601   0.142  1.00  0.00    -0.008 A 
HETATM    8  C13 UNL     1     -19.991  53.240  -0.735  1.00  0.00     0.043 C 
HETATM    9  C14 UNL     1     -20.590  53.355  -2.132  1.00  0.00     0.005 C 
HETATM   10  C15 UNL     1     -21.315  52.113  -2.523  1.00  0.00     0.001 C 
HETATM   11  C16 UNL     1     -22.659  51.899  -1.922  1.00  0.00     0.006 C 
HETATM   12  C17 UNL     1     -22.542  51.492  -0.429  1.00  0.00     0.057 C 
ENDROOT
BRANCH   1  13
HETATM   13  N1  UNL     1     -19.899  55.630   0.613  1.00  0.00    -0.377 N 
HETATM   14  C4  UNL     1     -19.992  56.674  -0.403  1.00  0.00     0.123 C 
HETATM   15  C3  UNL     1     -18.693  57.077  -0.971  1.00  0.00     0.022 C 
HETATM   16  C2  UNL     1     -17.525  57.064  -0.029  1.00  0.00     0.035 C 
HETATM   17  C1  UNL     1     -17.430  55.797   0.774  1.00  0.00     0.136 C 
HETATM   18  C18 UNL     1     -18.717  55.476   1.448  1.00  0.00     0.154 C 
BRANCH  17  19
HETATM   19  O1  UNL     1     -16.861  54.743   0.086  1.00  0.00    -0.394 OA
ATOM     20  H1  UNL     1     -17.282  53.907   0.250  1.00  0.00     0.210 HD
ENDBRANCH  17  19
ENDBRANCH   1  13
BRANCH   2  21
HETATM   21  C7  UNL     1     -22.170  56.572   2.028  1.00  0.00     0.022 A 
HETATM   22  C8  UNL     1     -22.988  56.567   3.358  1.00  0.00     0.010 A 
HETATM   23  C9  UNL     1     -21.538  56.734   3.386  1.00  0.00     0.010 A 
ENDBRANCH   2  21
TORSDOF 3
ENDMDL
MODEL 5
REMARK VINA RESULT: -7.776279581      2.551      6.205
REMARK  3 active torsions:
REMARK  status: ('A' for Active; 'I' for Inactive)
REMARK    1  A    between atoms: O1_1  and  C1_3 
REMARK    2  A    between atoms: N1_7  and  C5_8 
REMARK    3  A    between atoms: C6_9  and  C7_10 
ROOT
HETATM    1  C5  UNL     1     -19.930  55.620   0.351  1.00  0.00     0.046 A 
HETATM    2  C6  UNL     1     -18.548  55.747   0.503  1.00  0.00    -0.011 A 
HETATM    3  C10 UNL     1     -17.648  54.792   0.113  1.00  0.00     0.097 A 
HETATM    4  N2  UNL     1     -18.095  53.653  -0.443  1.00  0.00    -0.368 N 
ATOM      5  H2  UNL     1     -17.445  52.926  -0.741  1.00  0.00     0.165 HD
HETATM    6  C11 UNL     1     -19.434  53.497  -0.595  1.00  0.00     0.017 A 
HETATM    7  C12 UNL     1     -20.327  54.454  -0.206  1.00  0.00    -0.008 A 
HETATM    8  C13 UNL     1     -21.813  54.253  -0.234  1.00  0.00     0.043 C 
HETATM    9  C14 UNL     1     -22.016  53.186   0.837  1.00  0.00     0.005 C 
HETATM   10  C15 UNL     1     -21.786  51.816   0.297  1.00  0.00     0.001 C 
HETATM   11  C16 UNL     1     -20.371  51.400   0.097  1.00  0.00     0.006 C 
HETATM   12  C17 UNL     1     -19.754  52.108  -1.138  1.00  0.00     0.057 C 
ENDROOT
BRANCH   1  13
HETATM   13  N1  UNL     1     -20.849  56.624   0.759  1.00  0.00    -0.377 N 
HETATM   14  C4  UNL     1     -21.222  56.560   2.169  1.00  0.00     0.123 C 
HETATM   15  C3  UNL     1     -22.559  57.107   2.462  1.00  0.00     0.022 C 
HETATM   16  C2  UNL     1     -22.989  58.284   1.636  1.00  0.00     0.035 C 
HETATM   17  C1  UNL     1     -22.764  58.084   0.163  1.00  0.00     0.136 C 
HETATM   18  C18 UNL     1     -21.368  57.658  -0.126  1.00  0.00     0.154 C 
BRANCH  17  19
HETATM   19  O1  UNL     1     -23.738  57.322  -0.451  1.00  0.00    -0.394 OA
ATOM     20  H1  UNL     1     -23.417  56.498  -0.799  1.00  0.00     0.210 HD
ENDBRANCH  17  19
ENDBRANCH   1  13
BRANCH   2  21
HETATM   21  C7  UNL     1     -18.066  56.986   1.173  1.00  0.00     0.022 A 
HETATM   22  C8  UNL     1     -17.770  56.679   2.675  1.00  0.00     0.010 A 
HETATM   23  C9  UNL     1     -16.677  56.983   1.755  1.00  0.00     0.010 A 
ENDBRANCH   2  21
TORSDOF 3
ENDMDL
