MODEL 1
REMARK VINA RESULT: -8.308981910      0.000      0.000
REMARK  3 active torsions:
REMARK  status: ('A' for Active; 'I' for Inactive)
REMARK       I    between atoms: C1_2  and  N1_3 
REMARK    1  A    between atoms: C1_2  and  C8_16 
REMARK    2  A    between atoms: N1_3  and  C2_5 
REMARK    3  A    between atoms: C3_10  and  C4_11 
ROOT
HETATM    1  C2  UNL     1     -18.358  53.095  -1.493  1.00  0.00     0.167 A 
HETATM    2  N2  UNL     1     -17.345  53.076  -0.643  1.00  0.00    -0.279 N 
ATOM      3  H2  UNL     1     -16.826  52.213  -0.483  1.00  0.00     0.189 HD
HETATM    4  N3  UNL     1     -17.022  54.144  -0.026  1.00  0.00    -0.296 N 
ATOM      5  H3  UNL     1     -16.242  54.136   0.630  1.00  0.00     0.187 HD
HETATM    6  C3  UNL     1     -17.697  55.264  -0.237  1.00  0.00     0.074 A 
HETATM    7  S1  UNL     1     -18.854  54.732  -1.384  1.00  0.00    -0.037 SA
ENDROOT
BRANCH   1   8
HETATM    8  N1  UNL     1     -18.915  52.229  -2.241  1.00  0.00    -0.306 N 
HETATM    9  C1  UNL     1     -18.744  52.024  -3.602  1.00  0.00     0.227 C 
HETATM   10  O1  UNL     1     -17.589  52.131  -4.092  1.00  0.00    -0.273 OA
ATOM     11  H1  UNL     1     -19.574  51.603  -1.779  1.00  0.00     0.171 HD
BRANCH   9  12
HETATM   12  C8  UNL     1     -19.926  51.675  -4.499  1.00  0.00     0.079 C 
HETATM   13  C9  UNL     1     -19.348  51.915  -5.879  1.00  0.00     0.025 C 
HETATM   14  C10 UNL     1     -20.403  51.682  -7.013  1.00  0.00     0.081 C 
HETATM   15  C11 UNL     1     -21.654  51.656  -6.376  1.00  0.00    -0.183 C 
HETATM   16  C12 UNL     1     -22.873  51.677  -5.688  1.00  0.00     0.080 C 
HETATM   17  C13 UNL     1     -22.506  51.809  -4.167  1.00  0.00     0.012 C 
HETATM   18  C14 UNL     1     -21.084  52.359  -3.990  1.00  0.00     0.015 C 
ENDBRANCH   9  12
ENDBRANCH   1   8
BRANCH   6  19
HETATM   19  C4  UNL     1     -17.553  56.638   0.328  1.00  0.00     0.044 A 
HETATM   20  C5  UNL     1     -16.480  56.784   1.367  1.00  0.00     0.011 A 
HETATM   21  C6  UNL     1     -17.570  56.984   2.404  1.00  0.00     0.002 A 
HETATM   22  C7  UNL     1     -18.639  56.866   1.366  1.00  0.00     0.011 A 
ENDBRANCH   6  19
TORSDOF 3
ENDMDL
MODEL 2
REMARK VINA RESULT: -8.140193323      1.945      7.259
REMARK  3 active torsions:
REMARK  status: ('A' for Active; 'I' for Inactive)
REMARK       I    between atoms: C1_2  and  N1_3 
REMARK    1  A    between atoms: C1_2  and  C8_16 
REMARK    2  A    between atoms: N1_3  and  C2_5 
REMARK    3  A    between atoms: C3_10  and  C4_11 
ROOT
HETATM    1  C2  UNL     1     -18.620  52.375  -3.720  1.00  0.00     0.167 A 
HETATM    2  N2  UNL     1     -18.197  51.831  -4.849  1.00  0.00    -0.279 N 
ATOM      3  H2  UNL     1     -17.198  51.735  -5.029  1.00  0.00     0.189 HD
HETATM    4  N3  UNL     1     -19.046  51.428  -5.710  1.00  0.00    -0.296 N 
ATOM      5  H3  UNL     1     -18.727  51.008  -6.582  1.00  0.00     0.187 HD
HETATM    6  C3  UNL     1     -20.343  51.554  -5.473  1.00  0.00     0.074 A 
HETATM    7  S1  UNL     1     -20.318  52.293  -3.927  1.00  0.00    -0.037 SA
ENDROOT
BRANCH   1   8
HETATM    8  N1  UNL     1     -18.048  52.861  -2.691  1.00  0.00    -0.306 N 
HETATM    9  C1  UNL     1     -18.351  52.653  -1.355  1.00  0.00     0.227 C 
HETATM   10  O1  UNL     1     -18.688  51.499  -0.980  1.00  0.00    -0.273 OA
ATOM     11  H1  UNL     1     -17.264  53.486  -2.875  1.00  0.00     0.171 HD
BRANCH   9  12
HETATM   12  C8  UNL     1     -18.281  53.794  -0.346  1.00  0.00     0.079 C 
HETATM   13  C9  UNL     1     -19.212  53.301   0.744  1.00  0.00     0.025 C 
HETATM   14  C10 UNL     1     -19.372  54.341   1.904  1.00  0.00     0.081 C 
HETATM   15  C11 UNL     1     -18.869  55.554   1.406  1.00  0.00    -0.183 C 
HETATM   16  C12 UNL     1     -18.389  56.741   0.839  1.00  0.00     0.080 C 
HETATM   17  C13 UNL     1     -17.860  56.353  -0.588  1.00  0.00     0.012 C 
HETATM   18  C14 UNL     1     -18.473  55.027  -1.060  1.00  0.00     0.015 C 
ENDBRANCH   9  12
ENDBRANCH   1   8
BRANCH   6  19
HETATM   19  C4  UNL     1     -21.545  51.182  -6.276  1.00  0.00     0.044 A 
HETATM   20  C5  UNL     1     -21.787  52.039  -7.484  1.00  0.00     0.011 A 
HETATM   21  C6  UNL     1     -23.012  52.603  -6.787  1.00  0.00     0.002 A 
HETATM   22  C7  UNL     1     -22.788  51.731  -5.594  1.00  0.00     0.011 A 
ENDBRANCH   6  19
TORSDOF 3
ENDMDL
MODEL 3
REMARK VINA RESULT: -8.137879417      2.732      7.828
REMARK  3 active torsions:
REMARK  status: ('A' for Active; 'I' for Inactive)
REMARK       I    between atoms: C1_2  and  N1_3 
REMARK    1  A    between atoms: C1_2  and  C8_16 
REMARK    2  A    between atoms: N1_3  and  C2_5 
REMARK    3  A    between atoms: C3_10  and  C4_11 
ROOT
HETATM    1  C2  UNL     1     -21.468  53.462  -1.721  1.00  0.00     0.167 A 
HETATM    2  N2  UNL     1     -22.695  53.616  -2.191  1.00  0.00    -0.279 N 
ATOM      3  H2  UNL     1     -23.361  54.210  -1.698  1.00  0.00     0.189 HD
HETATM    4  N3  UNL     1     -23.038  53.017  -3.262  1.00  0.00    -0.296 N 
ATOM      5  H3  UNL     1     -23.982  53.131  -3.629  1.00  0.00     0.187 HD
HETATM    6  C3  UNL     1     -22.170  52.246  -3.900  1.00  0.00     0.074 A 
HETATM    7  S1  UNL     1     -20.795  52.404  -2.889  1.00  0.00    -0.037 SA
ENDROOT
BRANCH   1   8
HETATM    8  N1  UNL     1     -20.834  53.906  -0.711  1.00  0.00    -0.306 N 
HETATM    9  C1  UNL     1     -21.131  55.003   0.083  1.00  0.00     0.227 C 
HETATM   10  O1  UNL     1     -22.334  55.237   0.371  1.00  0.00    -0.273 OA
ATOM     11  H1  UNL     1     -19.996  53.386  -0.450  1.00  0.00     0.171 HD
BRANCH   9  12
HETATM   12  C8  UNL     1     -20.028  55.918   0.603  1.00  0.00     0.079 C 
HETATM   13  C9  UNL     1     -19.134  56.047  -0.614  1.00  0.00     0.025 C 
HETATM   14  C10 UNL     1     -17.859  56.910  -0.324  1.00  0.00     0.081 C 
HETATM   15  C11 UNL     1     -17.771  57.010   1.074  1.00  0.00    -0.183 C 
HETATM   16  C12 UNL     1     -17.717  57.041   2.472  1.00  0.00     0.080 C 
HETATM   17  C13 UNL     1     -19.009  56.299   2.969  1.00  0.00     0.012 C 
HETATM   18  C14 UNL     1     -19.583  55.398   1.867  1.00  0.00     0.015 C 
ENDBRANCH   9  12
ENDBRANCH   1   8
BRANCH   6  19
HETATM   19  C4  UNL     1     -22.283  51.437  -5.149  1.00  0.00     0.044 A 
HETATM   20  C5  UNL     1     -21.127  51.573  -6.096  1.00  0.00     0.011 A 
HETATM   21  C6  UNL     1     -22.051  52.308  -7.051  1.00  0.00     0.002 A 
HETATM   22  C7  UNL     1     -23.210  52.149  -6.121  1.00  0.00     0.011 A 
ENDBRANCH   6  19
TORSDOF 3
ENDMDL
MODEL 4
REMARK VINA RESULT: -8.073132081      4.396      5.853
REMARK  3 active torsions:
REMARK  status: ('A' for Active; 'I' for Inactive)
REMARK       I    between atoms: C1_2  and  N1_3 
REMARK    1  A    between atoms: C1_2  and  C8_16 
REMARK    2  A    between atoms: N1_3  and  C2_5 
REMARK    3  A    between atoms: C3_10  and  C4_11 
ROOT
HETATM    1  C2  UNL     1     -21.637  55.418   1.581  1.00  0.00     0.167 A 
HETATM    2  N2  UNL     1     -22.853  55.222   2.062  1.00  0.00    -0.279 N 
ATOM      3  H2  UNL     1     -23.495  54.586   1.589  1.00  0.00     0.189 HD
HETATM    4  N3  UNL     1     -23.218  55.834   3.119  1.00  0.00    -0.296 N 
ATOM      5  H3  UNL     1     -24.154  55.688   3.494  1.00  0.00     0.187 HD
HETATM    6  C3  UNL     1     -22.382  56.659   3.731  1.00  0.00     0.074 A 
HETATM    7  S1  UNL     1     -21.006  56.534   2.717  1.00  0.00    -0.037 SA
ENDROOT
BRANCH   1   8
HETATM    8  N1  UNL     1     -20.988  54.975   0.580  1.00  0.00    -0.306 N 
HETATM    9  C1  UNL     1     -21.260  53.864  -0.204  1.00  0.00     0.227 C 
HETATM   10  O1  UNL     1     -22.456  53.604  -0.497  1.00  0.00    -0.273 OA
ATOM     11  H1  UNL     1     -20.159  55.508   0.319  1.00  0.00     0.171 HD
BRANCH   9  12
HETATM   12  C8  UNL     1     -20.137  52.964  -0.708  1.00  0.00     0.079 C 
HETATM   13  C9  UNL     1     -19.288  52.802   0.537  1.00  0.00     0.025 C 
HETATM   14  C10 UNL     1     -18.002  51.948   0.272  1.00  0.00     0.081 C 
HETATM   15  C11 UNL     1     -17.861  51.887  -1.124  1.00  0.00    -0.183 C 
HETATM   16  C12 UNL     1     -17.755  51.895  -2.520  1.00  0.00     0.080 C 
HETATM   17  C13 UNL     1     -19.029  52.650  -3.044  1.00  0.00     0.012 C 
HETATM   18  C14 UNL     1     -19.645  53.520  -1.940  1.00  0.00     0.015 C 
ENDBRANCH   9  12
ENDBRANCH   1   8
BRANCH   6  19
HETATM   19  C4  UNL     1     -22.524  57.495   4.959  1.00  0.00     0.044 A 
HETATM   20  C5  UNL     1     -21.265  57.664   5.758  1.00  0.00     0.011 A 
HETATM   21  C6  UNL     1     -21.889  56.805   6.843  1.00  0.00     0.002 A 
HETATM   22  C7  UNL     1     -23.154  56.658   6.061  1.00  0.00     0.011 A 
ENDBRANCH   6  19
TORSDOF 3
ENDMDL
MODEL 5
REMARK VINA RESULT: -8.017228622      0.882      1.838
REMARK  3 active torsions:
REMARK  status: ('A' for Active; 'I' for Inactive)
REMARK       I    between atoms: C1_2  and  N1_3 
REMARK    1  A    between atoms: C1_2  and  C8_16 
REMARK    2  A    between atoms: N1_3  and  C2_5 
REMARK    3  A    between atoms: C3_10  and  C4_11 
ROOT
HETATM    1  C2  UNL     1     -18.807  52.747  -1.644  1.00  0.00     0.167 A 
HETATM    2  N2  UNL     1     -17.821  52.366  -0.850  1.00  0.00    -0.279 N 
ATOM      3  H2  UNL     1     -17.531  51.389  -0.825  1.00  0.00     0.189 HD
HETATM    4  N3  UNL     1     -17.234  53.229  -0.118  1.00  0.00    -0.296 N 
ATOM      5  H3  UNL     1     -16.472  52.942   0.497  1.00  0.00     0.187 HD
HETATM    6  C3  UNL     1     -17.611  54.498  -0.153  1.00  0.00     0.074 A 
HETATM    7  S1  UNL     1     -18.877  54.425  -1.306  1.00  0.00    -0.037 SA
ENDROOT
BRANCH   1   8
HETATM    8  N1  UNL     1     -19.572  52.153  -2.471  1.00  0.00    -0.306 N 
HETATM    9  C1  UNL     1     -19.576  52.232  -3.855  1.00  0.00     0.227 C 
HETATM   10  O1  UNL     1     -18.475  52.283  -4.463  1.00  0.00    -0.273 OA
ATOM     11  H1  UNL     1     -20.274  51.538  -2.061  1.00  0.00     0.171 HD
BRANCH   9  12
HETATM   12  C8  UNL     1     -20.884  52.256  -4.637  1.00  0.00     0.079 C 
HETATM   13  C9  UNL     1     -21.898  51.953  -3.552  1.00  0.00     0.025 C 
HETATM   14  C10 UNL     1     -23.357  51.856  -4.113  1.00  0.00     0.081 C 
HETATM   15  C11 UNL     1     -23.227  51.742  -5.507  1.00  0.00    -0.183 C 
HETATM   16  C12 UNL     1     -23.030  51.592  -6.884  1.00  0.00     0.080 C 
HETATM   17  C13 UNL     1     -21.481  51.715  -7.113  1.00  0.00     0.012 C 
HETATM   18  C14 UNL     1     -20.710  51.448  -5.813  1.00  0.00     0.015 C 
ENDBRANCH   9  12
ENDBRANCH   1   8
BRANCH   6  19
HETATM   19  C4  UNL     1     -17.121  55.706   0.574  1.00  0.00     0.044 A 
HETATM   20  C5  UNL     1     -17.936  56.094   1.773  1.00  0.00     0.011 A 
HETATM   21  C6  UNL     1     -18.397  57.323   1.009  1.00  0.00     0.002 A 
HETATM   22  C7  UNL     1     -17.565  56.952  -0.176  1.00  0.00     0.011 A 
ENDBRANCH   6  19
TORSDOF 3
ENDMDL
