MODEL 1
REMARK VINA RESULT: -7.749385016      0.000      0.000
REMARK  3 active torsions:
REMARK  status: ('A' for Active; 'I' for Inactive)
REMARK    1  A    between atoms: O1_2  and  C2_3 
REMARK       I    between atoms: C2_3  and  N1_5 
REMARK    2  A    between atoms: N1_5  and  C3_7 
REMARK    3  A    between atoms: C9_13  and  S1_14 
ROOT
HETATM    1  C3  UNL     1     -18.990  54.056  -1.327  1.00  0.00     0.046 C 
HETATM    2  C4  UNL     1     -20.462  54.218  -1.472  1.00  0.00     0.036 C 
HETATM    3  C5  UNL     1     -20.789  55.590  -0.925  1.00  0.00    -0.010 C 
HETATM    4  C6  UNL     1     -19.661  56.372  -1.596  1.00  0.00     0.012 C 
HETATM    5  C7  UNL     1     -18.495  55.504  -1.160  1.00  0.00     0.016 C 
HETATM    6  C8  UNL     1     -18.228  55.894   0.259  1.00  0.00     0.027 C 
HETATM    7  C9  UNL     1     -19.307  55.241   1.096  1.00  0.00     0.009 C 
HETATM    8  C11 UNL     1     -20.676  55.523   0.559  1.00  0.00     0.025 C 
HETATM    9  C12 UNL     1     -18.962  53.778   1.144  1.00  0.00     0.031 C 
HETATM   10  C13 UNL     1     -18.498  53.235  -0.206  1.00  0.00    -0.020 C 
HETATM   11  C14 UNL     1     -16.957  53.241  -0.283  1.00  0.00     0.017 C 
HETATM   12  C15 UNL     1     -18.875  51.792  -0.197  1.00  0.00     0.017 C 
ENDROOT
BRANCH   1  13
HETATM   13  N1  UNL     1     -18.465  53.599  -2.600  1.00  0.00    -0.327 N 
HETATM   14  C2  UNL     1     -19.036  52.652  -3.466  1.00  0.00     0.360 C 
HETATM   15  O2  UNL     1     -20.123  52.046  -3.285  1.00  0.00    -0.239 OA
ATOM     16  H1  UNL     1     -17.581  54.012  -2.900  1.00  0.00     0.165 HD
BRANCH  14  17
HETATM   17  O1  UNL     1     -18.398  52.288  -4.678  1.00  0.00    -0.309 OA
HETATM   18  C1  UNL     1     -19.145  51.879  -5.804  1.00  0.00     0.215 C 
ENDBRANCH  14  17
ENDBRANCH   1  13
BRANCH   7  19
HETATM   19  S1  UNL     1     -19.221  55.976   2.759  1.00  0.00    -0.163 SA
HETATM   20  C10 UNL     1     -17.820  57.146   2.755  1.00  0.00     0.090 C 
ENDBRANCH   7  19
TORSDOF 3
ENDMDL
MODEL 2
REMARK VINA RESULT: -7.737565095      3.646      5.854
REMARK  3 active torsions:
REMARK  status: ('A' for Active; 'I' for Inactive)
REMARK    1  A    between atoms: O1_2  and  C2_3 
REMARK       I    between atoms: C2_3  and  N1_5 
REMARK    2  A    between atoms: N1_5  and  C3_7 
REMARK    3  A    between atoms: C9_13  and  S1_14 
ROOT
HETATM    1  C3  UNL     1     -19.062  54.841   1.294  1.00  0.00     0.046 C 
HETATM    2  C4  UNL     1     -20.523  54.626   1.477  1.00  0.00     0.036 C 
HETATM    3  C5  UNL     1     -20.815  53.242   0.941  1.00  0.00    -0.010 C 
HETATM    4  C6  UNL     1     -19.642  52.502   1.585  1.00  0.00     0.012 C 
HETATM    5  C7  UNL     1     -18.520  53.410   1.117  1.00  0.00     0.016 C 
HETATM    6  C8  UNL     1     -18.276  53.026  -0.308  1.00  0.00     0.027 C 
HETATM    7  C9  UNL     1     -19.399  53.637  -1.118  1.00  0.00     0.009 C 
HETATM    8  C11 UNL     1     -20.743  53.308  -0.546  1.00  0.00     0.025 C 
HETATM    9  C12 UNL     1     -19.109  55.112  -1.179  1.00  0.00     0.031 C 
HETATM   10  C13 UNL     1     -18.630  55.675   0.158  1.00  0.00    -0.020 C 
HETATM   11  C14 UNL     1     -17.088  55.725   0.195  1.00  0.00     0.017 C 
HETATM   12  C15 UNL     1     -19.059  57.103   0.156  1.00  0.00     0.017 C 
ENDROOT
BRANCH   1  13
HETATM   13  N1  UNL     1     -18.521  55.320   2.551  1.00  0.00    -0.327 N 
HETATM   14  C2  UNL     1     -19.064  56.307   3.391  1.00  0.00     0.360 C 
HETATM   15  O2  UNL     1     -20.136  56.936   3.195  1.00  0.00    -0.239 OA
ATOM     16  H1  UNL     1     -17.648  54.892   2.861  1.00  0.00     0.165 HD
BRANCH  14  17
HETATM   17  O1  UNL     1     -18.413  56.688   4.590  1.00  0.00    -0.309 OA
HETATM   18  C1  UNL     1     -19.149  57.077   5.730  1.00  0.00     0.215 C 
ENDBRANCH  14  17
ENDBRANCH   1  13
BRANCH   7  19
HETATM   19  S1  UNL     1     -19.330  52.900  -2.781  1.00  0.00    -0.163 SA
HETATM   20  C10 UNL     1     -17.858  51.823  -2.828  1.00  0.00     0.090 C 
ENDBRANCH   7  19
TORSDOF 3
ENDMDL
MODEL 3
REMARK VINA RESULT: -7.574855336      1.125      1.256
REMARK  3 active torsions:
REMARK  status: ('A' for Active; 'I' for Inactive)
REMARK    1  A    between atoms: O1_2  and  C2_3 
REMARK       I    between atoms: C2_3  and  N1_5 
REMARK    2  A    between atoms: N1_5  and  C3_7 
REMARK    3  A    between atoms: C9_13  and  S1_14 
ROOT
HETATM    1  C3  UNL     1     -19.335  54.424  -0.808  1.00  0.00     0.046 C 
HETATM    2  C4  UNL     1     -20.723  54.868  -0.504  1.00  0.00     0.036 C 
HETATM    3  C5  UNL     1     -20.636  56.350  -0.215  1.00  0.00    -0.010 C 
HETATM    4  C6  UNL     1     -19.728  56.750  -1.377  1.00  0.00     0.012 C 
HETATM    5  C7  UNL     1     -18.616  55.742  -1.151  1.00  0.00     0.016 C 
HETATM    6  C8  UNL     1     -17.805  56.301  -0.025  1.00  0.00     0.027 C 
HETATM    7  C9  UNL     1     -18.591  56.044   1.242  1.00  0.00     0.009 C 
HETATM    8  C11 UNL     1     -20.008  56.514   1.126  1.00  0.00     0.025 C 
HETATM    9  C12 UNL     1     -18.460  54.570   1.516  1.00  0.00     0.031 C 
HETATM   10  C13 UNL     1     -18.593  53.721   0.254  1.00  0.00    -0.020 C 
HETATM   11  C14 UNL     1     -17.199  53.386  -0.315  1.00  0.00     0.017 C 
HETATM   12  C15 UNL     1     -19.140  52.413   0.719  1.00  0.00     0.017 C 
ENDROOT
BRANCH   1  13
HETATM   13  N1  UNL     1     -19.372  53.657  -2.038  1.00  0.00    -0.327 N 
HETATM   14  C2  UNL     1     -20.347  52.725  -2.432  1.00  0.00     0.360 C 
HETATM   15  O2  UNL     1     -21.374  52.409  -1.777  1.00  0.00    -0.239 OA
ATOM     16  H1  UNL     1     -18.604  53.812  -2.691  1.00  0.00     0.165 HD
BRANCH  14  17
HETATM   17  O1  UNL     1     -20.244  52.034  -3.664  1.00  0.00    -0.309 OA
HETATM   18  C1  UNL     1     -19.021  51.969  -4.366  1.00  0.00     0.215 C 
ENDBRANCH  14  17
ENDBRANCH   1  13
BRANCH   7  19
HETATM   19  S1  UNL     1     -17.811  57.015   2.569  1.00  0.00    -0.163 SA
HETATM   20  C10 UNL     1     -18.875  56.856   4.044  1.00  0.00     0.090 C 
ENDBRANCH   7  19
TORSDOF 3
ENDMDL
MODEL 4
REMARK VINA RESULT: -7.523495586      3.460      5.625
REMARK  3 active torsions:
REMARK  status: ('A' for Active; 'I' for Inactive)
REMARK    1  A    between atoms: O1_2  and  C2_3 
REMARK       I    between atoms: C2_3  and  N1_5 
REMARK    2  A    between atoms: N1_5  and  C3_7 
REMARK    3  A    between atoms: C9_13  and  S1_14 
ROOT
HETATM    1  C3  UNL     1     -19.578  54.575   0.799  1.00  0.00     0.046 C 
HETATM    2  C4  UNL     1     -20.907  54.048   0.388  1.00  0.00     0.036 C 
HETATM    3  C5  UNL     1     -20.712  52.570   0.129  1.00  0.00    -0.010 C 
HETATM    4  C6  UNL     1     -19.881  52.236   1.367  1.00  0.00     0.012 C 
HETATM    5  C7  UNL     1     -18.815  53.305   1.219  1.00  0.00     0.016 C 
HETATM    6  C8  UNL     1     -17.882  52.783   0.172  1.00  0.00     0.027 C 
HETATM    7  C9  UNL     1     -18.574  52.982  -1.159  1.00  0.00     0.009 C 
HETATM    8  C11 UNL     1     -19.966  52.431  -1.153  1.00  0.00     0.025 C 
HETATM    9  C12 UNL     1     -18.505  54.458  -1.443  1.00  0.00     0.031 C 
HETATM   10  C13 UNL     1     -18.791  55.310  -0.208  1.00  0.00    -0.020 C 
HETATM   11  C14 UNL     1     -17.471  55.731   0.469  1.00  0.00     0.017 C 
HETATM   12  C15 UNL     1     -19.372  56.579  -0.736  1.00  0.00     0.017 C 
ENDROOT
BRANCH   1  13
HETATM   13  N1  UNL     1     -19.761  55.350   2.011  1.00  0.00    -0.327 N 
HETATM   14  C2  UNL     1     -20.857  56.163   2.344  1.00  0.00     0.360 C 
HETATM   15  O2  UNL     1     -21.885  56.343   1.640  1.00  0.00    -0.239 OA
ATOM     16  H1  UNL     1     -19.009  55.299   2.699  1.00  0.00     0.165 HD
BRANCH  14  17
HETATM   17  O1  UNL     1     -20.893  56.881   3.565  1.00  0.00    -0.309 OA
HETATM   18  C1  UNL     1     -22.061  56.920   4.356  1.00  0.00     0.215 C 
ENDBRANCH  14  17
ENDBRANCH   1  13
BRANCH   7  19
HETATM   19  S1  UNL     1     -17.632  52.045  -2.403  1.00  0.00    -0.163 SA
HETATM   20  C10 UNL     1     -18.623  52.045  -3.936  1.00  0.00     0.090 C 
ENDBRANCH   7  19
TORSDOF 3
ENDMDL
MODEL 5
REMARK VINA RESULT: -7.461985159      3.452      5.568
REMARK  3 active torsions:
REMARK  status: ('A' for Active; 'I' for Inactive)
REMARK    1  A    between atoms: O1_2  and  C2_3 
REMARK       I    between atoms: C2_3  and  N1_5 
REMARK    2  A    between atoms: N1_5  and  C3_7 
REMARK    3  A    between atoms: C9_13  and  S1_14 
ROOT
HETATM    1  C3  UNL     1     -20.632  54.482   0.912  1.00  0.00     0.046 C 
HETATM    2  C4  UNL     1     -21.510  54.251  -0.267  1.00  0.00     0.036 C 
HETATM    3  C5  UNL     1     -21.231  52.837  -0.728  1.00  0.00    -0.010 C 
HETATM    4  C6  UNL     1     -21.249  52.151   0.637  1.00  0.00     0.012 C 
HETATM    5  C7  UNL     1     -20.264  53.054   1.356  1.00  0.00     0.016 C 
HETATM    6  C8  UNL     1     -18.914  52.604   0.893  1.00  0.00     0.027 C 
HETATM    7  C9  UNL     1     -18.731  53.155  -0.505  1.00  0.00     0.009 C 
HETATM    8  C11 UNL     1     -19.896  52.831  -1.388  1.00  0.00     0.025 C 
HETATM    9  C12 UNL     1     -18.486  54.630  -0.338  1.00  0.00     0.031 C 
HETATM   10  C13 UNL     1     -19.401  55.266   0.707  1.00  0.00    -0.020 C 
HETATM   11  C14 UNL     1     -18.682  55.345   2.070  1.00  0.00     0.017 C 
HETATM   12  C15 UNL     1     -19.558  56.685   0.275  1.00  0.00     0.017 C 
ENDROOT
BRANCH   1  13
HETATM   13  N1  UNL     1     -21.450  55.032   1.976  1.00  0.00    -0.327 N 
HETATM   14  C2  UNL     1     -22.542  55.907   1.844  1.00  0.00     0.360 C 
HETATM   15  O2  UNL     1     -23.006  56.352   0.763  1.00  0.00    -0.239 OA
ATOM     16  H1  UNL     1     -21.206  54.752   2.926  1.00  0.00     0.165 HD
BRANCH  14  17
HETATM   17  O1  UNL     1     -23.243  56.379   2.981  1.00  0.00    -0.309 OA
HETATM   18  C1  UNL     1     -22.560  56.963   4.071  1.00  0.00     0.215 C 
ENDBRANCH  14  17
ENDBRANCH   1  13
BRANCH   7  19
HETATM   19  S1  UNL     1     -17.271  52.338  -1.222  1.00  0.00    -0.163 SA
HETATM   20  C10 UNL     1     -17.692  51.908  -2.945  1.00  0.00     0.090 C 
ENDBRANCH   7  19
TORSDOF 3
ENDMDL
