MODEL 1
REMARK VINA RESULT: -9.343306367      0.000      0.000
REMARK  7 active torsions:
REMARK  status: ('A' for Active; 'I' for Inactive)
REMARK    1  A    between atoms: C1_2  and  C2_3 
REMARK       I    between atoms: C1_2  and  N5_26 
REMARK    2  A    between atoms: C2_3  and  N1_4 
REMARK    3  A    between atoms: C5_9  and  N3_10 
REMARK    4  A    between atoms: N3_10  and  S1_12 
REMARK    5  A    between atoms: S1_12  and  N4_15 
REMARK    6  A    between atoms: N4_15  and  C6_17 
REMARK    7  A    between atoms: N5_26  and  C13_28 
ROOT
HETATM    1  N1  UNL     1      46.394  15.389  11.219  1.00  0.00    -0.175 N 
HETATM    2  C3  UNL     1      45.907  14.913  12.402  1.00  0.00     0.055 A 
HETATM    3  C4  UNL     1      45.984  15.927  13.308  1.00  0.00     0.052 A 
HETATM    4  N2  UNL     1      46.511  16.983  12.663  1.00  0.00    -0.193 N 
ATOM      5  H2  UNL     1      46.692  17.893  13.087  1.00  0.00     0.184 HD
HETATM    6  C5  UNL     1      46.768  16.670  11.380  1.00  0.00     0.696 A 
HETATM    7  C10 UNL     1      45.458  15.467  14.643  1.00  0.00     0.097 C 
HETATM    8  C11 UNL     1      44.503  14.359  14.180  1.00  0.00     0.181 C 
HETATM    9  F1  UNL     1      43.428  14.976  13.587  1.00  0.00    -0.249 F 
HETATM   10  C12 UNL     1      45.329  13.728  13.083  1.00  0.00     0.097 C 
ENDROOT
BRANCH   1  11
HETATM   11  C2  UNL     1      46.461  14.570  10.025  1.00  0.00     0.250 C 
BRANCH  11  12
HETATM   12  C1  UNL     1      47.513  13.540  10.131  1.00  0.00     0.236 C 
HETATM   13  O1  UNL     1      48.530  13.791  10.813  1.00  0.00    -0.272 OA
HETATM   14  N5  UNL     1      47.348  12.307   9.466  1.00  0.00    -0.354 N 
ATOM     15  H5  UNL     1      46.501  12.146   8.921  1.00  0.00     0.162 HD
BRANCH  14  16
HETATM   16  C13 UNL     1      48.354  11.259   9.537  1.00  0.00     0.092 C 
HETATM   17  C14 UNL     1      47.706   9.918   9.437  1.00  0.00     0.009 C 
HETATM   18  C15 UNL     1      48.775   8.871   9.673  1.00  0.00     0.011 C 
HETATM   19  C19 UNL     1      47.070   9.710   8.093  1.00  0.00     0.011 C 
HETATM   20  C16 UNL     1      49.789   8.988   8.578  1.00  0.00    -0.013 C 
HETATM   21  C17 UNL     1      49.148   8.733   7.241  1.00  0.00     0.009 C 
HETATM   22  C22 UNL     1      50.441  10.346   8.649  1.00  0.00     0.011 C 
HETATM   23  C18 UNL     1      48.108   9.808   6.994  1.00  0.00    -0.013 C 
HETATM   24  C20 UNL     1      48.723  11.186   7.084  1.00  0.00     0.011 C 
HETATM   25  C21 UNL     1      49.353  11.401   8.421  1.00  0.00     0.009 C 
ENDBRANCH  14  16
ENDBRANCH  11  12
ENDBRANCH   1  11
BRANCH   6  26
HETATM   26  N3  UNL     1      47.279  17.433  10.449  1.00  0.00    -0.099 N 
ATOM     27  H3  UNL     1      46.678  18.086   9.945  1.00  0.00     0.199 HD
BRANCH  26  28
HETATM   28  S1  UNL     1      48.962  17.348  10.061  1.00  0.00     0.333 S 
HETATM   29  O2  UNL     1      49.162  16.476   8.879  1.00  0.00    -0.182 OA
HETATM   30  O3  UNL     1      49.671  16.810  11.288  1.00  0.00    -0.182 OA
BRANCH  28  31
HETATM   31  N4  UNL     1      49.487  18.963   9.791  1.00  0.00    -0.295 N 
ATOM     32  H4  UNL     1      50.453  19.265   9.921  1.00  0.00     0.174 HD
BRANCH  31  33
HETATM   33  C6  UNL     1      48.448  19.839   9.369  1.00  0.00     0.120 C 
HETATM   34  C7  UNL     1      48.969  21.273   9.528  1.00  0.00     0.054 C 
HETATM   35  C8  UNL     1      49.268  21.639   8.105  1.00  0.00     0.169 C 
HETATM   36  O4  UNL     1      49.251  20.462   7.358  1.00  0.00    -0.389 OA
HETATM   37  C9  UNL     1      48.149  19.795   7.900  1.00  0.00     0.193 C 
ENDBRANCH  31  33
ENDBRANCH  28  31
ENDBRANCH  26  28
ENDBRANCH   6  26
TORSDOF 7
ENDMDL
MODEL 2
REMARK VINA RESULT: -9.245055303      1.229      1.298
REMARK  7 active torsions:
REMARK  status: ('A' for Active; 'I' for Inactive)
REMARK    1  A    between atoms: C1_2  and  C2_3 
REMARK       I    between atoms: C1_2  and  N5_26 
REMARK    2  A    between atoms: C2_3  and  N1_4 
REMARK    3  A    between atoms: C5_9  and  N3_10 
REMARK    4  A    between atoms: N3_10  and  S1_12 
REMARK    5  A    between atoms: S1_12  and  N4_15 
REMARK    6  A    between atoms: N4_15  and  C6_17 
REMARK    7  A    between atoms: N5_26  and  C13_28 
ROOT
HETATM    1  N1  UNL     1      46.514  15.441  11.561  1.00  0.00    -0.175 N 
HETATM    2  C3  UNL     1      45.485  15.667  12.427  1.00  0.00     0.055 A 
HETATM    3  C4  UNL     1      45.949  16.503  13.398  1.00  0.00     0.052 A 
HETATM    4  N2  UNL     1      47.235  16.762  13.102  1.00  0.00    -0.193 N 
ATOM      5  H2  UNL     1      47.850  17.361  13.653  1.00  0.00     0.184 HD
HETATM    6  C5  UNL     1      47.598  16.119  11.977  1.00  0.00     0.696 A 
HETATM    7  C10 UNL     1      44.856  16.795  14.393  1.00  0.00     0.097 C 
HETATM    8  C11 UNL     1      43.626  16.578  13.502  1.00  0.00     0.181 C 
HETATM    9  F1  UNL     1      43.575  17.634  12.623  1.00  0.00    -0.249 F 
HETATM   10  C12 UNL     1      44.064  15.359  12.725  1.00  0.00     0.097 C 
ENDROOT
BRANCH   1  11
HETATM   11  C2  UNL     1      46.372  14.589  10.397  1.00  0.00     0.250 C 
BRANCH  11  12
HETATM   12  C1  UNL     1      47.070  13.301  10.578  1.00  0.00     0.236 C 
HETATM   13  O1  UNL     1      47.041  12.758  11.704  1.00  0.00    -0.272 OA
HETATM   14  N5  UNL     1      47.748  12.717   9.488  1.00  0.00    -0.354 N 
ATOM     15  H5  UNL     1      47.745  13.197   8.587  1.00  0.00     0.162 HD
BRANCH  14  16
HETATM   16  C13 UNL     1      48.451  11.451   9.613  1.00  0.00     0.092 C 
HETATM   17  C14 UNL     1      47.495  10.315   9.456  1.00  0.00     0.009 C 
HETATM   18  C15 UNL     1      48.249   9.034   9.750  1.00  0.00     0.011 C 
HETATM   19  C19 UNL     1      46.918  10.266   8.071  1.00  0.00     0.011 C 
HETATM   20  C16 UNL     1      49.330   8.887   8.726  1.00  0.00    -0.013 C 
HETATM   21  C17 UNL     1      48.736   8.793   7.347  1.00  0.00     0.009 C 
HETATM   22  C22 UNL     1      50.296  10.038   8.855  1.00  0.00     0.011 C 
HETATM   23  C18 UNL     1      48.018  10.093   7.043  1.00  0.00    -0.013 C 
HETATM   24  C20 UNL     1      48.952  11.273   7.189  1.00  0.00     0.011 C 
HETATM   25  C21 UNL     1      49.526  11.331   8.567  1.00  0.00     0.009 C 
ENDBRANCH  14  16
ENDBRANCH  11  12
ENDBRANCH   1  11
BRANCH   6  26
HETATM   26  N3  UNL     1      48.762  16.128  11.381  1.00  0.00    -0.099 N 
ATOM     27  H3  UNL     1      49.478  15.459  11.664  1.00  0.00     0.199 HD
BRANCH  26  28
HETATM   28  S1  UNL     1      49.100  17.259  10.118  1.00  0.00     0.333 S 
HETATM   29  O2  UNL     1      48.468  16.808   8.855  1.00  0.00    -0.182 OA
HETATM   30  O3  UNL     1      50.609  17.347   9.997  1.00  0.00    -0.182 OA
BRANCH  28  31
HETATM   31  N4  UNL     1      48.505  18.783  10.650  1.00  0.00    -0.295 N 
ATOM     32  H4  UNL     1      48.548  19.090  11.622  1.00  0.00     0.174 HD
BRANCH  31  33
HETATM   33  C6  UNL     1      47.948  19.575   9.606  1.00  0.00     0.120 C 
HETATM   34  C7  UNL     1      47.315  20.809  10.260  1.00  0.00     0.054 C 
HETATM   35  C8  UNL     1      48.327  21.867   9.939  1.00  0.00     0.169 C 
HETATM   36  O4  UNL     1      49.482  21.222   9.501  1.00  0.00    -0.389 OA
HETATM   37  C9  UNL     1      48.956  20.209   8.694  1.00  0.00     0.193 C 
ENDBRANCH  31  33
ENDBRANCH  28  31
ENDBRANCH  26  28
ENDBRANCH   6  26
TORSDOF 7
ENDMDL
MODEL 3
REMARK VINA RESULT: -9.215460213      3.252      4.704
REMARK  7 active torsions:
REMARK  status: ('A' for Active; 'I' for Inactive)
REMARK    1  A    between atoms: C1_2  and  C2_3 
REMARK       I    between atoms: C1_2  and  N5_26 
REMARK    2  A    between atoms: C2_3  and  N1_4 
REMARK    3  A    between atoms: C5_9  and  N3_10 
REMARK    4  A    between atoms: N3_10  and  S1_12 
REMARK    5  A    between atoms: S1_12  and  N4_15 
REMARK    6  A    between atoms: N4_15  and  C6_17 
REMARK    7  A    between atoms: N5_26  and  C13_28 
ROOT
HETATM    1  N1  UNL     1      46.398  14.990  11.719  1.00  0.00    -0.175 N 
HETATM    2  C3  UNL     1      46.932  15.778  10.742  1.00  0.00     0.055 A 
HETATM    3  C4  UNL     1      47.405  16.904  11.346  1.00  0.00     0.052 A 
HETATM    4  N2  UNL     1      47.150  16.775  12.660  1.00  0.00    -0.193 N 
ATOM      5  H2  UNL     1      47.390  17.467  13.370  1.00  0.00     0.184 HD
HETATM    6  C5  UNL     1      46.533  15.606  12.907  1.00  0.00     0.696 A 
HETATM    7  C10 UNL     1      48.013  17.823  10.318  1.00  0.00     0.097 C 
HETATM    8  C11 UNL     1      48.404  16.796   9.247  1.00  0.00     0.181 C 
HETATM    9  F1  UNL     1      49.472  16.087   9.741  1.00  0.00    -0.249 F 
HETATM   10  C12 UNL     1      47.197  15.888   9.287  1.00  0.00     0.097 C 
ENDROOT
BRANCH   1  11
HETATM   11  C2  UNL     1      45.798  13.701  11.432  1.00  0.00     0.250 C 
BRANCH  11  12
HETATM   12  C1  UNL     1      46.818  12.638  11.332  1.00  0.00     0.236 C 
HETATM   13  O1  UNL     1      47.247  12.120  12.386  1.00  0.00    -0.272 OA
HETATM   14  N5  UNL     1      47.281  12.236  10.062  1.00  0.00    -0.354 N 
ATOM     15  H5  UNL     1      46.902  12.687   9.229  1.00  0.00     0.162 HD
BRANCH  14  16
HETATM   16  C13 UNL     1      48.284  11.195   9.908  1.00  0.00     0.092 C 
HETATM   17  C14 UNL     1      47.624   9.864   9.758  1.00  0.00     0.009 C 
HETATM   18  C15 UNL     1      48.710   8.808   9.759  1.00  0.00     0.011 C 
HETATM   19  C19 UNL     1      46.828   9.781   8.488  1.00  0.00     0.011 C 
HETATM   20  C16 UNL     1      49.583   9.039   8.566  1.00  0.00    -0.013 C 
HETATM   21  C17 UNL     1      48.784   8.909   7.299  1.00  0.00     0.009 C 
HETATM   22  C22 UNL     1      50.244  10.389   8.688  1.00  0.00     0.011 C 
HETATM   23  C18 UNL     1      47.724   9.993   7.285  1.00  0.00    -0.013 C 
HETATM   24  C20 UNL     1      48.350  11.361   7.433  1.00  0.00     0.011 C 
HETATM   25  C21 UNL     1      49.140  11.452   8.698  1.00  0.00     0.009 C 
ENDBRANCH  14  16
ENDBRANCH  11  12
ENDBRANCH   1  11
BRANCH   6  26
HETATM   26  N3  UNL     1      46.129  15.132  14.057  1.00  0.00    -0.099 N 
ATOM     27  H3  UNL     1      46.759  14.553  14.613  1.00  0.00     0.199 HD
BRANCH  26  28
HETATM   28  S1  UNL     1      44.540  15.474  14.646  1.00  0.00     0.333 S 
HETATM   29  O2  UNL     1      44.615  15.955  16.046  1.00  0.00    -0.182 OA
HETATM   30  O3  UNL     1      43.740  14.191  14.530  1.00  0.00    -0.182 OA
BRANCH  28  31
HETATM   31  N4  UNL     1      43.860  16.639  13.580  1.00  0.00    -0.295 N 
ATOM     32  H4  UNL     1      43.712  16.466  12.585  1.00  0.00     0.174 HD
BRANCH  31  33
HETATM   33  C6  UNL     1      43.525  17.869  14.215  1.00  0.00     0.120 C 
HETATM   34  C7  UNL     1      44.369  18.967  13.556  1.00  0.00     0.054 C 
HETATM   35  C8  UNL     1      43.353  19.637  12.681  1.00  0.00     0.169 C 
HETATM   36  O4  UNL     1      42.241  18.800  12.614  1.00  0.00    -0.389 OA
HETATM   37  C9  UNL     1      42.135  18.359  13.936  1.00  0.00     0.193 C 
ENDBRANCH  31  33
ENDBRANCH  28  31
ENDBRANCH  26  28
ENDBRANCH   6  26
TORSDOF 7
ENDMDL
MODEL 4
REMARK VINA RESULT: -9.187631988      1.815      2.256
REMARK  7 active torsions:
REMARK  status: ('A' for Active; 'I' for Inactive)
REMARK    1  A    between atoms: C1_2  and  C2_3 
REMARK       I    between atoms: C1_2  and  N5_26 
REMARK    2  A    between atoms: C2_3  and  N1_4 
REMARK    3  A    between atoms: C5_9  and  N3_10 
REMARK    4  A    between atoms: N3_10  and  S1_12 
REMARK    5  A    between atoms: S1_12  and  N4_15 
REMARK    6  A    between atoms: N4_15  and  C6_17 
REMARK    7  A    between atoms: N5_26  and  C13_28 
ROOT
HETATM    1  N1  UNL     1      47.271  16.247   9.635  1.00  0.00    -0.175 N 
HETATM    2  C3  UNL     1      46.894  15.772  10.858  1.00  0.00     0.055 A 
HETATM    3  C4  UNL     1      46.834  16.839  11.704  1.00  0.00     0.052 A 
HETATM    4  N2  UNL     1      47.173  17.923  10.984  1.00  0.00    -0.193 N 
ATOM      5  H2  UNL     1      47.218  18.874  11.351  1.00  0.00     0.184 HD
HETATM    6  C5  UNL     1      47.443  17.578   9.713  1.00  0.00     0.696 A 
HETATM    7  C10 UNL     1      46.421  16.383  13.080  1.00  0.00     0.097 C 
HETATM    8  C11 UNL     1      45.640  15.114  12.711  1.00  0.00     0.181 C 
HETATM    9  F1  UNL     1      44.467  15.520  12.122  1.00  0.00    -0.249 F 
HETATM   10  C12 UNL     1      46.527  14.555  11.623  1.00  0.00     0.097 C 
ENDROOT
BRANCH   1  11
HETATM   11  C2  UNL     1      47.435  15.378   8.486  1.00  0.00     0.250 C 
BRANCH  11  12
HETATM   12  C1  UNL     1      48.355  14.261   8.777  1.00  0.00     0.236 C 
HETATM   13  O1  UNL     1      49.546  14.523   9.056  1.00  0.00    -0.272 OA
HETATM   14  N5  UNL     1      47.876  12.936   8.733  1.00  0.00    -0.354 N 
ATOM     15  H5  UNL     1      46.897  12.769   8.500  1.00  0.00     0.162 HD
BRANCH  14  16
HETATM   16  C13 UNL     1      48.740  11.800   9.010  1.00  0.00     0.092 C 
HETATM   17  C14 UNL     1      47.928  10.640   9.485  1.00  0.00     0.009 C 
HETATM   18  C15 UNL     1      48.887   9.546   9.905  1.00  0.00     0.011 C 
HETATM   19  C19 UNL     1      47.007  10.134   8.414  1.00  0.00     0.011 C 
HETATM   20  C16 UNL     1      49.659   9.117   8.697  1.00  0.00    -0.013 C 
HETATM   21  C17 UNL     1      48.730   8.570   7.648  1.00  0.00     0.009 C 
HETATM   22  C22 UNL     1      50.471  10.282   8.188  1.00  0.00     0.011 C 
HETATM   23  C18 UNL     1      47.798   9.681   7.204  1.00  0.00    -0.013 C 
HETATM   24  C20 UNL     1      48.581  10.877   6.711  1.00  0.00     0.011 C 
HETATM   25  C21 UNL     1      49.496  11.390   7.776  1.00  0.00     0.009 C 
ENDBRANCH  14  16
ENDBRANCH  11  12
ENDBRANCH   1  11
BRANCH   6  26
HETATM   26  N3  UNL     1      47.804  18.354   8.724  1.00  0.00    -0.099 N 
ATOM     27  H3  UNL     1      47.525  18.120   7.771  1.00  0.00     0.199 HD
BRANCH  26  28
HETATM   28  S1  UNL     1      48.751  19.772   9.013  1.00  0.00     0.333 S 
HETATM   29  O2  UNL     1      49.365  20.234   7.745  1.00  0.00    -0.182 OA
HETATM   30  O3  UNL     1      49.795  19.402  10.047  1.00  0.00    -0.182 OA
BRANCH  28  31
HETATM   31  N4  UNL     1      47.691  20.939   9.700  1.00  0.00    -0.295 N 
ATOM     32  H4  UNL     1      46.777  20.704  10.087  1.00  0.00     0.174 HD
BRANCH  31  33
HETATM   33  C6  UNL     1      48.209  22.265   9.678  1.00  0.00     0.120 C 
HETATM   34  C7  UNL     1      47.475  23.022   8.565  1.00  0.00     0.054 C 
HETATM   35  C8  UNL     1      46.524  23.867   9.358  1.00  0.00     0.169 C 
HETATM   36  O4  UNL     1      46.507  23.368  10.659  1.00  0.00    -0.389 OA
HETATM   37  C9  UNL     1      47.859  23.094  10.878  1.00  0.00     0.193 C 
ENDBRANCH  31  33
ENDBRANCH  28  31
ENDBRANCH  26  28
ENDBRANCH   6  26
TORSDOF 7
ENDMDL
MODEL 5
REMARK VINA RESULT: -9.120644372      3.117      5.766
REMARK  7 active torsions:
REMARK  status: ('A' for Active; 'I' for Inactive)
REMARK    1  A    between atoms: C1_2  and  C2_3 
REMARK       I    between atoms: C1_2  and  N5_26 
REMARK    2  A    between atoms: C2_3  and  N1_4 
REMARK    3  A    between atoms: C5_9  and  N3_10 
REMARK    4  A    between atoms: N3_10  and  S1_12 
REMARK    5  A    between atoms: S1_12  and  N4_15 
REMARK    6  A    between atoms: N4_15  and  C6_17 
REMARK    7  A    between atoms: N5_26  and  C13_28 
ROOT
HETATM    1  N1  UNL     1      46.466  15.173  11.409  1.00  0.00    -0.175 N 
HETATM    2  C3  UNL     1      46.999  16.057  10.517  1.00  0.00     0.055 A 
HETATM    3  C4  UNL     1      47.427  17.138  11.227  1.00  0.00     0.052 A 
HETATM    4  N2  UNL     1      47.146  16.889  12.519  1.00  0.00    -0.193 N 
ATOM      5  H2  UNL     1      47.350  17.523  13.291  1.00  0.00     0.184 HD
HETATM    6  C5  UNL     1      46.557  15.687  12.648  1.00  0.00     0.696 A 
HETATM    7  C10 UNL     1      48.031  18.159  10.297  1.00  0.00     0.097 C 
HETATM    8  C11 UNL     1      48.475  17.240   9.152  1.00  0.00     0.181 C 
HETATM    9  F1  UNL     1      49.552  16.519   9.609  1.00  0.00    -0.249 F 
HETATM   10  C12 UNL     1      47.293  16.300   9.084  1.00  0.00     0.097 C 
ENDROOT
BRANCH   1  11
HETATM   11  C2  UNL     1      45.910  13.899  10.997  1.00  0.00     0.250 C 
BRANCH  11  12
HETATM   12  C1  UNL     1      46.934  12.835  10.994  1.00  0.00     0.236 C 
HETATM   13  O1  UNL     1      47.355  12.406  12.090  1.00  0.00    -0.272 OA
HETATM   14  N5  UNL     1      47.411  12.333   9.765  1.00  0.00    -0.354 N 
ATOM     15  H5  UNL     1      47.039  12.713   8.895  1.00  0.00     0.162 HD
BRANCH  14  16
HETATM   16  C13 UNL     1      48.419  11.287   9.705  1.00  0.00     0.092 C 
HETATM   17  C14 UNL     1      47.765   9.949   9.593  1.00  0.00     0.009 C 
HETATM   18  C15 UNL     1      48.849   8.896   9.693  1.00  0.00     0.011 C 
HETATM   19  C19 UNL     1      47.024   9.803   8.295  1.00  0.00     0.011 C 
HETATM   20  C16 UNL     1      49.773   9.069   8.528  1.00  0.00    -0.013 C 
HETATM   21  C17 UNL     1      49.028   8.876   7.235  1.00  0.00     0.009 C 
HETATM   22  C22 UNL     1      50.429  10.425   8.612  1.00  0.00     0.011 C 
HETATM   23  C18 UNL     1      47.971   9.958   7.123  1.00  0.00    -0.013 C 
HETATM   24  C20 UNL     1      48.592  11.332   7.230  1.00  0.00     0.011 C 
HETATM   25  C21 UNL     1      49.326  11.486   8.522  1.00  0.00     0.009 C 
ENDBRANCH  14  16
ENDBRANCH  11  12
ENDBRANCH   1  11
BRANCH   6  26
HETATM   26  N3  UNL     1      46.142  15.104  13.743  1.00  0.00    -0.099 N 
ATOM     27  H3  UNL     1      46.648  14.297  14.108  1.00  0.00     0.199 HD
BRANCH  26  28
HETATM   28  S1  UNL     1      44.745  15.686  14.579  1.00  0.00     0.333 S 
HETATM   29  O2  UNL     1      44.081  16.740  13.776  1.00  0.00    -0.182 OA
HETATM   30  O3  UNL     1      45.220  16.210  15.921  1.00  0.00    -0.182 OA
BRANCH  28  31
HETATM   31  N4  UNL     1      43.732  14.324  14.854  1.00  0.00    -0.295 N 
ATOM     32  H4  UNL     1      43.421  14.037  15.782  1.00  0.00     0.174 HD
BRANCH  31  33
HETATM   33  C6  UNL     1      43.369  13.632  13.663  1.00  0.00     0.120 C 
HETATM   34  C7  UNL     1      43.955  12.218  13.761  1.00  0.00     0.054 C 
HETATM   35  C8  UNL     1      42.733  11.414  14.090  1.00  0.00     0.169 C 
HETATM   36  O4  UNL     1      41.731  12.307  14.462  1.00  0.00    -0.389 OA
HETATM   37  C9  UNL     1      41.904  13.336  13.533  1.00  0.00     0.193 C 
ENDBRANCH  31  33
ENDBRANCH  28  31
ENDBRANCH  26  28
ENDBRANCH   6  26
TORSDOF 7
ENDMDL
