MODEL 1
REMARK VINA RESULT: -8.147480889      0.000      0.000
REMARK  6 active torsions:
REMARK  status: ('A' for Active; 'I' for Inactive)
REMARK    1  A    between atoms: C2_2  and  C3_3 
REMARK    2  A    between atoms: C3_3  and  C4_4 
REMARK    3  A    between atoms: C4_4  and  C5_5 
REMARK    4  A    between atoms: C18_29  and  C19_30 
REMARK    5  A    between atoms: C19_30  and  C20_31 
REMARK    6  A    between atoms: C20_31  and  C21_32 
ROOT
HETATM    1  C5  UNL     1      48.719  14.331  10.129  1.00  0.00     0.176 C 
HETATM    2  N1  UNL     1      48.583  15.421  11.060  1.00  0.00    -0.348 N 
ATOM      3  H1  UNL     1      49.425  15.664  11.581  1.00  0.00     0.163 HD
HETATM    4  C6  UNL     1      47.442  16.197  11.349  1.00  0.00     0.218 C 
HETATM    5  O1  UNL     1      47.497  17.459  11.308  1.00  0.00    -0.274 OA
HETATM    6  C7  UNL     1      46.097  15.689  11.716  1.00  0.00     0.104 C 
HETATM    7  C8  UNL     1      45.314  16.676  12.546  1.00  0.00     0.027 C 
HETATM    8  C9  UNL     1      44.534  16.078  13.675  1.00  0.00     0.034 C 
HETATM    9  C10 UNL     1      45.379  15.318  14.648  1.00  0.00     0.025 C 
HETATM   10  C11 UNL     1      43.982  17.279  14.472  1.00  0.00     0.025 C 
HETATM   11  C12 UNL     1      43.321  15.352  13.228  1.00  0.00     0.232 C 
HETATM   12  O2  UNL     1      42.830  15.791  12.124  1.00  0.00    -0.272 OA
HETATM   13  N2  UNL     1      42.674  14.281  13.848  1.00  0.00    -0.297 N 
ATOM     14  H2  UNL     1      41.679  14.414  14.026  1.00  0.00     0.171 HD
HETATM   15  C13 UNL     1      43.203  13.045  14.260  1.00  0.00     0.227 C 
HETATM   16  O3  UNL     1      42.870  12.600  15.391  1.00  0.00    -0.273 OA
HETATM   17  C14 UNL     1      44.132  12.203  13.474  1.00  0.00     0.142 C 
HETATM   18  C15 UNL     1      43.405  11.141  12.699  1.00  0.00     0.196 C 
HETATM   19  F1  UNL     1      42.442  11.805  11.968  1.00  0.00    -0.247 F 
HETATM   20  C16 UNL     1      44.242  10.390  11.713  1.00  0.00     0.160 C 
HETATM   21  N3  UNL     1      45.634  10.555  12.077  1.00  0.00    -0.357 N 
ATOM     22  H3  UNL     1      45.943   9.995  12.871  1.00  0.00     0.162 HD
HETATM   23  C17 UNL     1      46.616  11.364  11.503  1.00  0.00     0.240 C 
HETATM   24  O4  UNL     1      47.299  12.048  12.353  1.00  0.00    -0.271 OA
HETATM   25  C18 UNL     1      47.017  11.575  10.110  1.00  0.00     0.178 C 
HETATM   26  N4  UNL     1      46.667  12.860   9.534  1.00  0.00    -0.341 N 
HETATM   27  C23 UNL     1      45.294  12.940   9.063  1.00  0.00     0.153 C 
HETATM   28  C24 UNL     1      47.510  13.977   9.403  1.00  0.00     0.243 C 
HETATM   29  O5  UNL     1      47.152  14.816   8.499  1.00  0.00    -0.271 OA
ENDROOT
BRANCH   1  30
HETATM   30  C4  UNL     1      49.725  14.816   9.067  1.00  0.00     0.035 C 
BRANCH  30  31
HETATM   31  C3  UNL     1      50.925  13.926   8.980  1.00  0.00     0.002 C 
BRANCH  31  32
HETATM   32  C2  UNL     1      50.534  12.756   8.067  1.00  0.00    -0.004 C 
HETATM   33  C1  UNL     1      51.768  12.037   7.590  1.00  0.00     0.005 C 
ENDBRANCH  31  32
ENDBRANCH  30  31
ENDBRANCH   1  30
BRANCH  25  34
HETATM   34  C19 UNL     1      46.705  10.397   9.211  1.00  0.00     0.035 C 
BRANCH  34  35
HETATM   35  C20 UNL     1      47.590  10.370   7.986  1.00  0.00     0.002 C 
BRANCH  35  36
HETATM   36  C21 UNL     1      48.334   9.029   8.001  1.00  0.00    -0.004 C 
HETATM   37  C22 UNL     1      49.646   9.131   8.740  1.00  0.00     0.005 C 
ENDBRANCH  35  36
ENDBRANCH  34  35
ENDBRANCH  25  34
TORSDOF 6
ENDMDL
MODEL 2
REMARK VINA RESULT: -7.782972654      1.885      4.760
REMARK  6 active torsions:
REMARK  status: ('A' for Active; 'I' for Inactive)
REMARK    1  A    between atoms: C2_2  and  C3_3 
REMARK    2  A    between atoms: C3_3  and  C4_4 
REMARK    3  A    between atoms: C4_4  and  C5_5 
REMARK    4  A    between atoms: C18_29  and  C19_30 
REMARK    5  A    between atoms: C19_30  and  C20_31 
REMARK    6  A    between atoms: C20_31  and  C21_32 
ROOT
HETATM    1  C5  UNL     1      46.375  11.124   8.906  1.00  0.00     0.176 C 
HETATM    2  N1  UNL     1      44.962  10.914   9.084  1.00  0.00    -0.348 N 
ATOM      3  H1  UNL     1      44.419  10.813   8.226  1.00  0.00     0.163 HD
HETATM    4  C6  UNL     1      44.227  10.828  10.285  1.00  0.00     0.218 C 
HETATM    5  O1  UNL     1      43.459   9.847  10.499  1.00  0.00    -0.274 OA
HETATM    6  C7  UNL     1      44.243  11.804  11.402  1.00  0.00     0.104 C 
HETATM    7  C8  UNL     1      42.962  11.790  12.199  1.00  0.00     0.027 C 
HETATM    8  C9  UNL     1      42.456  13.136  12.613  1.00  0.00     0.034 C 
HETATM    9  C10 UNL     1      42.200  14.057  11.461  1.00  0.00     0.025 C 
HETATM   10  C11 UNL     1      41.069  12.878  13.238  1.00  0.00     0.025 C 
HETATM   11  C12 UNL     1      43.242  13.745  13.712  1.00  0.00     0.232 C 
HETATM   12  O2  UNL     1      43.809  12.885  14.483  1.00  0.00    -0.272 OA
HETATM   13  N2  UNL     1      43.432  15.098  13.996  1.00  0.00    -0.297 N 
ATOM     14  H2  UNL     1      43.193  15.385  14.946  1.00  0.00     0.171 HD
HETATM   15  C13 UNL     1      43.906  16.122  13.156  1.00  0.00     0.227 C 
HETATM   16  O3  UNL     1      43.308  17.231  13.171  1.00  0.00    -0.273 OA
HETATM   17  C14 UNL     1      45.063  16.015  12.241  1.00  0.00     0.142 C 
HETATM   18  C15 UNL     1      46.324  16.539  12.868  1.00  0.00     0.196 C 
HETATM   19  F1  UNL     1      46.452  15.870  14.066  1.00  0.00    -0.247 F 
HETATM   20  C16 UNL     1      47.576  16.268  12.096  1.00  0.00     0.160 C 
HETATM   21  N3  UNL     1      47.214  15.978  10.724  1.00  0.00    -0.357 N 
ATOM     22  H3  UNL     1      46.960  16.790  10.163  1.00  0.00     0.162 HD
HETATM   23  C17 UNL     1      47.160  14.753  10.056  1.00  0.00     0.240 C 
HETATM   24  O4  UNL     1      46.080  14.568   9.380  1.00  0.00    -0.271 OA
HETATM   25  C18 UNL     1      48.109  13.641   9.978  1.00  0.00     0.178 C 
HETATM   26  N4  UNL     1      47.733  12.432  10.687  1.00  0.00    -0.341 N 
HETATM   27  C23 UNL     1      48.024  12.470  12.111  1.00  0.00     0.153 C 
HETATM   28  C24 UNL     1      47.140  11.285  10.131  1.00  0.00     0.243 C 
HETATM   29  O5  UNL     1      47.300  10.212  10.818  1.00  0.00    -0.271 OA
ENDROOT
BRANCH   1  30
HETATM   30  C4  UNL     1      46.905   9.838   8.240  1.00  0.00     0.035 C 
BRANCH  30  31
HETATM   31  C3  UNL     1      48.020  10.119   7.284  1.00  0.00     0.002 C 
BRANCH  31  32
HETATM   32  C2  UNL     1      49.007   8.951   7.411  1.00  0.00    -0.004 C 
HETATM   33  C1  UNL     1      49.810   9.087   8.678  1.00  0.00     0.005 C 
ENDBRANCH  31  32
ENDBRANCH  30  31
ENDBRANCH   1  30
BRANCH  25  34
HETATM   34  C19 UNL     1      49.546  14.061  10.206  1.00  0.00     0.035 C 
BRANCH  34  35
HETATM   35  C20 UNL     1      50.283  14.287   8.905  1.00  0.00     0.002 C 
BRANCH  35  36
HETATM   36  C21 UNL     1      49.979  13.085   8.003  1.00  0.00    -0.004 C 
HETATM   37  C22 UNL     1      51.224  12.287   7.706  1.00  0.00     0.005 C 
ENDBRANCH  35  36
ENDBRANCH  34  35
ENDBRANCH  25  34
TORSDOF 6
ENDMDL
MODEL 3
REMARK VINA RESULT: -7.703536800      1.776      2.331
REMARK  6 active torsions:
REMARK  status: ('A' for Active; 'I' for Inactive)
REMARK    1  A    between atoms: C2_2  and  C3_3 
REMARK    2  A    between atoms: C3_3  and  C4_4 
REMARK    3  A    between atoms: C4_4  and  C5_5 
REMARK    4  A    between atoms: C18_29  and  C19_30 
REMARK    5  A    between atoms: C19_30  and  C20_31 
REMARK    6  A    between atoms: C20_31  and  C21_32 
ROOT
HETATM    1  C5  UNL     1      47.672  13.790  10.957  1.00  0.00     0.176 C 
HETATM    2  N1  UNL     1      47.932  15.095  11.508  1.00  0.00    -0.348 N 
ATOM      3  H1  UNL     1      48.865  15.232  11.896  1.00  0.00     0.163 HD
HETATM    4  C6  UNL     1      47.071  16.209  11.583  1.00  0.00     0.218 C 
HETATM    5  O1  UNL     1      47.441  17.337  11.150  1.00  0.00    -0.274 OA
HETATM    6  C7  UNL     1      45.695  16.227  12.139  1.00  0.00     0.104 C 
HETATM    7  C8  UNL     1      45.297  17.589  12.650  1.00  0.00     0.027 C 
HETATM    8  C9  UNL     1      44.532  17.586  13.936  1.00  0.00     0.034 C 
HETATM    9  C10 UNL     1      45.266  16.934  15.066  1.00  0.00     0.025 C 
HETATM   10  C11 UNL     1      44.406  19.071  14.341  1.00  0.00     0.025 C 
HETATM   11  C12 UNL     1      43.129  17.133  13.782  1.00  0.00     0.232 C 
HETATM   12  O2  UNL     1      42.637  17.354  12.614  1.00  0.00    -0.272 OA
HETATM   13  N2  UNL     1      42.310  16.512  14.727  1.00  0.00    -0.297 N 
ATOM     14  H2  UNL     1      41.410  16.964  14.891  1.00  0.00     0.171 HD
HETATM   15  C13 UNL     1      42.551  15.351  15.483  1.00  0.00     0.227 C 
HETATM   16  O3  UNL     1      42.254  15.364  16.708  1.00  0.00    -0.273 OA
HETATM   17  C14 UNL     1      43.131  14.093  14.964  1.00  0.00     0.142 C 
HETATM   18  C15 UNL     1      42.068  13.101  14.584  1.00  0.00     0.196 C 
HETATM   19  F1  UNL     1      41.227  13.768  13.718  1.00  0.00    -0.247 F 
HETATM   20  C16 UNL     1      42.561  11.894  13.849  1.00  0.00     0.160 C 
HETATM   21  N3  UNL     1      43.982  11.760  14.093  1.00  0.00    -0.357 N 
ATOM     22  H3  UNL     1      44.231  11.390  15.010  1.00  0.00     0.162 HD
HETATM   23  C17 UNL     1      45.062  12.060  13.260  1.00  0.00     0.240 C 
HETATM   24  O4  UNL     1      45.994  12.741  13.830  1.00  0.00    -0.271 OA
HETATM   25  C18 UNL     1      45.332  11.740  11.857  1.00  0.00     0.178 C 
HETATM   26  N4  UNL     1      45.255  12.848  10.924  1.00  0.00    -0.341 N 
HETATM   27  C23 UNL     1      43.902  13.170  10.502  1.00  0.00     0.153 C 
HETATM   28  C24 UNL     1      46.334  13.596  10.422  1.00  0.00     0.243 C 
HETATM   29  O5  UNL     1      46.096  14.204   9.316  1.00  0.00    -0.271 OA
ENDROOT
BRANCH   1  30
HETATM   30  C4  UNL     1      48.633  13.646   9.760  1.00  0.00     0.035 C 
BRANCH  30  31
HETATM   31  C3  UNL     1      48.971  12.216   9.480  1.00  0.00     0.002 C 
BRANCH  31  32
HETATM   32  C2  UNL     1      48.698  11.989   7.987  1.00  0.00    -0.004 C 
HETATM   33  C1  UNL     1      48.124  10.614   7.769  1.00  0.00     0.005 C 
ENDBRANCH  31  32
ENDBRANCH  30  31
ENDBRANCH   1  30
BRANCH  25  34
HETATM   34  C19 UNL     1      44.623  10.489  11.380  1.00  0.00     0.035 C 
BRANCH  34  35
HETATM   35  C20 UNL     1      45.512   9.632  10.508  1.00  0.00     0.002 C 
BRANCH  35  36
HETATM   36  C21 UNL     1      46.889   9.585  11.181  1.00  0.00    -0.004 C 
HETATM   37  C22 UNL     1      47.627   8.313  10.843  1.00  0.00     0.005 C 
ENDBRANCH  35  36
ENDBRANCH  34  35
ENDBRANCH  25  34
TORSDOF 6
ENDMDL
MODEL 4
REMARK VINA RESULT: -7.548757145      2.831      7.552
REMARK  6 active torsions:
REMARK  status: ('A' for Active; 'I' for Inactive)
REMARK    1  A    between atoms: C2_2  and  C3_3 
REMARK    2  A    between atoms: C3_3  and  C4_4 
REMARK    3  A    between atoms: C4_4  and  C5_5 
REMARK    4  A    between atoms: C18_29  and  C19_30 
REMARK    5  A    between atoms: C19_30  and  C20_31 
REMARK    6  A    between atoms: C20_31  and  C21_32 
ROOT
HETATM    1  C5  UNL     1      45.802  13.380  12.503  1.00  0.00     0.176 C 
HETATM    2  N1  UNL     1      45.663  11.955  12.653  1.00  0.00    -0.348 N 
ATOM      3  H1  UNL     1      45.764  11.599  13.604  1.00  0.00     0.163 HD
HETATM    4  C6  UNL     1      45.407  10.984  11.663  1.00  0.00     0.218 C 
HETATM    5  O1  UNL     1      44.461  10.157  11.804  1.00  0.00    -0.274 OA
HETATM    6  C7  UNL     1      46.154  10.797  10.395  1.00  0.00     0.104 C 
HETATM    7  C8  UNL     1      46.082   9.379   9.886  1.00  0.00     0.027 C 
HETATM    8  C9  UNL     1      47.360   8.840   9.324  1.00  0.00     0.034 C 
HETATM    9  C10 UNL     1      48.496   8.859  10.299  1.00  0.00     0.025 C 
HETATM   10  C11 UNL     1      47.089   7.346   9.049  1.00  0.00     0.025 C 
HETATM   11  C12 UNL     1      47.695   9.398   7.992  1.00  0.00     0.232 C 
HETATM   12  O2  UNL     1      46.668   9.765   7.310  1.00  0.00    -0.272 OA
HETATM   13  N2  UNL     1      48.955   9.567   7.414  1.00  0.00    -0.297 N 
ATOM     14  H2  UNL     1      49.075   9.146   6.494  1.00  0.00     0.171 HD
HETATM   15  C13 UNL     1      50.081  10.238   7.924  1.00  0.00     0.227 C 
HETATM   16  O3  UNL     1      51.208   9.686   7.810  1.00  0.00    -0.273 OA
HETATM   17  C14 UNL     1      50.064  11.556   8.595  1.00  0.00     0.142 C 
HETATM   18  C15 UNL     1      50.371  12.675   7.640  1.00  0.00     0.196 C 
HETATM   19  F1  UNL     1      49.482  12.529   6.596  1.00  0.00    -0.247 F 
HETATM   20  C16 UNL     1      50.160  14.052   8.186  1.00  0.00     0.160 C 
HETATM   21  N3  UNL     1      50.158  13.974   9.632  1.00  0.00    -0.357 N 
ATOM     22  H3  UNL     1      51.077  13.868  10.061  1.00  0.00     0.162 HD
HETATM   23  C17 UNL     1      49.087  14.022  10.526  1.00  0.00     0.240 C 
HETATM   24  O4  UNL     1      49.109  13.101  11.425  1.00  0.00    -0.271 OA
HETATM   25  C18 UNL     1      47.944  14.931  10.633  1.00  0.00     0.178 C 
HETATM   26  N4  UNL     1      46.653  14.378  10.265  1.00  0.00    -0.341 N 
HETATM   27  C23 UNL     1      46.404  14.367   8.833  1.00  0.00     0.153 C 
HETATM   28  C24 UNL     1      45.676  13.878  11.143  1.00  0.00     0.243 C 
HETATM   29  O5  UNL     1      44.485  13.857  10.664  1.00  0.00    -0.271 OA
ENDROOT
BRANCH   1  30
HETATM   30  C4  UNL     1      44.629  13.996  13.291  1.00  0.00     0.035 C 
BRANCH  30  31
HETATM   31  C3  UNL     1      45.101  14.886  14.397  1.00  0.00     0.002 C 
BRANCH  31  32
HETATM   32  C2  UNL     1      45.528  16.206  13.741  1.00  0.00    -0.004 C 
HETATM   33  C1  UNL     1      44.357  16.837  13.036  1.00  0.00     0.005 C 
ENDBRANCH  31  32
ENDBRANCH  30  31
ENDBRANCH   1  30
BRANCH  25  34
HETATM   34  C19 UNL     1      48.210  16.301  10.046  1.00  0.00     0.035 C 
BRANCH  34  35
HETATM   35  C20 UNL     1      47.406  17.379  10.737  1.00  0.00     0.002 C 
BRANCH  35  36
HETATM   36  C21 UNL     1      47.834  18.719  10.125  1.00  0.00    -0.004 C 
HETATM   37  C22 UNL     1      47.949  18.631   8.623  1.00  0.00     0.005 C 
ENDBRANCH  35  36
ENDBRANCH  34  35
ENDBRANCH  25  34
TORSDOF 6
ENDMDL
MODEL 5
REMARK VINA RESULT: -7.530826854      1.515      2.376
REMARK  6 active torsions:
REMARK  status: ('A' for Active; 'I' for Inactive)
REMARK    1  A    between atoms: C2_2  and  C3_3 
REMARK    2  A    between atoms: C3_3  and  C4_4 
REMARK    3  A    between atoms: C4_4  and  C5_5 
REMARK    4  A    between atoms: C18_29  and  C19_30 
REMARK    5  A    between atoms: C19_30  and  C20_31 
REMARK    6  A    between atoms: C20_31  and  C21_32 
ROOT
HETATM    1  C5  UNL     1      48.452  15.501  10.731  1.00  0.00     0.176 C 
HETATM    2  N1  UNL     1      47.910  16.434  11.684  1.00  0.00    -0.348 N 
ATOM      3  H1  UNL     1      48.586  16.856  12.322  1.00  0.00     0.163 HD
HETATM    4  C6  UNL     1      46.572  16.843  11.856  1.00  0.00     0.218 C 
HETATM    5  O1  UNL     1      46.274  18.071  11.879  1.00  0.00    -0.274 OA
HETATM    6  C7  UNL     1      45.392  15.959  12.021  1.00  0.00     0.104 C 
HETATM    7  C8  UNL     1      44.274  16.624  12.785  1.00  0.00     0.027 C 
HETATM    8  C9  UNL     1      43.571  15.748  13.773  1.00  0.00     0.034 C 
HETATM    9  C10 UNL     1      44.480  15.173  14.814  1.00  0.00     0.025 C 
HETATM   10  C11 UNL     1      42.617  16.685  14.545  1.00  0.00     0.025 C 
HETATM   11  C12 UNL     1      42.670  14.756  13.140  1.00  0.00     0.232 C 
HETATM   12  O2  UNL     1      42.204  15.131  12.001  1.00  0.00    -0.272 OA
HETATM   13  N2  UNL     1      42.285  13.503  13.620  1.00  0.00    -0.297 N 
ATOM     14  H2  UNL     1      41.279  13.344  13.672  1.00  0.00     0.171 HD
HETATM   15  C13 UNL     1      43.090  12.430  14.043  1.00  0.00     0.227 C 
HETATM   16  O3  UNL     1      42.770  11.823  15.099  1.00  0.00    -0.273 OA
HETATM   17  C14 UNL     1      44.301  11.939  13.348  1.00  0.00     0.142 C 
HETATM   18  C15 UNL     1      43.994  10.784  12.437  1.00  0.00     0.196 C 
HETATM   19  F1  UNL     1      42.973  11.216  11.617  1.00  0.00    -0.247 F 
HETATM   20  C16 UNL     1      45.116  10.372  11.536  1.00  0.00     0.160 C 
HETATM   21  N3  UNL     1      46.354  10.882  12.087  1.00  0.00    -0.357 N 
ATOM     22  H3  UNL     1      46.716  10.366  12.889  1.00  0.00     0.162 HD
HETATM   23  C17 UNL     1      47.127  11.972  11.684  1.00  0.00     0.240 C 
HETATM   24  O4  UNL     1      47.489  12.747  12.646  1.00  0.00    -0.271 OA
HETATM   25  C18 UNL     1      47.608  12.395  10.366  1.00  0.00     0.178 C 
HETATM   26  N4  UNL     1      46.978  13.577   9.807  1.00  0.00    -0.341 N 
HETATM   27  C23 UNL     1      45.701  13.315   9.164  1.00  0.00     0.153 C 
HETATM   28  C24 UNL     1      47.482  14.889   9.838  1.00  0.00     0.243 C 
HETATM   29  O5  UNL     1      47.007  15.667   8.934  1.00  0.00    -0.271 OA
ENDROOT
BRANCH   1  30
HETATM   30  C4  UNL     1      49.395  16.326   9.833  1.00  0.00     0.035 C 
BRANCH  30  31
HETATM   31  C3  UNL     1      49.468  17.757  10.260  1.00  0.00     0.002 C 
BRANCH  31  32
HETATM   32  C2  UNL     1      48.684  18.564   9.216  1.00  0.00    -0.004 C 
HETATM   33  C1  UNL     1      48.856  20.039   9.465  1.00  0.00     0.005 C 
ENDBRANCH  31  32
ENDBRANCH  30  31
ENDBRANCH   1  30
BRANCH  25  34
HETATM   34  C19 UNL     1      47.744  11.253   9.382  1.00  0.00     0.035 C 
BRANCH  34  35
HETATM   35  C20 UNL     1      49.138  11.165   8.805  1.00  0.00     0.002 C 
BRANCH  35  36
HETATM   36  C21 UNL     1      49.047  11.617   7.342  1.00  0.00    -0.004 C 
HETATM   37  C22 UNL     1      49.448  13.062   7.183  1.00  0.00     0.005 C 
ENDBRANCH  35  36
ENDBRANCH  34  35
ENDBRANCH  25  34
TORSDOF 6
ENDMDL
