MODEL 1
REMARK VINA RESULT: -8.638555633      0.000      0.000
REMARK  11 active torsions:
REMARK  status: ('A' for Active; 'I' for Inactive)
REMARK    1  A    between atoms: N1_2  and  S1_4 
REMARK    2  A    between atoms: S1_4  and  N2_7 
REMARK    3  A    between atoms: N3_10  and  C4_11 
REMARK    4  A    between atoms: C4_11  and  O3_12 
REMARK    5  A    between atoms: C4_11  and  C5_14 
REMARK    6  A    between atoms: C5_14  and  C12_28 
REMARK       I    between atoms: N4_15  and  C6_17 
REMARK    7  A    between atoms: C6_17  and  C7_19 
REMARK    8  A    between atoms: C7_19  and  N5_20 
REMARK    9  A    between atoms: C7_19  and  C8_24 
REMARK   10  A    between atoms: C8_24  and  C9_25 
REMARK   11  A    between atoms: C18_35  and  O5_36 
ROOT
HETATM    1  C4  UNL     1      48.445  22.323   9.931  1.00  0.00     0.162 C 
ENDROOT
BRANCH   1   2
HETATM    2  N3  UNL     1      47.490  22.907  10.748  1.00  0.00    -0.351 N 
HETATM    3  C3  UNL     1      46.094  22.819  10.582  1.00  0.00     0.112 C 
HETATM    4  C2  UNL     1      45.463  24.155  10.168  1.00  0.00     0.135 C 
HETATM    5  C19 UNL     1      45.316  22.575  11.871  1.00  0.00     0.019 C 
HETATM    6  N2  UNL     1      44.057  23.874  10.323  1.00  0.00    -0.191 NA
HETATM    7  C21 UNL     1      43.915  22.999  11.440  1.00  0.00     0.123 C 
HETATM    8  C18 UNL     1      45.776  23.455  12.969  1.00  0.00     0.165 C 
HETATM    9  C20 UNL     1      45.321  21.106  12.235  1.00  0.00     0.021 C 
HETATM   10  C17 UNL     1      47.277  23.440  13.155  1.00  0.00     0.217 C 
HETATM   11  C16 UNL     1      48.009  23.708  11.883  1.00  0.00     0.165 C 
HETATM   12  F1  UNL     1      47.574  24.474  14.031  1.00  0.00    -0.245 F 
BRANCH   6  13
HETATM   13  S1  UNL     1      43.066  25.257  10.375  1.00  0.00     0.298 S 
HETATM   14  O1  UNL     1      43.927  26.484  10.315  1.00  0.00    -0.188 OA
HETATM   15  O2  UNL     1      42.198  25.291  11.606  1.00  0.00    -0.188 OA
BRANCH  13  16
HETATM   16  N1  UNL     1      41.976  25.319   9.028  1.00  0.00    -0.311 N 
HETATM   17  C1  UNL     1      42.702  25.247   7.766  1.00  0.00     0.160 C 
ATOM     18  H1  UNL     1      40.962  25.397   9.108  1.00  0.00     0.172 HD
ENDBRANCH  13  16
ENDBRANCH   6  13
BRANCH   8  19
HETATM   19  O5  UNL     1      45.240  22.936  14.172  1.00  0.00    -0.392 OA
ATOM     20  H5  UNL     1      45.736  23.348  14.869  1.00  0.00     0.210 HD
ENDBRANCH   8  19
ENDBRANCH   1   2
BRANCH   1  21
HETATM   21  O3  UNL     1      49.480  23.080   9.683  1.00  0.00    -0.345 OA
ATOM     22  H3  UNL     1      50.309  22.724   9.980  1.00  0.00     0.219 HD
ENDBRANCH   1  21
BRANCH   1  23
HETATM   23  C5  UNL     1      48.485  21.000   9.300  1.00  0.00     0.070 C 
HETATM   24  N4  UNL     1      48.631  19.968   9.926  1.00  0.00    -0.324 N 
HETATM   25  C6  UNL     1      48.739  18.622   9.931  1.00  0.00     0.252 C 
ATOM     26  H4  UNL     1      48.710  20.251  10.903  1.00  0.00     0.169 HD
HETATM   27  O4  UNL     1      49.859  18.097   9.572  1.00  0.00    -0.271 OA
BRANCH  25  28
HETATM   28  C7  UNL     1      47.660  17.654  10.323  1.00  0.00     0.275 C 
BRANCH  28  29
HETATM   29  N5  UNL     1      48.031  16.873  11.462  1.00  0.00    -0.066 N 
ATOM     30  H53 UNL     1      49.013  16.599  11.420  1.00  0.00     0.275 HD
ATOM     31  H52 UNL     1      48.060  17.442  12.308  1.00  0.00     0.275 HD
ATOM     32  H51 UNL     1      47.424  16.062  11.583  1.00  0.00     0.275 HD
ENDBRANCH  28  29
BRANCH  28  33
HETATM   33  C8  UNL     1      47.415  16.752   9.142  1.00  0.00     0.046 C 
BRANCH  33  34
HETATM   34  C9  UNL     1      47.823  15.325   9.422  1.00  0.00    -0.020 C 
HETATM   35  C10 UNL     1      46.672  14.370   9.392  1.00  0.00     0.009 C 
HETATM   36  C11 UNL     1      48.873  14.857   8.451  1.00  0.00     0.009 C 
ENDBRANCH  33  34
ENDBRANCH  28  33
ENDBRANCH  25  28
BRANCH  23  37
HETATM   37  C12 UNL     1      48.326  21.027   7.810  1.00  0.00    -0.004 C 
HETATM   38  C13 UNL     1      49.691  21.153   7.138  1.00  0.00     0.021 C 
HETATM   39  C14 UNL     1      47.582  22.332   7.466  1.00  0.00     0.021 C 
HETATM   40  C15 UNL     1      47.636  19.847   7.222  1.00  0.00     0.021 C 
ENDBRANCH  23  37
ENDBRANCH   1  23
TORSDOF 11
ENDMDL
MODEL 2
REMARK VINA RESULT: -8.295623379      6.491      8.964
REMARK  11 active torsions:
REMARK  status: ('A' for Active; 'I' for Inactive)
REMARK    1  A    between atoms: N1_2  and  S1_4 
REMARK    2  A    between atoms: S1_4  and  N2_7 
REMARK    3  A    between atoms: N3_10  and  C4_11 
REMARK    4  A    between atoms: C4_11  and  O3_12 
REMARK    5  A    between atoms: C4_11  and  C5_14 
REMARK    6  A    between atoms: C5_14  and  C12_28 
REMARK       I    between atoms: N4_15  and  C6_17 
REMARK    7  A    between atoms: C6_17  and  C7_19 
REMARK    8  A    between atoms: C7_19  and  N5_20 
REMARK    9  A    between atoms: C7_19  and  C8_24 
REMARK   10  A    between atoms: C8_24  and  C9_25 
REMARK   11  A    between atoms: C18_35  and  O5_36 
ROOT
HETATM    1  C4  UNL     1      47.746  15.775  11.868  1.00  0.00     0.162 C 
ENDROOT
BRANCH   1   2
HETATM    2  N3  UNL     1      46.708  14.894  12.124  1.00  0.00    -0.351 N 
HETATM    3  C3  UNL     1      46.488  13.663  11.475  1.00  0.00     0.112 C 
HETATM    4  C2  UNL     1      45.244  13.683  10.577  1.00  0.00     0.135 C 
HETATM    5  C19 UNL     1      46.098  12.517  12.402  1.00  0.00     0.019 C 
HETATM    6  N2  UNL     1      45.094  12.285  10.255  1.00  0.00    -0.191 NA
HETATM    7  C21 UNL     1      45.495  11.536  11.401  1.00  0.00     0.123 C 
HETATM    8  C18 UNL     1      45.056  12.923  13.374  1.00  0.00     0.165 C 
HETATM    9  C20 UNL     1      47.321  11.906  13.051  1.00  0.00     0.021 C 
HETATM   10  C17 UNL     1      45.390  14.206  14.103  1.00  0.00     0.217 C 
HETATM   11  C16 UNL     1      45.743  15.315  13.167  1.00  0.00     0.165 C 
HETATM   12  F1  UNL     1      44.240  14.583  14.779  1.00  0.00    -0.245 F 
BRANCH   6  13
HETATM   13  S1  UNL     1      43.566  11.867   9.635  1.00  0.00     0.298 S 
HETATM   14  O1  UNL     1      43.652  11.754   8.142  1.00  0.00    -0.188 OA
HETATM   15  O2  UNL     1      42.502  12.861  10.020  1.00  0.00    -0.188 OA
BRANCH  13  16
HETATM   16  N1  UNL     1      43.022  10.336  10.242  1.00  0.00    -0.311 N 
HETATM   17  C1  UNL     1      41.834  10.495  11.071  1.00  0.00     0.160 C 
ATOM     18  H1  UNL     1      43.473   9.443  10.044  1.00  0.00     0.172 HD
ENDBRANCH  13  16
ENDBRANCH   6  13
BRANCH   8  19
HETATM   19  O5  UNL     1      45.006  11.922  14.373  1.00  0.00    -0.392 OA
ATOM     20  H5  UNL     1      44.927  11.100  13.905  1.00  0.00     0.210 HD
ENDBRANCH   8  19
ENDBRANCH   1   2
BRANCH   1  21
HETATM   21  O3  UNL     1      48.086  16.521  12.885  1.00  0.00    -0.345 OA
ATOM     22  H3  UNL     1      48.938  16.933  12.804  1.00  0.00     0.219 HD
ENDBRANCH   1  21
BRANCH   1  23
HETATM   23  C5  UNL     1      48.523  16.010  10.646  1.00  0.00     0.070 C 
HETATM   24  N4  UNL     1      49.381  15.247  10.246  1.00  0.00    -0.324 N 
HETATM   25  C6  UNL     1      50.317  14.938   9.323  1.00  0.00     0.252 C 
ATOM     26  H4  UNL     1      49.404  14.484  10.923  1.00  0.00     0.169 HD
HETATM   27  O4  UNL     1      51.448  15.553   9.370  1.00  0.00    -0.271 OA
BRANCH  25  28
HETATM   28  C7  UNL     1      50.170  13.926   8.223  1.00  0.00     0.275 C 
BRANCH  28  29
HETATM   29  N5  UNL     1      49.439  14.448   7.111  1.00  0.00    -0.066 N 
ATOM     30  H53 UNL     1      48.794  13.753   6.732  1.00  0.00     0.275 HD
ATOM     31  H52 UNL     1      48.761  15.149   7.409  1.00  0.00     0.275 HD
ATOM     32  H51 UNL     1      50.056  14.815   6.387  1.00  0.00     0.275 HD
ENDBRANCH  28  29
BRANCH  28  33
HETATM   33  C8  UNL     1      49.445  12.739   8.802  1.00  0.00     0.046 C 
BRANCH  33  34
HETATM   34  C9  UNL     1      49.257  11.637   7.785  1.00  0.00    -0.020 C 
HETATM   35  C10 UNL     1      50.388  10.659   7.765  1.00  0.00     0.009 C 
HETATM   36  C11 UNL     1      47.970  10.893   8.019  1.00  0.00     0.009 C 
ENDBRANCH  33  34
ENDBRANCH  28  33
ENDBRANCH  25  28
BRANCH  23  37
HETATM   37  C12 UNL     1      48.168  17.276   9.928  1.00  0.00    -0.004 C 
HETATM   38  C13 UNL     1      47.069  18.019  10.683  1.00  0.00     0.021 C 
HETATM   39  C14 UNL     1      47.531  16.863   8.587  1.00  0.00     0.021 C 
HETATM   40  C15 UNL     1      49.295  18.224   9.714  1.00  0.00     0.021 C 
ENDBRANCH  23  37
ENDBRANCH   1  23
TORSDOF 11
ENDMDL
MODEL 3
REMARK VINA RESULT: -8.250298904      7.944     10.237
REMARK  11 active torsions:
REMARK  status: ('A' for Active; 'I' for Inactive)
REMARK    1  A    between atoms: N1_2  and  S1_4 
REMARK    2  A    between atoms: S1_4  and  N2_7 
REMARK    3  A    between atoms: N3_10  and  C4_11 
REMARK    4  A    between atoms: C4_11  and  O3_12 
REMARK    5  A    between atoms: C4_11  and  C5_14 
REMARK    6  A    between atoms: C5_14  and  C12_28 
REMARK       I    between atoms: N4_15  and  C6_17 
REMARK    7  A    between atoms: C6_17  and  C7_19 
REMARK    8  A    between atoms: C7_19  and  N5_20 
REMARK    9  A    between atoms: C7_19  and  C8_24 
REMARK   10  A    between atoms: C8_24  and  C9_25 
REMARK   11  A    between atoms: C18_35  and  O5_36 
ROOT
HETATM    1  C4  UNL     1      47.441  13.782  12.036  1.00  0.00     0.162 C 
ENDROOT
BRANCH   1   2
HETATM    2  N3  UNL     1      46.528  12.746  12.151  1.00  0.00    -0.351 N 
HETATM    3  C3  UNL     1      45.134  12.886  12.300  1.00  0.00     0.112 C 
HETATM    4  C2  UNL     1      44.644  12.464  13.692  1.00  0.00     0.135 C 
HETATM    5  C19 UNL     1      44.305  11.926  11.452  1.00  0.00     0.019 C 
HETATM    6  N2  UNL     1      43.214  12.445  13.505  1.00  0.00    -0.191 NA
HETATM    7  C21 UNL     1      42.962  12.000  12.173  1.00  0.00     0.123 C 
HETATM    8  C18 UNL     1      44.821  10.540  11.524  1.00  0.00     0.165 C 
HETATM    9  C20 UNL     1      44.161  12.442  10.038  1.00  0.00     0.021 C 
HETATM   10  C17 UNL     1      46.309  10.444  11.269  1.00  0.00     0.217 C 
HETATM   11  C16 UNL     1      47.094  11.376  12.131  1.00  0.00     0.165 C 
HETATM   12  F1  UNL     1      46.683   9.153  11.606  1.00  0.00    -0.245 F 
BRANCH   6  13
HETATM   13  S1  UNL     1      42.359  11.598  14.708  1.00  0.00     0.298 S 
HETATM   14  O1  UNL     1      43.336  10.946  15.641  1.00  0.00    -0.188 OA
HETATM   15  O2  UNL     1      41.427  10.567  14.128  1.00  0.00    -0.188 OA
BRANCH  13  16
HETATM   16  N1  UNL     1      41.362  12.655  15.654  1.00  0.00    -0.311 N 
HETATM   17  C1  UNL     1      42.129  13.792  16.150  1.00  0.00     0.160 C 
ATOM     18  H1  UNL     1      40.371  12.503  15.840  1.00  0.00     0.172 HD
ENDBRANCH  13  16
ENDBRANCH   6  13
BRANCH   8  19
HETATM   19  O5  UNL     1      44.209   9.813  10.475  1.00  0.00    -0.392 OA
ATOM     20  H5  UNL     1      43.343  10.188  10.378  1.00  0.00     0.210 HD
ENDBRANCH   8  19
ENDBRANCH   1   2
BRANCH   1  21
HETATM   21  O3  UNL     1      47.768  14.343  13.169  1.00  0.00    -0.345 OA
ATOM     22  H3  UNL     1      48.498  13.930  13.616  1.00  0.00     0.219 HD
ENDBRANCH   1  21
BRANCH   1  23
HETATM   23  C5  UNL     1      48.099  14.351  10.855  1.00  0.00     0.070 C 
HETATM   24  N4  UNL     1      48.955  13.764  10.222  1.00  0.00    -0.324 N 
HETATM   25  C6  UNL     1      49.822  13.747   9.187  1.00  0.00     0.252 C 
ATOM     26  H4  UNL     1      49.073  12.866  10.691  1.00  0.00     0.169 HD
HETATM   27  O4  UNL     1      50.922  14.408   9.300  1.00  0.00    -0.271 OA
BRANCH  25  28
HETATM   28  C7  UNL     1      49.630  13.016   7.889  1.00  0.00     0.275 C 
BRANCH  28  29
HETATM   29  N5  UNL     1      49.505  13.914   6.783  1.00  0.00    -0.066 N 
ATOM     30  H53 UNL     1      49.749  14.868   7.052  1.00  0.00     0.275 HD
ATOM     31  H52 UNL     1      50.235  13.751   6.089  1.00  0.00     0.275 HD
ATOM     32  H51 UNL     1      48.578  13.873   6.362  1.00  0.00     0.275 HD
ENDBRANCH  28  29
BRANCH  28  33
HETATM   33  C8  UNL     1      48.379  12.189   8.022  1.00  0.00     0.046 C 
BRANCH  33  34
HETATM   34  C9  UNL     1      48.642  10.720   7.785  1.00  0.00    -0.020 C 
HETATM   35  C10 UNL     1      49.438  10.083   8.879  1.00  0.00     0.009 C 
HETATM   36  C11 UNL     1      47.357   9.957   7.607  1.00  0.00     0.009 C 
ENDBRANCH  33  34
ENDBRANCH  28  33
ENDBRANCH  25  28
BRANCH  23  37
HETATM   37  C12 UNL     1      47.622  15.724  10.491  1.00  0.00    -0.004 C 
HETATM   38  C13 UNL     1      47.299  15.792   9.000  1.00  0.00     0.021 C 
HETATM   39  C14 UNL     1      48.816  16.677  10.690  1.00  0.00     0.021 C 
HETATM   40  C15 UNL     1      46.427  16.202  11.238  1.00  0.00     0.021 C 
ENDBRANCH  23  37
ENDBRANCH   1  23
TORSDOF 11
ENDMDL
MODEL 4
REMARK VINA RESULT: -8.211084924      7.953     10.364
REMARK  11 active torsions:
REMARK  status: ('A' for Active; 'I' for Inactive)
REMARK    1  A    between atoms: N1_2  and  S1_4 
REMARK    2  A    between atoms: S1_4  and  N2_7 
REMARK    3  A    between atoms: N3_10  and  C4_11 
REMARK    4  A    between atoms: C4_11  and  O3_12 
REMARK    5  A    between atoms: C4_11  and  C5_14 
REMARK    6  A    between atoms: C5_14  and  C12_28 
REMARK       I    between atoms: N4_15  and  C6_17 
REMARK    7  A    between atoms: C6_17  and  C7_19 
REMARK    8  A    between atoms: C7_19  and  N5_20 
REMARK    9  A    between atoms: C7_19  and  C8_24 
REMARK   10  A    between atoms: C8_24  and  C9_25 
REMARK   11  A    between atoms: C18_35  and  O5_36 
ROOT
HETATM    1  C4  UNL     1      47.445  13.765  12.012  1.00  0.00     0.162 C 
ENDROOT
BRANCH   1   2
HETATM    2  N3  UNL     1      46.517  12.743  12.131  1.00  0.00    -0.351 N 
HETATM    3  C3  UNL     1      45.125  12.901  12.268  1.00  0.00     0.112 C 
HETATM    4  C2  UNL     1      44.619  12.500  13.661  1.00  0.00     0.135 C 
HETATM    5  C19 UNL     1      44.290  11.943  11.424  1.00  0.00     0.019 C 
HETATM    6  N2  UNL     1      43.190  12.497  13.463  1.00  0.00    -0.191 NA
HETATM    7  C21 UNL     1      42.943  12.041  12.134  1.00  0.00     0.123 C 
HETATM    8  C18 UNL     1      44.788  10.551  11.515  1.00  0.00     0.165 C 
HETATM    9  C20 UNL     1      44.162  12.446  10.003  1.00  0.00     0.021 C 
HETATM   10  C17 UNL     1      46.277  10.435  11.271  1.00  0.00     0.217 C 
HETATM   11  C16 UNL     1      47.066  11.366  12.130  1.00  0.00     0.165 C 
HETATM   12  F1  UNL     1      46.631   9.142  11.626  1.00  0.00    -0.245 F 
BRANCH   6  13
HETATM   13  S1  UNL     1      42.316  11.674  14.669  1.00  0.00     0.298 S 
HETATM   14  O1  UNL     1      41.522  12.665  15.467  1.00  0.00    -0.188 OA
HETATM   15  O2  UNL     1      43.212  10.873  15.577  1.00  0.00    -0.188 OA
BRANCH  13  16
HETATM   16  N1  UNL     1      41.196  10.537  13.989  1.00  0.00    -0.311 N 
HETATM   17  C1  UNL     1      40.509   9.791  15.036  1.00  0.00     0.160 C 
ATOM     18  H1  UNL     1      41.039  10.408  12.989  1.00  0.00     0.172 HD
ENDBRANCH  13  16
ENDBRANCH   6  13
BRANCH   8  19
HETATM   19  O5  UNL     1      44.175   9.820  10.469  1.00  0.00    -0.392 OA
ATOM     20  H5  UNL     1      43.696  10.462   9.958  1.00  0.00     0.210 HD
ENDBRANCH   8  19
ENDBRANCH   1   2
BRANCH   1  21
HETATM   21  O3  UNL     1      47.791  14.316  13.145  1.00  0.00    -0.345 OA
ATOM     22  H3  UNL     1      48.694  14.162  13.397  1.00  0.00     0.219 HD
ENDBRANCH   1  21
BRANCH   1  23
HETATM   23  C5  UNL     1      48.098  14.331  10.827  1.00  0.00     0.070 C 
HETATM   24  N4  UNL     1      48.964  13.750  10.203  1.00  0.00    -0.324 N 
HETATM   25  C6  UNL     1      49.835  13.734   9.171  1.00  0.00     0.252 C 
ATOM     26  H4  UNL     1      49.092  12.858  10.681  1.00  0.00     0.169 HD
HETATM   27  O4  UNL     1      50.925  14.410   9.280  1.00  0.00    -0.271 OA
BRANCH  25  28
HETATM   28  C7  UNL     1      49.657  12.987   7.880  1.00  0.00     0.275 C 
BRANCH  28  29
HETATM   29  N5  UNL     1      49.531  13.872   6.764  1.00  0.00    -0.066 N 
ATOM     30  H53 UNL     1      49.080  13.410   5.973  1.00  0.00     0.275 HD
ATOM     31  H52 UNL     1      48.837  14.598   6.942  1.00  0.00     0.275 HD
ATOM     32  H51 UNL     1      50.428  14.277   6.495  1.00  0.00     0.275 HD
ENDBRANCH  28  29
BRANCH  28  33
HETATM   33  C8  UNL     1      48.411  12.151   8.014  1.00  0.00     0.046 C 
BRANCH  33  34
HETATM   34  C9  UNL     1      48.676  10.689   7.738  1.00  0.00    -0.020 C 
HETATM   35  C10 UNL     1      49.560  10.050   8.762  1.00  0.00     0.009 C 
HETATM   36  C11 UNL     1      47.392   9.910   7.645  1.00  0.00     0.009 C 
ENDBRANCH  33  34
ENDBRANCH  28  33
ENDBRANCH  25  28
BRANCH  23  37
HETATM   37  C12 UNL     1      47.604  15.695  10.448  1.00  0.00    -0.004 C 
HETATM   38  C13 UNL     1      47.277  15.740   8.958  1.00  0.00     0.021 C 
HETATM   39  C14 UNL     1      48.788  16.664  10.633  1.00  0.00     0.021 C 
HETATM   40  C15 UNL     1      46.406  16.167  11.193  1.00  0.00     0.021 C 
ENDBRANCH  23  37
ENDBRANCH   1  23
TORSDOF 11
ENDMDL
MODEL 5
REMARK VINA RESULT: -8.099026158      7.958     10.111
REMARK  11 active torsions:
REMARK  status: ('A' for Active; 'I' for Inactive)
REMARK    1  A    between atoms: N1_2  and  S1_4 
REMARK    2  A    between atoms: S1_4  and  N2_7 
REMARK    3  A    between atoms: N3_10  and  C4_11 
REMARK    4  A    between atoms: C4_11  and  O3_12 
REMARK    5  A    between atoms: C4_11  and  C5_14 
REMARK    6  A    between atoms: C5_14  and  C12_28 
REMARK       I    between atoms: N4_15  and  C6_17 
REMARK    7  A    between atoms: C6_17  and  C7_19 
REMARK    8  A    between atoms: C7_19  and  N5_20 
REMARK    9  A    between atoms: C7_19  and  C8_24 
REMARK   10  A    between atoms: C8_24  and  C9_25 
REMARK   11  A    between atoms: C18_35  and  O5_36 
ROOT
HETATM    1  C4  UNL     1      47.401  13.642  11.667  1.00  0.00     0.162 C 
ENDROOT
BRANCH   1   2
HETATM    2  N3  UNL     1      46.386  12.699  11.675  1.00  0.00    -0.351 N 
HETATM    3  C3  UNL     1      45.046  12.921  11.301  1.00  0.00     0.112 C 
HETATM    4  C2  UNL     1      44.082  12.861  12.493  1.00  0.00     0.135 C 
HETATM    5  C19 UNL     1      44.435  11.819  10.441  1.00  0.00     0.019 C 
HETATM    6  N2  UNL     1      42.800  12.852  11.831  1.00  0.00    -0.191 NA
HETATM    7  C21 UNL     1      42.949  12.112  10.621  1.00  0.00     0.123 C 
HETATM    8  C18 UNL     1      44.734  10.471  10.977  1.00  0.00     0.165 C 
HETATM    9  C20 UNL     1      44.823  11.989   8.989  1.00  0.00     0.021 C 
HETATM   10  C17 UNL     1      46.202  10.263  11.278  1.00  0.00     0.217 C 
HETATM   11  C16 UNL     1      46.763  11.343  12.141  1.00  0.00     0.165 C 
HETATM   12  F1  UNL     1      46.291   9.075  11.988  1.00  0.00    -0.245 F 
BRANCH   6  13
HETATM   13  S1  UNL     1      41.506  12.348  12.815  1.00  0.00     0.298 S 
HETATM   14  O1  UNL     1      41.565  13.080  14.123  1.00  0.00    -0.188 OA
HETATM   15  O2  UNL     1      41.515  10.861  13.052  1.00  0.00    -0.188 OA
BRANCH  13  16
HETATM   16  N1  UNL     1      39.971  12.701  12.090  1.00  0.00    -0.311 N 
HETATM   17  C1  UNL     1      39.371  11.498  11.525  1.00  0.00     0.160 C 
ATOM     18  H1  UNL     1      39.544  13.627  12.062  1.00  0.00     0.172 HD
ENDBRANCH  13  16
ENDBRANCH   6  13
BRANCH   8  19
HETATM   19  O5  UNL     1      44.420   9.539   9.960  1.00  0.00    -0.392 OA
ATOM     20  H5  UNL     1      43.549   9.221  10.167  1.00  0.00     0.210 HD
ENDBRANCH   8  19
ENDBRANCH   1   2
BRANCH   1  21
HETATM   21  O3  UNL     1      47.683  14.142  12.840  1.00  0.00    -0.345 OA
ATOM     22  H3  UNL     1      47.453  13.582  13.573  1.00  0.00     0.219 HD
ENDBRANCH   1  21
BRANCH   1  23
HETATM   23  C5  UNL     1      48.206  14.171  10.562  1.00  0.00     0.070 C 
HETATM   24  N4  UNL     1      49.052  13.518   9.982  1.00  0.00    -0.324 N 
HETATM   25  C6  UNL     1      49.998  13.440   9.021  1.00  0.00     0.252 C 
ATOM     26  H4  UNL     1      49.043  12.602  10.430  1.00  0.00     0.169 HD
HETATM   27  O4  UNL     1      51.142  13.986   9.244  1.00  0.00    -0.271 OA
BRANCH  25  28
HETATM   28  C7  UNL     1      49.846  12.763   7.689  1.00  0.00     0.275 C 
BRANCH  28  29
HETATM   29  N5  UNL     1      49.753  13.705   6.618  1.00  0.00    -0.066 N 
ATOM     30  H53 UNL     1      49.334  14.582   6.931  1.00  0.00     0.275 HD
ATOM     31  H52 UNL     1      50.674  14.054   6.351  1.00  0.00     0.275 HD
ATOM     32  H51 UNL     1      49.256  13.322   5.815  1.00  0.00     0.275 HD
ENDBRANCH  28  29
BRANCH  28  33
HETATM   33  C8  UNL     1      48.592  11.931   7.750  1.00  0.00     0.046 C 
BRANCH  33  34
HETATM   34  C9  UNL     1      48.846  10.491   7.369  1.00  0.00    -0.020 C 
HETATM   35  C10 UNL     1      50.122   9.952   7.931  1.00  0.00     0.009 C 
HETATM   36  C11 UNL     1      47.709   9.604   7.798  1.00  0.00     0.009 C 
ENDBRANCH  33  34
ENDBRANCH  28  33
ENDBRANCH  25  28
BRANCH  23  37
HETATM   37  C12 UNL     1      47.896  15.593  10.204  1.00  0.00    -0.004 C 
HETATM   38  C13 UNL     1      46.725  16.103  11.040  1.00  0.00     0.021 C 
HETATM   39  C14 UNL     1      47.385  15.585   8.751  1.00  0.00     0.021 C 
HETATM   40  C15 UNL     1      49.023  16.551  10.368  1.00  0.00     0.021 C 
ENDBRANCH  23  37
ENDBRANCH   1  23
TORSDOF 11
ENDMDL
