MODEL 1
REMARK VINA RESULT: -8.017261062      0.000      0.000
REMARK  7 active torsions:
REMARK  status: ('A' for Active; 'I' for Inactive)
REMARK    1  A    between atoms: C4_4  and  N1_5 
REMARK    2  A    between atoms: N1_5  and  C5_7 
REMARK    3  A    between atoms: C5_7  and  C6_9 
REMARK    4  A    between atoms: C6_9  and  N2_10 
REMARK    5  A    between atoms: N2_10  and  C7_11 
REMARK    6  A    between atoms: N2_10  and  S2_23 
REMARK    7  A    between atoms: C7_11  and  C8_12 
ROOT
HETATM    1  N2  UNL     1      48.422  14.631  10.520  1.00  0.00    -0.279 N 
ENDROOT
BRANCH   1   2
HETATM    2  C6  UNL     1      48.140  15.565  11.522  1.00  0.00     0.145 C 
BRANCH   2   3
HETATM    3  C5  UNL     1      47.189  16.646  11.261  1.00  0.00     0.117 C 
HETATM    4  S1  UNL     1      46.070  16.906  12.415  1.00  0.00    -0.059 SA
BRANCH   3   5
HETATM    5  N1  UNL     1      47.188  17.397  10.104  1.00  0.00    -0.346 N 
ATOM      6  H1  UNL     1      46.945  16.888   9.254  1.00  0.00     0.167 HD
BRANCH   5   7
HETATM    7  C4  UNL     1      47.474  18.763   9.925  1.00  0.00     0.034 A 
HETATM    8  C3  UNL     1      47.065  19.791  10.739  1.00  0.00     0.037 A 
HETATM    9  C2  UNL     1      47.358  21.137  10.487  1.00  0.00    -0.042 A 
HETATM   10  C1  UNL     1      46.870  22.195  11.428  1.00  0.00     0.049 C 
HETATM   11  C17 UNL     1      48.096  21.454   9.367  1.00  0.00     0.022 A 
HETATM   12  C15 UNL     1      48.534  20.464   8.516  1.00  0.00    -0.042 A 
HETATM   13 BR1  UNL     1      48.495  23.298   9.030  1.00  0.00    -0.050 Br
HETATM   14  C14 UNL     1      48.225  19.182   8.803  1.00  0.00     0.037 A 
HETATM   15  C16 UNL     1      49.326  20.860   7.327  1.00  0.00     0.049 C 
ENDBRANCH   5   7
ENDBRANCH   3   5
ENDBRANCH   2   3
ENDBRANCH   1   2
BRANCH   1  16
HETATM   16  C7  UNL     1      47.390  13.861   9.945  1.00  0.00     0.187 C 
BRANCH  16  17
HETATM   17  C8  UNL     1      47.286  12.470  10.440  1.00  0.00     0.051 A 
HETATM   18  C9  UNL     1      47.666  11.446   9.573  1.00  0.00     0.023 A 
HETATM   19  C10 UNL     1      48.164  11.800   8.222  1.00  0.00     0.069 C 
HETATM   20  N3  UNL     1      47.571  10.174   9.987  1.00  0.00    -0.312 N 
HETATM   21  C11 UNL     1      47.118   9.879  11.217  1.00  0.00     0.327 A 
ATOM     22  H3  UNL     1      47.847   9.419   9.359  1.00  0.00     0.170 HD
HETATM   23  O1  UNL     1      47.041   8.659  11.576  1.00  0.00    -0.247 OA
HETATM   24  N4  UNL     1      46.755  10.863  12.039  1.00  0.00    -0.275 N 
HETATM   25  C12 UNL     1      46.823  12.185  11.692  1.00  0.00     0.259 A 
ATOM     26  H4  UNL     1      46.412  10.620  12.968  1.00  0.00     0.173 HD
HETATM   27  O2  UNL     1      46.472  13.059  12.493  1.00  0.00    -0.267 OA
ENDBRANCH  16  17
ENDBRANCH   1  16
BRANCH   1  28
HETATM   28  S2  UNL     1      49.627  15.123   9.401  1.00  0.00     0.228 S 
HETATM   29  C13 UNL     1      50.852  13.863   9.189  1.00  0.00     0.186 C 
HETATM   30  O3  UNL     1      50.320  16.388   9.814  1.00  0.00    -0.206 OA
HETATM   31  O4  UNL     1      48.973  15.364   8.074  1.00  0.00    -0.206 OA
ENDBRANCH   1  28
TORSDOF 7
ENDMDL
MODEL 2
REMARK VINA RESULT: -7.856463461      3.672      5.423
REMARK  7 active torsions:
REMARK  status: ('A' for Active; 'I' for Inactive)
REMARK    1  A    between atoms: C4_4  and  N1_5 
REMARK    2  A    between atoms: N1_5  and  C5_7 
REMARK    3  A    between atoms: C5_7  and  C6_9 
REMARK    4  A    between atoms: C6_9  and  N2_10 
REMARK    5  A    between atoms: N2_10  and  C7_11 
REMARK    6  A    between atoms: N2_10  and  S2_23 
REMARK    7  A    between atoms: C7_11  and  C8_12 
ROOT
HETATM    1  N2  UNL     1      45.520  10.881  10.488  1.00  0.00    -0.279 N 
ENDROOT
BRANCH   1   2
HETATM    2  C6  UNL     1      45.596  10.836  11.884  1.00  0.00     0.145 C 
BRANCH   2   3
HETATM    3  C5  UNL     1      45.945  12.045  12.631  1.00  0.00     0.117 C 
HETATM    4  S1  UNL     1      44.859  12.535  13.742  1.00  0.00    -0.059 SA
BRANCH   3   5
HETATM    5  N1  UNL     1      47.098  12.770  12.412  1.00  0.00    -0.346 N 
ATOM      6  H1  UNL     1      47.919  12.450  12.927  1.00  0.00     0.167 HD
BRANCH   5   7
HETATM    7  C4  UNL     1      47.307  13.886  11.581  1.00  0.00     0.034 A 
HETATM    8  C3  UNL     1      47.979  13.892  10.384  1.00  0.00     0.037 A 
HETATM    9  C2  UNL     1      48.179  15.047   9.618  1.00  0.00    -0.042 A 
HETATM   10  C1  UNL     1      48.926  14.963   8.322  1.00  0.00     0.049 C 
HETATM   11  C17 UNL     1      47.677  16.244  10.082  1.00  0.00     0.022 A 
HETATM   12  C15 UNL     1      46.993  16.296  11.277  1.00  0.00    -0.042 A 
HETATM   13 BR1  UNL     1      47.953  17.820   9.029  1.00  0.00    -0.050 Br
HETATM   14  C14 UNL     1      46.828  15.156  11.978  1.00  0.00     0.037 A 
HETATM   15  C16 UNL     1      46.473  17.610  11.730  1.00  0.00     0.049 C 
ENDBRANCH   5   7
ENDBRANCH   3   5
ENDBRANCH   2   3
ENDBRANCH   1   2
BRANCH   1  16
HETATM   16  C7  UNL     1      45.872   9.756   9.713  1.00  0.00     0.187 C 
BRANCH  16  17
HETATM   17  C8  UNL     1      47.279   9.718   9.254  1.00  0.00     0.051 A 
HETATM   18  C9  UNL     1      48.081   8.674   9.715  1.00  0.00     0.023 A 
HETATM   19  C10 UNL     1      47.485   7.661  10.618  1.00  0.00     0.069 C 
HETATM   20  N3  UNL     1      49.363   8.620   9.328  1.00  0.00    -0.312 N 
HETATM   21  C11 UNL     1      49.879   9.550   8.508  1.00  0.00     0.327 A 
ATOM     22  H3  UNL     1      49.956   7.859   9.662  1.00  0.00     0.170 HD
HETATM   23  O1  UNL     1      51.102   9.466   8.162  1.00  0.00    -0.247 OA
HETATM   24  N4  UNL     1      49.107  10.545   8.073  1.00  0.00    -0.275 N 
HETATM   25  C12 UNL     1      47.789  10.671   8.421  1.00  0.00     0.259 A 
ATOM     26  H4  UNL     1      49.516  11.243   7.452  1.00  0.00     0.173 HD
HETATM   27  O2  UNL     1      47.117  11.615   7.989  1.00  0.00    -0.267 OA
ENDBRANCH  16  17
ENDBRANCH   1  16
BRANCH   1  28
HETATM   28  S2  UNL     1      44.179  11.757   9.871  1.00  0.00     0.228 S 
HETATM   29  C13 UNL     1      42.713  11.417  10.803  1.00  0.00     0.186 C 
HETATM   30  O3  UNL     1      43.902  11.452   8.429  1.00  0.00    -0.206 OA
HETATM   31  O4  UNL     1      44.475  13.222   9.987  1.00  0.00    -0.206 OA
ENDBRANCH   1  28
TORSDOF 7
ENDMDL
MODEL 3
REMARK VINA RESULT: -7.849731418      4.413      6.553
REMARK  7 active torsions:
REMARK  status: ('A' for Active; 'I' for Inactive)
REMARK    1  A    between atoms: C4_4  and  N1_5 
REMARK    2  A    between atoms: N1_5  and  C5_7 
REMARK    3  A    between atoms: C5_7  and  C6_9 
REMARK    4  A    between atoms: C6_9  and  N2_10 
REMARK    5  A    between atoms: N2_10  and  C7_11 
REMARK    6  A    between atoms: N2_10  and  S2_23 
REMARK    7  A    between atoms: C7_11  and  C8_12 
ROOT
HETATM    1  N2  UNL     1      45.969  10.825   9.207  1.00  0.00    -0.279 N 
ENDROOT
BRANCH   1   2
HETATM    2  C6  UNL     1      45.974   9.735  10.085  1.00  0.00     0.145 C 
BRANCH   2   3
HETATM    3  C5  UNL     1      46.950   9.685  11.173  1.00  0.00     0.117 C 
HETATM    4  S1  UNL     1      48.061   8.498  11.080  1.00  0.00    -0.059 SA
BRANCH   3   5
HETATM    5  N1  UNL     1      46.940  10.550  12.247  1.00  0.00    -0.346 N 
ATOM      6  H1  UNL     1      47.074  10.115  13.160  1.00  0.00     0.167 HD
BRANCH   5   7
HETATM    7  C4  UNL     1      46.771  11.948  12.267  1.00  0.00     0.034 A 
HETATM    8  C3  UNL     1      47.583  12.872  11.657  1.00  0.00     0.037 A 
HETATM    9  C2  UNL     1      47.376  14.254  11.742  1.00  0.00    -0.042 A 
HETATM   10  C1  UNL     1      48.314  15.192  11.046  1.00  0.00     0.049 C 
HETATM   11  C17 UNL     1      46.303  14.719  12.471  1.00  0.00     0.022 A 
HETATM   12  C15 UNL     1      45.454  13.836  13.102  1.00  0.00    -0.042 A 
HETATM   13 BR1  UNL     1      46.025  16.611  12.582  1.00  0.00    -0.050 Br
HETATM   14  C14 UNL     1      45.697  12.514  12.991  1.00  0.00     0.037 A 
HETATM   15  C16 UNL     1      44.314  14.390  13.873  1.00  0.00     0.049 C 
ENDBRANCH   5   7
ENDBRANCH   3   5
ENDBRANCH   2   3
ENDBRANCH   1   2
BRANCH   1  16
HETATM   16  C7  UNL     1      46.569  10.724   7.934  1.00  0.00     0.187 C 
BRANCH  16  17
HETATM   17  C8  UNL     1      48.005  11.083   7.880  1.00  0.00     0.051 A 
HETATM   18  C9  UNL     1      48.921  10.052   7.676  1.00  0.00     0.023 A 
HETATM   19  C10 UNL     1      48.414   8.668   7.510  1.00  0.00     0.069 C 
HETATM   20  N3  UNL     1      50.229  10.342   7.637  1.00  0.00    -0.312 N 
HETATM   21  C11 UNL     1      50.663  11.604   7.790  1.00  0.00     0.327 A 
ATOM     22  H3  UNL     1      50.905   9.593   7.488  1.00  0.00     0.170 HD
HETATM   23  O1  UNL     1      51.913  11.843   7.746  1.00  0.00    -0.247 OA
HETATM   24  N4  UNL     1      49.781  12.584   7.986  1.00  0.00    -0.275 N 
HETATM   25  C12 UNL     1      48.430  12.370   8.038  1.00  0.00     0.259 A 
ATOM     26  H4  UNL     1      50.129  13.536   8.101  1.00  0.00     0.173 HD
HETATM   27  O2  UNL     1      47.656  13.316   8.224  1.00  0.00    -0.267 OA
ENDBRANCH  16  17
ENDBRANCH   1  16
BRANCH   1  28
HETATM   28  S2  UNL     1      44.524  11.750   9.222  1.00  0.00     0.228 S 
HETATM   29  C13 UNL     1      43.380  11.126  10.420  1.00  0.00     0.186 C 
HETATM   30  O3  UNL     1      43.839  11.777   7.887  1.00  0.00    -0.206 OA
HETATM   31  O4  UNL     1      44.867  13.160   9.596  1.00  0.00    -0.206 OA
ENDBRANCH   1  28
TORSDOF 7
ENDMDL
MODEL 4
REMARK VINA RESULT: -7.841935942      3.575      5.082
REMARK  7 active torsions:
REMARK  status: ('A' for Active; 'I' for Inactive)
REMARK    1  A    between atoms: C4_4  and  N1_5 
REMARK    2  A    between atoms: N1_5  and  C5_7 
REMARK    3  A    between atoms: C5_7  and  C6_9 
REMARK    4  A    between atoms: C6_9  and  N2_10 
REMARK    5  A    between atoms: N2_10  and  C7_11 
REMARK    6  A    between atoms: N2_10  and  S2_23 
REMARK    7  A    between atoms: C7_11  and  C8_12 
ROOT
HETATM    1  N2  UNL     1      45.625  11.056  10.462  1.00  0.00    -0.279 N 
ENDROOT
BRANCH   1   2
HETATM    2  C6  UNL     1      45.751  10.949  11.851  1.00  0.00     0.145 C 
BRANCH   2   3
HETATM    3  C5  UNL     1      46.023  12.144  12.650  1.00  0.00     0.117 C 
HETATM    4  S1  UNL     1      44.887  12.541  13.748  1.00  0.00    -0.059 SA
BRANCH   3   5
HETATM    5  N1  UNL     1      47.145  12.930  12.487  1.00  0.00    -0.346 N 
ATOM      6  H1  UNL     1      47.978  12.607  12.979  1.00  0.00     0.167 HD
BRANCH   5   7
HETATM    7  C4  UNL     1      47.307  14.112  11.741  1.00  0.00     0.034 A 
HETATM    8  C3  UNL     1      46.841  15.358  12.084  1.00  0.00     0.037 A 
HETATM    9  C2  UNL     1      47.010  16.492  11.279  1.00  0.00    -0.042 A 
HETATM   10  C1  UNL     1      46.467  17.813  11.730  1.00  0.00     0.049 C 
HETATM   11  C17 UNL     1      47.679  16.359  10.082  1.00  0.00     0.022 A 
HETATM   12  C15 UNL     1      48.170  15.133   9.689  1.00  0.00    -0.042 A 
HETATM   13 BR1  UNL     1      47.909  17.915   8.987  1.00  0.00    -0.050 Br
HETATM   14  C14 UNL     1      47.980  14.071  10.499  1.00  0.00     0.037 A 
HETATM   15  C16 UNL     1      48.883  15.047   8.391  1.00  0.00     0.049 C 
ENDBRANCH   5   7
ENDBRANCH   3   5
ENDBRANCH   2   3
ENDBRANCH   1   2
BRANCH   1  16
HETATM   16  C7  UNL     1      45.925   9.959   9.627  1.00  0.00     0.187 C 
BRANCH  16  17
HETATM   17  C8  UNL     1      47.337   9.864   9.190  1.00  0.00     0.051 A 
HETATM   18  C9  UNL     1      48.071   8.757   9.615  1.00  0.00     0.023 A 
HETATM   19  C10 UNL     1      47.403   7.738  10.459  1.00  0.00     0.069 C 
HETATM   20  N3  UNL     1      49.356   8.649   9.247  1.00  0.00    -0.312 N 
HETATM   21  C11 UNL     1      49.937   9.586   8.480  1.00  0.00     0.327 A 
ATOM     22  H3  UNL     1      49.900   7.842   9.554  1.00  0.00     0.170 HD
HETATM   23  O1  UNL     1      51.160   9.450   8.150  1.00  0.00    -0.247 OA
HETATM   24  N4  UNL     1      49.229  10.641   8.079  1.00  0.00    -0.275 N 
HETATM   25  C12 UNL     1      47.914  10.825   8.411  1.00  0.00     0.259 A 
ATOM     26  H4  UNL     1      49.688  11.343   7.499  1.00  0.00     0.173 HD
HETATM   27  O2  UNL     1      47.304  11.823   8.013  1.00  0.00    -0.267 OA
ENDBRANCH  16  17
ENDBRANCH   1  16
BRANCH   1  28
HETATM   28  S2  UNL     1      44.280  11.983   9.934  1.00  0.00     0.228 S 
HETATM   29  C13 UNL     1      42.800  11.492  10.772  1.00  0.00     0.186 C 
HETATM   30  O3  UNL     1      44.044  11.871   8.457  1.00  0.00    -0.206 OA
HETATM   31  O4  UNL     1      44.542  13.423  10.254  1.00  0.00    -0.206 OA
ENDBRANCH   1  28
TORSDOF 7
ENDMDL
MODEL 5
REMARK VINA RESULT: -7.762839601      5.368      7.584
REMARK  7 active torsions:
REMARK  status: ('A' for Active; 'I' for Inactive)
REMARK    1  A    between atoms: C4_4  and  N1_5 
REMARK    2  A    between atoms: N1_5  and  C5_7 
REMARK    3  A    between atoms: C5_7  and  C6_9 
REMARK    4  A    between atoms: C6_9  and  N2_10 
REMARK    5  A    between atoms: N2_10  and  C7_11 
REMARK    6  A    between atoms: N2_10  and  S2_23 
REMARK    7  A    between atoms: C7_11  and  C8_12 
ROOT
HETATM    1  N2  UNL     1      44.385  12.172  11.270  1.00  0.00    -0.279 N 
ENDROOT
BRANCH   1   2
HETATM    2  C6  UNL     1      45.071  11.042  11.729  1.00  0.00     0.145 C 
BRANCH   2   3
HETATM    3  C5  UNL     1      45.899  10.270  10.803  1.00  0.00     0.117 C 
HETATM    4  S1  UNL     1      46.374   8.803  11.325  1.00  0.00    -0.059 SA
BRANCH   3   5
HETATM    5  N1  UNL     1      46.303  10.738   9.570  1.00  0.00    -0.346 N 
ATOM      6  H1  UNL     1      45.558  10.850   8.881  1.00  0.00     0.167 HD
BRANCH   5   7
HETATM    7  C4  UNL     1      47.592  11.084   9.123  1.00  0.00     0.034 A 
HETATM    8  C3  UNL     1      48.152  12.337   9.155  1.00  0.00     0.037 A 
HETATM    9  C2  UNL     1      49.433  12.620   8.664  1.00  0.00    -0.042 A 
HETATM   10  C1  UNL     1      49.967  14.018   8.737  1.00  0.00     0.049 C 
HETATM   11  C17 UNL     1      50.176  11.594   8.121  1.00  0.00     0.022 A 
HETATM   12  C15 UNL     1      49.663  10.316   8.065  1.00  0.00    -0.042 A 
HETATM   13 BR1  UNL     1      51.928  11.989   7.453  1.00  0.00    -0.050 Br
HETATM   14  C14 UNL     1      48.424  10.095   8.550  1.00  0.00     0.037 A 
HETATM   15  C16 UNL     1      50.505   9.249   7.472  1.00  0.00     0.049 C 
ENDBRANCH   5   7
ENDBRANCH   3   5
ENDBRANCH   2   3
ENDBRANCH   1   2
BRANCH   1  16
HETATM   16  C7  UNL     1      45.046  13.413  11.150  1.00  0.00     0.187 C 
BRANCH  16  17
HETATM   17  C8  UNL     1      45.104  14.223  12.388  1.00  0.00     0.051 A 
HETATM   18  C9  UNL     1      46.333  14.320  13.039  1.00  0.00     0.023 A 
HETATM   19  C10 UNL     1      47.508  13.629  12.456  1.00  0.00     0.069 C 
HETATM   20  N3  UNL     1      46.415  15.035  14.171  1.00  0.00    -0.312 N 
HETATM   21  C11 UNL     1      45.336  15.653  14.678  1.00  0.00     0.327 A 
ATOM     22  H3  UNL     1      47.311  15.111  14.653  1.00  0.00     0.170 HD
HETATM   23  O1  UNL     1      45.451  16.324  15.755  1.00  0.00    -0.247 OA
HETATM   24  N4  UNL     1      44.165  15.554  14.051  1.00  0.00    -0.275 N 
HETATM   25  C12 UNL     1      43.998  14.845  12.892  1.00  0.00     0.259 A 
ATOM     26  H4  UNL     1      43.356  16.029  14.452  1.00  0.00     0.173 HD
HETATM   27  O2  UNL     1      42.888  14.785  12.351  1.00  0.00    -0.267 OA
ENDBRANCH  16  17
ENDBRANCH   1  16
BRANCH   1  28
HETATM   28  S2  UNL     1      43.253  11.865  10.018  1.00  0.00     0.228 S 
HETATM   29  C13 UNL     1      42.553  10.246  10.176  1.00  0.00     0.186 C 
HETATM   30  O3  UNL     1      43.855  11.986   8.650  1.00  0.00    -0.206 OA
HETATM   31  O4  UNL     1      42.142  12.865  10.127  1.00  0.00    -0.206 OA
ENDBRANCH   1  28
TORSDOF 7
ENDMDL
