MODEL 1
REMARK VINA RESULT: -8.596421278      0.000      0.000
REMARK  6 active torsions:
REMARK  status: ('A' for Active; 'I' for Inactive)
REMARK    1  A    between atoms: O1_2  and  C2_3 
REMARK    2  A    between atoms: C2_3  and  C3_4 
REMARK    3  A    between atoms: C3_4  and  C4_5 
REMARK    4  A    between atoms: C4_5  and  N1_6 
REMARK    5  A    between atoms: N1_6  and  C5_8 
REMARK    6  A    between atoms: C17_22  and  C18_23 
ROOT
HETATM    1  C5  UNL     1      16.021  28.446  13.493  1.00  0.00     0.085 C 
HETATM    2  C6  UNL     1      17.417  28.095  13.176  1.00  0.00     0.026 C 
HETATM    3  C7  UNL     1      17.460  28.052  11.626  1.00  0.00     0.012 C 
HETATM    4  C8  UNL     1      16.184  28.531  11.121  1.00  0.00    -0.030 C 
HETATM    5  C9  UNL     1      15.300  27.340  10.822  1.00  0.00     0.016 C 
HETATM    6  C10 UNL     1      15.614  29.307  12.300  1.00  0.00     0.018 C 
HETATM    7  C11 UNL     1      16.346  30.585  12.229  1.00  0.00     0.020 C 
HETATM    8  C12 UNL     1      16.643  30.860  10.745  1.00  0.00    -0.008 C 
HETATM    9  C13 UNL     1      18.155  31.014  10.644  1.00  0.00     0.018 C 
HETATM   10  C14 UNL     1      16.045  32.132  10.370  1.00  0.00     0.145 C 
HETATM   11  O2  UNL     1      16.920  33.064   9.689  1.00  0.00    -0.315 OA
HETATM   12  C15 UNL     1      16.595  33.488   8.394  1.00  0.00     0.264 C 
HETATM   13  O3  UNL     1      17.386  33.380   7.429  1.00  0.00    -0.265 OA
HETATM   14  C16 UNL     1      15.264  34.077   8.171  1.00  0.00     0.095 C 
HETATM   15  C17 UNL     1      15.113  35.467   7.882  1.00  0.00     0.003 C 
HETATM   16  C21 UNL     1      13.664  35.934   8.005  1.00  0.00     0.006 C 
HETATM   17  C22 UNL     1      12.888  35.297   9.073  1.00  0.00     0.005 C 
HETATM   18  C23 UNL     1      12.964  33.753   8.994  1.00  0.00    -0.013 C 
HETATM   19  C24 UNL     1      11.970  33.290  10.001  1.00  0.00     0.010 C 
HETATM   20  C25 UNL     1      14.379  33.469   9.284  1.00  0.00     0.010 C 
HETATM   21  C26 UNL     1      14.866  32.077   9.377  1.00  0.00     0.021 C 
HETATM   22  C27 UNL     1      14.003  31.006   9.844  1.00  0.00     0.008 C 
HETATM   23  C28 UNL     1      14.718  29.688   9.622  1.00  0.00     0.011 C 
HETATM   24  C29 UNL     1      16.135  29.615  10.076  1.00  0.00    -0.027 C 
HETATM   25  C30 UNL     1      16.974  29.237   8.871  1.00  0.00     0.017 C 
ENDROOT
BRANCH   1  26
HETATM   26  N1  UNL     1      15.724  29.052  14.699  1.00  0.00    -0.397 N 
ATOM     27  H1  UNL     1      16.211  29.915  14.941  1.00  0.00     0.159 HD
BRANCH  26  28
HETATM   28  C4  UNL     1      14.796  28.543  15.600  1.00  0.00     0.058 C 
BRANCH  28  29
HETATM   29  C3  UNL     1      13.410  28.433  15.108  1.00  0.00     0.070 C 
BRANCH  29  30
HETATM   30  C2  UNL     1      13.011  26.998  14.894  1.00  0.00     0.172 C 
BRANCH  30  31
HETATM   31  O1  UNL     1      11.796  26.840  14.302  1.00  0.00    -0.396 OA
HETATM   32  C1  UNL     1      11.783  26.158  13.109  1.00  0.00     0.201 C 
ENDBRANCH  30  31
ENDBRANCH  29  30
ENDBRANCH  28  29
ENDBRANCH  26  28
ENDBRANCH   1  26
BRANCH  15  33
HETATM   33  C18 UNL     1      16.036  36.540   8.292  1.00  0.00    -0.018 C 
HETATM   34  C19 UNL     1      15.410  37.854   8.702  1.00  0.00     0.010 C 
HETATM   35  C20 UNL     1      17.135  36.903   7.348  1.00  0.00     0.010 C 
ENDBRANCH  15  33
TORSDOF 6
ENDMDL
MODEL 2
REMARK VINA RESULT: -8.081903737      3.984      9.097
REMARK  6 active torsions:
REMARK  status: ('A' for Active; 'I' for Inactive)
REMARK    1  A    between atoms: O1_2  and  C2_3 
REMARK    2  A    between atoms: C2_3  and  C3_4 
REMARK    3  A    between atoms: C3_4  and  C4_5 
REMARK    4  A    between atoms: C4_5  and  N1_6 
REMARK    5  A    between atoms: N1_6  and  C5_8 
REMARK    6  A    between atoms: C17_22  and  C18_23 
ROOT
HETATM    1  C5  UNL     1      15.315  38.126   4.430  1.00  0.00     0.085 C 
HETATM    2  C6  UNL     1      16.707  38.583   4.270  1.00  0.00     0.026 C 
HETATM    3  C7  UNL     1      17.243  38.696   5.721  1.00  0.00     0.012 C 
HETATM    4  C8  UNL     1      16.238  38.155   6.622  1.00  0.00    -0.030 C 
HETATM    5  C9  UNL     1      15.409  39.297   7.168  1.00  0.00     0.016 C 
HETATM    6  C10 UNL     1      15.381  37.293   5.707  1.00  0.00     0.018 C 
HETATM    7  C11 UNL     1      16.193  36.071   5.561  1.00  0.00     0.020 C 
HETATM    8  C12 UNL     1      16.972  35.881   6.874  1.00  0.00    -0.008 C 
HETATM    9  C13 UNL     1      18.443  35.832   6.483  1.00  0.00     0.018 C 
HETATM   10  C14 UNL     1      16.627  34.589   7.448  1.00  0.00     0.145 C 
HETATM   11  O2  UNL     1      17.743  33.747   7.826  1.00  0.00    -0.315 OA
HETATM   12  C15 UNL     1      17.886  33.360   9.165  1.00  0.00     0.264 C 
HETATM   13  O3  UNL     1      18.935  33.562   9.819  1.00  0.00    -0.265 OA
HETATM   14  C16 UNL     1      16.747  32.694   9.818  1.00  0.00     0.095 C 
HETATM   15  C17 UNL     1      16.804  31.310  10.168  1.00  0.00     0.003 C 
HETATM   16  C21 UNL     1      15.434  30.743  10.530  1.00  0.00     0.006 C 
HETATM   17  C22 UNL     1      14.308  31.280   9.759  1.00  0.00     0.005 C 
HETATM   18  C23 UNL     1      14.287  32.827   9.779  1.00  0.00    -0.013 C 
HETATM   19  C24 UNL     1      12.989  33.179   9.140  1.00  0.00     0.010 C 
HETATM   20  C25 UNL     1      15.507  33.192   9.040  1.00  0.00     0.010 C 
HETATM   21  C26 UNL     1      15.829  34.608   8.768  1.00  0.00     0.021 C 
HETATM   22  C27 UNL     1      14.782  35.598   8.585  1.00  0.00     0.008 C 
HETATM   23  C28 UNL     1      15.427  36.970   8.538  1.00  0.00     0.011 C 
HETATM   24  C29 UNL     1      16.612  37.116   7.648  1.00  0.00    -0.027 C 
HETATM   25  C30 UNL     1      17.762  37.601   8.508  1.00  0.00     0.017 C 
ENDROOT
BRANCH   1  26
HETATM   26  N1  UNL     1      14.693  37.450   3.397  1.00  0.00    -0.397 N 
ATOM     27  H1  UNL     1      15.243  37.222   2.568  1.00  0.00     0.159 HD
BRANCH  26  28
HETATM   28  C4  UNL     1      13.358  37.067   3.430  1.00  0.00     0.058 C 
BRANCH  28  29
HETATM   29  C3  UNL     1      12.369  38.160   3.383  1.00  0.00     0.070 C 
BRANCH  29  30
HETATM   30  C2  UNL     1      11.573  38.240   4.657  1.00  0.00     0.172 C 
BRANCH  30  31
HETATM   31  O1  UNL     1      11.795  37.209   5.517  1.00  0.00    -0.396 OA
HETATM   32  C1  UNL     1      11.860  37.530   6.852  1.00  0.00     0.201 C 
ENDBRANCH  30  31
ENDBRANCH  29  30
ENDBRANCH  28  29
ENDBRANCH  26  28
ENDBRANCH   1  26
BRANCH  15  33
HETATM   33  C18 UNL     1      17.626  30.284   9.502  1.00  0.00    -0.018 C 
HETATM   34  C19 UNL     1      17.046  28.890   9.433  1.00  0.00     0.010 C 
HETATM   35  C20 UNL     1      19.029  30.106   9.982  1.00  0.00     0.010 C 
ENDBRANCH  15  33
TORSDOF 6
ENDMDL
MODEL 3
REMARK VINA RESULT: -7.662576806      1.712      2.336
REMARK  6 active torsions:
REMARK  status: ('A' for Active; 'I' for Inactive)
REMARK    1  A    between atoms: O1_2  and  C2_3 
REMARK    2  A    between atoms: C2_3  and  C3_4 
REMARK    3  A    between atoms: C3_4  and  C4_5 
REMARK    4  A    between atoms: C4_5  and  N1_6 
REMARK    5  A    between atoms: N1_6  and  C5_8 
REMARK    6  A    between atoms: C17_22  and  C18_23 
ROOT
HETATM    1  C5  UNL     1      16.460  28.491  13.258  1.00  0.00     0.085 C 
HETATM    2  C6  UNL     1      17.850  28.228  12.845  1.00  0.00     0.026 C 
HETATM    3  C7  UNL     1      17.800  28.250  11.294  1.00  0.00     0.012 C 
HETATM    4  C8  UNL     1      16.472  28.681  10.887  1.00  0.00    -0.030 C 
HETATM    5  C9  UNL     1      15.634  27.457  10.589  1.00  0.00     0.016 C 
HETATM    6  C10 UNL     1      15.937  29.376  12.130  1.00  0.00     0.018 C 
HETATM    7  C11 UNL     1      16.597  30.693  12.073  1.00  0.00     0.020 C 
HETATM    8  C12 UNL     1      16.788  31.044  10.587  1.00  0.00    -0.008 C 
HETATM    9  C13 UNL     1      18.281  31.283  10.403  1.00  0.00     0.018 C 
HETATM   10  C14 UNL     1      16.105  32.297  10.304  1.00  0.00     0.145 C 
HETATM   11  O2  UNL     1      16.887  33.301   9.614  1.00  0.00    -0.315 OA
HETATM   12  C15 UNL     1      16.462  33.759   8.360  1.00  0.00     0.264 C 
HETATM   13  O3  UNL     1      17.197  33.733   7.346  1.00  0.00    -0.265 OA
HETATM   14  C16 UNL     1      15.092  34.284   8.242  1.00  0.00     0.095 C 
HETATM   15  C17 UNL     1      14.852  35.674   8.023  1.00  0.00     0.003 C 
HETATM   16  C21 UNL     1      13.392  36.057   8.253  1.00  0.00     0.006 C 
HETATM   17  C22 UNL     1      12.716  35.338   9.335  1.00  0.00     0.005 C 
HETATM   18  C23 UNL     1      12.866  33.804   9.185  1.00  0.00    -0.013 C 
HETATM   19  C24 UNL     1      11.961  33.248  10.227  1.00  0.00     0.010 C 
HETATM   20  C25 UNL     1      14.309  33.585   9.378  1.00  0.00     0.010 C 
HETATM   21  C26 UNL     1      14.870  32.218   9.381  1.00  0.00     0.021 C 
HETATM   22  C27 UNL     1      14.094  31.084   9.850  1.00  0.00     0.008 C 
HETATM   23  C28 UNL     1      14.861  29.816   9.529  1.00  0.00     0.011 C 
HETATM   24  C29 UNL     1      16.304  29.802   9.895  1.00  0.00    -0.027 C 
HETATM   25  C30 UNL     1      17.086  29.518   8.628  1.00  0.00     0.017 C 
ENDROOT
BRANCH   1  26
HETATM   26  N1  UNL     1      16.208  29.030  14.506  1.00  0.00    -0.397 N 
ATOM     27  H1  UNL     1      15.869  29.991  14.559  1.00  0.00     0.159 HD
BRANCH  26  28
HETATM   28  C4  UNL     1      16.392  28.328  15.691  1.00  0.00     0.058 C 
BRANCH  28  29
HETATM   29  C3  UNL     1      17.749  27.798  15.925  1.00  0.00     0.070 C 
BRANCH  29  30
HETATM   30  C2  UNL     1      18.241  28.131  17.307  1.00  0.00     0.172 C 
BRANCH  30  31
HETATM   31  O1  UNL     1      17.250  28.302  18.224  1.00  0.00    -0.396 OA
HETATM   32  C1  UNL     1      17.546  27.941  19.518  1.00  0.00     0.201 C 
ENDBRANCH  30  31
ENDBRANCH  29  30
ENDBRANCH  28  29
ENDBRANCH  26  28
ENDBRANCH   1  26
BRANCH  15  33
HETATM   33  C18 UNL     1      15.742  36.778   8.424  1.00  0.00    -0.018 C 
HETATM   34  C19 UNL     1      15.077  38.038   8.930  1.00  0.00     0.010 C 
HETATM   35  C20 UNL     1      16.760  37.239   7.433  1.00  0.00     0.010 C 
ENDBRANCH  15  33
TORSDOF 6
ENDMDL
MODEL 4
REMARK VINA RESULT: -6.108310866      4.087      9.059
REMARK  6 active torsions:
REMARK  status: ('A' for Active; 'I' for Inactive)
REMARK    1  A    between atoms: O1_2  and  C2_3 
REMARK    2  A    between atoms: C2_3  and  C3_4 
REMARK    3  A    between atoms: C3_4  and  C4_5 
REMARK    4  A    between atoms: C4_5  and  N1_6 
REMARK    5  A    between atoms: N1_6  and  C5_8 
REMARK    6  A    between atoms: C17_22  and  C18_23 
ROOT
HETATM    1  C5  UNL     1      13.841  38.589   5.386  1.00  0.00     0.085 C 
HETATM    2  C6  UNL     1      15.119  39.114   4.872  1.00  0.00     0.026 C 
HETATM    3  C7  UNL     1      16.063  39.100   6.104  1.00  0.00     0.012 C 
HETATM    4  C8  UNL     1      15.376  38.430   7.197  1.00  0.00    -0.030 C 
HETATM    5  C9  UNL     1      14.738  39.477   8.085  1.00  0.00     0.016 C 
HETATM    6  C10 UNL     1      14.291  37.633   6.488  1.00  0.00     0.018 C 
HETATM    7  C11 UNL     1      15.031  36.465   5.976  1.00  0.00     0.020 C 
HETATM    8  C12 UNL     1      16.168  36.173   6.971  1.00  0.00    -0.008 C 
HETATM    9  C13 UNL     1      17.456  36.222   6.160  1.00  0.00     0.018 C 
HETATM   10  C14 UNL     1      16.018  34.817   7.477  1.00  0.00     0.145 C 
HETATM   11  O2  UNL     1      17.203  33.986   7.414  1.00  0.00    -0.315 OA
HETATM   12  C15 UNL     1      17.741  33.470   8.600  1.00  0.00     0.264 C 
HETATM   13  O3  UNL     1      18.935  33.645   8.933  1.00  0.00    -0.265 OA
HETATM   14  C16 UNL     1      16.853  32.696   9.485  1.00  0.00     0.095 C 
HETATM   15  C17 UNL     1      17.023  31.288   9.649  1.00  0.00     0.003 C 
HETATM   16  C21 UNL     1      15.826  30.634  10.335  1.00  0.00     0.006 C 
HETATM   17  C22 UNL     1      14.518  31.201   9.995  1.00  0.00     0.005 C 
HETATM   18  C23 UNL     1      14.492  32.737  10.189  1.00  0.00    -0.013 C 
HETATM   19  C24 UNL     1      13.061  33.100  10.004  1.00  0.00     0.010 C 
HETATM   20  C25 UNL     1      15.434  33.223   9.167  1.00  0.00     0.010 C 
HETATM   21  C26 UNL     1      15.650  34.671   8.968  1.00  0.00     0.021 C 
HETATM   22  C27 UNL     1      14.589  35.632   9.212  1.00  0.00     0.008 C 
HETATM   23  C28 UNL     1      15.181  37.026   9.125  1.00  0.00     0.011 C 
HETATM   24  C29 UNL     1      16.045  37.309   7.946  1.00  0.00    -0.027 C 
HETATM   25  C30 UNL     1      17.396  37.748   8.476  1.00  0.00     0.017 C 
ENDROOT
BRANCH   1  26
HETATM   26  N1  UNL     1      12.945  37.998   4.515  1.00  0.00    -0.397 N 
ATOM     27  H1  UNL     1      13.273  37.737   3.585  1.00  0.00     0.159 HD
BRANCH  26  28
HETATM   28  C4  UNL     1      11.619  37.743   4.843  1.00  0.00     0.058 C 
BRANCH  28  29
HETATM   29  C3  UNL     1      10.714  38.908   4.834  1.00  0.00     0.070 C 
BRANCH  29  30
HETATM   30  C2  UNL     1       9.752  38.868   5.991  1.00  0.00     0.172 C 
BRANCH  30  31
HETATM   31  O1  UNL     1       9.100  37.682   6.132  1.00  0.00    -0.396 OA
HETATM   32  C1  UNL     1       8.957  37.213   7.416  1.00  0.00     0.201 C 
ENDBRANCH  30  31
ENDBRANCH  29  30
ENDBRANCH  28  29
ENDBRANCH  26  28
ENDBRANCH   1  26
BRANCH  15  33
HETATM   33  C18 UNL     1      17.616  30.368   8.662  1.00  0.00    -0.018 C 
HETATM   34  C19 UNL     1      17.064  28.961   8.628  1.00  0.00     0.010 C 
HETATM   35  C20 UNL     1      19.101  30.211   8.672  1.00  0.00     0.010 C 
ENDBRANCH  15  33
TORSDOF 6
ENDMDL
MODEL 5
REMARK VINA RESULT: -5.771816445      1.313      1.683
REMARK  6 active torsions:
REMARK  status: ('A' for Active; 'I' for Inactive)
REMARK    1  A    between atoms: O1_2  and  C2_3 
REMARK    2  A    between atoms: C2_3  and  C3_4 
REMARK    3  A    between atoms: C3_4  and  C4_5 
REMARK    4  A    between atoms: C4_5  and  N1_6 
REMARK    5  A    between atoms: N1_6  and  C5_8 
REMARK    6  A    between atoms: C17_22  and  C18_23 
ROOT
HETATM    1  C5  UNL     1      17.150  28.191  12.672  1.00  0.00     0.085 C 
HETATM    2  C6  UNL     1      18.580  28.304  12.333  1.00  0.00     0.026 C 
HETATM    3  C7  UNL     1      18.592  28.594  10.809  1.00  0.00     0.012 C 
HETATM    4  C8  UNL     1      17.220  28.803  10.374  1.00  0.00    -0.030 C 
HETATM    5  C9  UNL     1      16.684  27.504   9.810  1.00  0.00     0.016 C 
HETATM    6  C10 UNL     1      16.493  29.135  11.669  1.00  0.00     0.018 C 
HETATM    7  C11 UNL     1      16.849  30.550  11.884  1.00  0.00     0.020 C 
HETATM    8  C12 UNL     1      17.021  31.194  10.497  1.00  0.00    -0.008 C 
HETATM    9  C13 UNL     1      18.430  31.769  10.476  1.00  0.00     0.018 C 
HETATM   10  C14 UNL     1      16.090  32.306  10.373  1.00  0.00     0.145 C 
HETATM   11  O2  UNL     1      16.661  33.559   9.924  1.00  0.00    -0.315 OA
HETATM   12  C15 UNL     1      16.198  34.136   8.735  1.00  0.00     0.264 C 
HETATM   13  O3  UNL     1      16.963  34.447   7.792  1.00  0.00    -0.265 OA
HETATM   14  C16 UNL     1      14.752  34.375   8.597  1.00  0.00     0.095 C 
HETATM   15  C17 UNL     1      14.222  35.701   8.594  1.00  0.00     0.003 C 
HETATM   16  C21 UNL     1      12.705  35.722   8.767  1.00  0.00     0.006 C 
HETATM   17  C22 UNL     1      12.159  34.694   9.657  1.00  0.00     0.005 C 
HETATM   18  C23 UNL     1      12.649  33.279   9.266  1.00  0.00    -0.013 C 
HETATM   19  C24 UNL     1      11.846  32.368  10.126  1.00  0.00     0.010 C 
HETATM   20  C25 UNL     1      14.095  33.335   9.535  1.00  0.00     0.010 C 
HETATM   21  C26 UNL     1      14.943  32.138   9.355  1.00  0.00     0.021 C 
HETATM   22  C27 UNL     1      14.416  30.802   9.565  1.00  0.00     0.008 C 
HETATM   23  C28 UNL     1      15.456  29.801   9.100  1.00  0.00     0.011 C 
HETATM   24  C29 UNL     1      16.851  30.024   9.572  1.00  0.00    -0.027 C 
HETATM   25  C30 UNL     1      17.728  30.142   8.342  1.00  0.00     0.017 C 
ENDROOT
BRANCH   1  26
HETATM   26  N1  UNL     1      16.734  28.432  13.967  1.00  0.00    -0.397 N 
ATOM     27  H1  UNL     1      15.868  28.954  14.109  1.00  0.00     0.159 HD
BRANCH  26  28
HETATM   28  C4  UNL     1      17.434  28.000  15.087  1.00  0.00     0.058 C 
BRANCH  28  29
HETATM   29  C3  UNL     1      16.875  28.396  16.393  1.00  0.00     0.070 C 
BRANCH  29  30
HETATM   30  C2  UNL     1      15.400  28.110  16.472  1.00  0.00     0.172 C 
BRANCH  30  31
HETATM   31  O1  UNL     1      14.628  28.957  15.738  1.00  0.00    -0.396 OA
HETATM   32  C1  UNL     1      13.500  28.417  15.168  1.00  0.00     0.201 C 
ENDBRANCH  30  31
ENDBRANCH  29  30
ENDBRANCH  28  29
ENDBRANCH  26  28
ENDBRANCH   1  26
BRANCH  15  33
HETATM   33  C18 UNL     1      14.830  36.876   9.243  1.00  0.00    -0.018 C 
HETATM   34  C19 UNL     1      13.913  37.742  10.077  1.00  0.00     0.010 C 
HETATM   35  C20 UNL     1      15.591  37.825   8.377  1.00  0.00     0.010 C 
ENDBRANCH  15  33
TORSDOF 6
ENDMDL
