MODEL 1
REMARK VINA RESULT: -6.801376411      0.000      0.000
REMARK  8 active torsions:
REMARK  status: ('A' for Active; 'I' for Inactive)
REMARK    1  A    between atoms: C14_17  and  O4_18 
REMARK    2  A    between atoms: C20_25  and  C22_27 
REMARK    3  A    between atoms: C22_27  and  C23_28 
REMARK    4  A    between atoms: C23_28  and  C24_29 
REMARK    5  A    between atoms: C24_29  and  C25_30 
REMARK    6  A    between atoms: C25_30  and  C26_31 
REMARK    7  A    between atoms: C26_31  and  C27_32 
REMARK    8  A    between atoms: C27_32  and  N1_33 
ROOT
HETATM    1  C1  UNL     1      19.278  29.856   7.828  1.00  0.00     0.041 C 
HETATM    2  C2  UNL     1      18.069  29.784   8.701  1.00  0.00     0.137 C 
HETATM    3  O1  UNL     1      17.601  31.054   8.855  1.00  0.00    -0.315 OA
HETATM    4  C3  UNL     1      17.588  31.597  10.077  1.00  0.00     0.264 C 
HETATM    5  O2  UNL     1      17.986  32.761  10.395  1.00  0.00    -0.265 OA
HETATM    6  C4  UNL     1      17.054  30.764  11.184  1.00  0.00     0.096 C 
HETATM    7  C5  UNL     1      15.622  31.211  11.208  1.00  0.00     0.016 C 
HETATM    8  C6  UNL     1      15.069  30.442  10.082  1.00  0.00     0.014 C 
HETATM    9  C7  UNL     1      15.828  29.147  10.047  1.00  0.00     0.066 C 
HETATM   10  C8  UNL     1      14.837  28.119  10.439  1.00  0.00     0.132 C 
HETATM   11  O3  UNL     1      14.354  27.271   9.705  1.00  0.00    -0.298 OA
HETATM   12  C9  UNL     1      14.468  28.207  11.827  1.00  0.00     0.085 C 
HETATM   13  C10 UNL     1      15.703  27.898  12.619  1.00  0.00     0.012 C 
HETATM   14  C11 UNL     1      15.222  27.921  13.989  1.00  0.00    -0.017 C 
HETATM   15  C12 UNL     1      14.064  28.870  14.265  1.00  0.00     0.018 C 
HETATM   16  C13 UNL     1      14.513  26.550  14.233  1.00  0.00     0.018 C 
HETATM   17  C14 UNL     1      16.166  27.994  15.135  1.00  0.00     0.126 C 
HETATM   18  C15 UNL     1      17.384  28.711  14.737  1.00  0.00     0.033 C 
HETATM   19  C16 UNL     1      17.286  29.477  13.438  1.00  0.00     0.013 C 
HETATM   20  C17 UNL     1      16.999  28.569  12.220  1.00  0.00    -0.029 C 
HETATM   21  C18 UNL     1      18.072  27.521  12.535  1.00  0.00     0.016 C 
HETATM   22  C19 UNL     1      17.071  29.256  10.920  1.00  0.00    -0.000 C 
HETATM   23  C20 UNL     1      18.205  28.908   9.941  1.00  0.00    -0.008 C 
HETATM   24  C21 UNL     1      18.049  27.518   9.351  1.00  0.00     0.019 C 
ENDROOT
BRANCH  23  25
HETATM   25  C22 UNL     1      19.592  28.963  10.414  1.00  0.00     0.012 C 
BRANCH  25  26
HETATM   26  C23 UNL     1      20.240  29.862  11.311  1.00  0.00     0.001 C 
BRANCH  26  27
HETATM   27  C24 UNL     1      21.314  30.638  10.530  1.00  0.00     0.000 C 
BRANCH  27  28
HETATM   28  C25 UNL     1      22.018  31.655  11.379  1.00  0.00     0.002 C 
BRANCH  28  29
HETATM   29  C26 UNL     1      23.086  30.995  12.226  1.00  0.00     0.030 C 
BRANCH  29  30
HETATM   30  C27 UNL     1      24.477  31.390  11.864  1.00  0.00     0.271 C 
BRANCH  30  31
HETATM   31  N1  UNL     1      24.569  31.975  10.535  1.00  0.00     0.080 N 
HETATM   32  C28 UNL     1      25.499  33.113  10.531  1.00  0.00     0.309 C 
HETATM   33  C29 UNL     1      25.240  30.954   9.712  1.00  0.00     0.309 C 
ENDBRANCH  30  31
ENDBRANCH  29  30
ENDBRANCH  28  29
ENDBRANCH  27  28
ENDBRANCH  26  27
ENDBRANCH  25  26
ENDBRANCH  23  25
BRANCH  17  34
HETATM   34  O4  UNL     1      15.565  28.534  16.271  1.00  0.00    -0.395 OA
ATOM     35  H4  UNL     1      15.766  28.032  17.052  1.00  0.00     0.210 HD
ENDBRANCH  17  34
TORSDOF 8
ENDMDL
MODEL 2
REMARK VINA RESULT: -6.242460130      1.291      1.878
REMARK  8 active torsions:
REMARK  status: ('A' for Active; 'I' for Inactive)
REMARK    1  A    between atoms: C14_17  and  O4_18 
REMARK    2  A    between atoms: C20_25  and  C22_27 
REMARK    3  A    between atoms: C22_27  and  C23_28 
REMARK    4  A    between atoms: C23_28  and  C24_29 
REMARK    5  A    between atoms: C24_29  and  C25_30 
REMARK    6  A    between atoms: C25_30  and  C26_31 
REMARK    7  A    between atoms: C26_31  and  C27_32 
REMARK    8  A    between atoms: C27_32  and  N1_33 
ROOT
HETATM    1  C1  UNL     1      19.346  29.904   7.847  1.00  0.00     0.041 C 
HETATM    2  C2  UNL     1      18.126  29.818   8.703  1.00  0.00     0.137 C 
HETATM    3  O1  UNL     1      17.638  31.081   8.846  1.00  0.00    -0.315 OA
HETATM    4  C3  UNL     1      17.600  31.628  10.065  1.00  0.00     0.264 C 
HETATM    5  O2  UNL     1      17.976  32.800  10.384  1.00  0.00    -0.265 OA
HETATM    6  C4  UNL     1      17.062  30.792  11.168  1.00  0.00     0.096 C 
HETATM    7  C5  UNL     1      15.624  31.219  11.170  1.00  0.00     0.016 C 
HETATM    8  C6  UNL     1      15.098  30.437  10.040  1.00  0.00     0.014 C 
HETATM    9  C7  UNL     1      15.876  29.153  10.021  1.00  0.00     0.066 C 
HETATM   10  C8  UNL     1      14.894  28.112  10.403  1.00  0.00     0.132 C 
HETATM   11  O3  UNL     1      14.435  27.254   9.665  1.00  0.00    -0.298 OA
HETATM   12  C9  UNL     1      14.505  28.200  11.785  1.00  0.00     0.085 C 
HETATM   13  C10 UNL     1      15.733  27.912  12.595  1.00  0.00     0.012 C 
HETATM   14  C11 UNL     1      15.233  27.933  13.958  1.00  0.00    -0.017 C 
HETATM   15  C12 UNL     1      14.057  28.866  14.214  1.00  0.00     0.018 C 
HETATM   16  C13 UNL     1      14.540  26.553  14.198  1.00  0.00     0.018 C 
HETATM   17  C14 UNL     1      16.159  28.024  15.118  1.00  0.00     0.126 C 
HETATM   18  C15 UNL     1      17.372  28.757  14.733  1.00  0.00     0.033 C 
HETATM   19  C16 UNL     1      17.281  29.517  13.430  1.00  0.00     0.013 C 
HETATM   20  C17 UNL     1      17.025  28.601  12.212  1.00  0.00    -0.029 C 
HETATM   21  C18 UNL     1      18.109  27.569  12.546  1.00  0.00     0.016 C 
HETATM   22  C19 UNL     1      17.105  29.284  10.910  1.00  0.00    -0.000 C 
HETATM   23  C20 UNL     1      18.257  28.948   9.948  1.00  0.00    -0.008 C 
HETATM   24  C21 UNL     1      18.131  27.555   9.362  1.00  0.00     0.019 C 
ENDROOT
BRANCH  23  25
HETATM   25  C22 UNL     1      19.637  29.025  10.441  1.00  0.00     0.012 C 
BRANCH  25  26
HETATM   26  C23 UNL     1      20.268  29.957  11.316  1.00  0.00     0.001 C 
BRANCH  26  27
HETATM   27  C24 UNL     1      21.366  30.695  10.532  1.00  0.00     0.000 C 
BRANCH  27  28
HETATM   28  C25 UNL     1      22.339  31.400  11.431  1.00  0.00     0.002 C 
BRANCH  28  29
HETATM   29  C26 UNL     1      22.733  30.510  12.592  1.00  0.00     0.030 C 
BRANCH  29  30
HETATM   30  C27 UNL     1      22.800  31.217  13.902  1.00  0.00     0.271 C 
BRANCH  30  31
HETATM   31  N1  UNL     1      22.847  30.303  15.034  1.00  0.00     0.080 N 
HETATM   32  C28 UNL     1      22.137  30.869  16.189  1.00  0.00     0.309 C 
HETATM   33  C29 UNL     1      22.024  29.150  14.629  1.00  0.00     0.309 C 
ENDBRANCH  30  31
ENDBRANCH  29  30
ENDBRANCH  28  29
ENDBRANCH  27  28
ENDBRANCH  26  27
ENDBRANCH  25  26
ENDBRANCH  23  25
BRANCH  17  34
HETATM   34  O4  UNL     1      15.534  28.559  16.242  1.00  0.00    -0.395 OA
ATOM     35  H4  UNL     1      15.665  29.498  16.308  1.00  0.00     0.210 HD
ENDBRANCH  17  34
TORSDOF 8
ENDMDL
MODEL 3
REMARK VINA RESULT: -6.159619600      0.852      1.193
REMARK  8 active torsions:
REMARK  status: ('A' for Active; 'I' for Inactive)
REMARK    1  A    between atoms: C14_17  and  O4_18 
REMARK    2  A    between atoms: C20_25  and  C22_27 
REMARK    3  A    between atoms: C22_27  and  C23_28 
REMARK    4  A    between atoms: C23_28  and  C24_29 
REMARK    5  A    between atoms: C24_29  and  C25_30 
REMARK    6  A    between atoms: C25_30  and  C26_31 
REMARK    7  A    between atoms: C26_31  and  C27_32 
REMARK    8  A    between atoms: C27_32  and  N1_33 
ROOT
HETATM    1  C1  UNL     1      19.207  29.873   7.865  1.00  0.00     0.041 C 
HETATM    2  C2  UNL     1      17.996  29.790   8.734  1.00  0.00     0.137 C 
HETATM    3  O1  UNL     1      17.513  31.054   8.884  1.00  0.00    -0.315 OA
HETATM    4  C3  UNL     1      17.490  31.600  10.104  1.00  0.00     0.264 C 
HETATM    5  O2  UNL     1      17.873  32.770  10.419  1.00  0.00    -0.265 OA
HETATM    6  C4  UNL     1      16.963  30.764  11.212  1.00  0.00     0.096 C 
HETATM    7  C5  UNL     1      15.526  31.194  11.231  1.00  0.00     0.016 C 
HETATM    8  C6  UNL     1      14.985  30.415  10.106  1.00  0.00     0.014 C 
HETATM    9  C7  UNL     1      15.760  29.129  10.077  1.00  0.00     0.066 C 
HETATM   10  C8  UNL     1      14.780  28.091  10.470  1.00  0.00     0.132 C 
HETATM   11  O3  UNL     1      14.309  27.234   9.737  1.00  0.00    -0.298 OA
HETATM   12  C9  UNL     1      14.407  28.178  11.856  1.00  0.00     0.085 C 
HETATM   13  C10 UNL     1      15.643  27.887  12.652  1.00  0.00     0.012 C 
HETATM   14  C11 UNL     1      15.159  27.908  14.021  1.00  0.00    -0.017 C 
HETATM   15  C12 UNL     1      13.989  28.843  14.291  1.00  0.00     0.018 C 
HETATM   16  C13 UNL     1      14.465  26.529  14.267  1.00  0.00     0.018 C 
HETATM   17  C14 UNL     1      16.098  27.996  15.170  1.00  0.00     0.126 C 
HETATM   18  C15 UNL     1      17.309  28.726  14.772  1.00  0.00     0.033 C 
HETATM   19  C16 UNL     1      17.205  29.487  13.470  1.00  0.00     0.013 C 
HETATM   20  C17 UNL     1      16.932  28.572  12.254  1.00  0.00    -0.029 C 
HETATM   21  C18 UNL     1      18.017  27.538  12.575  1.00  0.00     0.016 C 
HETATM   22  C19 UNL     1      16.999  29.256  10.952  1.00  0.00    -0.000 C 
HETATM   23  C20 UNL     1      18.139  28.919   9.977  1.00  0.00    -0.008 C 
HETATM   24  C21 UNL     1      18.002  27.526   9.391  1.00  0.00     0.019 C 
ENDROOT
BRANCH  23  25
HETATM   25  C22 UNL     1      19.524  28.992  10.454  1.00  0.00     0.012 C 
BRANCH  25  26
HETATM   26  C23 UNL     1      20.167  29.920  11.325  1.00  0.00     0.001 C 
BRANCH  26  27
HETATM   27  C24 UNL     1      20.965  30.918  10.468  1.00  0.00     0.000 C 
BRANCH  27  28
HETATM   28  C25 UNL     1      22.391  30.495  10.272  1.00  0.00     0.002 C 
BRANCH  28  29
HETATM   29  C26 UNL     1      23.338  31.577  10.745  1.00  0.00     0.030 C 
BRANCH  29  30
HETATM   30  C27 UNL     1      22.803  32.405  11.863  1.00  0.00     0.271 C 
BRANCH  30  31
HETATM   31  N1  UNL     1      23.506  32.181  13.118  1.00  0.00     0.080 N 
HETATM   32  C28 UNL     1      23.120  30.891  13.706  1.00  0.00     0.309 C 
HETATM   33  C29 UNL     1      24.918  32.000  12.738  1.00  0.00     0.309 C 
ENDBRANCH  30  31
ENDBRANCH  29  30
ENDBRANCH  28  29
ENDBRANCH  27  28
ENDBRANCH  26  27
ENDBRANCH  25  26
ENDBRANCH  23  25
BRANCH  17  34
HETATM   34  O4  UNL     1      15.488  28.531  16.302  1.00  0.00    -0.395 OA
ATOM     35  H4  UNL     1      16.058  29.139  16.759  1.00  0.00     0.210 HD
ENDBRANCH  17  34
TORSDOF 8
ENDMDL
MODEL 4
REMARK VINA RESULT: -6.152618298      6.768      9.186
REMARK  8 active torsions:
REMARK  status: ('A' for Active; 'I' for Inactive)
REMARK    1  A    between atoms: C14_17  and  O4_18 
REMARK    2  A    between atoms: C20_25  and  C22_27 
REMARK    3  A    between atoms: C22_27  and  C23_28 
REMARK    4  A    between atoms: C23_28  and  C24_29 
REMARK    5  A    between atoms: C24_29  and  C25_30 
REMARK    6  A    between atoms: C25_30  and  C26_31 
REMARK    7  A    between atoms: C26_31  and  C27_32 
REMARK    8  A    between atoms: C27_32  and  N1_33 
ROOT
HETATM    1  C1  UNL     1      16.432  38.626   6.385  1.00  0.00     0.041 C 
HETATM    2  C2  UNL     1      15.044  38.526   6.924  1.00  0.00     0.137 C 
HETATM    3  O1  UNL     1      14.922  39.453   7.914  1.00  0.00    -0.315 OA
HETATM    4  C3  UNL     1      14.686  39.042   9.164  1.00  0.00     0.264 C 
HETATM    5  O2  UNL     1      15.273  39.441  10.218  1.00  0.00    -0.265 OA
HETATM    6  C4  UNL     1      13.630  38.015   9.353  1.00  0.00     0.096 C 
HETATM    7  C5  UNL     1      12.443  38.883   9.647  1.00  0.00     0.016 C 
HETATM    8  C6  UNL     1      12.070  39.319   8.292  1.00  0.00     0.014 C 
HETATM    9  C7  UNL     1      12.415  38.179   7.377  1.00  0.00     0.066 C 
HETATM   10  C8  UNL     1      11.107  37.665   6.908  1.00  0.00     0.132 C 
HETATM   11  O3  UNL     1      10.657  37.772   5.777  1.00  0.00    -0.298 OA
HETATM   12  C9  UNL     1      10.371  36.997   7.948  1.00  0.00     0.085 C 
HETATM   13  C10 UNL     1      11.167  35.785   8.326  1.00  0.00     0.012 C 
HETATM   14  C11 UNL     1      10.317  35.131   9.304  1.00  0.00    -0.017 C 
HETATM   15  C12 UNL     1       9.440  36.056  10.137  1.00  0.00     0.018 C 
HETATM   16  C13 UNL     1       9.216  34.370   8.497  1.00  0.00     0.018 C 
HETATM   17  C14 UNL     1      10.845  34.065  10.196  1.00  0.00     0.126 C 
HETATM   18  C15 UNL     1      12.275  34.286  10.447  1.00  0.00     0.033 C 
HETATM   19  C16 UNL     1      12.795  35.650  10.058  1.00  0.00     0.013 C 
HETATM   20  C17 UNL     1      12.656  35.943   8.547  1.00  0.00    -0.029 C 
HETATM   21  C18 UNL     1      13.247  34.614   8.063  1.00  0.00     0.016 C 
HETATM   22  C19 UNL     1      13.309  37.187   8.106  1.00  0.00    -0.000 C 
HETATM   23  C20 UNL     1      14.546  37.111   7.194  1.00  0.00    -0.008 C 
HETATM   24  C21 UNL     1      14.200  36.636   5.795  1.00  0.00     0.019 C 
ENDROOT
BRANCH  23  25
HETATM   25  C22 UNL     1      15.679  36.276   7.605  1.00  0.00     0.012 C 
BRANCH  25  26
HETATM   26  C23 UNL     1      16.305  35.165   6.966  1.00  0.00     0.001 C 
BRANCH  26  27
HETATM   27  C24 UNL     1      17.143  34.411   8.013  1.00  0.00     0.000 C 
BRANCH  27  28
HETATM   28  C25 UNL     1      16.565  33.067   8.350  1.00  0.00     0.002 C 
BRANCH  28  29
HETATM   29  C26 UNL     1      16.076  33.042   9.783  1.00  0.00     0.030 C 
BRANCH  29  30
HETATM   30  C27 UNL     1      15.473  31.742  10.194  1.00  0.00     0.271 C 
BRANCH  30  31
HETATM   31  N1  UNL     1      16.468  30.773  10.631  1.00  0.00     0.080 N 
HETATM   32  C28 UNL     1      16.328  30.495  12.067  1.00  0.00     0.309 C 
HETATM   33  C29 UNL     1      16.084  29.510   9.977  1.00  0.00     0.309 C 
ENDBRANCH  30  31
ENDBRANCH  29  30
ENDBRANCH  28  29
ENDBRANCH  27  28
ENDBRANCH  26  27
ENDBRANCH  25  26
ENDBRANCH  23  25
BRANCH  17  34
HETATM   34  O4  UNL     1      10.099  33.948  11.367  1.00  0.00    -0.395 OA
ATOM     35  H4  UNL     1      10.125  33.066  11.718  1.00  0.00     0.210 HD
ENDBRANCH  17  34
TORSDOF 8
ENDMDL
MODEL 5
REMARK VINA RESULT: -6.123887994      7.032     10.981
REMARK  8 active torsions:
REMARK  status: ('A' for Active; 'I' for Inactive)
REMARK    1  A    between atoms: C14_17  and  O4_18 
REMARK    2  A    between atoms: C20_25  and  C22_27 
REMARK    3  A    between atoms: C22_27  and  C23_28 
REMARK    4  A    between atoms: C23_28  and  C24_29 
REMARK    5  A    between atoms: C24_29  and  C25_30 
REMARK    6  A    between atoms: C25_30  and  C26_31 
REMARK    7  A    between atoms: C26_31  and  C27_32 
REMARK    8  A    between atoms: C27_32  and  N1_33 
ROOT
HETATM    1  C1  UNL     1      10.723  39.345   8.753  1.00  0.00     0.041 C 
HETATM    2  C2  UNL     1      12.060  38.927   8.237  1.00  0.00     0.137 C 
HETATM    3  O1  UNL     1      11.991  38.926   6.877  1.00  0.00    -0.315 OA
HETATM    4  C3  UNL     1      12.158  37.775   6.219  1.00  0.00     0.264 C 
HETATM    5  O2  UNL     1      11.439  37.331   5.270  1.00  0.00    -0.265 OA
HETATM    6  C4  UNL     1      13.299  36.917   6.630  1.00  0.00     0.096 C 
HETATM    7  C5  UNL     1      14.353  37.369   5.664  1.00  0.00     0.016 C 
HETATM    8  C6  UNL     1      14.795  38.622   6.296  1.00  0.00     0.014 C 
HETATM    9  C7  UNL     1      14.661  38.413   7.777  1.00  0.00     0.066 C 
HETATM   10  C8  UNL     1      16.054  38.385   8.280  1.00  0.00     0.132 C 
HETATM   11  O3  UNL     1      16.588  39.246   8.962  1.00  0.00    -0.298 OA
HETATM   12  C9  UNL     1      16.763  37.199   7.878  1.00  0.00     0.085 C 
HETATM   13  C10 UNL     1      16.073  36.043   8.537  1.00  0.00     0.012 C 
HETATM   14  C11 UNL     1      16.899  34.913   8.154  1.00  0.00    -0.017 C 
HETATM   15  C12 UNL     1      17.592  35.031   6.803  1.00  0.00     0.018 C 
HETATM   16  C13 UNL     1      18.144  34.933   9.098  1.00  0.00     0.018 C 
HETATM   17  C14 UNL     1      16.413  33.516   8.306  1.00  0.00     0.126 C 
HETATM   18  C15 UNL     1      14.951  33.478   8.175  1.00  0.00     0.033 C 
HETATM   19  C16 UNL     1      14.321  34.727   7.605  1.00  0.00     0.013 C 
HETATM   20  C17 UNL     1      14.562  35.980   8.479  1.00  0.00    -0.029 C 
HETATM   21  C18 UNL     1      14.165  35.334   9.811  1.00  0.00     0.016 C 
HETATM   22  C19 UNL     1      13.818  37.175   8.047  1.00  0.00    -0.000 C 
HETATM   23  C20 UNL     1      12.684  37.722   8.930  1.00  0.00    -0.008 C 
HETATM   24  C21 UNL     1      13.203  38.342  10.214  1.00  0.00     0.019 C 
ENDROOT
BRANCH  23  25
HETATM   25  C22 UNL     1      11.617  36.811   9.357  1.00  0.00     0.012 C 
BRANCH  25  26
HETATM   26  C23 UNL     1      10.876  35.832   8.632  1.00  0.00     0.001 C 
BRANCH  26  27
HETATM   27  C24 UNL     1      10.583  34.650   9.573  1.00  0.00     0.000 C 
BRANCH  27  28
HETATM   28  C25 UNL     1       9.129  34.276   9.589  1.00  0.00     0.002 C 
BRANCH  28  29
HETATM   29  C26 UNL     1       8.950  32.852  10.071  1.00  0.00     0.030 C 
BRANCH  29  30
HETATM   30  C27 UNL     1      10.199  32.039  10.038  1.00  0.00     0.271 C 
BRANCH  30  31
HETATM   31  N1  UNL     1      10.032  30.780   9.326  1.00  0.00     0.080 N 
HETATM   32  C28 UNL     1      11.226  29.937   9.475  1.00  0.00     0.309 C 
HETATM   33  C29 UNL     1       8.982  30.059  10.064  1.00  0.00     0.309 C 
ENDBRANCH  30  31
ENDBRANCH  29  30
ENDBRANCH  28  29
ENDBRANCH  27  28
ENDBRANCH  26  27
ENDBRANCH  25  26
ENDBRANCH  23  25
BRANCH  17  34
HETATM   34  O4  UNL     1      17.059  32.642   7.434  1.00  0.00    -0.395 OA
ATOM     35  H4  UNL     1      17.749  32.153   7.868  1.00  0.00     0.210 HD
ENDBRANCH  17  34
TORSDOF 8
ENDMDL
