MODEL 1
REMARK VINA RESULT: -7.361452370      0.000      0.000
REMARK  4 active torsions:
REMARK  status: ('A' for Active; 'I' for Inactive)
REMARK    1  A    between atoms: C1_2  and  C2_4 
REMARK    2  A    between atoms: C4_9  and  N4_10 
REMARK    3  A    between atoms: C9_20  and  N7_21 
REMARK    4  A    between atoms: N7_21  and  O2_23 
ROOT
HETATM    1  C2  UNL     1     -19.493  57.609 -34.388  1.00  0.00     0.117 A 
HETATM    2  C3  UNL     1     -18.243  57.276 -34.854  1.00  0.00     0.151 A 
HETATM    3  N2  UNL     1     -17.882  55.879 -34.905  1.00  0.00    -0.081 NA
HETATM    4  N3  UNL     1     -17.380  58.227 -35.254  1.00  0.00    -0.178 N 
ATOM      5  H3  UNL     1     -16.459  57.953 -35.596  1.00  0.00     0.185 HD
HETATM    6  C4  UNL     1     -17.705  59.535 -35.212  1.00  0.00     0.683 A 
HETATM    7  N6  UNL     1     -18.930  59.849 -34.754  1.00  0.00    -0.174 N 
ATOM      8  H6  UNL     1     -19.190  60.835 -34.716  1.00  0.00     0.186 HD
HETATM    9  C9  UNL     1     -19.832  58.942 -34.341  1.00  0.00     0.159 A 
ENDROOT
BRANCH   6  10
HETATM   10  N4  UNL     1     -16.766  60.542 -35.645  1.00  0.00    -0.214 N 
HETATM   11  C5  UNL     1     -17.110  61.389 -36.741  1.00  0.00     0.168 C 
HETATM   12  C6  UNL     1     -16.138  62.541 -36.848  1.00  0.00     0.252 C 
HETATM   13  N5  UNL     1     -14.803  61.967 -36.866  1.00  0.00    -0.072 N 
HETATM   14  C7  UNL     1     -14.451  61.377 -35.599  1.00  0.00     0.252 C 
ATOM     15  H52 UNL     1     -14.699  61.297 -37.627  1.00  0.00     0.277 HD
ATOM     16  H51 UNL     1     -14.109  62.654 -37.160  1.00  0.00     0.277 HD
HETATM   17  C8  UNL     1     -15.536  60.626 -34.937  1.00  0.00     0.168 C 
ENDBRANCH   6  10
BRANCH   9  18
HETATM   18  N7  UNL     1     -21.003  59.257 -33.904  1.00  0.00    -0.252 N 
ATOM     19  H7  UNL     1     -21.217  59.085 -32.921  1.00  0.00     0.196 HD
BRANCH  18  20
HETATM   20  O2  UNL     1     -21.971  59.808 -34.692  1.00  0.00    -0.288 OA
ATOM     21  H2  UNL     1     -22.806  60.109 -34.355  1.00  0.00     0.244 HD
ENDBRANCH  18  20
ENDBRANCH   9  18
BRANCH   1  22
HETATM   22  C1  UNL     1     -20.463  56.622 -33.943  1.00  0.00     0.272 C 
HETATM   23  N1  UNL     1     -20.569  56.265 -32.573  1.00  0.00    -0.057 NA
HETATM   24  O1  UNL     1     -21.239  56.056 -34.756  1.00  0.00    -0.271 OA
ENDBRANCH   1  22
TORSDOF 4
ENDMDL
MODEL 2
REMARK VINA RESULT: -7.267848653      0.738      1.332
REMARK  4 active torsions:
REMARK  status: ('A' for Active; 'I' for Inactive)
REMARK    1  A    between atoms: C1_2  and  C2_4 
REMARK    2  A    between atoms: C4_9  and  N4_10 
REMARK    3  A    between atoms: C9_20  and  N7_21 
REMARK    4  A    between atoms: N7_21  and  O2_23 
ROOT
HETATM    1  C2  UNL     1     -19.255  57.482 -34.487  1.00  0.00     0.117 A 
HETATM    2  C3  UNL     1     -18.041  56.969 -34.879  1.00  0.00     0.151 A 
HETATM    3  N2  UNL     1     -17.890  55.534 -34.935  1.00  0.00    -0.081 NA
HETATM    4  N3  UNL     1     -17.019  57.784 -35.202  1.00  0.00    -0.178 N 
ATOM      5  H3  UNL     1     -16.129  57.377 -35.490  1.00  0.00     0.185 HD
HETATM    6  C4  UNL     1     -17.147  59.125 -35.155  1.00  0.00     0.683 A 
HETATM    7  N6  UNL     1     -18.339  59.615 -34.770  1.00  0.00    -0.174 N 
ATOM      8  H6  UNL     1     -18.450  60.628 -34.729  1.00  0.00     0.186 HD
HETATM    9  C9  UNL     1     -19.392  58.850 -34.435  1.00  0.00     0.159 A 
ENDROOT
BRANCH   6  10
HETATM   10  N4  UNL     1     -16.041  59.983 -35.505  1.00  0.00    -0.214 N 
HETATM   11  C5  UNL     1     -15.068  60.304 -34.511  1.00  0.00     0.168 C 
HETATM   12  C6  UNL     1     -13.862  60.962 -35.141  1.00  0.00     0.252 C 
HETATM   13  N5  UNL     1     -14.357  62.067 -35.946  1.00  0.00    -0.072 N 
HETATM   14  C7  UNL     1     -15.099  61.611 -37.093  1.00  0.00     0.252 C 
ATOM     15  H52 UNL     1     -14.906  62.717 -35.384  1.00  0.00     0.277 HD
ATOM     16  H51 UNL     1     -13.599  62.693 -36.220  1.00  0.00     0.277 HD
HETATM   17  C8  UNL     1     -15.992  60.462 -36.843  1.00  0.00     0.168 C 
ENDBRANCH   6  10
BRANCH   9  18
HETATM   18  N7  UNL     1     -20.530  59.334 -34.068  1.00  0.00    -0.252 N 
ATOM     19  H7  UNL     1     -20.750  59.353 -33.072  1.00  0.00     0.196 HD
BRANCH  18  20
HETATM   20  O2  UNL     1     -21.452  59.820 -34.948  1.00  0.00    -0.288 OA
ATOM     21  H2  UNL     1     -22.296  59.409 -35.094  1.00  0.00     0.244 HD
ENDBRANCH  18  20
ENDBRANCH   9  18
BRANCH   1  22
HETATM   22  C1  UNL     1     -20.390  56.649 -34.127  1.00  0.00     0.272 C 
HETATM   23  N1  UNL     1     -20.612  56.256 -32.781  1.00  0.00    -0.057 NA
HETATM   24  O1  UNL     1     -21.209  56.251 -34.995  1.00  0.00    -0.271 OA
ENDBRANCH   1  22
TORSDOF 4
ENDMDL
MODEL 3
REMARK VINA RESULT: -7.187511284      1.241      2.603
REMARK  4 active torsions:
REMARK  status: ('A' for Active; 'I' for Inactive)
REMARK    1  A    between atoms: C1_2  and  C2_4 
REMARK    2  A    between atoms: C4_9  and  N4_10 
REMARK    3  A    between atoms: C9_20  and  N7_21 
REMARK    4  A    between atoms: N7_21  and  O2_23 
ROOT
HETATM    1  C2  UNL     1     -19.331  57.260 -34.372  1.00  0.00     0.117 A 
HETATM    2  C3  UNL     1     -19.590  58.604 -34.241  1.00  0.00     0.151 A 
HETATM    3  N2  UNL     1     -20.892  59.006 -33.764  1.00  0.00    -0.081 NA
HETATM    4  N3  UNL     1     -18.654  59.520 -34.549  1.00  0.00    -0.178 N 
ATOM      5  H3  UNL     1     -18.872  60.511 -34.442  1.00  0.00     0.185 HD
HETATM    6  C4  UNL     1     -17.434  59.158 -34.994  1.00  0.00     0.683 A 
HETATM    7  N6  UNL     1     -17.193  57.841 -35.119  1.00  0.00    -0.174 N 
ATOM      8  H6  UNL     1     -16.274  57.551 -35.456  1.00  0.00     0.186 HD
HETATM    9  C9  UNL     1     -18.088  56.883 -34.828  1.00  0.00     0.159 A 
ENDROOT
BRANCH   6  10
HETATM   10  N4  UNL     1     -16.442  60.154 -35.320  1.00  0.00    -0.214 N 
HETATM   11  C5  UNL     1     -16.620  60.957 -36.487  1.00  0.00     0.168 C 
HETATM   12  C6  UNL     1     -15.644  62.111 -36.491  1.00  0.00     0.252 C 
HETATM   13  N5  UNL     1     -14.320  61.546 -36.287  1.00  0.00    -0.072 N 
HETATM   14  C7  UNL     1     -14.161  61.006 -34.961  1.00  0.00     0.252 C 
ATOM     15  H52 UNL     1     -14.102  60.848 -36.999  1.00  0.00     0.277 HD
ATOM     16  H51 UNL     1     -13.591  62.227 -36.501  1.00  0.00     0.277 HD
HETATM   17  C8  UNL     1     -15.331  60.273 -34.439  1.00  0.00     0.168 C 
ENDBRANCH   6  10
BRANCH   9  18
HETATM   18  N7  UNL     1     -17.843  55.622 -34.952  1.00  0.00    -0.252 N 
ATOM     19  H7  UNL     1     -18.588  54.960 -34.737  1.00  0.00     0.196 HD
BRANCH  18  20
HETATM   20  O2  UNL     1     -16.635  55.134 -35.356  1.00  0.00    -0.288 OA
ATOM     21  H2  UNL     1     -15.839  55.652 -35.354  1.00  0.00     0.244 HD
ENDBRANCH  18  20
ENDBRANCH   9  18
BRANCH   1  22
HETATM   22  C1  UNL     1     -20.305  56.229 -34.054  1.00  0.00     0.272 C 
HETATM   23  N1  UNL     1     -20.354  55.641 -32.763  1.00  0.00    -0.057 NA
HETATM   24  O1  UNL     1     -21.134  55.828 -34.911  1.00  0.00    -0.271 OA
ENDBRANCH   1  22
TORSDOF 4
ENDMDL
MODEL 4
REMARK VINA RESULT: -6.953194857      1.358      2.885
REMARK  4 active torsions:
REMARK  status: ('A' for Active; 'I' for Inactive)
REMARK    1  A    between atoms: C1_2  and  C2_4 
REMARK    2  A    between atoms: C4_9  and  N4_10 
REMARK    3  A    between atoms: C9_20  and  N7_21 
REMARK    4  A    between atoms: N7_21  and  O2_23 
ROOT
HETATM    1  C2  UNL     1     -19.126  57.454 -34.537  1.00  0.00     0.117 A 
HETATM    2  C3  UNL     1     -19.272  58.820 -34.512  1.00  0.00     0.151 A 
HETATM    3  N2  UNL     1     -20.552  59.365 -34.123  1.00  0.00    -0.081 NA
HETATM    4  N3  UNL     1     -18.249  59.630 -34.841  1.00  0.00    -0.178 N 
ATOM      5  H3  UNL     1     -18.384  60.641 -34.814  1.00  0.00     0.185 HD
HETATM    6  C4  UNL     1     -17.049  59.134 -35.205  1.00  0.00     0.683 A 
HETATM    7  N6  UNL     1     -16.918  57.796 -35.226  1.00  0.00    -0.174 N 
ATOM      8  H6  UNL     1     -16.016  57.407 -35.500  1.00  0.00     0.186 HD
HETATM    9  C9  UNL     1     -17.904  56.941 -34.909  1.00  0.00     0.159 A 
ENDROOT
BRANCH   6  10
HETATM   10  N4  UNL     1     -15.962  60.017 -35.555  1.00  0.00    -0.214 N 
HETATM   11  C5  UNL     1     -15.003  60.368 -34.558  1.00  0.00     0.168 C 
HETATM   12  C6  UNL     1     -13.810  61.052 -35.186  1.00  0.00     0.252 C 
HETATM   13  N5  UNL     1     -14.327  62.140 -36.000  1.00  0.00    -0.072 N 
HETATM   14  C7  UNL     1     -15.052  61.658 -37.149  1.00  0.00     0.252 C 
ATOM     15  H52 UNL     1     -14.896  62.779 -35.446  1.00  0.00     0.277 HD
ATOM     16  H51 UNL     1     -13.584  62.782 -36.274  1.00  0.00     0.277 HD
HETATM   17  C8  UNL     1     -15.918  60.489 -36.896  1.00  0.00     0.168 C 
ENDBRANCH   6  10
BRANCH   9  18
HETATM   18  N7  UNL     1     -17.765  55.659 -34.933  1.00  0.00    -0.252 N 
ATOM     19  H7  UNL     1     -18.549  55.079 -34.632  1.00  0.00     0.196 HD
BRANCH  18  20
HETATM   20  O2  UNL     1     -16.620  55.041 -35.342  1.00  0.00    -0.288 OA
ATOM     21  H2  UNL     1     -16.316  54.217 -34.978  1.00  0.00     0.244 HD
ENDBRANCH  18  20
ENDBRANCH   9  18
BRANCH   1  22
HETATM   22  C1  UNL     1     -20.198  56.535 -34.192  1.00  0.00     0.272 C 
HETATM   23  N1  UNL     1     -20.352  56.054 -32.865  1.00  0.00    -0.057 NA
HETATM   24  O1  UNL     1     -21.022  56.138 -35.057  1.00  0.00    -0.271 OA
ENDBRANCH   1  22
TORSDOF 4
ENDMDL
MODEL 5
REMARK VINA RESULT: -6.856799326      1.363      1.449
REMARK  4 active torsions:
REMARK  status: ('A' for Active; 'I' for Inactive)
REMARK    1  A    between atoms: C1_2  and  C2_4 
REMARK    2  A    between atoms: C4_9  and  N4_10 
REMARK    3  A    between atoms: C9_20  and  N7_21 
REMARK    4  A    between atoms: N7_21  and  O2_23 
ROOT
HETATM    1  C2  UNL     1     -18.536  58.057 -34.765  1.00  0.00     0.117 A 
HETATM    2  C3  UNL     1     -17.280  57.634 -35.129  1.00  0.00     0.151 A 
HETATM    3  N2  UNL     1     -17.020  56.214 -35.165  1.00  0.00    -0.081 NA
HETATM    4  N3  UNL     1     -16.318  58.520 -35.445  1.00  0.00    -0.178 N 
ATOM      5  H3  UNL     1     -15.394  58.179 -35.712  1.00  0.00     0.185 HD
HETATM    6  C4  UNL     1     -16.548  59.848 -35.416  1.00  0.00     0.683 A 
HETATM    7  N6  UNL     1     -17.780  60.251 -35.058  1.00  0.00    -0.174 N 
ATOM      8  H6  UNL     1     -17.968  61.253 -35.031  1.00  0.00     0.186 HD
HETATM    9  C9  UNL     1     -18.778  59.412 -34.732  1.00  0.00     0.159 A 
ENDROOT
BRANCH   6  10
HETATM   10  N4  UNL     1     -15.504  60.784 -35.758  1.00  0.00    -0.214 N 
HETATM   11  C5  UNL     1     -15.670  61.626 -36.899  1.00  0.00     0.168 C 
HETATM   12  C6  UNL     1     -14.619  62.712 -36.916  1.00  0.00     0.252 C 
HETATM   13  N5  UNL     1     -13.330  62.055 -36.776  1.00  0.00    -0.072 N 
HETATM   14  C7  UNL     1     -13.158  61.474 -35.469  1.00  0.00     0.252 C 
ATOM     15  H52 UNL     1     -13.186  61.362 -37.510  1.00  0.00     0.277 HD
ATOM     16  H51 UNL     1     -12.565  62.691 -37.002  1.00  0.00     0.277 HD
HETATM   17  C8  UNL     1     -14.356  60.808 -34.919  1.00  0.00     0.168 C 
ENDBRANCH   6  10
BRANCH   9  18
HETATM   18  N7  UNL     1     -19.955  59.811 -34.390  1.00  0.00    -0.252 N 
ATOM     19  H7  UNL     1     -20.103  60.122 -33.430  1.00  0.00     0.196 HD
BRANCH  18  20
HETATM   20  O2  UNL     1     -21.013  59.838 -35.252  1.00  0.00    -0.288 OA
ATOM     21  H2  UNL     1     -21.381  59.056 -35.646  1.00  0.00     0.244 HD
ENDBRANCH  18  20
ENDBRANCH   9  18
BRANCH   1  22
HETATM   22  C1  UNL     1     -19.611  57.144 -34.414  1.00  0.00     0.272 C 
HETATM   23  N1  UNL     1     -20.479  56.619 -35.406  1.00  0.00    -0.057 NA
HETATM   24  O1  UNL     1     -19.803  56.790 -33.222  1.00  0.00    -0.271 OA
ENDBRANCH   1  22
TORSDOF 4
ENDMDL
