MODEL 1
REMARK VINA RESULT: -6.743236518      0.000      0.000
REMARK  5 active torsions:
REMARK  status: ('A' for Active; 'I' for Inactive)
REMARK    1  A    between atoms: O1_2  and  C2_3 
REMARK    2  A    between atoms: C3_6  and  N2_7 
REMARK    3  A    between atoms: C6_12  and  N4_13 
REMARK       I    between atoms: N4_13  and  C7_14 
REMARK       I    between atoms: C7_14  and  N5_16 
REMARK    4  A    between atoms: N5_16  and  N6_18 
REMARK    5  A    between atoms: N6_18  and  N7_19 
ROOT
HETATM    1  C2  UNL     1     -20.334  57.029 -33.523  1.00  0.00     0.241 A 
HETATM    2  N1  UNL     1     -19.207  57.748 -33.439  1.00  0.00    -0.154 N 
ATOM      3  H1  UNL     1     -18.713  57.809 -32.548  1.00  0.00     0.188 HD
HETATM    4  C3  UNL     1     -18.718  58.393 -34.519  1.00  0.00     0.686 A 
HETATM    5  N3  UNL     1     -19.365  58.316 -35.685  1.00  0.00    -0.148 N 
ATOM      6  H3  UNL     1     -18.983  58.809 -36.492  1.00  0.00     0.188 HD
HETATM    7  C6  UNL     1     -20.526  57.596 -35.840  1.00  0.00     0.281 A 
HETATM    8  N8  UNL     1     -20.947  56.973 -34.689  1.00  0.00    -0.281 N 
ATOM      9  H8  UNL     1     -21.803  56.422 -34.741  1.00  0.00     0.173 HD
ENDROOT
BRANCH   7  10
HETATM   10  N4  UNL     1     -21.144  57.518 -36.865  1.00  0.00    -0.314 NA
HETATM   11  C7  UNL     1     -21.643  57.402 -38.065  1.00  0.00     0.413 C 
HETATM   12  O2  UNL     1     -22.782  56.839 -38.283  1.00  0.00    -0.229 OA
HETATM   13  N5  UNL     1     -20.988  57.879 -39.228  1.00  0.00    -0.224 N 
ATOM     14  H5  UNL     1     -20.082  58.336 -39.128  1.00  0.00     0.190 HD
BRANCH  13  15
HETATM   15  N6  UNL     1     -21.529  57.748 -40.494  1.00  0.00    -0.025 NA
BRANCH  15  16
HETATM   16  N7  UNL     1     -20.666  57.095 -41.364  1.00  0.00    -0.329 N 
ATOM     17  H72 UNL     1     -19.706  56.851 -41.119  1.00  0.00     0.174 HD
ATOM     18  H71 UNL     1     -21.108  56.894 -42.261  1.00  0.00     0.174 HD
ENDBRANCH  15  16
ENDBRANCH  13  15
ENDBRANCH   7  10
BRANCH   4  19
HETATM   19  N2  UNL     1     -17.513  59.166 -34.438  1.00  0.00    -0.226 N 
HETATM   20  C4  UNL     1     -17.472  60.513 -33.913  1.00  0.00     0.168 C 
HETATM   21  C5  UNL     1     -16.259  58.584 -34.889  1.00  0.00     0.168 C 
ENDBRANCH   4  19
BRANCH   1  22
HETATM   22  O1  UNL     1     -20.801  56.387 -32.405  1.00  0.00    -0.327 OA
HETATM   23  C1  UNL     1     -20.252  55.349 -31.683  1.00  0.00     0.213 C 
ENDBRANCH   1  22
TORSDOF 5
ENDMDL
MODEL 2
REMARK VINA RESULT: -6.400533189      4.228      6.124
REMARK  5 active torsions:
REMARK  status: ('A' for Active; 'I' for Inactive)
REMARK    1  A    between atoms: O1_2  and  C2_3 
REMARK    2  A    between atoms: C3_6  and  N2_7 
REMARK    3  A    between atoms: C6_12  and  N4_13 
REMARK       I    between atoms: N4_13  and  C7_14 
REMARK       I    between atoms: C7_14  and  N5_16 
REMARK    4  A    between atoms: N5_16  and  N6_18 
REMARK    5  A    between atoms: N6_18  and  N7_19 
ROOT
HETATM    1  C2  UNL     1     -14.725  60.426 -35.193  1.00  0.00     0.241 A 
HETATM    2  N1  UNL     1     -15.535  61.345 -35.733  1.00  0.00    -0.154 N 
ATOM      3  H1  UNL     1     -15.196  62.298 -35.871  1.00  0.00     0.188 HD
HETATM    4  C3  UNL     1     -16.795  61.027 -36.096  1.00  0.00     0.686 A 
HETATM    5  N3  UNL     1     -17.240  59.780 -35.915  1.00  0.00    -0.148 N 
ATOM      6  H3  UNL     1     -18.195  59.555 -36.195  1.00  0.00     0.188 HD
HETATM    7  C6  UNL     1     -16.461  58.789 -35.366  1.00  0.00     0.281 A 
HETATM    8  N8  UNL     1     -15.195  59.205 -35.029  1.00  0.00    -0.281 N 
ATOM      9  H8  UNL     1     -14.569  58.514 -34.618  1.00  0.00     0.173 HD
ENDROOT
BRANCH   7  10
HETATM   10  N4  UNL     1     -16.831  57.665 -35.172  1.00  0.00    -0.314 NA
HETATM   11  C7  UNL     1     -17.409  56.505 -35.020  1.00  0.00     0.413 C 
HETATM   12  O2  UNL     1     -16.800  55.396 -35.274  1.00  0.00    -0.229 OA
HETATM   13  N5  UNL     1     -18.743  56.355 -34.566  1.00  0.00    -0.224 N 
ATOM     14  H5  UNL     1     -19.282  57.191 -34.346  1.00  0.00     0.190 HD
BRANCH  13  15
HETATM   15  N6  UNL     1     -19.341  55.117 -34.410  1.00  0.00    -0.025 NA
BRANCH  15  16
HETATM   16  N7  UNL     1     -20.440  55.174 -33.564  1.00  0.00    -0.329 N 
ATOM     17  H72 UNL     1     -20.833  56.050 -33.218  1.00  0.00     0.174 HD
ATOM     18  H71 UNL     1     -20.797  54.246 -33.337  1.00  0.00     0.174 HD
ENDBRANCH  15  16
ENDBRANCH  13  15
ENDBRANCH   7  10
BRANCH   4  19
HETATM   19  N2  UNL     1     -17.670  62.005 -36.674  1.00  0.00    -0.226 N 
HETATM   20  C4  UNL     1     -17.194  63.214 -37.309  1.00  0.00     0.168 C 
HETATM   21  C5  UNL     1     -19.108  61.786 -36.640  1.00  0.00     0.168 C 
ENDBRANCH   4  19
BRANCH   1  22
HETATM   22  O1  UNL     1     -13.451  60.787 -34.836  1.00  0.00    -0.327 OA
HETATM   23  C1  UNL     1     -12.679  61.850 -35.253  1.00  0.00     0.213 C 
ENDBRANCH   1  22
TORSDOF 5
ENDMDL
MODEL 3
REMARK VINA RESULT: -5.974254969      4.209      6.408
REMARK  5 active torsions:
REMARK  status: ('A' for Active; 'I' for Inactive)
REMARK    1  A    between atoms: O1_2  and  C2_3 
REMARK    2  A    between atoms: C3_6  and  N2_7 
REMARK    3  A    between atoms: C6_12  and  N4_13 
REMARK       I    between atoms: N4_13  and  C7_14 
REMARK       I    between atoms: C7_14  and  N5_16 
REMARK    4  A    between atoms: N5_16  and  N6_18 
REMARK    5  A    between atoms: N6_18  and  N7_19 
ROOT
HETATM    1  C2  UNL     1     -14.802  61.143 -35.586  1.00  0.00     0.241 A 
HETATM    2  N1  UNL     1     -14.861  61.543 -36.863  1.00  0.00    -0.154 N 
ATOM      3  H1  UNL     1     -14.039  61.962 -37.299  1.00  0.00     0.188 HD
HETATM    4  C3  UNL     1     -15.995  61.398 -37.580  1.00  0.00     0.686 A 
HETATM    5  N3  UNL     1     -17.072  60.850 -37.010  1.00  0.00    -0.148 N 
ATOM      6  H3  UNL     1     -17.922  60.748 -37.565  1.00  0.00     0.188 HD
HETATM    7  C6  UNL     1     -17.080  60.419 -35.704  1.00  0.00     0.281 A 
HETATM    8  N8  UNL     1     -15.883  60.606 -35.055  1.00  0.00    -0.281 N 
ATOM      9  H8  UNL     1     -15.825  60.304 -34.083  1.00  0.00     0.173 HD
ENDROOT
BRANCH   7  10
HETATM   10  N4  UNL     1     -18.031  59.940 -35.154  1.00  0.00    -0.314 NA
HETATM   11  C7  UNL     1     -19.147  59.411 -34.733  1.00  0.00     0.413 C 
HETATM   12  O2  UNL     1     -19.179  58.549 -33.773  1.00  0.00    -0.229 OA
HETATM   13  N5  UNL     1     -20.414  59.729 -35.282  1.00  0.00    -0.224 N 
ATOM     14  H5  UNL     1     -20.462  60.405 -36.044  1.00  0.00     0.190 HD
BRANCH  13  15
HETATM   15  N6  UNL     1     -21.588  59.160 -34.825  1.00  0.00    -0.025 NA
BRANCH  15  16
HETATM   16  N7  UNL     1     -22.008  59.723 -33.627  1.00  0.00    -0.329 N 
ATOM     17  H72 UNL     1     -21.899  59.260 -32.724  1.00  0.00     0.174 HD
ATOM     18  H71 UNL     1     -22.430  60.641 -33.763  1.00  0.00     0.174 HD
ENDBRANCH  15  16
ENDBRANCH  13  15
ENDBRANCH   7  10
BRANCH   4  19
HETATM   19  N2  UNL     1     -16.068  61.824 -38.947  1.00  0.00    -0.226 N 
HETATM   20  C4  UNL     1     -14.940  62.377 -39.663  1.00  0.00     0.168 C 
HETATM   21  C5  UNL     1     -17.323  61.694 -39.670  1.00  0.00     0.168 C 
ENDBRANCH   4  19
BRANCH   1  22
HETATM   22  O1  UNL     1     -13.633  61.306 -34.890  1.00  0.00    -0.327 OA
HETATM   23  C1  UNL     1     -12.518  62.059 -35.189  1.00  0.00     0.213 C 
ENDBRANCH   1  22
TORSDOF 5
ENDMDL
MODEL 4
REMARK VINA RESULT: -5.876135708      4.495      6.819
REMARK  5 active torsions:
REMARK  status: ('A' for Active; 'I' for Inactive)
REMARK    1  A    between atoms: O1_2  and  C2_3 
REMARK    2  A    between atoms: C3_6  and  N2_7 
REMARK    3  A    between atoms: C6_12  and  N4_13 
REMARK       I    between atoms: N4_13  and  C7_14 
REMARK       I    between atoms: C7_14  and  N5_16 
REMARK    4  A    between atoms: N5_16  and  N6_18 
REMARK    5  A    between atoms: N6_18  and  N7_19 
ROOT
HETATM    1  C2  UNL     1     -14.029  61.363 -35.508  1.00  0.00     0.241 A 
HETATM    2  N1  UNL     1     -14.149  61.822 -36.761  1.00  0.00    -0.154 N 
ATOM      3  H1  UNL     1     -13.463  62.485 -37.123  1.00  0.00     0.188 HD
HETATM    4  C3  UNL     1     -15.166  61.417 -37.549  1.00  0.00     0.686 A 
HETATM    5  N3  UNL     1     -16.065  60.549 -37.076  1.00  0.00    -0.148 N 
ATOM      6  H3  UNL     1     -16.828  60.253 -37.685  1.00  0.00     0.188 HD
HETATM    7  C6  UNL     1     -16.001  60.040 -35.800  1.00  0.00     0.281 A 
HETATM    8  N8  UNL     1     -14.933  60.508 -35.073  1.00  0.00    -0.281 N 
ATOM      9  H8  UNL     1     -14.831  60.166 -34.118  1.00  0.00     0.173 HD
ENDROOT
BRANCH   7  10
HETATM   10  N4  UNL     1     -16.798  59.275 -35.335  1.00  0.00    -0.314 NA
HETATM   11  C7  UNL     1     -17.524  58.310 -34.840  1.00  0.00     0.413 C 
HETATM   12  O2  UNL     1     -18.395  58.513 -33.912  1.00  0.00    -0.229 OA
HETATM   13  N5  UNL     1     -17.424  56.964 -35.272  1.00  0.00    -0.224 N 
ATOM     14  H5  UNL     1     -16.755  56.732 -36.005  1.00  0.00     0.190 HD
BRANCH  13  15
HETATM   15  N6  UNL     1     -18.200  55.951 -34.737  1.00  0.00    -0.025 NA
BRANCH  15  16
HETATM   16  N7  UNL     1     -19.517  56.021 -35.169  1.00  0.00    -0.329 N 
ATOM     17  H72 UNL     1     -19.780  56.315 -36.110  1.00  0.00     0.174 HD
ATOM     18  H71 UNL     1     -20.175  55.745 -34.440  1.00  0.00     0.174 HD
ENDBRANCH  15  16
ENDBRANCH  13  15
ENDBRANCH   7  10
BRANCH   4  19
HETATM   19  N2  UNL     1     -15.302  61.903 -38.891  1.00  0.00    -0.226 N 
HETATM   20  C4  UNL     1     -14.331  62.771 -39.520  1.00  0.00     0.168 C 
HETATM   21  C5  UNL     1     -16.459  61.508 -39.680  1.00  0.00     0.168 C 
ENDBRANCH   4  19
BRANCH   1  22
HETATM   22  O1  UNL     1     -12.982  61.798 -34.736  1.00  0.00    -0.327 OA
HETATM   23  C1  UNL     1     -11.926  62.624 -35.055  1.00  0.00     0.213 C 
ENDBRANCH   1  22
TORSDOF 5
ENDMDL
MODEL 5
REMARK VINA RESULT: -5.800656933      3.940      7.153
REMARK  5 active torsions:
REMARK  status: ('A' for Active; 'I' for Inactive)
REMARK    1  A    between atoms: O1_2  and  C2_3 
REMARK    2  A    between atoms: C3_6  and  N2_7 
REMARK    3  A    between atoms: C6_12  and  N4_13 
REMARK       I    between atoms: N4_13  and  C7_14 
REMARK       I    between atoms: C7_14  and  N5_16 
REMARK    4  A    between atoms: N5_16  and  N6_18 
REMARK    5  A    between atoms: N6_18  and  N7_19 
ROOT
HETATM    1  C2  UNL     1     -18.886  61.077 -36.641  1.00  0.00     0.241 A 
HETATM    2  N1  UNL     1     -19.741  60.311 -35.952  1.00  0.00    -0.154 N 
ATOM      3  H1  UNL     1     -20.719  60.261 -36.241  1.00  0.00     0.188 HD
HETATM    4  C3  UNL     1     -19.325  59.604 -34.880  1.00  0.00     0.686 A 
HETATM    5  N3  UNL     1     -18.046  59.670 -34.501  1.00  0.00    -0.148 N 
ATOM      6  H3  UNL     1     -17.747  59.130 -33.688  1.00  0.00     0.188 HD
HETATM    7  C6  UNL     1     -17.116  60.436 -35.163  1.00  0.00     0.281 A 
HETATM    8  N8  UNL     1     -17.631  61.118 -36.240  1.00  0.00    -0.281 N 
ATOM      9  H8  UNL     1     -16.988  61.704 -36.773  1.00  0.00     0.173 HD
ENDROOT
BRANCH   7  10
HETATM   10  N4  UNL     1     -15.965  60.534 -34.842  1.00  0.00    -0.314 NA
HETATM   11  C7  UNL     1     -14.703  60.781 -34.625  1.00  0.00     0.413 C 
HETATM   12  O2  UNL     1     -14.183  60.717 -33.446  1.00  0.00    -0.229 OA
HETATM   13  N5  UNL     1     -13.794  61.137 -35.652  1.00  0.00    -0.224 N 
ATOM     14  H5  UNL     1     -14.138  61.205 -36.610  1.00  0.00     0.190 HD
BRANCH  13  15
HETATM   15  N6  UNL     1     -12.457  61.396 -35.407  1.00  0.00    -0.025 NA
BRANCH  15  16
HETATM   16  N7  UNL     1     -12.256  62.688 -34.938  1.00  0.00    -0.329 N 
ATOM     17  H72 UNL     1     -12.984  63.233 -34.476  1.00  0.00     0.174 HD
ATOM     18  H71 UNL     1     -11.305  63.013 -35.110  1.00  0.00     0.174 HD
ENDBRANCH  15  16
ENDBRANCH  13  15
ENDBRANCH   7  10
BRANCH   4  19
HETATM   19  N2  UNL     1     -20.235  58.782 -34.136  1.00  0.00    -0.226 N 
HETATM   20  C4  UNL     1     -19.813  57.626 -33.376  1.00  0.00     0.168 C 
HETATM   21  C5  UNL     1     -21.651  59.114 -34.122  1.00  0.00     0.168 C 
ENDBRANCH   4  19
BRANCH   1  22
HETATM   22  O1  UNL     1     -19.344  61.780 -37.725  1.00  0.00    -0.327 OA
HETATM   23  C1  UNL     1     -19.019  61.668 -39.060  1.00  0.00     0.213 C 
ENDBRANCH   1  22
TORSDOF 5
ENDMDL
