MODEL 1
REMARK VINA RESULT: -7.307629921      0.000      0.000
REMARK  5 active torsions:
REMARK  status: ('A' for Active; 'I' for Inactive)
REMARK    1  A    between atoms: C4_7  and  N3_8 
REMARK    2  A    between atoms: N3_8  and  N4_10 
REMARK    3  A    between atoms: C6_15  and  N6_16 
REMARK    4  A    between atoms: N6_16  and  N7_18 
REMARK    5  A    between atoms: C8_22  and  N8_23 
ROOT
HETATM    1  N4  UNL     1     -16.871  57.166 -35.362  1.00  0.00    -0.268 N 
ATOM      2  H4  UNL     1     -16.381  56.291 -35.177  1.00  0.00     0.189 HD
HETATM    3  C5  UNL     1     -18.078  57.265 -34.924  1.00  0.00     0.170 C 
HETATM    4  N5  UNL     1     -18.886  58.407 -35.097  1.00  0.00    -0.327 N 
ATOM      5  H5  UNL     1     -18.519  59.219 -35.594  1.00  0.00     0.169 HD
HETATM    6  C6  UNL     1     -20.088  58.428 -34.629  1.00  0.00     0.099 C 
HETATM    7  C7  UNL     1     -20.721  57.315 -33.895  1.00  0.00     0.119 C 
HETATM    8  C8  UNL     1     -19.741  56.392 -33.249  1.00  0.00     0.268 C 
HETATM    9  C9  UNL     1     -18.637  56.125 -34.208  1.00  0.00     0.225 C 
HETATM   10  O1  UNL     1     -18.194  54.942 -34.397  1.00  0.00    -0.287 OA
ENDROOT
BRANCH   1  11
HETATM   11  N3  UNL     1     -16.186  58.131 -36.054  1.00  0.00    -0.131 N 
ATOM     12  H3  UNL     1     -16.086  58.058 -37.067  1.00  0.00     0.205 HD
BRANCH  11  13
HETATM   13  C4  UNL     1     -15.608  59.247 -35.351  1.00  0.00     0.690 C 
HETATM   14  N1  UNL     1     -15.844  60.606 -35.696  1.00  0.00    -0.220 N 
HETATM   15  C1  UNL     1     -16.945  61.177 -36.436  1.00  0.00     0.168 C 
HETATM   16  C2  UNL     1     -14.723  61.336 -35.140  1.00  0.00     0.161 C 
HETATM   17  C3  UNL     1     -14.442  60.519 -33.897  1.00  0.00     0.158 C 
HETATM   18  N2  UNL     1     -14.810  59.187 -34.327  1.00  0.00    -0.223 N 
ATOM     19  H2  UNL     1     -14.489  58.324 -33.889  1.00  0.00     0.177 HD
ENDBRANCH  11  13
ENDBRANCH   1  11
BRANCH   6  20
HETATM   20  N6  UNL     1     -20.915  59.600 -34.807  1.00  0.00    -0.295 N 
ATOM     21  H6  UNL     1     -20.679  60.313 -35.498  1.00  0.00     0.187 HD
BRANCH  20  22
HETATM   22  N7  UNL     1     -22.051  59.722 -33.998  1.00  0.00    -0.344 N 
ATOM     23  H72 UNL     1     -21.992  59.534 -32.997  1.00  0.00     0.176 HD
ATOM     24  H71 UNL     1     -22.923  60.001 -34.446  1.00  0.00     0.176 HD
ENDBRANCH  20  22
ENDBRANCH   6  20
BRANCH   8  25
HETATM   25  N8  UNL     1     -20.359  55.135 -32.887  1.00  0.00    -0.067 N 
ATOM     26  H83 UNL     1     -20.996  55.244 -32.098  1.00  0.00     0.275 HD
ATOM     27  H82 UNL     1     -21.032  54.832 -33.592  1.00  0.00     0.275 HD
ATOM     28  H81 UNL     1     -19.660  54.415 -32.705  1.00  0.00     0.275 HD
ENDBRANCH   8  25
TORSDOF 5
ENDMDL
MODEL 2
REMARK VINA RESULT: -7.091636038      1.405      2.207
REMARK  5 active torsions:
REMARK  status: ('A' for Active; 'I' for Inactive)
REMARK    1  A    between atoms: C4_7  and  N3_8 
REMARK    2  A    between atoms: N3_8  and  N4_10 
REMARK    3  A    between atoms: C6_15  and  N6_16 
REMARK    4  A    between atoms: N6_16  and  N7_18 
REMARK    5  A    between atoms: C8_22  and  N8_23 
ROOT
HETATM    1  N4  UNL     1     -17.363  59.157 -35.109  1.00  0.00    -0.268 N 
ATOM      2  H4  UNL     1     -16.575  58.514 -35.182  1.00  0.00     0.189 HD
HETATM    3  C5  UNL     1     -18.514  58.646 -34.839  1.00  0.00     0.170 C 
HETATM    4  N5  UNL     1     -19.697  59.399 -34.704  1.00  0.00    -0.327 N 
ATOM      5  H5  UNL     1     -19.671  60.412 -34.822  1.00  0.00     0.169 HD
HETATM    6  C6  UNL     1     -20.813  58.812 -34.432  1.00  0.00     0.099 C 
HETATM    7  C7  UNL     1     -20.968  57.356 -34.241  1.00  0.00     0.119 C 
HETATM    8  C8  UNL     1     -19.706  56.669 -33.836  1.00  0.00     0.268 C 
HETATM    9  C9  UNL     1     -18.590  57.201 -34.663  1.00  0.00     0.225 C 
HETATM   10  O1  UNL     1     -17.732  56.422 -35.197  1.00  0.00    -0.287 OA
ENDROOT
BRANCH   1  11
HETATM   11  N3  UNL     1     -17.103  60.489 -35.308  1.00  0.00    -0.131 N 
ATOM     12  H3  UNL     1     -17.497  61.186 -34.676  1.00  0.00     0.205 HD
BRANCH  11  13
HETATM   13  C4  UNL     1     -16.273  60.903 -36.410  1.00  0.00     0.690 C 
HETATM   14  N1  UNL     1     -14.929  61.339 -36.266  1.00  0.00    -0.220 N 
HETATM   15  C1  UNL     1     -13.998  61.076 -35.193  1.00  0.00     0.168 C 
HETATM   16  C2  UNL     1     -14.661  62.132 -37.448  1.00  0.00     0.161 C 
HETATM   17  C3  UNL     1     -15.509  61.408 -38.472  1.00  0.00     0.158 C 
HETATM   18  N2  UNL     1     -16.614  60.938 -37.664  1.00  0.00    -0.223 N 
ATOM     19  H2  UNL     1     -17.529  60.672 -38.026  1.00  0.00     0.177 HD
ENDBRANCH  11  13
ENDBRANCH   1  11
BRANCH   6  20
HETATM   20  N6  UNL     1     -22.025  59.585 -34.294  1.00  0.00    -0.295 N 
ATOM     21  H6  UNL     1     -22.595  59.824 -35.107  1.00  0.00     0.187 HD
BRANCH  20  22
HETATM   22  N7  UNL     1     -22.391  59.996 -33.007  1.00  0.00    -0.344 N 
ATOM     23  H72 UNL     1     -21.848  60.709 -32.521  1.00  0.00     0.176 HD
ATOM     24  H71 UNL     1     -23.210  59.558 -32.585  1.00  0.00     0.176 HD
ENDBRANCH  20  22
ENDBRANCH   6  20
BRANCH   8  25
HETATM   25  N8  UNL     1     -19.795  55.239 -34.038  1.00  0.00    -0.067 N 
ATOM     26  H83 UNL     1     -20.564  54.833 -33.505  1.00  0.00     0.275 HD
ATOM     27  H82 UNL     1     -20.118  55.013 -34.978  1.00  0.00     0.275 HD
ATOM     28  H81 UNL     1     -18.911  54.777 -33.826  1.00  0.00     0.275 HD
ENDBRANCH   8  25
TORSDOF 5
ENDMDL
MODEL 3
REMARK VINA RESULT: -7.087994191      2.201      3.572
REMARK  5 active torsions:
REMARK  status: ('A' for Active; 'I' for Inactive)
REMARK    1  A    between atoms: C4_7  and  N3_8 
REMARK    2  A    between atoms: N3_8  and  N4_10 
REMARK    3  A    between atoms: C6_15  and  N6_16 
REMARK    4  A    between atoms: N6_16  and  N7_18 
REMARK    5  A    between atoms: C8_22  and  N8_23 
ROOT
HETATM    1  N4  UNL     1     -19.004  60.197 -34.825  1.00  0.00    -0.268 N 
ATOM      2  H4  UNL     1     -19.748  60.873 -34.999  1.00  0.00     0.189 HD
HETATM    3  C5  UNL     1     -19.305  58.951 -34.944  1.00  0.00     0.170 C 
HETATM    4  N5  UNL     1     -18.391  57.897 -34.738  1.00  0.00    -0.327 N 
ATOM      5  H5  UNL     1     -17.427  58.105 -34.478  1.00  0.00     0.169 HD
HETATM    6  C6  UNL     1     -18.771  56.673 -34.876  1.00  0.00     0.099 C 
HETATM    7  C7  UNL     1     -20.137  56.256 -35.247  1.00  0.00     0.119 C 
HETATM    8  C8  UNL     1     -20.903  57.306 -35.982  1.00  0.00     0.268 C 
HETATM    9  C9  UNL     1     -20.675  58.615 -35.314  1.00  0.00     0.225 C 
HETATM   10  O1  UNL     1     -21.641  59.414 -35.074  1.00  0.00    -0.287 OA
ENDROOT
BRANCH   1  11
HETATM   11  N3  UNL     1     -17.773  60.697 -34.484  1.00  0.00    -0.131 N 
ATOM     12  H3  UNL     1     -17.568  60.928 -33.511  1.00  0.00     0.205 HD
BRANCH  11  13
HETATM   13  C4  UNL     1     -16.772  60.896 -35.499  1.00  0.00     0.690 C 
HETATM   14  N1  UNL     1     -15.379  60.976 -35.230  1.00  0.00    -0.220 N 
HETATM   15  C1  UNL     1     -14.644  60.477 -34.092  1.00  0.00     0.168 C 
HETATM   16  C2  UNL     1     -14.816  61.685 -36.361  1.00  0.00     0.161 C 
HETATM   17  C3  UNL     1     -15.725  61.208 -37.474  1.00  0.00     0.158 C 
HETATM   18  N2  UNL     1     -16.980  61.027 -36.775  1.00  0.00    -0.223 N 
ATOM     19  H2  UNL     1     -17.897  61.005 -37.221  1.00  0.00     0.177 HD
ENDBRANCH  11  13
ENDBRANCH   1  11
BRANCH   6  20
HETATM   20  N6  UNL     1     -17.833  55.594 -34.664  1.00  0.00    -0.295 N 
ATOM     21  H6  UNL     1     -18.000  54.880 -33.955  1.00  0.00     0.187 HD
BRANCH  20  22
HETATM   22  N7  UNL     1     -16.686  55.564 -35.467  1.00  0.00    -0.344 N 
ATOM     23  H72 UNL     1     -16.534  56.284 -36.173  1.00  0.00     0.176 HD
ATOM     24  H71 UNL     1     -16.023  54.803 -35.316  1.00  0.00     0.176 HD
ENDBRANCH  20  22
ENDBRANCH   6  20
BRANCH   8  25
HETATM   25  N8  UNL     1     -22.322  57.024 -35.982  1.00  0.00    -0.067 N 
ATOM     26  H83 UNL     1     -22.734  57.179 -36.902  1.00  0.00     0.275 HD
ATOM     27  H82 UNL     1     -22.504  56.024 -35.894  1.00  0.00     0.275 HD
ATOM     28  H81 UNL     1     -22.808  57.557 -35.261  1.00  0.00     0.275 HD
ENDBRANCH   8  25
TORSDOF 5
ENDMDL
MODEL 4
REMARK VINA RESULT: -7.009735545      1.244      1.482
REMARK  5 active torsions:
REMARK  status: ('A' for Active; 'I' for Inactive)
REMARK    1  A    between atoms: C4_7  and  N3_8 
REMARK    2  A    between atoms: N3_8  and  N4_10 
REMARK    3  A    between atoms: C6_15  and  N6_16 
REMARK    4  A    between atoms: N6_16  and  N7_18 
REMARK    5  A    between atoms: C8_22  and  N8_23 
ROOT
HETATM    1  N4  UNL     1     -17.461  59.003 -35.489  1.00  0.00    -0.268 N 
ATOM      2  H4  UNL     1     -16.671  58.360 -35.538  1.00  0.00     0.189 HD
HETATM    3  C5  UNL     1     -18.571  58.534 -35.035  1.00  0.00     0.170 C 
HETATM    4  N5  UNL     1     -19.751  59.294 -34.904  1.00  0.00    -0.327 N 
ATOM      5  H5  UNL     1     -19.756  60.277 -35.176  1.00  0.00     0.169 HD
HETATM    6  C6  UNL     1     -20.824  58.750 -34.440  1.00  0.00     0.099 C 
HETATM    7  C7  UNL     1     -20.934  57.340 -34.016  1.00  0.00     0.119 C 
HETATM    8  C8  UNL     1     -19.626  56.729 -33.635  1.00  0.00     0.268 C 
HETATM    9  C9  UNL     1     -18.603  57.133 -34.635  1.00  0.00     0.225 C 
HETATM   10  O1  UNL     1     -17.783  56.285 -35.124  1.00  0.00    -0.287 OA
ENDROOT
BRANCH   1  11
HETATM   11  N3  UNL     1     -17.246  60.290 -35.912  1.00  0.00    -0.131 N 
ATOM     12  H3  UNL     1     -18.021  60.842 -36.281  1.00  0.00     0.205 HD
BRANCH  11  13
HETATM   13  C4  UNL     1     -15.927  60.862 -35.834  1.00  0.00     0.690 C 
HETATM   14  N1  UNL     1     -15.490  61.953 -36.634  1.00  0.00    -0.220 N 
HETATM   15  C1  UNL     1     -16.279  62.957 -37.309  1.00  0.00     0.168 C 
HETATM   16  C2  UNL     1     -14.045  61.859 -36.643  1.00  0.00     0.161 C 
HETATM   17  C3  UNL     1     -13.789  61.300 -35.259  1.00  0.00     0.158 C 
HETATM   18  N2  UNL     1     -14.965  60.482 -35.047  1.00  0.00    -0.223 N 
ATOM     19  H2  UNL     1     -15.029  59.718 -34.376  1.00  0.00     0.177 HD
ENDBRANCH  11  13
ENDBRANCH   1  11
BRANCH   6  20
HETATM   20  N6  UNL     1     -22.034  59.530 -34.307  1.00  0.00    -0.295 N 
ATOM     21  H6  UNL     1     -22.617  59.742 -35.116  1.00  0.00     0.187 HD
BRANCH  20  22
HETATM   22  N7  UNL     1     -22.375  59.984 -33.027  1.00  0.00    -0.344 N 
ATOM     23  H72 UNL     1     -22.622  60.962 -32.878  1.00  0.00     0.176 HD
ATOM     24  H71 UNL     1     -22.366  59.305 -32.266  1.00  0.00     0.176 HD
ENDBRANCH  20  22
ENDBRANCH   6  20
BRANCH   8  25
HETATM   25  N8  UNL     1     -19.706  55.284 -33.607  1.00  0.00    -0.067 N 
ATOM     26  H83 UNL     1     -18.815  54.866 -33.337  1.00  0.00     0.275 HD
ATOM     27  H82 UNL     1     -20.276  54.956 -32.827  1.00  0.00     0.275 HD
ATOM     28  H81 UNL     1     -20.039  54.912 -34.496  1.00  0.00     0.275 HD
ENDBRANCH   8  25
TORSDOF 5
ENDMDL
MODEL 5
REMARK VINA RESULT: -6.779468698      2.124      3.626
REMARK  5 active torsions:
REMARK  status: ('A' for Active; 'I' for Inactive)
REMARK    1  A    between atoms: C4_7  and  N3_8 
REMARK    2  A    between atoms: N3_8  and  N4_10 
REMARK    3  A    between atoms: C6_15  and  N6_16 
REMARK    4  A    between atoms: N6_16  and  N7_18 
REMARK    5  A    between atoms: C8_22  and  N8_23 
ROOT
HETATM    1  N4  UNL     1     -18.156  60.226 -34.712  1.00  0.00    -0.268 N 
ATOM      2  H4  UNL     1     -18.991  60.793 -34.565  1.00  0.00     0.189 HD
HETATM    3  C5  UNL     1     -18.321  58.954 -34.821  1.00  0.00     0.170 C 
HETATM    4  N5  UNL     1     -17.269  58.039 -35.026  1.00  0.00    -0.327 N 
ATOM      5  H5  UNL     1     -16.309  58.375 -35.097  1.00  0.00     0.169 HD
HETATM    6  C6  UNL     1     -17.518  56.777 -35.125  1.00  0.00     0.099 C 
HETATM    7  C7  UNL     1     -18.864  56.179 -35.038  1.00  0.00     0.119 C 
HETATM    8  C8  UNL     1     -19.963  57.130 -35.379  1.00  0.00     0.268 C 
HETATM    9  C9  UNL     1     -19.680  58.435 -34.726  1.00  0.00     0.225 C 
HETATM   10  O1  UNL     1     -20.593  59.078 -34.106  1.00  0.00    -0.287 OA
ENDROOT
BRANCH   1  11
HETATM   11  N3  UNL     1     -16.956  60.888 -34.774  1.00  0.00    -0.131 N 
ATOM     12  H3  UNL     1     -16.527  61.248 -33.920  1.00  0.00     0.205 HD
BRANCH  11  13
HETATM   13  C4  UNL     1     -16.303  61.076 -36.043  1.00  0.00     0.690 C 
HETATM   14  N1  UNL     1     -14.926  61.397 -36.183  1.00  0.00    -0.220 N 
HETATM   15  C1  UNL     1     -13.844  61.186 -35.249  1.00  0.00     0.168 C 
HETATM   16  C2  UNL     1     -14.811  62.002 -37.494  1.00  0.00     0.161 C 
HETATM   17  C3  UNL     1     -15.874  61.236 -38.253  1.00  0.00     0.158 C 
HETATM   18  N2  UNL     1     -16.853  60.982 -37.217  1.00  0.00    -0.223 N 
ATOM     19  H2  UNL     1     -17.834  60.761 -37.384  1.00  0.00     0.177 HD
ENDBRANCH  11  13
ENDBRANCH   1  11
BRANCH   6  20
HETATM   20  N6  UNL     1     -16.438  55.840 -35.335  1.00  0.00    -0.295 N 
ATOM     21  H6  UNL     1     -15.505  56.159 -35.599  1.00  0.00     0.187 HD
BRANCH  20  22
HETATM   22  N7  UNL     1     -16.717  54.478 -35.165  1.00  0.00    -0.344 N 
ATOM     23  H72 UNL     1     -15.964  53.820 -34.968  1.00  0.00     0.176 HD
ATOM     24  H71 UNL     1     -17.690  54.182 -35.244  1.00  0.00     0.176 HD
ENDBRANCH  20  22
ENDBRANCH   6  20
BRANCH   8  25
HETATM   25  N8  UNL     1     -21.245  56.645 -34.915  1.00  0.00    -0.067 N 
ATOM     26  H83 UNL     1     -21.145  56.053 -34.091  1.00  0.00     0.275 HD
ATOM     27  H82 UNL     1     -21.802  57.394 -34.504  1.00  0.00     0.275 HD
ATOM     28  H81 UNL     1     -21.753  56.167 -35.659  1.00  0.00     0.275 HD
ENDBRANCH   8  25
TORSDOF 5
ENDMDL
