MODEL 1
REMARK VINA RESULT: -6.744754546      0.000      0.000
REMARK  15 active torsions:
REMARK  status: ('A' for Active; 'I' for Inactive)
REMARK    1  A    between atoms: O1_2  and  C2_3 
REMARK    2  A    between atoms: C2_3  and  C3_5 
REMARK    3  A    between atoms: C4_6  and  N1_7 
REMARK    4  A    between atoms: N2_9  and  C5_11 
REMARK    5  A    between atoms: C6_12  and  C7_13 
REMARK    6  A    between atoms: C7_13  and  O3_14 
REMARK    7  A    between atoms: C7_13  and  C8_16 
REMARK    8  A    between atoms: C8_16  and  O4_17 
REMARK    9  A    between atoms: C8_16  and  N3_19 
REMARK   10  A    between atoms: N3_19  and  O5_20 
REMARK   11  A    between atoms: N3_19  and  O6_22 
REMARK   12  A    between atoms: C9_25  and  C10_26 
REMARK   13  A    between atoms: C10_26  and  O8_27 
REMARK   14  A    between atoms: C10_26  and  O9_29 
REMARK   15  A    between atoms: C13_34  and  N4_35 
ROOT
HETATM    1  C5  UNL     1      -5.598  -0.871   3.894  1.00  0.00     0.131 A 
HETATM    2  C6  UNL     1      -5.840  -0.557   5.203  1.00  0.00     0.118 A 
HETATM    3  O7  UNL     1      -6.391  -1.522   5.939  1.00  0.00    -0.309 OA
HETATM    4  C9  UNL     1      -6.693  -2.689   5.493  1.00  0.00     0.111 A 
HETATM    5  C11 UNL     1      -6.462  -3.035   4.189  1.00  0.00     0.095 A 
HETATM    6  C12 UNL     1      -5.893  -2.100   3.341  1.00  0.00     0.204 A 
HETATM    7  O10 UNL     1      -5.673  -2.385   2.155  1.00  0.00    -0.286 OA
ENDROOT
BRANCH   1   8
HETATM    8  N2  UNL     1      -5.007   0.128   3.094  1.00  0.00    -0.294 N 
HETATM    9  N1  UNL     1      -3.922  -0.014   2.472  1.00  0.00    -0.294 N 
ATOM     10  H1  UNL     1      -3.446  -0.913   2.559  1.00  0.00     0.187 HD
ATOM     11  H2  UNL     1      -5.490   1.023   3.014  1.00  0.00     0.187 HD
BRANCH   9  12
HETATM   12  C4  UNL     1      -3.309   0.968   1.664  1.00  0.00     0.127 A 
HETATM   13  C3  UNL     1      -3.452   0.969   0.275  1.00  0.00     0.158 A 
HETATM   14  N6  UNL     1      -2.747   2.028  -0.153  1.00  0.00    -0.287 N 
HETATM   15  N5  UNL     1      -2.189   2.668   0.868  1.00  0.00    -0.281 N 
HETATM   16  C14 UNL     1      -2.587   2.457  -1.521  1.00  0.00     0.178 C 
HETATM   17  C13 UNL     1      -2.514   2.039   2.027  1.00  0.00     0.145 A 
ATOM     18  H5  UNL     1      -1.608   3.502   0.794  1.00  0.00     0.189 HD
BRANCH  13  19
HETATM   19  C2  UNL     1      -4.213   0.009  -0.521  1.00  0.00     0.313 C 
HETATM   20  O2  UNL     1      -5.375  -0.292  -0.159  1.00  0.00    -0.257 OA
BRANCH  19  21
HETATM   21  O1  UNL     1      -3.698  -0.573  -1.649  1.00  0.00    -0.321 OA
HETATM   22  C1  UNL     1      -4.316  -0.557  -2.925  1.00  0.00     0.213 C 
ENDBRANCH  19  21
ENDBRANCH  13  19
BRANCH  17  23
HETATM   23  N4  UNL     1      -2.163   2.356   3.223  1.00  0.00    -0.382 N 
ATOM     24  H42 UNL     1      -1.387   1.981   3.768  1.00  0.00     0.157 HD
ATOM     25  H41 UNL     1      -2.617   3.044   3.824  1.00  0.00     0.157 HD
ENDBRANCH  17  23
ENDBRANCH   9  12
ENDBRANCH   1   8
BRANCH   2  26
HETATM   26  C7  UNL     1      -5.575   0.691   5.883  1.00  0.00     0.225 C 
BRANCH  26  27
HETATM   27  O3  UNL     1      -6.572   0.788   6.893  1.00  0.00    -0.385 OA
ATOM     28  H3  UNL     1      -7.150   1.487   6.609  1.00  0.00     0.210 HD
ENDBRANCH  26  27
BRANCH  26  29
HETATM   29  C8  UNL     1      -4.282   0.833   6.591  1.00  0.00     0.282 C 
BRANCH  29  30
HETATM   30  O4  UNL     1      -3.846  -0.418   7.081  1.00  0.00    -0.374 OA
ATOM     31  H4  UNL     1      -3.636  -0.359   8.006  1.00  0.00     0.212 HD
ENDBRANCH  29  30
BRANCH  29  32
HETATM   32  N3  UNL     1      -3.271   1.209   5.623  1.00  0.00    -0.041 NA
BRANCH  32  33
HETATM   33  O5  UNL     1      -2.504   0.140   5.237  1.00  0.00    -0.287 OA
ATOM     34  H5  UNL     1      -1.607   0.393   5.050  1.00  0.00     0.239 HD
ENDBRANCH  32  33
BRANCH  32  35
HETATM   35  O6  UNL     1      -2.381   2.110   6.119  1.00  0.00    -0.287 OA
ATOM     36  H6  UNL     1      -1.483   1.900   5.891  1.00  0.00     0.239 HD
ENDBRANCH  32  35
ENDBRANCH  29  32
ENDBRANCH  26  29
ENDBRANCH   2  26
BRANCH   4  37
HETATM   37  C10 UNL     1      -7.307  -3.708   6.387  1.00  0.00     0.312 C 
BRANCH  37  38
HETATM   38  O8  UNL     1      -8.701  -3.612   6.239  1.00  0.00    -0.365 OA
ATOM     39  H8  UNL     1      -8.914  -3.894   5.357  1.00  0.00     0.213 HD
ENDBRANCH  37  38
BRANCH  37  40
HETATM   40  O9  UNL     1      -6.897  -4.953   5.948  1.00  0.00    -0.365 OA
ATOM     41  H9  UNL     1      -7.508  -5.238   5.278  1.00  0.00     0.213 HD
ENDBRANCH  37  40
ENDBRANCH   4  37
TORSDOF 15
ENDMDL
MODEL 2
REMARK VINA RESULT: -6.596676850      8.810     11.543
REMARK  15 active torsions:
REMARK  status: ('A' for Active; 'I' for Inactive)
REMARK    1  A    between atoms: O1_2  and  C2_3 
REMARK    2  A    between atoms: C2_3  and  C3_5 
REMARK    3  A    between atoms: C4_6  and  N1_7 
REMARK    4  A    between atoms: N2_9  and  C5_11 
REMARK    5  A    between atoms: C6_12  and  C7_13 
REMARK    6  A    between atoms: C7_13  and  O3_14 
REMARK    7  A    between atoms: C7_13  and  C8_16 
REMARK    8  A    between atoms: C8_16  and  O4_17 
REMARK    9  A    between atoms: C8_16  and  N3_19 
REMARK   10  A    between atoms: N3_19  and  O5_20 
REMARK   11  A    between atoms: N3_19  and  O6_22 
REMARK   12  A    between atoms: C9_25  and  C10_26 
REMARK   13  A    between atoms: C10_26  and  O8_27 
REMARK   14  A    between atoms: C10_26  and  O9_29 
REMARK   15  A    between atoms: C13_34  and  N4_35 
ROOT
HETATM    1  C5  UNL     1     -15.654  -0.166   5.744  1.00  0.00     0.131 A 
HETATM    2  C6  UNL     1     -16.500   0.593   4.983  1.00  0.00     0.118 A 
HETATM    3  O7  UNL     1     -17.386   1.326   5.657  1.00  0.00    -0.309 OA
HETATM    4  C9  UNL     1     -17.479   1.352   6.939  1.00  0.00     0.111 A 
HETATM    5  C11 UNL     1     -16.647   0.605   7.727  1.00  0.00     0.095 A 
HETATM    6  C12 UNL     1     -15.690  -0.193   7.122  1.00  0.00     0.204 A 
HETATM    7  O10 UNL     1     -14.922  -0.880   7.812  1.00  0.00    -0.286 OA
ENDROOT
BRANCH   1   8
HETATM    8  N2  UNL     1     -14.699  -0.944   5.057  1.00  0.00    -0.294 N 
HETATM    9  N1  UNL     1     -13.484  -1.015   5.376  1.00  0.00    -0.294 N 
ATOM     10  H1  UNL     1     -13.179  -0.471   6.184  1.00  0.00     0.187 HD
ATOM     11  H2  UNL     1     -15.014  -1.484   4.251  1.00  0.00     0.187 HD
BRANCH   9  12
HETATM   12  C4  UNL     1     -12.508  -1.786   4.708  1.00  0.00     0.127 A 
HETATM   13  C3  UNL     1     -12.298  -3.131   5.017  1.00  0.00     0.158 A 
HETATM   14  N6  UNL     1     -11.314  -3.534   4.197  1.00  0.00    -0.287 N 
HETATM   15  N5  UNL     1     -10.913  -2.538   3.417  1.00  0.00    -0.281 N 
HETATM   16  C14 UNL     1     -10.738  -4.855   4.132  1.00  0.00     0.178 C 
HETATM   17  C13 UNL     1     -11.633  -1.423   3.702  1.00  0.00     0.145 A 
ATOM     18  H5  UNL     1     -10.178  -2.601   2.712  1.00  0.00     0.189 HD
BRANCH  13  19
HETATM   19  C2  UNL     1     -13.011  -3.913   6.025  1.00  0.00     0.313 C 
HETATM   20  O2  UNL     1     -12.360  -4.703   6.750  1.00  0.00    -0.257 OA
BRANCH  19  21
HETATM   21  O1  UNL     1     -14.365  -3.814   6.203  1.00  0.00    -0.321 OA
HETATM   22  C1  UNL     1     -15.339  -4.448   5.391  1.00  0.00     0.213 C 
ENDBRANCH  19  21
ENDBRANCH  13  19
BRANCH  17  23
HETATM   23  N4  UNL     1     -11.535  -0.259   3.161  1.00  0.00    -0.382 N 
ATOM     24  H42 UNL     1     -12.258   0.455   3.076  1.00  0.00     0.157 HD
ATOM     25  H41 UNL     1     -10.702   0.136   2.724  1.00  0.00     0.157 HD
ENDBRANCH  17  23
ENDBRANCH   9  12
ENDBRANCH   1   8
BRANCH   2  26
HETATM   26  C7  UNL     1     -16.552   0.696   3.542  1.00  0.00     0.225 C 
BRANCH  26  27
HETATM   27  O3  UNL     1     -17.924   0.909   3.229  1.00  0.00    -0.385 OA
ATOM     28  H3  UNL     1     -17.996   0.751   2.295  1.00  0.00     0.210 HD
ENDBRANCH  26  27
BRANCH  26  29
HETATM   29  C8  UNL     1     -15.824   1.815   2.900  1.00  0.00     0.282 C 
BRANCH  29  30
HETATM   30  O4  UNL     1     -15.640   2.875   3.815  1.00  0.00    -0.374 OA
ATOM     31  H4  UNL     1     -14.821   3.325   3.643  1.00  0.00     0.212 HD
ENDBRANCH  29  30
BRANCH  29  32
HETATM   32  N3  UNL     1     -14.479   1.368   2.597  1.00  0.00    -0.041 NA
BRANCH  32  33
HETATM   33  O5  UNL     1     -14.423   0.017   2.369  1.00  0.00    -0.287 OA
ATOM     34  H5  UNL     1     -14.487  -0.484   3.174  1.00  0.00     0.239 HD
ENDBRANCH  32  33
BRANCH  32  35
HETATM   35  O6  UNL     1     -13.612   1.578   3.626  1.00  0.00    -0.287 OA
ATOM     36  H6  UNL     1     -12.740   1.249   3.442  1.00  0.00     0.239 HD
ENDBRANCH  32  35
ENDBRANCH  29  32
ENDBRANCH  26  29
ENDBRANCH   2  26
BRANCH   4  37
HETATM   37  C10 UNL     1     -18.501   2.200   7.609  1.00  0.00     0.312 C 
BRANCH  37  38
HETATM   38  O8  UNL     1     -19.162   2.933   6.608  1.00  0.00    -0.365 OA
ATOM     39  H8  UNL     1     -20.077   2.678   6.625  1.00  0.00     0.213 HD
ENDBRANCH  37  38
BRANCH  37  40
HETATM   40  O9  UNL     1     -19.412   1.358   8.218  1.00  0.00    -0.365 OA
ATOM     41  H9  UNL     1     -19.832   0.846   7.537  1.00  0.00     0.213 HD
ENDBRANCH  37  40
ENDBRANCH   4  37
TORSDOF 15
ENDMDL
MODEL 3
REMARK VINA RESULT: -6.265371639      2.365      2.879
REMARK  15 active torsions:
REMARK  status: ('A' for Active; 'I' for Inactive)
REMARK    1  A    between atoms: O1_2  and  C2_3 
REMARK    2  A    between atoms: C2_3  and  C3_5 
REMARK    3  A    between atoms: C4_6  and  N1_7 
REMARK    4  A    between atoms: N2_9  and  C5_11 
REMARK    5  A    between atoms: C6_12  and  C7_13 
REMARK    6  A    between atoms: C7_13  and  O3_14 
REMARK    7  A    between atoms: C7_13  and  C8_16 
REMARK    8  A    between atoms: C8_16  and  O4_17 
REMARK    9  A    between atoms: C8_16  and  N3_19 
REMARK   10  A    between atoms: N3_19  and  O5_20 
REMARK   11  A    between atoms: N3_19  and  O6_22 
REMARK   12  A    between atoms: C9_25  and  C10_26 
REMARK   13  A    between atoms: C10_26  and  O8_27 
REMARK   14  A    between atoms: C10_26  and  O9_29 
REMARK   15  A    between atoms: C13_34  and  N4_35 
ROOT
HETATM    1  C5  UNL     1      -6.159  -0.456   4.574  1.00  0.00     0.131 A 
HETATM    2  C6  UNL     1      -5.333  -1.154   5.411  1.00  0.00     0.118 A 
HETATM    3  O7  UNL     1      -5.824  -2.295   5.894  1.00  0.00    -0.309 OA
HETATM    4  C9  UNL     1      -6.994  -2.753   5.620  1.00  0.00     0.111 A 
HETATM    5  C11 UNL     1      -7.845  -2.078   4.786  1.00  0.00     0.095 A 
HETATM    6  C12 UNL     1      -7.427  -0.880   4.232  1.00  0.00     0.204 A 
HETATM    7  O10 UNL     1      -8.176  -0.247   3.473  1.00  0.00    -0.286 OA
ENDROOT
BRANCH   1   8
HETATM    8  N2  UNL     1      -5.661   0.750   4.041  1.00  0.00    -0.294 N 
HETATM    9  N1  UNL     1      -5.171   0.864   2.888  1.00  0.00    -0.294 N 
ATOM     10  H1  UNL     1      -5.135   0.024   2.309  1.00  0.00     0.187 HD
ATOM     11  H2  UNL     1      -5.701   1.584   4.628  1.00  0.00     0.187 HD
BRANCH   9  12
HETATM   12  C4  UNL     1      -4.666   2.058   2.328  1.00  0.00     0.127 A 
HETATM   13  C3  UNL     1      -5.480   2.930   1.604  1.00  0.00     0.158 A 
HETATM   14  N6  UNL     1      -4.678   3.940   1.234  1.00  0.00    -0.287 N 
HETATM   15  N5  UNL     1      -3.441   3.748   1.679  1.00  0.00    -0.281 N 
HETATM   16  C14 UNL     1      -5.055   5.099   0.462  1.00  0.00     0.178 C 
HETATM   17  C13 UNL     1      -3.387   2.580   2.370  1.00  0.00     0.145 A 
ATOM     18  H5  UNL     1      -2.655   4.378   1.525  1.00  0.00     0.189 HD
BRANCH  13  19
HETATM   19  C2  UNL     1      -6.904   2.757   1.320  1.00  0.00     0.313 C 
HETATM   20  O2  UNL     1      -7.266   1.792   0.606  1.00  0.00    -0.257 OA
BRANCH  19  21
HETATM   21  O1  UNL     1      -7.854   3.615   1.807  1.00  0.00    -0.321 OA
HETATM   22  C1  UNL     1      -8.705   4.420   1.010  1.00  0.00     0.213 C 
ENDBRANCH  19  21
ENDBRANCH  13  19
BRANCH  17  23
HETATM   23  N4  UNL     1      -2.367   2.051   2.948  1.00  0.00    -0.382 N 
ATOM     24  H42 UNL     1      -2.183   1.976   3.948  1.00  0.00     0.157 HD
ATOM     25  H41 UNL     1      -1.567   1.618   2.486  1.00  0.00     0.157 HD
ENDBRANCH  17  23
ENDBRANCH   9  12
ENDBRANCH   1   8
BRANCH   2  26
HETATM   26  C7  UNL     1      -3.995  -0.806   5.837  1.00  0.00     0.225 C 
BRANCH  26  27
HETATM   27  O3  UNL     1      -3.256  -0.614   4.637  1.00  0.00    -0.385 OA
ATOM     28  H3  UNL     1      -2.350  -0.532   4.910  1.00  0.00     0.210 HD
ENDBRANCH  26  27
BRANCH  26  29
HETATM   29  C8  UNL     1      -3.819   0.443   6.612  1.00  0.00     0.282 C 
BRANCH  29  30
HETATM   30  O4  UNL     1      -2.770   0.303   7.547  1.00  0.00    -0.374 OA
ATOM     31  H4  UNL     1      -2.718   1.068   8.108  1.00  0.00     0.212 HD
ENDBRANCH  29  30
BRANCH  29  32
HETATM   32  N3  UNL     1      -3.354   1.478   5.709  1.00  0.00    -0.041 NA
BRANCH  32  33
HETATM   33  O5  UNL     1      -2.163   2.020   6.115  1.00  0.00    -0.287 OA
ATOM     34  H5  UNL     1      -2.278   2.865   6.533  1.00  0.00     0.239 HD
ENDBRANCH  32  33
BRANCH  32  35
HETATM   35  O6  UNL     1      -4.208   2.536   5.642  1.00  0.00    -0.287 OA
ATOM     36  H6  UNL     1      -4.028   3.104   4.902  1.00  0.00     0.239 HD
ENDBRANCH  32  35
ENDBRANCH  29  32
ENDBRANCH  26  29
ENDBRANCH   2  26
BRANCH   4  37
HETATM   37  C10 UNL     1      -7.463  -4.037   6.205  1.00  0.00     0.312 C 
BRANCH  37  38
HETATM   38  O8  UNL     1      -6.595  -5.047   5.755  1.00  0.00    -0.365 OA
ATOM     39  H8  UNL     1      -5.997  -4.651   5.132  1.00  0.00     0.213 HD
ENDBRANCH  37  38
BRANCH  37  40
HETATM   40  O9  UNL     1      -7.354  -3.937   7.580  1.00  0.00    -0.365 OA
ATOM     41  H9  UNL     1      -6.950  -4.737   7.896  1.00  0.00     0.213 HD
ENDBRANCH  37  40
ENDBRANCH   4  37
TORSDOF 15
ENDMDL
MODEL 4
REMARK VINA RESULT: -6.243584468      2.988      5.413
REMARK  15 active torsions:
REMARK  status: ('A' for Active; 'I' for Inactive)
REMARK    1  A    between atoms: O1_2  and  C2_3 
REMARK    2  A    between atoms: C2_3  and  C3_5 
REMARK    3  A    between atoms: C4_6  and  N1_7 
REMARK    4  A    between atoms: N2_9  and  C5_11 
REMARK    5  A    between atoms: C6_12  and  C7_13 
REMARK    6  A    between atoms: C7_13  and  O3_14 
REMARK    7  A    between atoms: C7_13  and  C8_16 
REMARK    8  A    between atoms: C8_16  and  O4_17 
REMARK    9  A    between atoms: C8_16  and  N3_19 
REMARK   10  A    between atoms: N3_19  and  O5_20 
REMARK   11  A    between atoms: N3_19  and  O6_22 
REMARK   12  A    between atoms: C9_25  and  C10_26 
REMARK   13  A    between atoms: C10_26  and  O8_27 
REMARK   14  A    between atoms: C10_26  and  O9_29 
REMARK   15  A    between atoms: C13_34  and  N4_35 
ROOT
HETATM    1  C5  UNL     1      -7.654  -2.296   2.170  1.00  0.00     0.131 A 
HETATM    2  C6  UNL     1      -8.136  -3.117   3.152  1.00  0.00     0.118 A 
HETATM    3  O7  UNL     1      -9.020  -4.034   2.760  1.00  0.00    -0.309 OA
HETATM    4  C9  UNL     1      -9.425  -4.179   1.548  1.00  0.00     0.111 A 
HETATM    5  C11 UNL     1      -8.961  -3.373   0.543  1.00  0.00     0.095 A 
HETATM    6  C12 UNL     1      -8.039  -2.387   0.848  1.00  0.00     0.204 A 
HETATM    7  O10 UNL     1      -7.601  -1.643  -0.042  1.00  0.00    -0.286 OA
ENDROOT
BRANCH   1   8
HETATM    8  N2  UNL     1      -6.711  -1.322   2.555  1.00  0.00    -0.294 N 
HETATM    9  N1  UNL     1      -7.008  -0.158   2.928  1.00  0.00    -0.294 N 
ATOM     10  H1  UNL     1      -7.998   0.089   2.948  1.00  0.00     0.187 HD
ATOM     11  H2  UNL     1      -5.723  -1.578   2.530  1.00  0.00     0.187 HD
BRANCH   9  12
HETATM   12  C4  UNL     1      -6.084   0.836   3.320  1.00  0.00     0.127 A 
HETATM   13  C3  UNL     1      -5.501   0.835   4.587  1.00  0.00     0.158 A 
HETATM   14  N6  UNL     1      -4.690   1.905   4.605  1.00  0.00    -0.287 N 
HETATM   15  N5  UNL     1      -4.738   2.553   3.447  1.00  0.00    -0.281 N 
HETATM   16  C14 UNL     1      -3.859   2.335   5.703  1.00  0.00     0.178 C 
HETATM   17  C13 UNL     1      -5.600   1.919   2.611  1.00  0.00     0.145 A 
ATOM     18  H5  UNL     1      -4.210   3.395   3.221  1.00  0.00     0.189 HD
BRANCH  13  19
HETATM   19  C2  UNL     1      -5.737  -0.136   5.654  1.00  0.00     0.313 C 
HETATM   20  O2  UNL     1      -6.824  -0.094   6.280  1.00  0.00    -0.257 OA
BRANCH  19  21
HETATM   21  O1  UNL     1      -4.813  -1.088   5.992  1.00  0.00    -0.321 OA
HETATM   22  C1  UNL     1      -3.875  -1.662   5.098  1.00  0.00     0.213 C 
ENDBRANCH  19  21
ENDBRANCH  13  19
BRANCH  17  23
HETATM   23  N4  UNL     1      -5.915   2.244   1.406  1.00  0.00    -0.382 N 
ATOM     24  H42 UNL     1      -5.322   2.225   0.577  1.00  0.00     0.157 HD
ATOM     25  H41 UNL     1      -6.825   2.579   1.089  1.00  0.00     0.157 HD
ENDBRANCH  17  23
ENDBRANCH   9  12
ENDBRANCH   1   8
BRANCH   2  26
HETATM   26  C7  UNL     1      -7.807  -3.110   4.560  1.00  0.00     0.225 C 
BRANCH  26  27
HETATM   27  O3  UNL     1      -8.630  -2.102   5.134  1.00  0.00    -0.385 OA
ATOM     28  H3  UNL     1      -8.249  -1.278   4.853  1.00  0.00     0.210 HD
ENDBRANCH  26  27
BRANCH  26  29
HETATM   29  C8  UNL     1      -8.085  -4.337   5.342  1.00  0.00     0.282 C 
BRANCH  29  30
HETATM   30  O4  UNL     1      -7.665  -5.483   4.632  1.00  0.00    -0.374 OA
ATOM     31  H4  UNL     1      -8.016  -5.475   3.748  1.00  0.00     0.212 HD
ENDBRANCH  29  30
BRANCH  29  32
HETATM   32  N3  UNL     1      -7.245  -4.324   6.524  1.00  0.00    -0.041 NA
BRANCH  32  33
HETATM   33  O5  UNL     1      -7.941  -4.665   7.655  1.00  0.00    -0.287 OA
ATOM     34  H5  UNL     1      -8.060  -3.925   8.239  1.00  0.00     0.239 HD
ENDBRANCH  32  33
BRANCH  32  35
HETATM   35  O6  UNL     1      -6.738  -3.090   6.792  1.00  0.00    -0.287 OA
ATOM     36  H6  UNL     1      -5.805  -3.109   6.970  1.00  0.00     0.239 HD
ENDBRANCH  32  35
ENDBRANCH  29  32
ENDBRANCH  26  29
ENDBRANCH   2  26
BRANCH   4  37
HETATM   37  C10 UNL     1     -10.416  -5.231   1.199  1.00  0.00     0.312 C 
BRANCH  37  38
HETATM   38  O8  UNL     1      -9.706  -6.311   0.645  1.00  0.00    -0.365 OA
ATOM     39  H8  UNL     1      -8.780  -6.141   0.777  1.00  0.00     0.213 HD
ENDBRANCH  37  38
BRANCH  37  40
HETATM   40  O9  UNL     1     -11.016  -5.649   2.372  1.00  0.00    -0.365 OA
ATOM     41  H9  UNL     1     -10.380  -6.164   2.854  1.00  0.00     0.213 HD
ENDBRANCH  37  40
ENDBRANCH   4  37
TORSDOF 15
ENDMDL
MODEL 5
REMARK VINA RESULT: -6.172403995      1.068      1.406
REMARK  15 active torsions:
REMARK  status: ('A' for Active; 'I' for Inactive)
REMARK    1  A    between atoms: O1_2  and  C2_3 
REMARK    2  A    between atoms: C2_3  and  C3_5 
REMARK    3  A    between atoms: C4_6  and  N1_7 
REMARK    4  A    between atoms: N2_9  and  C5_11 
REMARK    5  A    between atoms: C6_12  and  C7_13 
REMARK    6  A    between atoms: C7_13  and  O3_14 
REMARK    7  A    between atoms: C7_13  and  C8_16 
REMARK    8  A    between atoms: C8_16  and  O4_17 
REMARK    9  A    between atoms: C8_16  and  N3_19 
REMARK   10  A    between atoms: N3_19  and  O5_20 
REMARK   11  A    between atoms: N3_19  and  O6_22 
REMARK   12  A    between atoms: C9_25  and  C10_26 
REMARK   13  A    between atoms: C10_26  and  O8_27 
REMARK   14  A    between atoms: C10_26  and  O9_29 
REMARK   15  A    between atoms: C13_34  and  N4_35 
ROOT
HETATM    1  C5  UNL     1      -5.737  -0.719   3.862  1.00  0.00     0.131 A 
HETATM    2  C6  UNL     1      -5.895  -0.488   5.201  1.00  0.00     0.118 A 
HETATM    3  O7  UNL     1      -6.318  -1.526   5.923  1.00  0.00    -0.309 OA
HETATM    4  C9  UNL     1      -6.573  -2.689   5.438  1.00  0.00     0.111 A 
HETATM    5  C11 UNL     1      -6.424  -2.951   4.103  1.00  0.00     0.095 A 
HETATM    6  C12 UNL     1      -5.990  -1.937   3.267  1.00  0.00     0.204 A 
HETATM    7  O10 UNL     1      -5.845  -2.147   2.054  1.00  0.00    -0.286 OA
ENDROOT
BRANCH   1   8
HETATM    8  N2  UNL     1      -5.281   0.359   3.076  1.00  0.00    -0.294 N 
HETATM    9  N1  UNL     1      -4.307   0.292   2.282  1.00  0.00    -0.294 N 
ATOM     10  H1  UNL     1      -3.821  -0.602   2.210  1.00  0.00     0.187 HD
ATOM     11  H2  UNL     1      -5.773   1.249   3.156  1.00  0.00     0.187 HD
BRANCH   9  12
HETATM   12  C4  UNL     1      -3.831   1.354   1.482  1.00  0.00     0.127 A 
HETATM   13  C3  UNL     1      -4.336   1.592   0.203  1.00  0.00     0.158 A 
HETATM   14  N6  UNL     1      -3.663   2.662  -0.250  1.00  0.00    -0.287 N 
HETATM   15  N5  UNL     1      -2.791   3.090   0.655  1.00  0.00    -0.281 N 
HETATM   16  C14 UNL     1      -3.827   3.300  -1.534  1.00  0.00     0.178 C 
HETATM   17  C13 UNL     1      -2.861   2.300   1.757  1.00  0.00     0.145 A 
ATOM     18  H5  UNL     1      -2.166   3.887   0.541  1.00  0.00     0.189 HD
BRANCH  13  19
HETATM   19  C2  UNL     1      -5.376   0.825  -0.478  1.00  0.00     0.313 C 
HETATM   20  O2  UNL     1      -5.149  -0.372  -0.776  1.00  0.00    -0.257 OA
BRANCH  19  21
HETATM   21  O1  UNL     1      -6.590   1.370  -0.802  1.00  0.00    -0.321 OA
HETATM   22  C1  UNL     1      -7.300   2.303  -0.005  1.00  0.00     0.213 C 
ENDBRANCH  19  21
ENDBRANCH  13  19
BRANCH  17  23
HETATM   23  N4  UNL     1      -2.174   2.393   2.841  1.00  0.00    -0.382 N 
ATOM     24  H42 UNL     1      -2.417   2.895   3.695  1.00  0.00     0.157 HD
ATOM     25  H41 UNL     1      -1.261   1.973   3.016  1.00  0.00     0.157 HD
ENDBRANCH  17  23
ENDBRANCH   9  12
ENDBRANCH   1   8
BRANCH   2  26
HETATM   26  C7  UNL     1      -5.663   0.741   5.927  1.00  0.00     0.225 C 
BRANCH  26  27
HETATM   27  O3  UNL     1      -6.677   0.786   6.924  1.00  0.00    -0.385 OA
ATOM     28  H3  UNL     1      -6.238   1.078   7.715  1.00  0.00     0.210 HD
ENDBRANCH  26  27
BRANCH  26  29
HETATM   29  C8  UNL     1      -4.384   0.881   6.660  1.00  0.00     0.282 C 
BRANCH  29  30
HETATM   30  O4  UNL     1      -3.805  -0.385   6.894  1.00  0.00    -0.374 OA
ATOM     31  H4  UNL     1      -4.265  -1.058   6.405  1.00  0.00     0.212 HD
ENDBRANCH  29  30
BRANCH  29  32
HETATM   32  N3  UNL     1      -3.434   1.552   5.793  1.00  0.00    -0.041 NA
BRANCH  32  33
HETATM   33  O5  UNL     1      -4.050   2.412   4.921  1.00  0.00    -0.287 OA
ATOM     34  H5  UNL     1      -4.743   2.909   5.339  1.00  0.00     0.239 HD
ENDBRANCH  32  33
BRANCH  32  35
HETATM   35  O6  UNL     1      -2.750   0.686   4.997  1.00  0.00    -0.287 OA
ATOM     36  H6  UNL     1      -3.248  -0.097   4.795  1.00  0.00     0.239 HD
ENDBRANCH  32  35
ENDBRANCH  29  32
ENDBRANCH  26  29
ENDBRANCH   2  26
BRANCH   4  37
HETATM   37  C10 UNL     1      -7.043  -3.792   6.319  1.00  0.00     0.312 C 
BRANCH  37  38
HETATM   38  O8  UNL     1      -8.448  -3.761   6.320  1.00  0.00    -0.365 OA
ATOM     39  H8  UNL     1      -8.719  -3.145   6.991  1.00  0.00     0.213 HD
ENDBRANCH  37  38
BRANCH  37  40
HETATM   40  O9  UNL     1      -6.625  -4.984   5.757  1.00  0.00    -0.365 OA
ATOM     41  H9  UNL     1      -7.388  -5.410   5.384  1.00  0.00     0.213 HD
ENDBRANCH  37  40
ENDBRANCH   4  37
TORSDOF 15
ENDMDL
