MODEL 1
REMARK VINA RESULT: -7.440383362      0.000      0.000
REMARK  11 active torsions:
REMARK  status: ('A' for Active; 'I' for Inactive)
REMARK    1  A    between atoms: O1_2  and  C2_3 
REMARK    2  A    between atoms: C3_8  and  N3_9 
REMARK    3  A    between atoms: N3_9  and  C4_11 
REMARK    4  A    between atoms: N5_15  and  N6_16 
REMARK    5  A    between atoms: N7_18  and  C6_20 
REMARK    6  A    between atoms: C7_21  and  C8_22 
REMARK    7  A    between atoms: C9_27  and  N9_28 
REMARK    8  A    between atoms: C10_33  and  N11_34 
REMARK    9  A    between atoms: C12_39  and  C13_40 
REMARK   10  A    between atoms: C13_40  and  N12_41 
REMARK   11  A    between atoms: C13_40  and  N13_45 
ROOT
HETATM    1  C4  UNL     1      -4.317   3.732   2.761  1.00  0.00     0.175 A 
HETATM    2  N4  UNL     1      -3.859   4.125   3.887  1.00  0.00    -0.354 N 
ATOM      3  H4  UNL     1      -4.087   5.031   4.298  1.00  0.00     0.163 HD
HETATM    4  C5  UNL     1      -2.994   3.172   4.516  1.00  0.00     0.277 A 
HETATM    5  N5  UNL     1      -2.946   2.063   3.617  1.00  0.00    -0.222 N 
HETATM    6  C11 UNL     1      -3.788   2.416   2.498  1.00  0.00     0.308 A 
HETATM    7  O4  UNL     1      -3.997   1.667   1.482  1.00  0.00    -0.262 OA
ENDROOT
BRANCH   1   8
HETATM    8  N3  UNL     1      -5.196   4.410   1.865  1.00  0.00    -0.321 N 
ATOM      9  H3  UNL     1      -6.169   4.111   1.798  1.00  0.00     0.169 HD
BRANCH   8  10
HETATM   10  C3  UNL     1      -4.746   5.482   1.070  1.00  0.00     0.148 A 
HETATM   11  N2  UNL     1      -4.652   6.704   1.654  1.00  0.00    -0.281 N 
HETATM   12  N1  UNL     1      -4.294   7.779   0.999  1.00  0.00    -0.263 N 
ATOM     13  H2  UNL     1      -4.870   6.788   2.647  1.00  0.00     0.188 HD
HETATM   14  C2  UNL     1      -4.002   7.694  -0.307  1.00  0.00     0.238 A 
ATOM     15  H1  UNL     1      -4.237   8.676   1.479  1.00  0.00     0.190 HD
HETATM   16  N14 UNL     1      -4.083   6.525  -0.904  1.00  0.00    -0.318 N 
HETATM   17  C12 UNL     1      -4.454   5.382  -0.248  1.00  0.00     0.116 A 
ATOM     18  H14 UNL     1      -3.860   6.467  -1.897  1.00  0.00     0.169 HD
BRANCH  14  19
HETATM   19  O1  UNL     1      -3.617   8.849  -1.019  1.00  0.00    -0.326 OA
HETATM   20  C1  UNL     1      -3.748   8.902  -2.427  1.00  0.00     0.213 C 
ENDBRANCH  14  19
BRANCH  17  21
HETATM   21  C13 UNL     1      -4.469   4.091  -0.964  1.00  0.00     0.431 C 
BRANCH  21  22
HETATM   22  N12 UNL     1      -3.196   3.435  -0.852  1.00  0.00    -0.045 N 
ATOM     23 3H12 UNL     1      -2.801   3.533   0.084  1.00  0.00     0.277 HD
ATOM     24 2H12 UNL     1      -3.290   2.420  -0.873  1.00  0.00     0.277 HD
ATOM     25 1H12 UNL     1      -2.555   3.771  -1.570  1.00  0.00     0.277 HD
ENDBRANCH  21  22
BRANCH  21  26
HETATM   26  N13 UNL     1      -4.827   4.302  -2.365  1.00  0.00    -0.045 N 
ATOM     27 3H13 UNL     1      -5.221   5.230  -2.523  1.00  0.00     0.277 HD
ATOM     28 2H13 UNL     1      -4.004   4.386  -2.962  1.00  0.00     0.277 HD
ATOM     29 1H13 UNL     1      -5.453   3.562  -2.679  1.00  0.00     0.277 HD
ENDBRANCH  21  26
ENDBRANCH  17  21
ENDBRANCH   8  10
ENDBRANCH   1   8
BRANCH   5  30
HETATM   30  N6  UNL     1      -2.274   0.863   3.694  1.00  0.00    -0.235 N 
HETATM   31  N7  UNL     1      -2.620  -0.257   4.024  1.00  0.00    -0.280 N 
ATOM     32  H7  UNL     1      -1.891  -0.970   3.982  1.00  0.00     0.188 HD
ATOM     33  H6  UNL     1      -1.294   0.924   3.421  1.00  0.00     0.208 HD
BRANCH  31  34
HETATM   34  C6  UNL     1      -3.880  -0.709   4.454  1.00  0.00     0.127 A 
HETATM   35  C7  UNL     1      -4.204  -0.735   5.795  1.00  0.00     0.157 A 
HETATM   36  N8  UNL     1      -5.420  -1.172   6.162  1.00  0.00    -0.183 N 
HETATM   37  C9  UNL     1      -6.363  -1.593   5.312  1.00  0.00     0.678 A 
ATOM     38  H8  UNL     1      -5.639  -1.184   7.158  1.00  0.00     0.184 HD
HETATM   39  N10 UNL     1      -6.040  -1.564   4.010  1.00  0.00    -0.175 N 
HETATM   40  C10 UNL     1      -4.853  -1.144   3.567  1.00  0.00     0.145 A 
ATOM     41  H10 UNL     1      -6.732  -1.876   3.329  1.00  0.00     0.186 HD
BRANCH  35  42
HETATM   42  C8  UNL     1      -3.242  -0.289   6.818  1.00  0.00     0.230 C 
HETATM   43  O2  UNL     1      -2.470   0.658   6.668  1.00  0.00    -0.643 OA
HETATM   44  O3  UNL     1      -3.196  -0.970   8.028  1.00  0.00    -0.643 OA
ENDBRANCH  35  42
BRANCH  37  45
HETATM   45  N9  UNL     1      -7.503  -1.997   5.760  1.00  0.00    -0.234 N 
ATOM     46  H92 UNL     1      -7.612  -2.598   6.577  1.00  0.00     0.174 HD
ATOM     47  H91 UNL     1      -8.365  -1.715   5.293  1.00  0.00     0.174 HD
ENDBRANCH  37  45
BRANCH  40  48
HETATM   48  N11 UNL     1      -4.586  -1.128   2.301  1.00  0.00    -0.383 N 
ATOM     49 2H11 UNL     1      -5.292  -1.396   1.615  1.00  0.00     0.157 HD
ATOM     50 1H11 UNL     1      -3.655  -0.837   2.004  1.00  0.00     0.157 HD
ENDBRANCH  40  48
ENDBRANCH  31  34
ENDBRANCH   5  30
TORSDOF 11
ENDMDL
MODEL 2
REMARK VINA RESULT: -7.312003098      5.426      9.943
REMARK  11 active torsions:
REMARK  status: ('A' for Active; 'I' for Inactive)
REMARK    1  A    between atoms: O1_2  and  C2_3 
REMARK    2  A    between atoms: C3_8  and  N3_9 
REMARK    3  A    between atoms: N3_9  and  C4_11 
REMARK    4  A    between atoms: N5_15  and  N6_16 
REMARK    5  A    between atoms: N7_18  and  C6_20 
REMARK    6  A    between atoms: C7_21  and  C8_22 
REMARK    7  A    between atoms: C9_27  and  N9_28 
REMARK    8  A    between atoms: C10_33  and  N11_34 
REMARK    9  A    between atoms: C12_39  and  C13_40 
REMARK   10  A    between atoms: C13_40  and  N12_41 
REMARK   11  A    between atoms: C13_40  and  N13_45 
ROOT
HETATM    1  C4  UNL     1     -10.567  -2.084   4.179  1.00  0.00     0.175 A 
HETATM    2  N4  UNL     1      -9.874  -1.219   3.545  1.00  0.00    -0.354 N 
ATOM      3  H4  UNL     1     -10.237  -0.679   2.758  1.00  0.00     0.163 HD
HETATM    4  C5  UNL     1      -8.539  -1.078   4.045  1.00  0.00     0.277 A 
HETATM    5  N5  UNL     1      -8.449  -2.002   5.129  1.00  0.00    -0.222 N 
HETATM    6  C11 UNL     1      -9.739  -2.645   5.218  1.00  0.00     0.308 A 
HETATM    7  O4  UNL     1     -10.046  -3.543   6.078  1.00  0.00    -0.262 OA
ENDROOT
BRANCH   1   8
HETATM    8  N3  UNL     1     -11.919  -2.484   3.961  1.00  0.00    -0.321 N 
ATOM      9  H3  UNL     1     -12.135  -3.121   3.194  1.00  0.00     0.169 HD
BRANCH   8  10
HETATM   10  C3  UNL     1     -12.962  -2.016   4.784  1.00  0.00     0.148 A 
HETATM   11  N2  UNL     1     -13.217  -0.683   4.784  1.00  0.00    -0.281 N 
HETATM   12  N1  UNL     1     -14.129  -0.134   5.546  1.00  0.00    -0.263 N 
ATOM     13  H2  UNL     1     -12.676  -0.083   4.162  1.00  0.00     0.188 HD
HETATM   14  C2  UNL     1     -14.854  -0.902   6.372  1.00  0.00     0.238 A 
ATOM     15  H1  UNL     1     -14.286   0.872   5.513  1.00  0.00     0.190 HD
HETATM   16  N14 UNL     1     -14.633  -2.198   6.397  1.00  0.00    -0.318 N 
HETATM   17  C12 UNL     1     -13.689  -2.804   5.613  1.00  0.00     0.116 A 
ATOM     18  H14 UNL     1     -15.188  -2.776   7.027  1.00  0.00     0.169 HD
BRANCH  14  19
HETATM   19  O1  UNL     1     -15.837  -0.316   7.196  1.00  0.00    -0.326 OA
HETATM   20  C1  UNL     1     -16.679   0.706   6.696  1.00  0.00     0.213 C 
ENDBRANCH  14  19
BRANCH  17  21
HETATM   21  C13 UNL     1     -13.530  -4.272   5.648  1.00  0.00     0.431 C 
BRANCH  21  22
HETATM   22  N12 UNL     1     -14.812  -4.918   5.663  1.00  0.00    -0.045 N 
ATOM     23 3H12 UNL     1     -15.513  -4.357   6.148  1.00  0.00     0.277 HD
ATOM     24 2H12 UNL     1     -15.240  -4.932   4.738  1.00  0.00     0.277 HD
ATOM     25 1H12 UNL     1     -14.738  -5.855   6.059  1.00  0.00     0.277 HD
ENDBRANCH  21  22
BRANCH  21  26
HETATM   26  N13 UNL     1     -12.735  -4.659   6.810  1.00  0.00    -0.045 N 
ATOM     27 3H13 UNL     1     -11.735  -4.532   6.649  1.00  0.00     0.277 HD
ATOM     28 2H13 UNL     1     -12.845  -4.006   7.585  1.00  0.00     0.277 HD
ATOM     29 1H13 UNL     1     -12.960  -5.616   7.082  1.00  0.00     0.277 HD
ENDBRANCH  21  26
ENDBRANCH  17  21
ENDBRANCH   8  10
ENDBRANCH   1   8
BRANCH   5  30
HETATM   30  N6  UNL     1      -7.407  -2.303   5.979  1.00  0.00    -0.235 N 
HETATM   31  N7  UNL     1      -6.213  -2.069   5.938  1.00  0.00    -0.280 N 
ATOM     32  H7  UNL     1      -5.670  -2.423   6.726  1.00  0.00     0.188 HD
ATOM     33  H6  UNL     1      -7.693  -2.826   6.807  1.00  0.00     0.208 HD
BRANCH  31  34
HETATM   34  C6  UNL     1      -5.475  -1.380   4.960  1.00  0.00     0.127 A 
HETATM   35  C7  UNL     1      -5.133  -0.055   5.132  1.00  0.00     0.157 A 
HETATM   36  N8  UNL     1      -4.426   0.564   4.172  1.00  0.00    -0.183 N 
HETATM   37  C9  UNL     1      -4.016  -0.015   3.038  1.00  0.00     0.678 A 
ATOM     38  H8  UNL     1      -4.184   1.544   4.319  1.00  0.00     0.184 HD
HETATM   39  N10 UNL     1      -4.352  -1.305   2.879  1.00  0.00    -0.175 N 
HETATM   40  C10 UNL     1      -5.054  -1.988   3.786  1.00  0.00     0.145 A 
ATOM     41  H10 UNL     1      -4.058  -1.784   2.028  1.00  0.00     0.186 HD
BRANCH  35  42
HETATM   42  C8  UNL     1      -5.528   0.680   6.346  1.00  0.00     0.230 C 
HETATM   43  O2  UNL     1      -6.666   0.669   6.816  1.00  0.00    -0.643 OA
HETATM   44  O3  UNL     1      -4.566   1.433   7.007  1.00  0.00    -0.643 OA
ENDBRANCH  35  42
BRANCH  37  45
HETATM   45  N9  UNL     1      -3.340   0.663   2.173  1.00  0.00    -0.234 N 
ATOM     46  H92 UNL     1      -2.959   1.591   2.353  1.00  0.00     0.174 HD
ATOM     47  H91 UNL     1      -3.160   0.275   1.248  1.00  0.00     0.174 HD
ENDBRANCH  37  45
BRANCH  40  48
HETATM   48  N11 UNL     1      -5.351  -3.232   3.593  1.00  0.00    -0.383 N 
ATOM     49 2H11 UNL     1      -6.322  -3.545   3.606  1.00  0.00     0.157 HD
ATOM     50 1H11 UNL     1      -4.594  -3.893   3.423  1.00  0.00     0.157 HD
ENDBRANCH  40  48
ENDBRANCH  31  34
ENDBRANCH   5  30
TORSDOF 11
ENDMDL
MODEL 3
REMARK VINA RESULT: -7.205142898      6.025      9.626
REMARK  11 active torsions:
REMARK  status: ('A' for Active; 'I' for Inactive)
REMARK    1  A    between atoms: O1_2  and  C2_3 
REMARK    2  A    between atoms: C3_8  and  N3_9 
REMARK    3  A    between atoms: N3_9  and  C4_11 
REMARK    4  A    between atoms: N5_15  and  N6_16 
REMARK    5  A    between atoms: N7_18  and  C6_20 
REMARK    6  A    between atoms: C7_21  and  C8_22 
REMARK    7  A    between atoms: C9_27  and  N9_28 
REMARK    8  A    between atoms: C10_33  and  N11_34 
REMARK    9  A    between atoms: C12_39  and  C13_40 
REMARK   10  A    between atoms: C13_40  and  N12_41 
REMARK   11  A    between atoms: C13_40  and  N13_45 
ROOT
HETATM    1  C4  UNL     1      -8.906  -3.402   5.119  1.00  0.00     0.175 A 
HETATM    2  N4  UNL     1      -9.619  -3.373   6.179  1.00  0.00    -0.354 N 
ATOM      3  H4  UNL     1      -9.226  -3.269   7.115  1.00  0.00     0.163 HD
HETATM    4  C5  UNL     1     -11.024  -3.499   5.927  1.00  0.00     0.277 A 
HETATM    5  N5  UNL     1     -11.137  -3.622   4.508  1.00  0.00    -0.222 N 
HETATM    6  C11 UNL     1      -9.790  -3.560   3.990  1.00  0.00     0.308 A 
HETATM    7  O4  UNL     1      -9.484  -3.635   2.750  1.00  0.00    -0.262 OA
ENDROOT
BRANCH   1   8
HETATM    8  N3  UNL     1      -7.489  -3.306   4.990  1.00  0.00    -0.321 N 
ATOM      9  H3  UNL     1      -6.936  -4.158   4.900  1.00  0.00     0.169 HD
BRANCH   8  10
HETATM   10  C3  UNL     1      -6.838  -2.056   4.983  1.00  0.00     0.148 A 
HETATM   11  N2  UNL     1      -6.746  -1.386   6.160  1.00  0.00    -0.281 N 
HETATM   12  N1  UNL     1      -6.207  -0.198   6.260  1.00  0.00    -0.263 N 
ATOM     13  H2  UNL     1      -7.113  -1.828   7.003  1.00  0.00     0.188 HD
HETATM   14  C2  UNL     1      -5.718   0.404   5.166  1.00  0.00     0.238 A 
ATOM     15  H1  UNL     1      -6.160   0.269   7.165  1.00  0.00     0.190 HD
HETATM   16  N14 UNL     1      -5.791  -0.218   4.010  1.00  0.00    -0.318 N 
HETATM   17  C12 UNL     1      -6.347  -1.461   3.871  1.00  0.00     0.116 A 
ATOM     18  H14 UNL     1      -5.417   0.245   3.182  1.00  0.00     0.169 HD
BRANCH  14  19
HETATM   19  O1  UNL     1      -5.137   1.685   5.268  1.00  0.00    -0.326 OA
HETATM   20  C1  UNL     1      -3.834   1.844   5.795  1.00  0.00     0.213 C 
ENDBRANCH  14  19
BRANCH  17  21
HETATM   21  C13 UNL     1      -6.345  -2.128   2.553  1.00  0.00     0.431 C 
BRANCH  21  22
HETATM   22  N12 UNL     1      -5.121  -1.857   1.852  1.00  0.00    -0.045 N 
ATOM     23 3H12 UNL     1      -5.113  -0.919   1.452  1.00  0.00     0.277 HD
ATOM     24 2H12 UNL     1      -4.333  -1.758   2.491  1.00  0.00     0.277 HD
ATOM     25 1H12 UNL     1      -4.947  -2.571   1.145  1.00  0.00     0.277 HD
ENDBRANCH  21  22
BRANCH  21  26
HETATM   26  N13 UNL     1      -7.501  -1.694   1.773  1.00  0.00    -0.045 N 
ATOM     27 3H13 UNL     1      -7.732  -0.715   1.943  1.00  0.00     0.277 HD
ATOM     28 2H13 UNL     1      -7.289  -1.627   0.778  1.00  0.00     0.277 HD
ATOM     29 1H13 UNL     1      -8.293  -2.310   1.954  1.00  0.00     0.277 HD
ENDBRANCH  21  26
ENDBRANCH  17  21
ENDBRANCH   8  10
ENDBRANCH   1   8
BRANCH   5  30
HETATM   30  N6  UNL     1     -12.240  -3.772   3.697  1.00  0.00    -0.235 N 
HETATM   31  N7  UNL     1     -13.339  -3.247   3.691  1.00  0.00    -0.280 N 
ATOM     32  H7  UNL     1     -13.970  -3.562   2.954  1.00  0.00     0.188 HD
ATOM     33  H6  UNL     1     -12.111  -4.458   2.954  1.00  0.00     0.208 HD
BRANCH  31  34
HETATM   34  C6  UNL     1     -13.862  -2.269   4.554  1.00  0.00     0.127 A 
HETATM   35  C7  UNL     1     -14.724  -2.612   5.574  1.00  0.00     0.157 A 
HETATM   36  N8  UNL     1     -15.199  -1.646   6.378  1.00  0.00    -0.183 N 
HETATM   37  C9  UNL     1     -14.896  -0.348   6.264  1.00  0.00     0.678 A 
ATOM     38  H8  UNL     1     -15.835  -1.921   7.126  1.00  0.00     0.184 HD
HETATM   39  N10 UNL     1     -14.056  -0.023   5.269  1.00  0.00    -0.175 N 
HETATM   40  C10 UNL     1     -13.543  -0.925   4.431  1.00  0.00     0.145 A 
ATOM     41  H10 UNL     1     -13.798   0.957   5.149  1.00  0.00     0.186 HD
BRANCH  35  42
HETATM   42  C8  UNL     1     -15.122  -4.013   5.794  1.00  0.00     0.230 C 
HETATM   43  O2  UNL     1     -16.280  -4.373   6.008  1.00  0.00    -0.643 OA
HETATM   44  O3  UNL     1     -14.140  -4.996   5.759  1.00  0.00    -0.643 OA
ENDBRANCH  35  42
BRANCH  37  45
HETATM   45  N9  UNL     1     -15.404   0.509   7.085  1.00  0.00    -0.234 N 
ATOM     46  H92 UNL     1     -15.775   1.415   6.801  1.00  0.00     0.174 HD
ATOM     47  H91 UNL     1     -15.450   0.297   8.081  1.00  0.00     0.174 HD
ENDBRANCH  37  45
BRANCH  40  48
HETATM   48  N11 UNL     1     -12.732  -0.567   3.488  1.00  0.00    -0.383 N 
ATOM     49 2H11 UNL     1     -13.048   0.037   2.729  1.00  0.00     0.157 HD
ATOM     50 1H11 UNL     1     -11.768  -0.898   3.523  1.00  0.00     0.157 HD
ENDBRANCH  40  48
ENDBRANCH  31  34
ENDBRANCH   5  30
TORSDOF 11
ENDMDL
MODEL 4
REMARK VINA RESULT: -7.174633113      6.053     10.251
REMARK  11 active torsions:
REMARK  status: ('A' for Active; 'I' for Inactive)
REMARK    1  A    between atoms: O1_2  and  C2_3 
REMARK    2  A    between atoms: C3_8  and  N3_9 
REMARK    3  A    between atoms: N3_9  and  C4_11 
REMARK    4  A    between atoms: N5_15  and  N6_16 
REMARK    5  A    between atoms: N7_18  and  C6_20 
REMARK    6  A    between atoms: C7_21  and  C8_22 
REMARK    7  A    between atoms: C9_27  and  N9_28 
REMARK    8  A    between atoms: C10_33  and  N11_34 
REMARK    9  A    between atoms: C12_39  and  C13_40 
REMARK   10  A    between atoms: C13_40  and  N12_41 
REMARK   11  A    between atoms: C13_40  and  N13_45 
ROOT
HETATM    1  C4  UNL     1     -11.003  -2.662   4.223  1.00  0.00     0.175 A 
HETATM    2  N4  UNL     1     -10.094  -2.220   3.442  1.00  0.00    -0.354 N 
ATOM      3  H4  UNL     1     -10.287  -1.855   2.509  1.00  0.00     0.163 HD
HETATM    4  C5  UNL     1      -8.777  -2.286   4.003  1.00  0.00     0.277 A 
HETATM    5  N5  UNL     1      -8.954  -2.853   5.302  1.00  0.00    -0.222 N 
HETATM    6  C11 UNL     1     -10.371  -3.094   5.446  1.00  0.00     0.308 A 
HETATM    7  O4  UNL     1     -10.920  -3.599   6.486  1.00  0.00    -0.262 OA
ENDROOT
BRANCH   1   8
HETATM    8  N3  UNL     1     -12.410  -2.750   4.002  1.00  0.00    -0.321 N 
ATOM      9  H3  UNL     1     -12.767  -3.405   3.307  1.00  0.00     0.169 HD
BRANCH   8  10
HETATM   10  C3  UNL     1     -13.316  -1.948   4.725  1.00  0.00     0.148 A 
HETATM   11  N2  UNL     1     -13.242  -0.604   4.556  1.00  0.00    -0.281 N 
HETATM   12  N1  UNL     1     -13.999   0.237   5.214  1.00  0.00    -0.263 N 
ATOM     13  H2  UNL     1     -12.566  -0.232   3.889  1.00  0.00     0.188 HD
HETATM   14  C2  UNL     1     -14.895  -0.227   6.097  1.00  0.00     0.238 A 
ATOM     15  H1  UNL     1     -13.909   1.240   5.056  1.00  0.00     0.190 HD
HETATM   16  N14 UNL     1     -14.993  -1.525   6.284  1.00  0.00    -0.318 N 
HETATM   17  C12 UNL     1     -14.217  -2.431   5.613  1.00  0.00     0.116 A 
ATOM     18  H14 UNL     1     -15.676  -1.871   6.957  1.00  0.00     0.169 HD
BRANCH  14  19
HETATM   19  O1  UNL     1     -15.714   0.674   6.809  1.00  0.00    -0.326 OA
HETATM   20  C1  UNL     1     -16.946   1.109   6.266  1.00  0.00     0.213 C 
ENDBRANCH  14  19
BRANCH  17  21
HETATM   21  C13 UNL     1     -14.418  -3.878   5.828  1.00  0.00     0.431 C 
BRANCH  21  22
HETATM   22  N12 UNL     1     -15.816  -4.203   5.807  1.00  0.00    -0.045 N 
ATOM     23 3H12 UNL     1     -16.372  -3.456   5.390  1.00  0.00     0.277 HD
ATOM     24 2H12 UNL     1     -16.023  -4.941   5.134  1.00  0.00     0.277 HD
ATOM     25 1H12 UNL     1     -16.144  -4.442   6.742  1.00  0.00     0.277 HD
ENDBRANCH  21  22
BRANCH  21  26
HETATM   26  N13 UNL     1     -13.805  -4.284   7.090  1.00  0.00    -0.045 N 
ATOM     27 3H13 UNL     1     -12.836  -3.973   7.163  1.00  0.00     0.277 HD
ATOM     28 2H13 UNL     1     -14.187  -3.770   7.884  1.00  0.00     0.277 HD
ATOM     29 1H13 UNL     1     -13.892  -5.293   7.210  1.00  0.00     0.277 HD
ENDBRANCH  21  26
ENDBRANCH  17  21
ENDBRANCH   8  10
ENDBRANCH   1   8
BRANCH   5  30
HETATM   30  N6  UNL     1      -8.044  -3.153   6.291  1.00  0.00    -0.235 N 
HETATM   31  N7  UNL     1      -6.855  -2.922   6.418  1.00  0.00    -0.280 N 
ATOM     32  H7  UNL     1      -6.430  -3.274   7.276  1.00  0.00     0.188 HD
ATOM     33  H6  UNL     1      -8.445  -3.671   7.072  1.00  0.00     0.208 HD
BRANCH  31  34
HETATM   34  C6  UNL     1      -5.984  -2.240   5.550  1.00  0.00     0.127 A 
HETATM   35  C7  UNL     1      -5.189  -2.929   4.659  1.00  0.00     0.157 A 
HETATM   36  N8  UNL     1      -4.372  -2.237   3.847  1.00  0.00    -0.183 N 
HETATM   37  C9  UNL     1      -4.267  -0.904   3.833  1.00  0.00     0.678 A 
ATOM     38  H8  UNL     1      -3.792  -2.766   3.196  1.00  0.00     0.184 HD
HETATM   39  N10 UNL     1      -5.045  -0.241   4.703  1.00  0.00    -0.175 N 
HETATM   40  C10 UNL     1      -5.881  -0.857   5.542  1.00  0.00     0.145 A 
ATOM     41  H10 UNL     1      -4.996   0.777   4.724  1.00  0.00     0.186 HD
BRANCH  35  42
HETATM   42  C8  UNL     1      -5.227  -4.400   4.585  1.00  0.00     0.230 C 
HETATM   43  O2  UNL     1      -4.225  -5.109   4.501  1.00  0.00    -0.643 OA
HETATM   44  O3  UNL     1      -6.464  -5.033   4.612  1.00  0.00    -0.643 OA
ENDBRANCH  35  42
BRANCH  37  45
HETATM   45  N9  UNL     1      -3.452  -0.328   3.016  1.00  0.00    -0.234 N 
ATOM     46  H92 UNL     1      -2.531  -0.696   2.780  1.00  0.00     0.174 HD
ATOM     47  H91 UNL     1      -3.716   0.547   2.563  1.00  0.00     0.174 HD
ENDBRANCH  37  45
BRANCH  40  48
HETATM   48  N11 UNL     1      -6.617  -0.178   6.361  1.00  0.00    -0.383 N 
ATOM     49 2H11 UNL     1      -6.836   0.801   6.177  1.00  0.00     0.157 HD
ATOM     50 1H11 UNL     1      -6.977  -0.644   7.194  1.00  0.00     0.157 HD
ENDBRANCH  40  48
ENDBRANCH  31  34
ENDBRANCH   5  30
TORSDOF 11
ENDMDL
MODEL 5
REMARK VINA RESULT: -6.992501742      2.935      8.024
REMARK  11 active torsions:
REMARK  status: ('A' for Active; 'I' for Inactive)
REMARK    1  A    between atoms: O1_2  and  C2_3 
REMARK    2  A    between atoms: C3_8  and  N3_9 
REMARK    3  A    between atoms: N3_9  and  C4_11 
REMARK    4  A    between atoms: N5_15  and  N6_16 
REMARK    5  A    between atoms: N7_18  and  C6_20 
REMARK    6  A    between atoms: C7_21  and  C8_22 
REMARK    7  A    between atoms: C9_27  and  N9_28 
REMARK    8  A    between atoms: C10_33  and  N11_34 
REMARK    9  A    between atoms: C12_39  and  C13_40 
REMARK   10  A    between atoms: C13_40  and  N12_41 
REMARK   11  A    between atoms: C13_40  and  N13_45 
ROOT
HETATM    1  C4  UNL     1      -5.258  -0.126   6.127  1.00  0.00     0.175 A 
HETATM    2  N4  UNL     1      -4.238  -0.766   6.556  1.00  0.00    -0.354 N 
ATOM      3  H4  UNL     1      -4.299  -1.683   6.999  1.00  0.00     0.163 HD
HETATM    4  C5  UNL     1      -3.001  -0.072   6.353  1.00  0.00     0.277 A 
HETATM    5  N5  UNL     1      -3.363   1.153   5.713  1.00  0.00    -0.222 N 
HETATM    6  C11 UNL     1      -4.799   1.121   5.567  1.00  0.00     0.308 A 
HETATM    7  O4  UNL     1      -5.496   2.053   5.032  1.00  0.00    -0.262 OA
ENDROOT
BRANCH   1   8
HETATM    8  N3  UNL     1      -6.633  -0.506   6.160  1.00  0.00    -0.321 N 
ATOM      9  H3  UNL     1      -7.312   0.116   6.598  1.00  0.00     0.169 HD
BRANCH   8  10
HETATM   10  C3  UNL     1      -7.070  -1.722   5.600  1.00  0.00     0.148 A 
HETATM   11  N2  UNL     1      -7.040  -2.826   6.388  1.00  0.00    -0.281 N 
HETATM   12  N1  UNL     1      -7.376  -4.016   5.956  1.00  0.00    -0.263 N 
ATOM     13  H2  UNL     1      -6.743  -2.726   7.358  1.00  0.00     0.188 HD
HETATM   14  C2  UNL     1      -7.770  -4.174   4.684  1.00  0.00     0.238 A 
ATOM     15  H1  UNL     1      -7.337  -4.818   6.583  1.00  0.00     0.190 HD
HETATM   16  N14 UNL     1      -7.811  -3.124   3.894  1.00  0.00    -0.318 N 
HETATM   17  C12 UNL     1      -7.468  -1.867   4.314  1.00  0.00     0.116 A 
ATOM     18  H14 UNL     1      -8.112  -3.251   2.928  1.00  0.00     0.169 HD
BRANCH  14  19
HETATM   19  O1  UNL     1      -8.132  -5.453   4.213  1.00  0.00    -0.326 OA
HETATM   20  C1  UNL     1      -9.320  -5.635   3.467  1.00  0.00     0.213 C 
ENDBRANCH  14  19
BRANCH  17  21
HETATM   21  C13 UNL     1      -7.591  -0.720   3.391  1.00  0.00     0.431 C 
BRANCH  21  22
HETATM   22  N12 UNL     1      -8.756  -0.861   2.563  1.00  0.00    -0.045 N 
ATOM     23 3H12 UNL     1      -8.518  -0.858   1.571  1.00  0.00     0.277 HD
ATOM     24 2H12 UNL     1      -9.151  -1.799   2.622  1.00  0.00     0.277 HD
ATOM     25 1H12 UNL     1      -9.446  -0.146   2.789  1.00  0.00     0.277 HD
ENDBRANCH  21  22
BRANCH  21  26
HETATM   26  N13 UNL     1      -6.383  -0.602   2.578  1.00  0.00    -0.045 N 
ATOM     27 3H13 UNL     1      -6.357   0.275   2.057  1.00  0.00     0.277 HD
ATOM     28 2H13 UNL     1      -5.550  -0.461   3.149  1.00  0.00     0.277 HD
ATOM     29 1H13 UNL     1      -6.295  -1.413   1.967  1.00  0.00     0.277 HD
ENDBRANCH  21  26
ENDBRANCH  17  21
ENDBRANCH   8  10
ENDBRANCH   1   8
BRANCH   5  30
HETATM   30  N6  UNL     1      -2.594   2.211   5.282  1.00  0.00    -0.235 N 
HETATM   31  N7  UNL     1      -2.438   2.728   4.190  1.00  0.00    -0.280 N 
ATOM     32  H7  UNL     1      -1.791   3.516   4.169  1.00  0.00     0.188 HD
ATOM     33  H6  UNL     1      -2.047   2.648   6.023  1.00  0.00     0.208 HD
BRANCH  31  34
HETATM   34  C6  UNL     1      -3.022   2.394   2.956  1.00  0.00     0.127 A 
HETATM   35  C7  UNL     1      -3.778   3.313   2.258  1.00  0.00     0.157 A 
HETATM   36  N8  UNL     1      -4.316   2.952   1.081  1.00  0.00    -0.183 N 
HETATM   37  C9  UNL     1      -4.174   1.746   0.520  1.00  0.00     0.678 A 
ATOM     38  H8  UNL     1      -4.872   3.646   0.581  1.00  0.00     0.184 HD
HETATM   39  N10 UNL     1      -3.436   0.859   1.205  1.00  0.00    -0.175 N 
HETATM   40  C10 UNL     1      -2.870   1.142   2.380  1.00  0.00     0.145 A 
ATOM     41  H10 UNL     1      -3.303  -0.072   0.811  1.00  0.00     0.186 HD
BRANCH  35  42
HETATM   42  C8  UNL     1      -3.995   4.672   2.781  1.00  0.00     0.230 C 
HETATM   43  O2  UNL     1      -4.245   4.923   3.960  1.00  0.00    -0.643 OA
HETATM   44  O3  UNL     1      -3.915   5.743   1.900  1.00  0.00    -0.643 OA
ENDBRANCH  35  42
BRANCH  37  45
HETATM   45  N9  UNL     1      -4.731   1.492  -0.616  1.00  0.00    -0.234 N 
ATOM     46  H92 UNL     1      -5.266   2.176  -1.151  1.00  0.00     0.174 HD
ATOM     47  H91 UNL     1      -4.650   0.563  -1.028  1.00  0.00     0.174 HD
ENDBRANCH  37  45
BRANCH  40  48
HETATM   48  N11 UNL     1      -2.163   0.256   3.004  1.00  0.00    -0.383 N 
ATOM     49 2H11 UNL     1      -2.421  -0.053   3.941  1.00  0.00     0.157 HD
ATOM     50 1H11 UNL     1      -1.342  -0.130   2.537  1.00  0.00     0.157 HD
ENDBRANCH  40  48
ENDBRANCH  31  34
ENDBRANCH   5  30
TORSDOF 11
ENDMDL
