MODEL 1
REMARK VINA RESULT: -8.648513657      0.000      0.000
REMARK  8 active torsions:
REMARK  status: ('A' for Active; 'I' for Inactive)
REMARK    1  A    between atoms: N5_15  and  C5_16 
REMARK    2  A    between atoms: C6_19  and  C7_20 
REMARK    3  A    between atoms: C7_20  and  C8_21 
REMARK    4  A    between atoms: C8_21  and  C9_22 
REMARK    5  A    between atoms: C12_32  and  C13_33 
REMARK    6  A    between atoms: C13_33  and  N11_34 
REMARK    7  A    between atoms: N11_34  and  N12_36 
REMARK    8  A    between atoms: C14_39  and  O3_40 
ROOT
HETATM    1  C7  UNL     1      -2.599   3.637   4.222  1.00  0.00     0.059 C 
ENDROOT
BRANCH   1   2
HETATM    2  C6  UNL     1      -3.680   4.392   3.529  1.00  0.00     0.234 C 
HETATM    3  N7  UNL     1      -4.997   3.831   3.468  1.00  0.00    -0.112 NA
HETATM    4  N6  UNL     1      -5.150   3.322   2.196  1.00  0.00    -0.091 NA
HETATM    5  C5  UNL     1      -3.840   3.524   1.585  1.00  0.00     0.362 C 
HETATM    6  O5  UNL     1      -3.262   4.626   2.173  1.00  0.00    -0.327 OA
BRANCH   5   7
HETATM    7  N5  UNL     1      -3.760   3.367   0.190  1.00  0.00    -0.223 N 
HETATM    8  C3  UNL     1      -3.368   2.357  -0.602  1.00  0.00     0.170 A 
HETATM    9  C2  UNL     1      -2.908   1.089  -0.286  1.00  0.00     0.292 A 
HETATM   10  C4  UNL     1      -3.484   2.727  -1.917  1.00  0.00     0.171 A 
HETATM   11  N2  UNL     1      -2.587   0.267  -1.284  1.00  0.00    -0.154 N 
HETATM   12  O1  UNL     1      -2.792   0.731   0.886  1.00  0.00    -0.265 OA
HETATM   13  C1  UNL     1      -2.693   0.620  -2.601  1.00  0.00     0.680 A 
ATOM     14  H2  UNL     1      -2.248  -0.667  -1.056  1.00  0.00     0.187 HD
HETATM   15  N1  UNL     1      -2.381  -0.110  -3.585  1.00  0.00    -0.234 N 
HETATM   16  N13 UNL     1      -3.156   1.881  -2.885  1.00  0.00    -0.173 N 
ATOM     17  H12 UNL     1      -2.037  -1.046  -3.374  1.00  0.00     0.174 HD
ATOM     18  H11 UNL     1      -2.460   0.153  -4.567  1.00  0.00     0.174 HD
ATOM     19  H13 UNL     1      -3.250   2.171  -3.858  1.00  0.00     0.186 HD
HETATM   20  N3  UNL     1      -3.957   3.992  -1.922  1.00  0.00    -0.268 N 
HETATM   21  N4  UNL     1      -4.108   4.341  -0.684  1.00  0.00    -0.235 N 
ATOM     22  H3  UNL     1      -4.156   4.564  -2.743  1.00  0.00     0.190 HD
ATOM     23  H4  UNL     1      -4.455   5.257  -0.397  1.00  0.00     0.208 HD
ENDBRANCH   5   7
ENDBRANCH   1   2
BRANCH   1  24
HETATM   24  C8  UNL     1      -3.346   2.659   5.167  1.00  0.00     0.090 C 
BRANCH  24  25
HETATM   25  C9  UNL     1      -3.221   1.261   4.666  1.00  0.00     0.140 A 
HETATM   26  N8  UNL     1      -2.476   0.596   3.899  1.00  0.00    -0.281 N 
HETATM   27  N9  UNL     1      -2.870  -0.659   3.802  1.00  0.00    -0.276 N 
ATOM     28  H8  UNL     1      -1.666   0.981   3.413  1.00  0.00     0.189 HD
HETATM   29  C10 UNL     1      -3.989  -0.759   4.603  1.00  0.00     0.196 A 
ATOM     30  H9  UNL     1      -2.439  -1.400   3.249  1.00  0.00     0.189 HD
HETATM   31  C11 UNL     1      -4.749  -1.966   4.802  1.00  0.00     0.143 A 
HETATM   32  O4  UNL     1      -4.207   0.399   5.122  1.00  0.00    -0.276 OA
HETATM   33  N10 UNL     1      -4.402  -3.141   4.221  1.00  0.00    -0.254 N 
HETATM   34  C14 UNL     1      -5.931  -2.162   5.465  1.00  0.00     0.132 A 
HETATM   35  O2  UNL     1      -5.288  -4.022   4.489  1.00  0.00    -0.237 OA
ATOM     36  H10 UNL     1      -3.567  -3.297   3.658  1.00  0.00     0.195 HD
HETATM   37  C12 UNL     1      -6.258  -3.462   5.254  1.00  0.00     0.131 A 
BRANCH  37  38
HETATM   38  C13 UNL     1      -7.457  -4.236   5.720  1.00  0.00     0.208 C 
BRANCH  38  39
HETATM   39  N11 UNL     1      -8.487  -3.264   5.832  1.00  0.00    -0.337 N 
ATOM     40  H11 UNL     1      -8.366  -2.315   5.481  1.00  0.00     0.179 HD
BRANCH  39  41
HETATM   41  N12 UNL     1      -9.663  -3.666   6.441  1.00  0.00    -0.349 N 
ATOM     42 2H12 UNL     1      -9.710  -3.785   7.453  1.00  0.00     0.176 HD
ATOM     43 1H12 UNL     1     -10.465  -3.832   5.833  1.00  0.00     0.176 HD
ENDBRANCH  39  41
ENDBRANCH  38  39
ENDBRANCH  37  38
BRANCH  34  44
HETATM   44  O3  UNL     1      -6.629  -1.189   6.192  1.00  0.00    -0.356 OA
ATOM     45  H3  UNL     1      -7.458  -1.321   6.638  1.00  0.00     0.218 HD
ENDBRANCH  34  44
ENDBRANCH  24  25
ENDBRANCH   1  24
TORSDOF 8
ENDMDL
MODEL 2
REMARK VINA RESULT: -8.453242087      1.432      1.506
REMARK  8 active torsions:
REMARK  status: ('A' for Active; 'I' for Inactive)
REMARK    1  A    between atoms: N5_15  and  C5_16 
REMARK    2  A    between atoms: C6_19  and  C7_20 
REMARK    3  A    between atoms: C7_20  and  C8_21 
REMARK    4  A    between atoms: C8_21  and  C9_22 
REMARK    5  A    between atoms: C12_32  and  C13_33 
REMARK    6  A    between atoms: C13_33  and  N11_34 
REMARK    7  A    between atoms: N11_34  and  N12_36 
REMARK    8  A    between atoms: C14_39  and  O3_40 
ROOT
HETATM    1  C7  UNL     1      -4.526   3.695   3.775  1.00  0.00     0.059 C 
ENDROOT
BRANCH   1   2
HETATM    2  C6  UNL     1      -3.458   4.241   2.891  1.00  0.00     0.234 C 
HETATM    3  N7  UNL     1      -3.681   5.480   2.207  1.00  0.00    -0.112 NA
HETATM    4  N6  UNL     1      -3.979   5.160   0.900  1.00  0.00    -0.091 NA
HETATM    5  C5  UNL     1      -4.018   3.701   0.903  1.00  0.00     0.362 C 
HETATM    6  O5  UNL     1      -3.164   3.255   1.886  1.00  0.00    -0.327 OA
BRANCH   5   7
HETATM    7  N5  UNL     1      -4.016   3.064  -0.350  1.00  0.00    -0.223 N 
HETATM    8  C3  UNL     1      -4.376   1.837  -0.761  1.00  0.00     0.170 A 
HETATM    9  C2  UNL     1      -4.897   0.767  -0.053  1.00  0.00     0.292 A 
HETATM   10  C4  UNL     1      -4.167   1.721  -2.111  1.00  0.00     0.171 A 
HETATM   11  N2  UNL     1      -5.176  -0.353  -0.719  1.00  0.00    -0.154 N 
HETATM   12  O1  UNL     1      -5.092   0.843   1.160  1.00  0.00    -0.265 OA
HETATM   13  C1  UNL     1      -4.973  -0.489  -2.064  1.00  0.00     0.680 A 
ATOM     14  H2  UNL     1      -5.560  -1.144  -0.202  1.00  0.00     0.187 HD
HETATM   15  N1  UNL     1      -5.197  -1.534  -2.740  1.00  0.00    -0.234 N 
HETATM   16  N13 UNL     1      -4.459   0.590  -2.741  1.00  0.00    -0.173 N 
ATOM     17  H12 UNL     1      -5.578  -2.335  -2.237  1.00  0.00     0.174 HD
ATOM     18  H11 UNL     1      -5.045  -1.635  -3.743  1.00  0.00     0.174 HD
ATOM     19  H13 UNL     1      -4.300   0.521  -3.745  1.00  0.00     0.186 HD
HETATM   20  N3  UNL     1      -3.669   2.904  -2.528  1.00  0.00    -0.268 N 
HETATM   21  N4  UNL     1      -3.590   3.667  -1.485  1.00  0.00    -0.235 N 
ATOM     22  H3  UNL     1      -3.404   3.150  -3.482  1.00  0.00     0.190 HD
ATOM     23  H4  UNL     1      -3.242   4.626  -1.516  1.00  0.00     0.208 HD
ENDBRANCH   5   7
ENDBRANCH   1   2
BRANCH   1  24
HETATM   24  C8  UNL     1      -3.771   2.820   4.811  1.00  0.00     0.090 C 
BRANCH  24  25
HETATM   25  C9  UNL     1      -3.626   1.428   4.301  1.00  0.00     0.140 A 
HETATM   26  N8  UNL     1      -2.930   0.797   3.462  1.00  0.00    -0.281 N 
HETATM   27  N9  UNL     1      -3.266  -0.478   3.407  1.00  0.00    -0.276 N 
ATOM     28  H8  UNL     1      -2.196   1.220   2.894  1.00  0.00     0.189 HD
HETATM   29  C10 UNL     1      -4.289  -0.630   4.320  1.00  0.00     0.196 A 
ATOM     30  H9  UNL     1      -2.856  -1.199   2.814  1.00  0.00     0.189 HD
HETATM   31  C11 UNL     1      -4.960  -1.874   4.599  1.00  0.00     0.143 A 
HETATM   32  O4  UNL     1      -4.513   0.518   4.858  1.00  0.00    -0.276 OA
HETATM   33  N10 UNL     1      -4.615  -3.033   3.986  1.00  0.00    -0.254 N 
HETATM   34  C14 UNL     1      -6.055  -2.126   5.381  1.00  0.00     0.132 A 
HETATM   35  O2  UNL     1      -5.421  -3.957   4.347  1.00  0.00    -0.237 OA
ATOM     36  H10 UNL     1      -3.835  -3.150   3.340  1.00  0.00     0.195 HD
HETATM   37  C12 UNL     1      -6.334  -3.443   5.208  1.00  0.00     0.131 A 
BRANCH  37  38
HETATM   38  C13 UNL     1      -7.436  -4.275   5.797  1.00  0.00     0.208 C 
BRANCH  38  39
HETATM   39  N11 UNL     1      -7.468  -3.906   7.167  1.00  0.00    -0.337 N 
ATOM     40  H11 UNL     1      -6.742  -3.321   7.580  1.00  0.00     0.179 HD
BRANCH  39  41
HETATM   41  N12 UNL     1      -8.532  -4.376   7.918  1.00  0.00    -0.349 N 
ATOM     42 2H12 UNL     1      -8.901  -5.315   7.764  1.00  0.00     0.176 HD
ATOM     43 1H12 UNL     1      -8.918  -3.744   8.619  1.00  0.00     0.176 HD
ENDBRANCH  39  41
ENDBRANCH  38  39
ENDBRANCH  37  38
BRANCH  34  44
HETATM   44  O3  UNL     1      -6.723  -1.186   6.176  1.00  0.00    -0.356 OA
ATOM     45  H3  UNL     1      -6.368  -0.762   6.949  1.00  0.00     0.218 HD
ENDBRANCH  34  44
ENDBRANCH  24  25
ENDBRANCH   1  24
TORSDOF 8
ENDMDL
MODEL 3
REMARK VINA RESULT: -8.429475144      4.845      8.948
REMARK  8 active torsions:
REMARK  status: ('A' for Active; 'I' for Inactive)
REMARK    1  A    between atoms: N5_15  and  C5_16 
REMARK    2  A    between atoms: C6_19  and  C7_20 
REMARK    3  A    between atoms: C7_20  and  C8_21 
REMARK    4  A    between atoms: C8_21  and  C9_22 
REMARK    5  A    between atoms: C12_32  and  C13_33 
REMARK    6  A    between atoms: C13_33  and  N11_34 
REMARK    7  A    between atoms: N11_34  and  N12_36 
REMARK    8  A    between atoms: C14_39  and  O3_40 
ROOT
HETATM    1  C7  UNL     1      -8.997  -3.658   4.033  1.00  0.00     0.059 C 
ENDROOT
BRANCH   1   2
HETATM    2  C6  UNL     1      -7.892  -4.495   4.582  1.00  0.00     0.234 C 
HETATM    3  N7  UNL     1      -7.722  -4.585   6.002  1.00  0.00    -0.112 NA
HETATM    4  N6  UNL     1      -6.662  -3.766   6.325  1.00  0.00    -0.091 NA
HETATM    5  C5  UNL     1      -6.315  -3.136   5.054  1.00  0.00     0.362 C 
HETATM    6  O5  UNL     1      -6.652  -4.005   4.042  1.00  0.00    -0.327 OA
BRANCH   5   7
HETATM    7  N5  UNL     1      -5.084  -2.459   4.998  1.00  0.00    -0.223 N 
HETATM    8  C3  UNL     1      -4.700  -1.217   5.334  1.00  0.00     0.170 A 
HETATM    9  C2  UNL     1      -5.421  -0.165   5.875  1.00  0.00     0.292 A 
HETATM   10  C4  UNL     1      -3.364  -1.059   5.071  1.00  0.00     0.171 A 
HETATM   11  N2  UNL     1      -4.781   0.977   6.120  1.00  0.00    -0.154 N 
HETATM   12  O1  UNL     1      -6.622  -0.279   6.119  1.00  0.00    -0.265 OA
HETATM   13  C1  UNL     1      -3.451   1.155   5.862  1.00  0.00     0.680 A 
ATOM     14  H2  UNL     1      -5.308   1.754   6.518  1.00  0.00     0.187 HD
HETATM   15  N1  UNL     1      -2.801   2.223   6.053  1.00  0.00    -0.234 N 
HETATM   16  N13 UNL     1      -2.760   0.094   5.330  1.00  0.00    -0.173 N 
ATOM     17  H12 UNL     1      -3.314   3.010   6.448  1.00  0.00     0.174 HD
ATOM     18  H11 UNL     1      -1.808   2.355   5.861  1.00  0.00     0.174 HD
ATOM     19  H13 UNL     1      -1.765   0.195   5.131  1.00  0.00     0.186 HD
HETATM   20  N3  UNL     1      -2.928  -2.232   4.564  1.00  0.00    -0.268 N 
HETATM   21  N4  UNL     1      -3.948  -3.029   4.531  1.00  0.00    -0.235 N 
ATOM     22  H3  UNL     1      -1.978  -2.449   4.263  1.00  0.00     0.190 HD
ATOM     23  H4  UNL     1      -3.900  -3.989   4.189  1.00  0.00     0.208 HD
ENDBRANCH   5   7
ENDBRANCH   1   2
BRANCH   1  24
HETATM   24  C8  UNL     1      -9.978  -4.675   3.391  1.00  0.00     0.090 C 
BRANCH  24  25
HETATM   25  C9  UNL     1     -11.213  -4.791   4.217  1.00  0.00     0.140 A 
HETATM   26  N8  UNL     1     -11.927  -5.694   4.727  1.00  0.00    -0.281 N 
HETATM   27  N9  UNL     1     -12.968  -5.194   5.365  1.00  0.00    -0.276 N 
ATOM     28  H8  UNL     1     -11.725  -6.692   4.654  1.00  0.00     0.189 HD
HETATM   29  C10 UNL     1     -12.869  -3.826   5.219  1.00  0.00     0.196 A 
ATOM     30  H9  UNL     1     -13.694  -5.710   5.862  1.00  0.00     0.189 HD
HETATM   31  C11 UNL     1     -13.799  -2.873   5.768  1.00  0.00     0.143 A 
HETATM   32  O4  UNL     1     -11.814  -3.578   4.522  1.00  0.00    -0.276 OA
HETATM   33  N10 UNL     1     -14.865  -3.254   6.516  1.00  0.00    -0.254 N 
HETATM   34  C14 UNL     1     -13.877  -1.518   5.592  1.00  0.00     0.132 A 
HETATM   35  O2  UNL     1     -15.570  -2.228   6.799  1.00  0.00    -0.237 OA
ATOM     36  H10 UNL     1     -15.071  -4.210   6.806  1.00  0.00     0.195 HD
HETATM   37  C12 UNL     1     -15.001  -1.128   6.246  1.00  0.00     0.131 A 
BRANCH  37  38
HETATM   38  C13 UNL     1     -15.606   0.240   6.380  1.00  0.00     0.208 C 
BRANCH  38  39
HETATM   39  N11 UNL     1     -16.303   0.203   7.616  1.00  0.00    -0.337 N 
ATOM     40  H11 UNL     1     -17.322   0.211   7.656  1.00  0.00     0.179 HD
BRANCH  39  41
HETATM   41  N12 UNL     1     -15.534   0.155   8.767  1.00  0.00    -0.349 N 
ATOM     42 2H12 UNL     1     -15.459  -0.709   9.305  1.00  0.00     0.176 HD
ATOM     43 1H12 UNL     1     -15.058   1.014   9.041  1.00  0.00     0.176 HD
ENDBRANCH  39  41
ENDBRANCH  38  39
ENDBRANCH  37  38
BRANCH  34  44
HETATM   44  O3  UNL     1     -12.967  -0.735   4.871  1.00  0.00    -0.356 OA
ATOM     45  H3  UNL     1     -12.026  -0.713   5.009  1.00  0.00     0.218 HD
ENDBRANCH  34  44
ENDBRANCH  24  25
ENDBRANCH   1  24
TORSDOF 8
ENDMDL
MODEL 4
REMARK VINA RESULT: -8.421985413      5.691      9.318
REMARK  8 active torsions:
REMARK  status: ('A' for Active; 'I' for Inactive)
REMARK    1  A    between atoms: N5_15  and  C5_16 
REMARK    2  A    between atoms: C6_19  and  C7_20 
REMARK    3  A    between atoms: C7_20  and  C8_21 
REMARK    4  A    between atoms: C8_21  and  C9_22 
REMARK    5  A    between atoms: C12_32  and  C13_33 
REMARK    6  A    between atoms: C13_33  and  N11_34 
REMARK    7  A    between atoms: N11_34  and  N12_36 
REMARK    8  A    between atoms: C14_39  and  O3_40 
ROOT
HETATM    1  C7  UNL     1      -9.490  -2.928   5.446  1.00  0.00     0.059 C 
ENDROOT
BRANCH   1   2
HETATM    2  C6  UNL     1      -8.578  -3.724   4.578  1.00  0.00     0.234 C 
HETATM    3  N7  UNL     1      -7.945  -4.893   5.113  1.00  0.00    -0.112 NA
HETATM    4  N6  UNL     1      -6.643  -4.542   5.397  1.00  0.00    -0.091 NA
HETATM    5  C5  UNL     1      -6.600  -3.113   5.101  1.00  0.00     0.362 C 
HETATM    6  O5  UNL     1      -7.528  -2.854   4.118  1.00  0.00    -0.327 OA
BRANCH   5   7
HETATM    7  N5  UNL     1      -5.327  -2.522   5.018  1.00  0.00    -0.223 N 
HETATM    8  C3  UNL     1      -4.848  -1.316   5.363  1.00  0.00     0.170 A 
HETATM    9  C2  UNL     1      -5.477  -0.229   5.946  1.00  0.00     0.292 A 
HETATM   10  C4  UNL     1      -3.513  -1.245   5.061  1.00  0.00     0.171 A 
HETATM   11  N2  UNL     1      -4.753   0.862   6.191  1.00  0.00    -0.154 N 
HETATM   12  O1  UNL     1      -6.676  -0.265   6.226  1.00  0.00    -0.265 OA
HETATM   13  C1  UNL     1      -3.422   0.953   5.895  1.00  0.00     0.680 A 
ATOM     14  H2  UNL     1      -5.212   1.666   6.620  1.00  0.00     0.187 HD
HETATM   15  N1  UNL     1      -2.694   1.970   6.084  1.00  0.00    -0.234 N 
HETATM   16  N13 UNL     1      -2.823  -0.142   5.322  1.00  0.00    -0.173 N 
ATOM     17  H12 UNL     1      -3.138   2.783   6.509  1.00  0.00     0.174 HD
ATOM     18  H11 UNL     1      -1.700   2.037   5.862  1.00  0.00     0.174 HD
ATOM     19  H13 UNL     1      -1.830  -0.106   5.093  1.00  0.00     0.186 HD
HETATM   20  N3  UNL     1      -3.175  -2.435   4.520  1.00  0.00    -0.268 N 
HETATM   21  N4  UNL     1      -4.248  -3.159   4.506  1.00  0.00    -0.235 N 
ATOM     22  H3  UNL     1      -2.251  -2.711   4.186  1.00  0.00     0.190 HD
ATOM     23  H4  UNL     1      -4.277  -4.113   4.145  1.00  0.00     0.208 HD
ENDBRANCH   5   7
ENDBRANCH   1   2
BRANCH   1  24
HETATM   24  C8  UNL     1     -10.916  -3.398   5.053  1.00  0.00     0.090 C 
BRANCH  24  25
HETATM   25  C9  UNL     1     -11.722  -2.245   4.562  1.00  0.00     0.140 A 
HETATM   26  N8  UNL     1     -11.724  -1.439   3.594  1.00  0.00    -0.281 N 
HETATM   27  N9  UNL     1     -12.707  -0.563   3.690  1.00  0.00    -0.276 N 
ATOM     28  H8  UNL     1     -11.049  -1.460   2.830  1.00  0.00     0.189 HD
HETATM   29  C10 UNL     1     -13.372  -0.879   4.856  1.00  0.00     0.196 A 
ATOM     30  H9  UNL     1     -12.928   0.190   3.038  1.00  0.00     0.189 HD
HETATM   31  C11 UNL     1     -14.529  -0.181   5.355  1.00  0.00     0.143 A 
HETATM   32  O4  UNL     1     -12.778  -1.890   5.388  1.00  0.00    -0.276 OA
HETATM   33  N10 UNL     1     -15.088   0.859   4.687  1.00  0.00    -0.254 N 
HETATM   34  C14 UNL     1     -15.195  -0.319   6.543  1.00  0.00     0.132 A 
HETATM   35  O2  UNL     1     -16.037   1.349   5.388  1.00  0.00    -0.237 OA
ATOM     36  H10 UNL     1     -14.796   1.196   3.770  1.00  0.00     0.195 HD
HETATM   37  C12 UNL     1     -16.140   0.656   6.549  1.00  0.00     0.131 A 
BRANCH  37  38
HETATM   38  C13 UNL     1     -17.152   1.003   7.602  1.00  0.00     0.208 C 
BRANCH  38  39
HETATM   39  N11 UNL     1     -17.795   2.169   7.109  1.00  0.00    -0.337 N 
ATOM     40  H11 UNL     1     -17.359   2.760   6.401  1.00  0.00     0.179 HD
BRANCH  39  41
HETATM   41  N12 UNL     1     -19.041   2.466   7.632  1.00  0.00    -0.349 N 
ATOM     42 2H12 UNL     1     -19.265   2.238   8.601  1.00  0.00     0.176 HD
ATOM     43 1H12 UNL     1     -19.710   2.916   7.007  1.00  0.00     0.176 HD
ENDBRANCH  39  41
ENDBRANCH  38  39
ENDBRANCH  37  38
BRANCH  34  44
HETATM   44  O3  UNL     1     -14.919  -1.278   7.526  1.00  0.00    -0.356 OA
ATOM     45  H3  UNL     1     -15.295  -1.300   8.399  1.00  0.00     0.218 HD
ENDBRANCH  34  44
ENDBRANCH  24  25
ENDBRANCH   1  24
TORSDOF 8
ENDMDL
MODEL 5
REMARK VINA RESULT: -8.363704652      2.252      7.684
REMARK  8 active torsions:
REMARK  status: ('A' for Active; 'I' for Inactive)
REMARK    1  A    between atoms: N5_15  and  C5_16 
REMARK    2  A    between atoms: C6_19  and  C7_20 
REMARK    3  A    between atoms: C7_20  and  C8_21 
REMARK    4  A    between atoms: C8_21  and  C9_22 
REMARK    5  A    between atoms: C12_32  and  C13_33 
REMARK    6  A    between atoms: C13_33  and  N11_34 
REMARK    7  A    between atoms: N11_34  and  N12_36 
REMARK    8  A    between atoms: C14_39  and  O3_40 
ROOT
HETATM    1  C7  UNL     1      -5.496   1.813   5.244  1.00  0.00     0.059 C 
ENDROOT
BRANCH   1   2
HETATM    2  C6  UNL     1      -5.501   0.981   6.480  1.00  0.00     0.234 C 
HETATM    3  N7  UNL     1      -4.359   0.170   6.782  1.00  0.00    -0.112 NA
HETATM    4  N6  UNL     1      -4.695  -1.124   6.445  1.00  0.00    -0.091 NA
HETATM    5  C5  UNL     1      -6.021  -0.991   5.849  1.00  0.00     0.362 C 
HETATM    6  O5  UNL     1      -6.636   0.100   6.419  1.00  0.00    -0.327 OA
BRANCH   5   7
HETATM    7  N5  UNL     1      -6.755  -2.176   5.666  1.00  0.00    -0.223 N 
HETATM    8  C3  UNL     1      -7.361  -2.729   4.602  1.00  0.00     0.170 A 
HETATM    9  C2  UNL     1      -7.450  -2.295   3.290  1.00  0.00     0.292 A 
HETATM   10  C4  UNL     1      -7.949  -3.911   4.968  1.00  0.00     0.171 A 
HETATM   11  N2  UNL     1      -8.118  -3.053   2.421  1.00  0.00    -0.154 N 
HETATM   12  O1  UNL     1      -6.932  -1.237   2.935  1.00  0.00    -0.265 OA
HETATM   13  C1  UNL     1      -8.714  -4.233   2.767  1.00  0.00     0.680 A 
ATOM     14  H2  UNL     1      -8.187  -2.738   1.453  1.00  0.00     0.187 HD
HETATM   15  N1  UNL     1      -9.379  -4.977   1.990  1.00  0.00    -0.234 N 
HETATM   16  N13 UNL     1      -8.605  -4.640   4.074  1.00  0.00    -0.173 N 
ATOM     17  H12 UNL     1      -9.460  -4.675   1.019  1.00  0.00     0.174 HD
ATOM     18  H11 UNL     1      -9.824  -5.858   2.248  1.00  0.00     0.174 HD
ATOM     19  H13 UNL     1      -9.036  -5.518   4.362  1.00  0.00     0.186 HD
HETATM   20  N3  UNL     1      -7.695  -4.079   6.284  1.00  0.00    -0.268 N 
HETATM   21  N4  UNL     1      -7.000  -3.056   6.665  1.00  0.00    -0.235 N 
ATOM     22  H3  UNL     1      -7.995  -4.861   6.866  1.00  0.00     0.190 HD
ATOM     23  H4  UNL     1      -6.670  -2.926   7.622  1.00  0.00     0.208 HD
ENDBRANCH   5   7
ENDBRANCH   1   2
BRANCH   1  24
HETATM   24  C8  UNL     1      -4.013   2.232   5.057  1.00  0.00     0.090 C 
BRANCH  24  25
HETATM   25  C9  UNL     1      -3.331   1.306   4.109  1.00  0.00     0.140 A 
HETATM   26  N8  UNL     1      -2.513   0.350   4.147  1.00  0.00    -0.281 N 
HETATM   27  N9  UNL     1      -2.228  -0.099   2.939  1.00  0.00    -0.276 N 
ATOM     28  H8  UNL     1      -2.118  -0.031   5.007  1.00  0.00     0.189 HD
HETATM   29  C10 UNL     1      -2.961   0.685   2.072  1.00  0.00     0.196 A 
ATOM     30  H9  UNL     1      -1.598  -0.864   2.698  1.00  0.00     0.189 HD
HETATM   31  C11 UNL     1      -2.962   0.539   0.639  1.00  0.00     0.143 A 
HETATM   32  O4  UNL     1      -3.624   1.537   2.773  1.00  0.00    -0.276 OA
HETATM   33  N10 UNL     1      -2.241  -0.422   0.011  1.00  0.00    -0.254 N 
HETATM   34  C14 UNL     1      -3.542   1.321  -0.324  1.00  0.00     0.132 A 
HETATM   35  O2  UNL     1      -2.350  -0.272  -1.253  1.00  0.00    -0.237 OA
ATOM     36  H10 UNL     1      -1.697  -1.150   0.474  1.00  0.00     0.195 HD
HETATM   37  C12 UNL     1      -3.143   0.797  -1.511  1.00  0.00     0.131 A 
BRANCH  37  38
HETATM   38  C13 UNL     1      -3.449   1.250  -2.909  1.00  0.00     0.208 C 
BRANCH  38  39
HETATM   39  N11 UNL     1      -3.252   2.656  -2.880  1.00  0.00    -0.337 N 
ATOM     40  H11 UNL     1      -2.351   3.064  -2.629  1.00  0.00     0.179 HD
BRANCH  39  41
HETATM   41  N12 UNL     1      -4.338   3.448  -3.209  1.00  0.00    -0.349 N 
ATOM     42 2H12 UNL     1      -4.597   3.595  -4.184  1.00  0.00     0.176 HD
ATOM     43 1H12 UNL     1      -4.855   3.867  -2.435  1.00  0.00     0.176 HD
ENDBRANCH  39  41
ENDBRANCH  38  39
ENDBRANCH  37  38
BRANCH  34  44
HETATM   44  O3  UNL     1      -4.366   2.429  -0.088  1.00  0.00    -0.356 OA
ATOM     45  H3  UNL     1      -5.077   2.465   0.542  1.00  0.00     0.218 HD
ENDBRANCH  34  44
ENDBRANCH  24  25
ENDBRANCH   1  24
TORSDOF 8
ENDMDL
