MODEL 1
REMARK VINA RESULT: -7.910935026      0.000      0.000
REMARK  9 active torsions:
REMARK  status: ('A' for Active; 'I' for Inactive)
REMARK    1  A    between atoms: N1_2  and  N2_3 
REMARK    2  A    between atoms: N1_2  and  C6_21 
REMARK    3  A    between atoms: N2_3  and  C2_5 
REMARK    4  A    between atoms: C2_5  and  O1_6 
REMARK    5  A    between atoms: C2_5  and  C3_8 
REMARK    6  A    between atoms: C3_8  and  N3_9 
REMARK    7  A    between atoms: C8_24  and  C9_25 
REMARK    8  A    between atoms: C12_31  and  N10_32 
REMARK    9  A    between atoms: C13_35  and  N11_36 
ROOT
HETATM    1  C6  UNL     1     -12.733  -3.124   4.730  1.00  0.00     0.185 C 
HETATM    2  C7  UNL     1     -12.856  -4.153   5.790  1.00  0.00     0.123 C 
HETATM    3  S1  UNL     1     -14.447  -3.648   6.526  1.00  0.00    -0.108 SA
HETATM    4  C8  UNL     1     -14.341  -1.979   5.891  1.00  0.00     0.081 C 
HETATM    5  N12 UNL     1     -13.439  -1.962   5.029  1.00  0.00    -0.365 N 
ATOM      6  H12 UNL     1     -13.218  -1.094   4.541  1.00  0.00     0.162 HD
ENDROOT
BRANCH   1   7
HETATM    7  N1  UNL     1     -11.362  -2.772   4.387  1.00  0.00    -0.214 NA
HETATM    8  C1  UNL     1     -11.245  -1.511   3.717  1.00  0.00     0.138 C 
BRANCH   7   9
HETATM    9  N2  UNL     1     -10.544  -2.718   5.510  1.00  0.00    -0.321 N 
ATOM     10  H2  UNL     1     -10.727  -2.087   6.291  1.00  0.00     0.177 HD
BRANCH   9  11
HETATM   11  C2  UNL     1      -9.428  -3.610   5.490  1.00  0.00     0.293 C 
BRANCH  11  12
HETATM   12  O1  UNL     1      -9.109  -3.894   6.826  1.00  0.00    -0.371 OA
ATOM     13  H1  UNL     1      -8.171  -4.040   6.860  1.00  0.00     0.212 HD
ENDBRANCH  11  12
BRANCH  11  14
HETATM   14  C3  UNL     1      -8.193  -3.003   4.872  1.00  0.00     0.298 A 
HETATM   15  N4  UNL     1      -8.121  -1.578   5.078  1.00  0.00    -0.322 N 
HETATM   16  C4  UNL     1      -7.096  -1.277   5.802  1.00  0.00     0.191 A 
ATOM     17  H4  UNL     1      -8.787  -0.901   4.703  1.00  0.00     0.165 HD
HETATM   18  N5  UNL     1      -6.669   0.022   6.234  1.00  0.00    -0.063 NA
HETATM   19  N6  UNL     1      -6.403  -2.472   6.136  1.00  0.00    -0.319 N 
HETATM   20  C5  UNL     1      -7.000  -3.498   5.620  1.00  0.00     0.157 A 
ATOM     21  H6  UNL     1      -5.555  -2.515   6.701  1.00  0.00     0.169 HD
HETATM   22  N7  UNL     1      -6.612  -4.861   5.730  1.00  0.00    -0.083 NA
BRANCH  14  23
HETATM   23  N3  UNL     1      -8.039  -3.353   3.488  1.00  0.00    -0.041 N 
ATOM     24  H33 UNL     1      -8.158  -4.356   3.348  1.00  0.00     0.278 HD
ATOM     25  H32 UNL     1      -8.826  -3.016   2.935  1.00  0.00     0.278 HD
ATOM     26  H31 UNL     1      -7.153  -3.031   3.098  1.00  0.00     0.278 HD
ENDBRANCH  14  23
ENDBRANCH  11  14
ENDBRANCH   9  11
ENDBRANCH   7   9
ENDBRANCH   1   7
BRANCH   4  27
HETATM   27  C9  UNL     1     -15.204  -0.907   6.370  1.00  0.00     0.041 A 
HETATM   28  C10 UNL     1     -15.265  -0.572   7.721  1.00  0.00     0.106 A 
HETATM   29  N8  UNL     1     -16.062   0.418   8.178  1.00  0.00    -0.351 N 
HETATM   30  C11 UNL     1     -16.852   1.148   7.353  1.00  0.00     0.151 A 
ATOM     31  H8  UNL     1     -16.070   0.623   9.177  1.00  0.00     0.166 HD
HETATM   32  N9  UNL     1     -17.688   2.193   7.851  1.00  0.00    -0.080 NA
HETATM   33  C12 UNL     1     -16.823   0.849   5.988  1.00  0.00     0.171 A 
HETATM   34  C13 UNL     1     -16.007  -0.165   5.533  1.00  0.00     0.077 A 
BRANCH  33  35
HETATM   35  N10 UNL     1     -17.641   1.601   5.104  1.00  0.00    -0.110 N 
HETATM   36  O2  UNL     1     -18.818   1.266   4.827  1.00  0.00    -0.532 OA
HETATM   37  O3  UNL     1     -17.189   2.756   4.487  1.00  0.00    -0.532 OA
ENDBRANCH  33  35
BRANCH  34  38
HETATM   38  N11 UNL     1     -15.991  -0.435   4.252  1.00  0.00    -0.396 N 
ATOM     39 2H11 UNL     1     -15.186  -0.144   3.698  1.00  0.00     0.156 HD
ATOM     40 1H11 UNL     1     -16.787  -0.930   3.851  1.00  0.00     0.156 HD
ENDBRANCH  34  38
ENDBRANCH   4  27
TORSDOF 9
ENDMDL
MODEL 2
REMARK VINA RESULT: -7.831852830      3.211      5.189
REMARK  9 active torsions:
REMARK  status: ('A' for Active; 'I' for Inactive)
REMARK    1  A    between atoms: N1_2  and  N2_3 
REMARK    2  A    between atoms: N1_2  and  C6_21 
REMARK    3  A    between atoms: N2_3  and  C2_5 
REMARK    4  A    between atoms: C2_5  and  O1_6 
REMARK    5  A    between atoms: C2_5  and  C3_8 
REMARK    6  A    between atoms: C3_8  and  N3_9 
REMARK    7  A    between atoms: C8_24  and  C9_25 
REMARK    8  A    between atoms: C12_31  and  N10_32 
REMARK    9  A    between atoms: C13_35  and  N11_36 
ROOT
HETATM    1  C6  UNL     1      -8.125  -1.730   4.594  1.00  0.00     0.185 C 
HETATM    2  C7  UNL     1      -8.060  -2.304   3.229  1.00  0.00     0.123 C 
HETATM    3  S1  UNL     1      -9.840  -2.542   2.911  1.00  0.00    -0.108 SA
HETATM    4  C8  UNL     1     -10.267  -2.535   4.648  1.00  0.00     0.081 C 
HETATM    5  N12 UNL     1      -9.280  -2.101   5.276  1.00  0.00    -0.365 N 
ATOM      6  H12 UNL     1      -9.320  -2.017   6.291  1.00  0.00     0.162 HD
ENDROOT
BRANCH   1   7
HETATM    7  N1  UNL     1      -6.966  -2.024   5.427  1.00  0.00    -0.214 NA
HETATM    8  C1  UNL     1      -6.890  -3.394   5.838  1.00  0.00     0.138 C 
BRANCH   7   9
HETATM    9  N2  UNL     1      -5.773  -1.722   4.780  1.00  0.00    -0.321 N 
ATOM     10  H2  UNL     1      -5.173  -2.440   4.374  1.00  0.00     0.177 HD
BRANCH   9  11
HETATM   11  C2  UNL     1      -5.449  -0.331   4.727  1.00  0.00     0.293 C 
BRANCH  11  12
HETATM   12  O1  UNL     1      -4.291  -0.211   3.944  1.00  0.00    -0.371 OA
ATOM     13  H1  UNL     1      -4.319   0.647   3.539  1.00  0.00     0.212 HD
ENDBRANCH  11  12
BRANCH  11  14
HETATM   14  C3  UNL     1      -5.117   0.253   6.078  1.00  0.00     0.298 A 
HETATM   15  N4  UNL     1      -4.380  -0.666   6.907  1.00  0.00    -0.322 N 
HETATM   16  C4  UNL     1      -3.202  -0.204   7.159  1.00  0.00     0.191 A 
ATOM     17  H4  UNL     1      -4.739  -1.559   7.248  1.00  0.00     0.165 HD
HETATM   18  N5  UNL     1      -2.163  -0.808   7.942  1.00  0.00    -0.063 NA
HETATM   19  N6  UNL     1      -3.058   1.058   6.521  1.00  0.00    -0.319 N 
HETATM   20  C5  UNL     1      -4.141   1.366   5.883  1.00  0.00     0.157 A 
ATOM     21  H6  UNL     1      -2.221   1.639   6.561  1.00  0.00     0.169 HD
HETATM   22  N7  UNL     1      -4.385   2.544   5.125  1.00  0.00    -0.083 NA
BRANCH  14  23
HETATM   23  N3  UNL     1      -6.272   0.776   6.753  1.00  0.00    -0.041 N 
ATOM     24  H33 UNL     1      -6.314   1.791   6.675  1.00  0.00     0.278 HD
ATOM     25  H32 UNL     1      -7.127   0.538   6.252  1.00  0.00     0.278 HD
ATOM     26  H31 UNL     1      -6.324   0.480   7.728  1.00  0.00     0.278 HD
ENDBRANCH  14  23
ENDBRANCH  11  14
ENDBRANCH   9  11
ENDBRANCH   7   9
ENDBRANCH   1   7
BRANCH   4  27
HETATM   27  C9  UNL     1     -11.567  -2.981   5.132  1.00  0.00     0.041 A 
HETATM   28  C10 UNL     1     -11.732  -4.231   5.726  1.00  0.00     0.106 A 
HETATM   29  N8  UNL     1     -12.931  -4.657   6.178  1.00  0.00    -0.351 N 
HETATM   30  C11 UNL     1     -14.050  -3.897   6.083  1.00  0.00     0.151 A 
ATOM     31  H8  UNL     1     -12.998  -5.581   6.605  1.00  0.00     0.166 HD
HETATM   32  N9  UNL     1     -15.311  -4.361   6.565  1.00  0.00    -0.080 NA
HETATM   33  C12 UNL     1     -13.933  -2.635   5.494  1.00  0.00     0.171 A 
HETATM   34  C13 UNL     1     -12.704  -2.211   5.036  1.00  0.00     0.077 A 
BRANCH  33  35
HETATM   35  N10 UNL     1     -15.092  -1.821   5.383  1.00  0.00    -0.110 N 
HETATM   36  O2  UNL     1     -15.668  -1.615   4.288  1.00  0.00    -0.532 OA
HETATM   37  O3  UNL     1     -15.660  -1.197   6.483  1.00  0.00    -0.532 OA
ENDBRANCH  33  35
BRANCH  34  38
HETATM   38  N11 UNL     1     -12.610  -1.027   4.486  1.00  0.00    -0.396 N 
ATOM     39 2H11 UNL     1     -11.750  -0.494   4.611  1.00  0.00     0.156 HD
ATOM     40 1H11 UNL     1     -13.404  -0.677   3.949  1.00  0.00     0.156 HD
ENDBRANCH  34  38
ENDBRANCH   4  27
TORSDOF 9
ENDMDL
MODEL 3
REMARK VINA RESULT: -7.623516815      3.149      4.981
REMARK  9 active torsions:
REMARK  status: ('A' for Active; 'I' for Inactive)
REMARK    1  A    between atoms: N1_2  and  N2_3 
REMARK    2  A    between atoms: N1_2  and  C6_21 
REMARK    3  A    between atoms: N2_3  and  C2_5 
REMARK    4  A    between atoms: C2_5  and  O1_6 
REMARK    5  A    between atoms: C2_5  and  C3_8 
REMARK    6  A    between atoms: C3_8  and  N3_9 
REMARK    7  A    between atoms: C8_24  and  C9_25 
REMARK    8  A    between atoms: C12_31  and  N10_32 
REMARK    9  A    between atoms: C13_35  and  N11_36 
ROOT
HETATM    1  C6  UNL     1      -8.219  -2.022   4.853  1.00  0.00     0.185 C 
HETATM    2  C7  UNL     1      -7.996  -2.744   3.578  1.00  0.00     0.123 C 
HETATM    3  S1  UNL     1      -9.727  -3.040   3.085  1.00  0.00    -0.108 SA
HETATM    4  C8  UNL     1     -10.353  -2.845   4.750  1.00  0.00     0.081 C 
HETATM    5  N12 UNL     1      -9.446  -2.330   5.434  1.00  0.00    -0.365 N 
ATOM      6  H12 UNL     1      -9.603  -2.134   6.423  1.00  0.00     0.162 HD
ENDROOT
BRANCH   1   7
HETATM    7  N1  UNL     1      -7.165  -2.205   5.842  1.00  0.00    -0.214 NA
HETATM    8  C1  UNL     1      -6.239  -3.245   5.506  1.00  0.00     0.138 C 
BRANCH   7   9
HETATM    9  N2  UNL     1      -6.426  -1.043   6.032  1.00  0.00    -0.321 N 
ATOM     10  H2  UNL     1      -6.835  -0.188   6.411  1.00  0.00     0.177 HD
BRANCH   9  11
HETATM   11  C2  UNL     1      -5.049  -1.133   5.658  1.00  0.00     0.293 C 
BRANCH  11  12
HETATM   12  O1  UNL     1      -4.300  -0.628   6.730  1.00  0.00    -0.371 OA
ATOM     13  H1  UNL     1      -3.466  -0.345   6.376  1.00  0.00     0.212 HD
ENDBRANCH  11  12
BRANCH  11  14
HETATM   14  C3  UNL     1      -4.704  -0.289   4.456  1.00  0.00     0.298 A 
HETATM   15  N4  UNL     1      -5.601   0.827   4.294  1.00  0.00    -0.322 N 
HETATM   16  C4  UNL     1      -4.966   1.942   4.428  1.00  0.00     0.191 A 
ATOM     17  H4  UNL     1      -6.600   0.748   4.101  1.00  0.00     0.165 HD
HETATM   18  N5  UNL     1      -5.489   3.275   4.340  1.00  0.00    -0.063 NA
HETATM   19  N6  UNL     1      -3.596   1.661   4.687  1.00  0.00    -0.319 N 
HETATM   20  C5  UNL     1      -3.396   0.383   4.713  1.00  0.00     0.157 A 
ATOM     21  H6  UNL     1      -2.875   2.367   4.831  1.00  0.00     0.169 HD
HETATM   22  N7  UNL     1      -2.164  -0.288   4.942  1.00  0.00    -0.083 NA
BRANCH  14  23
HETATM   23  N3  UNL     1      -4.589  -1.063   3.252  1.00  0.00    -0.041 N 
ATOM     24  H33 UNL     1      -4.612  -0.463   2.427  1.00  0.00     0.278 HD
ATOM     25  H32 UNL     1      -3.649  -1.444   3.151  1.00  0.00     0.278 HD
ATOM     26  H31 UNL     1      -5.292  -1.799   3.189  1.00  0.00     0.278 HD
ENDBRANCH  14  23
ENDBRANCH  11  14
ENDBRANCH   9  11
ENDBRANCH   7   9
ENDBRANCH   1   7
BRANCH   4  27
HETATM   27  C9  UNL     1     -11.700  -3.253   5.128  1.00  0.00     0.041 A 
HETATM   28  C10 UNL     1     -11.970  -4.544   5.576  1.00  0.00     0.106 A 
HETATM   29  N8  UNL     1     -13.214  -4.934   5.929  1.00  0.00    -0.351 N 
HETATM   30  C11 UNL     1     -14.278  -4.096   5.869  1.00  0.00     0.151 A 
ATOM     31  H8  UNL     1     -13.358  -5.892   6.250  1.00  0.00     0.166 HD
HETATM   32  N9  UNL     1     -15.587  -4.523   6.245  1.00  0.00    -0.080 NA
HETATM   33  C12 UNL     1     -14.055  -2.790   5.425  1.00  0.00     0.171 A 
HETATM   34  C13 UNL     1     -12.781  -2.403   5.068  1.00  0.00     0.077 A 
BRANCH  33  35
HETATM   35  N10 UNL     1     -15.155  -1.893   5.355  1.00  0.00    -0.110 N 
HETATM   36  O2  UNL     1     -15.725  -1.612   4.273  1.00  0.00    -0.532 OA
HETATM   37  O3  UNL     1     -15.667  -1.268   6.480  1.00  0.00    -0.532 OA
ENDBRANCH  33  35
BRANCH  34  38
HETATM   38  N11 UNL     1     -12.588  -1.176   4.653  1.00  0.00    -0.396 N 
ATOM     39 2H11 UNL     1     -11.646  -0.890   4.386  1.00  0.00     0.156 HD
ATOM     40 1H11 UNL     1     -13.389  -0.546   4.611  1.00  0.00     0.156 HD
ENDBRANCH  34  38
ENDBRANCH   4  27
TORSDOF 9
ENDMDL
MODEL 4
REMARK VINA RESULT: -7.536597164      6.869      9.847
REMARK  9 active torsions:
REMARK  status: ('A' for Active; 'I' for Inactive)
REMARK    1  A    between atoms: N1_2  and  N2_3 
REMARK    2  A    between atoms: N1_2  and  C6_21 
REMARK    3  A    between atoms: N2_3  and  C2_5 
REMARK    4  A    between atoms: C2_5  and  O1_6 
REMARK    5  A    between atoms: C2_5  and  C3_8 
REMARK    6  A    between atoms: C3_8  and  N3_9 
REMARK    7  A    between atoms: C8_24  and  C9_25 
REMARK    8  A    between atoms: C12_31  and  N10_32 
REMARK    9  A    between atoms: C13_35  and  N11_36 
ROOT
HETATM    1  C6  UNL     1      -3.992  -2.459   4.698  1.00  0.00     0.185 C 
HETATM    2  C7  UNL     1      -2.624  -2.526   5.263  1.00  0.00     0.123 C 
HETATM    3  S1  UNL     1      -2.163  -0.764   5.164  1.00  0.00    -0.108 SA
HETATM    4  C8  UNL     1      -3.381  -0.399   3.906  1.00  0.00     0.081 C 
HETATM    5  N12 UNL     1      -4.170  -1.365   3.855  1.00  0.00    -0.365 N 
ATOM      6  H12 UNL     1      -4.946  -1.353   3.194  1.00  0.00     0.162 HD
ENDROOT
BRANCH   1   7
HETATM    7  N1  UNL     1      -4.419  -3.667   4.005  1.00  0.00    -0.214 NA
HETATM    8  C1  UNL     1      -4.014  -4.876   4.659  1.00  0.00     0.138 C 
BRANCH   7   9
HETATM    9  N2  UNL     1      -5.801  -3.721   3.860  1.00  0.00    -0.321 N 
ATOM     10  H2  UNL     1      -6.275  -3.419   3.009  1.00  0.00     0.177 HD
BRANCH   9  11
HETATM   11  C2  UNL     1      -6.508  -4.230   4.993  1.00  0.00     0.293 C 
BRANCH  11  12
HETATM   12  O1  UNL     1      -7.251  -5.333   4.548  1.00  0.00    -0.371 OA
ATOM     13  H1  UNL     1      -8.069  -4.995   4.205  1.00  0.00     0.212 HD
ENDBRANCH  11  12
BRANCH  11  14
HETATM   14  C3  UNL     1      -7.498  -3.247   5.566  1.00  0.00     0.298 A 
HETATM   15  N4  UNL     1      -6.861  -2.231   6.366  1.00  0.00    -0.322 N 
HETATM   16  C4  UNL     1      -7.024  -1.067   5.833  1.00  0.00     0.191 A 
ATOM     17  H4  UNL     1      -6.353  -2.407   7.233  1.00  0.00     0.165 HD
HETATM   18  N5  UNL     1      -6.549   0.199   6.312  1.00  0.00    -0.063 NA
HETATM   19  N6  UNL     1      -7.781  -1.211   4.639  1.00  0.00    -0.319 N 
HETATM   20  C5  UNL     1      -8.079  -2.455   4.442  1.00  0.00     0.157 A 
ATOM     21  H6  UNL     1      -8.051  -0.443   4.025  1.00  0.00     0.169 HD
HETATM   22  N7  UNL     1      -8.824  -2.997   3.360  1.00  0.00    -0.083 NA
BRANCH  14  23
HETATM   23  N3  UNL     1      -8.571  -3.890   6.271  1.00  0.00    -0.041 N 
ATOM     24  H33 UNL     1      -8.304  -4.828   6.568  1.00  0.00     0.278 HD
ATOM     25  H32 UNL     1      -8.716  -3.463   7.185  1.00  0.00     0.278 HD
ATOM     26  H31 UNL     1      -9.438  -3.909   5.734  1.00  0.00     0.278 HD
ENDBRANCH  14  23
ENDBRANCH  11  14
ENDBRANCH   9  11
ENDBRANCH   7   9
ENDBRANCH   1   7
BRANCH   4  27
HETATM   27  C9  UNL     1      -3.360   0.838   3.137  1.00  0.00     0.041 A 
HETATM   28  C10 UNL     1      -2.597   0.960   1.977  1.00  0.00     0.106 A 
HETATM   29  N8  UNL     1      -2.568   2.102   1.257  1.00  0.00    -0.351 N 
HETATM   30  C11 UNL     1      -3.277   3.200   1.614  1.00  0.00     0.151 A 
ATOM     31  H8  UNL     1      -1.993   2.139   0.415  1.00  0.00     0.166 HD
HETATM   32  N9  UNL     1      -3.236   4.401   0.842  1.00  0.00    -0.080 NA
HETATM   33  C12 UNL     1      -4.057   3.125   2.771  1.00  0.00     0.171 A 
HETATM   34  C13 UNL     1      -4.079   1.955   3.500  1.00  0.00     0.077 A 
BRANCH  33  35
HETATM   35  N10 UNL     1      -4.809   4.264   3.166  1.00  0.00    -0.110 N 
HETATM   36  O2  UNL     1      -4.343   5.148   3.924  1.00  0.00    -0.532 OA
HETATM   37  O3  UNL     1      -6.112   4.469   2.740  1.00  0.00    -0.532 OA
ENDBRANCH  33  35
BRANCH  34  38
HETATM   38  N11 UNL     1      -4.814   1.899   4.582  1.00  0.00    -0.396 N 
ATOM     39 2H11 UNL     1      -4.361   2.000   5.490  1.00  0.00     0.156 HD
ATOM     40 1H11 UNL     1      -5.819   1.757   4.479  1.00  0.00     0.156 HD
ENDBRANCH  34  38
ENDBRANCH   4  27
TORSDOF 9
ENDMDL
MODEL 5
REMARK VINA RESULT: -7.534367657      2.941      4.512
REMARK  9 active torsions:
REMARK  status: ('A' for Active; 'I' for Inactive)
REMARK    1  A    between atoms: N1_2  and  N2_3 
REMARK    2  A    between atoms: N1_2  and  C6_21 
REMARK    3  A    between atoms: N2_3  and  C2_5 
REMARK    4  A    between atoms: C2_5  and  O1_6 
REMARK    5  A    between atoms: C2_5  and  C3_8 
REMARK    6  A    between atoms: C3_8  and  N3_9 
REMARK    7  A    between atoms: C8_24  and  C9_25 
REMARK    8  A    between atoms: C12_31  and  N10_32 
REMARK    9  A    between atoms: C13_35  and  N11_36 
ROOT
HETATM    1  C6  UNL     1      -8.138  -3.295   4.379  1.00  0.00     0.185 C 
HETATM    2  C7  UNL     1      -8.562  -4.668   4.016  1.00  0.00     0.123 C 
HETATM    3  S1  UNL     1     -10.242  -4.316   3.396  1.00  0.00    -0.108 SA
HETATM    4  C8  UNL     1     -10.361  -2.760   4.270  1.00  0.00     0.081 C 
HETATM    5  N12 UNL     1      -9.215  -2.458   4.658  1.00  0.00    -0.365 N 
ATOM      6  H12 UNL     1      -9.065  -1.596   5.183  1.00  0.00     0.162 HD
ENDROOT
BRANCH   1   7
HETATM    7  N1  UNL     1      -7.186  -3.230   5.480  1.00  0.00    -0.214 NA
HETATM    8  C1  UNL     1      -7.407  -4.225   6.487  1.00  0.00     0.138 C 
BRANCH   7   9
HETATM    9  N2  UNL     1      -5.875  -3.374   5.041  1.00  0.00    -0.321 N 
ATOM     10  H2  UNL     1      -5.197  -3.962   5.525  1.00  0.00     0.177 HD
BRANCH   9  11
HETATM   11  C2  UNL     1      -5.547  -2.635   3.862  1.00  0.00     0.293 C 
BRANCH  11  12
HETATM   12  O1  UNL     1      -4.520  -3.337   3.214  1.00  0.00    -0.371 OA
ATOM     13  H1  UNL     1      -3.719  -3.159   3.694  1.00  0.00     0.212 HD
ENDBRANCH  11  12
BRANCH  11  14
HETATM   14  C3  UNL     1      -5.010  -1.256   4.155  1.00  0.00     0.298 A 
HETATM   15  N4  UNL     1      -6.012  -0.385   4.715  1.00  0.00    -0.322 N 
HETATM   16  C4  UNL     1      -5.692  -0.040   5.916  1.00  0.00     0.191 A 
ATOM     17  H4  UNL     1      -6.857  -0.082   4.229  1.00  0.00     0.165 HD
HETATM   18  N5  UNL     1      -6.415   0.813   6.814  1.00  0.00    -0.063 NA
HETATM   19  N6  UNL     1      -4.453  -0.650   6.254  1.00  0.00    -0.319 N 
HETATM   20  C5  UNL     1      -4.019  -1.364   5.267  1.00  0.00     0.157 A 
ATOM     21  H6  UNL     1      -3.975  -0.540   7.148  1.00  0.00     0.169 HD
HETATM   22  N7  UNL     1      -2.819  -2.125   5.221  1.00  0.00    -0.083 NA
BRANCH  14  23
HETATM   23  N3  UNL     1      -4.357  -0.665   3.021  1.00  0.00    -0.041 N 
ATOM     24  H33 UNL     1      -3.935  -1.379   2.428  1.00  0.00     0.278 HD
ATOM     25  H32 UNL     1      -5.038  -0.287   2.364  1.00  0.00     0.278 HD
ATOM     26  H31 UNL     1      -3.672   0.043   3.287  1.00  0.00     0.278 HD
ENDBRANCH  14  23
ENDBRANCH  11  14
ENDBRANCH   9  11
ENDBRANCH   7   9
ENDBRANCH   1   7
BRANCH   4  27
HETATM   27  C9  UNL     1     -11.626  -2.057   4.439  1.00  0.00     0.041 A 
HETATM   28  C10 UNL     1     -11.993  -1.008   3.599  1.00  0.00     0.106 A 
HETATM   29  N8  UNL     1     -13.162  -0.348   3.746  1.00  0.00    -0.351 N 
HETATM   30  C11 UNL     1     -14.052  -0.664   4.719  1.00  0.00     0.151 A 
ATOM     31  H8  UNL     1     -13.383   0.413   3.104  1.00  0.00     0.166 HD
HETATM   32  N9  UNL     1     -15.285   0.043   4.862  1.00  0.00    -0.080 NA
HETATM   33  C12 UNL     1     -13.728  -1.710   5.586  1.00  0.00     0.171 A 
HETATM   34  C13 UNL     1     -12.531  -2.377   5.427  1.00  0.00     0.077 A 
BRANCH  33  35
HETATM   35  N10 UNL     1     -14.645  -2.060   6.613  1.00  0.00    -0.110 N 
HETATM   36  O2  UNL     1     -14.653  -1.489   7.730  1.00  0.00    -0.532 OA
HETATM   37  O3  UNL     1     -15.591  -3.058   6.445  1.00  0.00    -0.532 OA
ENDBRANCH  33  35
BRANCH  34  38
HETATM   38  N11 UNL     1     -12.240  -3.355   6.247  1.00  0.00    -0.396 N 
ATOM     39 2H11 UNL     1     -11.480  -3.990   6.004  1.00  0.00     0.156 HD
ATOM     40 1H11 UNL     1     -12.785  -3.448   7.104  1.00  0.00     0.156 HD
ENDBRANCH  34  38
ENDBRANCH   4  27
TORSDOF 9
ENDMDL
