MODEL 1
REMARK VINA RESULT: -8.505804428      0.000      0.000
REMARK  10 active torsions:
REMARK  status: ('A' for Active; 'I' for Inactive)
REMARK    1  A    between atoms: N1_1  and  C1_4 
REMARK    2  A    between atoms: C5_14  and  N6_15 
REMARK    3  A    between atoms: N6_15  and  C6_17 
REMARK    4  A    between atoms: C6_17  and  O1_18 
REMARK    5  A    between atoms: C8_23  and  C9_24 
REMARK       I    between atoms: C9_24  and  N8_26 
REMARK    6  A    between atoms: N8_26  and  C10_28 
REMARK    7  A    between atoms: C10_28  and  C11_29 
REMARK    8  A    between atoms: C11_29  and  O3_30 
REMARK    9  A    between atoms: N10_34  and  N11_35 
REMARK   10  A    between atoms: C13_41  and  O4_42 
ROOT
HETATM    1  C6  UNL     1     -12.718  -1.009   3.840  1.00  0.00     0.203 C 
HETATM    2  C7  UNL     1     -13.656  -1.202   4.925  1.00  0.00     0.201 A 
HETATM    3  N7  UNL     1     -14.301  -0.147   5.496  1.00  0.00    -0.317 N 
ATOM      4  H7  UNL     1     -14.182   0.827   5.218  1.00  0.00     0.169 HD
HETATM    5  C8  UNL     1     -15.109  -0.567   6.469  1.00  0.00     0.192 A 
HETATM    6  N9  UNL     1     -14.973  -1.883   6.509  1.00  0.00    -0.256 N 
ATOM      7  H9  UNL     1     -15.464  -2.503   7.153  1.00  0.00     0.191 HD
HETATM    8  N10 UNL     1     -14.081  -2.286   5.564  1.00  0.00    -0.149 N 
ENDROOT
BRANCH   1   9
HETATM    9  N6  UNL     1     -11.980  -1.981   3.151  1.00  0.00    -0.165 N 
ATOM     10  H6  UNL     1     -12.362  -2.390   2.298  1.00  0.00     0.186 HD
BRANCH   9  11
HETATM   11  C5  UNL     1     -10.707  -2.407   3.622  1.00  0.00     0.701 A 
HETATM   12  N5  UNL     1     -10.144  -3.622   3.566  1.00  0.00    -0.171 N 
HETATM   13  C4  UNL     1      -8.922  -3.604   4.128  1.00  0.00     0.189 A 
ATOM     14  H5  UNL     1     -10.581  -4.446   3.154  1.00  0.00     0.186 HD
HETATM   15  C3  UNL     1      -7.937  -4.566   4.329  1.00  0.00     0.135 A 
HETATM   16  N15 UNL     1      -8.724  -2.341   4.545  1.00  0.00    -0.053 N 
HETATM   17  C2  UNL     1      -6.744  -4.266   4.951  1.00  0.00     0.160 A 
HETATM   18  N4  UNL     1      -8.150  -5.893   3.889  1.00  0.00    -0.095 NA
HETATM   19  N2  UNL     1      -6.597  -2.968   5.353  1.00  0.00    -0.175 N 
HETATM   20  N3  UNL     1      -5.720  -5.212   5.174  1.00  0.00    -0.080 NA
HETATM   21  C1  UNL     1      -7.559  -2.050   5.151  1.00  0.00     0.700 A 
ATOM     22  H2  UNL     1      -5.734  -2.688   5.818  1.00  0.00     0.185 HD
HETATM   23  N14 UNL     1      -9.793  -1.621   4.243  1.00  0.00    -0.109 N 
ATOM     24  H14 UNL     1      -9.912  -0.628   4.446  1.00  0.00     0.207 HD
BRANCH  21  25
HETATM   25  N1  UNL     1      -7.329  -0.850   5.566  1.00  0.00    -0.233 N 
ATOM     26  H12 UNL     1      -6.371  -0.504   5.617  1.00  0.00     0.174 HD
ATOM     27  H11 UNL     1      -8.134  -0.285   5.832  1.00  0.00     0.174 HD
ENDBRANCH  21  25
ENDBRANCH   9  11
ENDBRANCH   1   9
BRANCH   1  28
HETATM   28  O1  UNL     1     -12.512   0.210   3.429  1.00  0.00    -0.343 OA
ATOM     29  H1  UNL     1     -12.844   0.390   2.557  1.00  0.00     0.219 HD
ENDBRANCH   1  28
BRANCH   8  30
HETATM   30  N11 UNL     1     -13.730  -3.618   5.363  1.00  0.00    -0.134 N 
HETATM   31  N12 UNL     1     -13.120  -4.380   6.246  1.00  0.00    -0.218 N 
HETATM   32  N13 UNL     1     -12.964  -5.604   5.747  1.00  0.00    -0.292 N 
ATOM     33  H12 UNL     1     -12.813  -4.078   7.171  1.00  0.00     0.210 HD
HETATM   34  C12 UNL     1     -13.485  -5.632   4.517  1.00  0.00     0.168 A 
ATOM     35  H13 UNL     1     -12.520  -6.389   6.225  1.00  0.00     0.187 HD
HETATM   36  C13 UNL     1     -13.978  -4.346   4.274  1.00  0.00     0.200 A 
BRANCH  36  37
HETATM   37  O4  UNL     1     -14.598  -3.976   3.092  1.00  0.00    -0.343 OA
ATOM     38  H4  UNL     1     -15.095  -4.506   2.480  1.00  0.00     0.219 HD
ENDBRANCH  36  37
ENDBRANCH   8  30
BRANCH   5  39
HETATM   39  C9  UNL     1     -15.959   0.294   7.300  1.00  0.00     0.287 C 
HETATM   40  O2  UNL     1     -15.724   0.311   8.529  1.00  0.00    -0.264 OA
HETATM   41  N8  UNL     1     -17.005   1.080   6.764  1.00  0.00    -0.352 N 
ATOM     42  H8  UNL     1     -17.197   1.064   5.762  1.00  0.00     0.162 HD
BRANCH  41  43
HETATM   43  C10 UNL     1     -17.793   1.896   7.634  1.00  0.00     0.149 C 
BRANCH  43  44
HETATM   44  C11 UNL     1     -19.276   1.718   7.357  1.00  0.00     0.183 C 
BRANCH  44  45
HETATM   45  O3  UNL     1     -19.849   0.956   8.371  1.00  0.00    -0.399 OA
ATOM     46  H3  UNL     1     -20.532   1.459   8.797  1.00  0.00     0.209 HD
ENDBRANCH  44  45
ENDBRANCH  43  44
ENDBRANCH  41  43
ENDBRANCH   5  39
TORSDOF 10
ENDMDL
MODEL 2
REMARK VINA RESULT: -8.366806012      0.983      1.019
REMARK  10 active torsions:
REMARK  status: ('A' for Active; 'I' for Inactive)
REMARK    1  A    between atoms: N1_1  and  C1_4 
REMARK    2  A    between atoms: C5_14  and  N6_15 
REMARK    3  A    between atoms: N6_15  and  C6_17 
REMARK    4  A    between atoms: C6_17  and  O1_18 
REMARK    5  A    between atoms: C8_23  and  C9_24 
REMARK       I    between atoms: C9_24  and  N8_26 
REMARK    6  A    between atoms: N8_26  and  C10_28 
REMARK    7  A    between atoms: C10_28  and  C11_29 
REMARK    8  A    between atoms: C11_29  and  O3_30 
REMARK    9  A    between atoms: N10_34  and  N11_35 
REMARK   10  A    between atoms: C13_41  and  O4_42 
ROOT
HETATM    1  C6  UNL     1     -12.708  -1.054   3.881  1.00  0.00     0.203 C 
HETATM    2  C7  UNL     1     -13.649  -1.231   4.966  1.00  0.00     0.201 A 
HETATM    3  N7  UNL     1     -14.287  -0.168   5.528  1.00  0.00    -0.317 N 
ATOM      4  H7  UNL     1     -14.161   0.803   5.242  1.00  0.00     0.169 HD
HETATM    5  C8  UNL     1     -15.100  -0.574   6.504  1.00  0.00     0.192 A 
HETATM    6  N9  UNL     1     -14.972  -1.891   6.554  1.00  0.00    -0.256 N 
ATOM      7  H9  UNL     1     -15.468  -2.503   7.203  1.00  0.00     0.191 HD
HETATM    8  N10 UNL     1     -14.082  -2.307   5.613  1.00  0.00    -0.149 N 
ENDROOT
BRANCH   1   9
HETATM    9  N6  UNL     1     -11.976  -2.036   3.201  1.00  0.00    -0.165 N 
ATOM     10  H6  UNL     1     -12.368  -2.464   2.362  1.00  0.00     0.186 HD
BRANCH   9  11
HETATM   11  C5  UNL     1     -10.694  -2.447   3.662  1.00  0.00     0.701 A 
HETATM   12  N5  UNL     1     -10.117  -3.655   3.601  1.00  0.00    -0.171 N 
HETATM   13  C4  UNL     1      -8.891  -3.623   4.153  1.00  0.00     0.189 A 
ATOM     14  H5  UNL     1     -10.548  -4.484   3.192  1.00  0.00     0.186 HD
HETATM   15  C3  UNL     1      -7.894  -4.574   4.346  1.00  0.00     0.135 A 
HETATM   16  N15 UNL     1      -8.704  -2.357   4.568  1.00  0.00    -0.053 N 
HETATM   17  C2  UNL     1      -6.699  -4.259   4.958  1.00  0.00     0.160 A 
HETATM   18  N4  UNL     1      -8.095  -5.903   3.908  1.00  0.00    -0.095 NA
HETATM   19  N2  UNL     1      -6.564  -2.960   5.359  1.00  0.00    -0.175 N 
HETATM   20  N3  UNL     1      -5.662  -5.192   5.174  1.00  0.00    -0.080 NA
HETATM   21  C1  UNL     1      -7.538  -2.053   5.165  1.00  0.00     0.700 A 
ATOM     22  H2  UNL     1      -5.700  -2.670   5.817  1.00  0.00     0.185 HD
HETATM   23  N14 UNL     1      -9.784  -1.650   4.275  1.00  0.00    -0.109 N 
ATOM     24  H14 UNL     1      -9.913  -0.659   4.479  1.00  0.00     0.207 HD
BRANCH  21  25
HETATM   25  N1  UNL     1      -7.319  -0.851   5.578  1.00  0.00    -0.233 N 
ATOM     26  H12 UNL     1      -7.280  -0.081   4.910  1.00  0.00     0.174 HD
ATOM     27  H11 UNL     1      -7.189  -0.716   6.580  1.00  0.00     0.174 HD
ENDBRANCH  21  25
ENDBRANCH   9  11
ENDBRANCH   1   9
BRANCH   1  28
HETATM   28  O1  UNL     1     -12.494   0.161   3.460  1.00  0.00    -0.343 OA
ATOM     29  H1  UNL     1     -13.191   0.517   2.922  1.00  0.00     0.219 HD
ENDBRANCH   1  28
BRANCH   8  30
HETATM   30  N11 UNL     1     -13.739  -3.644   5.424  1.00  0.00    -0.134 N 
HETATM   31  N12 UNL     1     -14.449  -4.517   4.743  1.00  0.00    -0.218 N 
HETATM   32  N13 UNL     1     -13.821  -5.691   4.732  1.00  0.00    -0.292 N 
ATOM     33  H12 UNL     1     -15.344  -4.325   4.292  1.00  0.00     0.210 HD
HETATM   34  C12 UNL     1     -12.682  -5.571   5.420  1.00  0.00     0.168 A 
ATOM     35  H13 UNL     1     -14.154  -6.540   4.274  1.00  0.00     0.187 HD
HETATM   36  C13 UNL     1     -12.634  -4.246   5.865  1.00  0.00     0.200 A 
BRANCH  36  37
HETATM   37  O4  UNL     1     -11.595  -3.731   6.623  1.00  0.00    -0.343 OA
ATOM     38  H4  UNL     1     -11.326  -2.829   6.745  1.00  0.00     0.219 HD
ENDBRANCH  36  37
ENDBRANCH   8  30
BRANCH   5  39
HETATM   39  C9  UNL     1     -15.944   0.299   7.326  1.00  0.00     0.287 C 
HETATM   40  O2  UNL     1     -15.714   0.321   8.556  1.00  0.00    -0.264 OA
HETATM   41  N8  UNL     1     -16.981   1.091   6.782  1.00  0.00    -0.352 N 
ATOM     42  H8  UNL     1     -17.169   1.072   5.779  1.00  0.00     0.162 HD
BRANCH  41  43
HETATM   43  C10 UNL     1     -17.765   1.919   7.644  1.00  0.00     0.149 C 
BRANCH  43  44
HETATM   44  C11 UNL     1     -19.249   1.760   7.356  1.00  0.00     0.183 C 
BRANCH  44  45
HETATM   45  O3  UNL     1     -19.836   0.995   8.359  1.00  0.00    -0.399 OA
ATOM     46  H3  UNL     1     -20.658   0.638   8.045  1.00  0.00     0.209 HD
ENDBRANCH  44  45
ENDBRANCH  43  44
ENDBRANCH  41  43
ENDBRANCH   5  39
TORSDOF 10
ENDMDL
MODEL 3
REMARK VINA RESULT: -8.258959402      4.014      6.732
REMARK  10 active torsions:
REMARK  status: ('A' for Active; 'I' for Inactive)
REMARK    1  A    between atoms: N1_1  and  C1_4 
REMARK    2  A    between atoms: C5_14  and  N6_15 
REMARK    3  A    between atoms: N6_15  and  C6_17 
REMARK    4  A    between atoms: C6_17  and  O1_18 
REMARK    5  A    between atoms: C8_23  and  C9_24 
REMARK       I    between atoms: C9_24  and  N8_26 
REMARK    6  A    between atoms: N8_26  and  C10_28 
REMARK    7  A    between atoms: C10_28  and  C11_29 
REMARK    8  A    between atoms: C11_29  and  O3_30 
REMARK    9  A    between atoms: N10_34  and  N11_35 
REMARK   10  A    between atoms: C13_41  and  O4_42 
ROOT
HETATM    1  C6  UNL     1      -6.985  -2.559   5.302  1.00  0.00     0.203 C 
HETATM    2  C7  UNL     1      -8.369  -2.737   4.918  1.00  0.00     0.201 A 
HETATM    3  N7  UNL     1      -9.329  -3.011   5.844  1.00  0.00    -0.317 N 
ATOM      4  H7  UNL     1      -9.160  -3.110   6.845  1.00  0.00     0.169 HD
HETATM    5  C8  UNL     1     -10.521  -3.133   5.258  1.00  0.00     0.192 A 
HETATM    6  N9  UNL     1     -10.309  -2.934   3.966  1.00  0.00    -0.256 N 
ATOM      7  H9  UNL     1     -11.029  -2.961   3.244  1.00  0.00     0.191 HD
HETATM    8  N10 UNL     1      -8.989  -2.690   3.744  1.00  0.00    -0.149 N 
ENDROOT
BRANCH   1   9
HETATM    9  N6  UNL     1      -5.888  -2.274   4.479  1.00  0.00    -0.165 N 
ATOM     10  H6  UNL     1      -5.672  -2.894   3.698  1.00  0.00     0.186 HD
BRANCH   9  11
HETATM   11  C5  UNL     1      -5.070  -1.133   4.714  1.00  0.00     0.701 A 
HETATM   12  N5  UNL     1      -4.974   0.002   4.007  1.00  0.00    -0.171 N 
HETATM   13  C4  UNL     1      -4.080   0.835   4.570  1.00  0.00     0.189 A 
ATOM     14  H5  UNL     1      -5.505   0.206   3.162  1.00  0.00     0.186 HD
HETATM   15  C3  UNL     1      -3.611   2.105   4.252  1.00  0.00     0.135 A 
HETATM   16  N15 UNL     1      -3.608   0.195   5.655  1.00  0.00    -0.053 N 
HETATM   17  C2  UNL     1      -2.664   2.744   5.024  1.00  0.00     0.160 A 
HETATM   18  N4  UNL     1      -4.109   2.773   3.110  1.00  0.00    -0.095 NA
HETATM   19  N2  UNL     1      -2.222   2.049   6.114  1.00  0.00    -0.175 N 
HETATM   20  N3  UNL     1      -2.163   4.032   4.737  1.00  0.00    -0.080 NA
HETATM   21  C1  UNL     1      -2.685   0.821   6.406  1.00  0.00     0.700 A 
ATOM     22  H2  UNL     1      -1.522   2.473   6.722  1.00  0.00     0.185 HD
HETATM   23  N14 UNL     1      -4.201  -0.986   5.744  1.00  0.00    -0.109 N 
ATOM     24  H14 UNL     1      -4.030  -1.678   6.473  1.00  0.00     0.207 HD
BRANCH  21  25
HETATM   25  N1  UNL     1      -2.207   0.242   7.456  1.00  0.00    -0.233 N 
ATOM     26  H12 UNL     1      -1.309  -0.239   7.409  1.00  0.00     0.174 HD
ATOM     27  H11 UNL     1      -2.761   0.292   8.311  1.00  0.00     0.174 HD
ENDBRANCH  21  25
ENDBRANCH   9  11
ENDBRANCH   1   9
BRANCH   1  28
HETATM   28  O1  UNL     1      -6.691  -2.671   6.567  1.00  0.00    -0.343 OA
ATOM     29  H1  UNL     1      -5.961  -2.132   6.848  1.00  0.00     0.219 HD
ENDBRANCH   1  28
BRANCH   8  30
HETATM   30  N11 UNL     1      -8.460  -2.443   2.480  1.00  0.00    -0.134 N 
HETATM   31  N12 UNL     1      -8.424  -3.313   1.493  1.00  0.00    -0.218 N 
HETATM   32  N13 UNL     1      -7.884  -2.744   0.417  1.00  0.00    -0.292 N 
ATOM     33  H12 UNL     1      -8.759  -4.275   1.544  1.00  0.00     0.210 HD
HETATM   34  C12 UNL     1      -7.564  -1.481   0.718  1.00  0.00     0.168 A 
ATOM     35  H13 UNL     1      -7.737  -3.197  -0.485  1.00  0.00     0.187 HD
HETATM   36  C13 UNL     1      -7.940  -1.293   2.052  1.00  0.00     0.200 A 
BRANCH  36  37
HETATM   37  O4  UNL     1      -7.766  -0.099   2.733  1.00  0.00    -0.343 OA
ATOM     38  H4  UNL     1      -7.791   0.792   2.404  1.00  0.00     0.219 HD
ENDBRANCH  36  37
ENDBRANCH   8  30
BRANCH   5  39
HETATM   39  C9  UNL     1     -11.782  -3.427   5.947  1.00  0.00     0.287 C 
HETATM   40  O2  UNL     1     -11.855  -4.515   6.562  1.00  0.00    -0.264 OA
HETATM   41  N8  UNL     1     -12.883  -2.540   5.935  1.00  0.00    -0.352 N 
ATOM     42  H8  UNL     1     -12.823  -1.654   5.433  1.00  0.00     0.162 HD
BRANCH  41  43
HETATM   43  C10 UNL     1     -14.082  -2.892   6.629  1.00  0.00     0.149 C 
BRANCH  43  44
HETATM   44  C11 UNL     1     -15.232  -3.110   5.661  1.00  0.00     0.183 C 
BRANCH  44  45
HETATM   45  O3  UNL     1     -16.069  -4.107   6.153  1.00  0.00    -0.399 OA
ATOM     46  H3  UNL     1     -16.577  -4.475   5.440  1.00  0.00     0.209 HD
ENDBRANCH  44  45
ENDBRANCH  43  44
ENDBRANCH  41  43
ENDBRANCH   5  39
TORSDOF 10
ENDMDL
MODEL 4
REMARK VINA RESULT: -8.019852314      2.355      4.171
REMARK  10 active torsions:
REMARK  status: ('A' for Active; 'I' for Inactive)
REMARK    1  A    between atoms: N1_1  and  C1_4 
REMARK    2  A    between atoms: C5_14  and  N6_15 
REMARK    3  A    between atoms: N6_15  and  C6_17 
REMARK    4  A    between atoms: C6_17  and  O1_18 
REMARK    5  A    between atoms: C8_23  and  C9_24 
REMARK       I    between atoms: C9_24  and  N8_26 
REMARK    6  A    between atoms: N8_26  and  C10_28 
REMARK    7  A    between atoms: C10_28  and  C11_29 
REMARK    8  A    between atoms: C11_29  and  O3_30 
REMARK    9  A    between atoms: N10_34  and  N11_35 
REMARK   10  A    between atoms: C13_41  and  O4_42 
ROOT
HETATM    1  C6  UNL     1     -10.464  -3.654   5.869  1.00  0.00     0.203 C 
HETATM    2  C7  UNL     1     -11.528  -2.810   5.369  1.00  0.00     0.201 A 
HETATM    3  N7  UNL     1     -12.564  -2.434   6.168  1.00  0.00    -0.317 N 
ATOM      4  H7  UNL     1     -12.672  -2.704   7.146  1.00  0.00     0.169 HD
HETATM    5  C8  UNL     1     -13.417  -1.663   5.493  1.00  0.00     0.192 A 
HETATM    6  N9  UNL     1     -12.916  -1.555   4.272  1.00  0.00    -0.256 N 
ATOM      7  H9  UNL     1     -13.340  -1.024   3.511  1.00  0.00     0.191 HD
HETATM    8  N10 UNL     1     -11.754  -2.256   4.183  1.00  0.00    -0.149 N 
ENDROOT
BRANCH   1   9
HETATM    9  N6  UNL     1      -9.337  -4.125   5.181  1.00  0.00    -0.165 N 
ATOM     10  H6  UNL     1      -9.395  -5.001   4.662  1.00  0.00     0.186 HD
BRANCH   9  11
HETATM   11  C5  UNL     1      -8.113  -3.399   5.193  1.00  0.00     0.701 A 
HETATM   12  N5  UNL     1      -7.863  -2.165   5.654  1.00  0.00    -0.171 N 
HETATM   13  C4  UNL     1      -6.568  -1.848   5.478  1.00  0.00     0.189 A 
ATOM     14  H5  UNL     1      -8.558  -1.553   6.080  1.00  0.00     0.186 HD
HETATM   15  C3  UNL     1      -5.801  -0.724   5.768  1.00  0.00     0.135 A 
HETATM   16  N15 UNL     1      -6.001  -2.916   4.889  1.00  0.00    -0.053 N 
HETATM   17  C2  UNL     1      -4.457  -0.665   5.470  1.00  0.00     0.160 A 
HETATM   18  N4  UNL     1      -6.402   0.397   6.386  1.00  0.00    -0.095 NA
HETATM   19  N2  UNL     1      -3.933  -1.778   4.874  1.00  0.00    -0.175 N 
HETATM   20  N3  UNL     1      -3.643   0.455   5.747  1.00  0.00    -0.080 NA
HETATM   21  C1  UNL     1      -4.689  -2.856   4.600  1.00  0.00     0.700 A 
ATOM     22  H2  UNL     1      -2.943  -1.791   4.632  1.00  0.00     0.185 HD
HETATM   23  N14 UNL     1      -6.926  -3.848   4.718  1.00  0.00    -0.109 N 
ATOM     24  H14 UNL     1      -6.769  -4.762   4.293  1.00  0.00     0.207 HD
BRANCH  21  25
HETATM   25  N1  UNL     1      -4.106  -3.860   4.036  1.00  0.00    -0.233 N 
ATOM     26  H12 UNL     1      -4.634  -4.708   3.832  1.00  0.00     0.174 HD
ATOM     27  H11 UNL     1      -3.116  -3.760   3.812  1.00  0.00     0.174 HD
ENDBRANCH  21  25
ENDBRANCH   9  11
ENDBRANCH   1   9
BRANCH   1  28
HETATM   28  O1  UNL     1     -10.533  -4.041   7.111  1.00  0.00    -0.343 OA
ATOM     29  H1  UNL     1     -11.419  -4.153   7.437  1.00  0.00     0.219 HD
ENDBRANCH   1  28
BRANCH   8  30
HETATM   30  N11 UNL     1     -10.994  -2.332   3.019  1.00  0.00    -0.134 N 
HETATM   31  N12 UNL     1     -11.223  -3.157   2.019  1.00  0.00    -0.218 N 
HETATM   32  N13 UNL     1     -10.331  -2.945   1.054  1.00  0.00    -0.292 N 
ATOM     33  H12 UNL     1     -11.968  -3.852   1.989  1.00  0.00     0.210 HD
HETATM   34  C12 UNL     1      -9.512  -1.962   1.438  1.00  0.00     0.168 A 
ATOM     35  H13 UNL     1     -10.282  -3.449   0.168  1.00  0.00     0.187 HD
HETATM   36  C13 UNL     1      -9.945  -1.569   2.710  1.00  0.00     0.200 A 
BRANCH  36  37
HETATM   37  O4  UNL     1      -9.340  -0.565   3.447  1.00  0.00    -0.343 OA
ATOM     38  H4  UNL     1      -8.568  -0.050   3.244  1.00  0.00     0.219 HD
ENDBRANCH  36  37
ENDBRANCH   8  30
BRANCH   5  39
HETATM   39  C9  UNL     1     -14.647  -1.076   6.037  1.00  0.00     0.287 C 
HETATM   40  O2  UNL     1     -15.450  -1.855   6.598  1.00  0.00    -0.264 OA
HETATM   41  N8  UNL     1     -14.940   0.304   5.945  1.00  0.00    -0.352 N 
ATOM     42  H8  UNL     1     -14.285   0.938   5.486  1.00  0.00     0.162 HD
BRANCH  41  43
HETATM   43  C10 UNL     1     -16.159   0.806   6.497  1.00  0.00     0.149 C 
BRANCH  43  44
HETATM   44  C11 UNL     1     -16.885   1.696   5.503  1.00  0.00     0.183 C 
BRANCH  44  45
HETATM   45  O3  UNL     1     -16.659   3.031   5.826  1.00  0.00    -0.399 OA
ATOM     46  H3  UNL     1     -16.662   3.553   5.032  1.00  0.00     0.209 HD
ENDBRANCH  44  45
ENDBRANCH  43  44
ENDBRANCH  41  43
ENDBRANCH   5  39
TORSDOF 10
ENDMDL
MODEL 5
REMARK VINA RESULT: -7.973060738      5.539      9.224
REMARK  10 active torsions:
REMARK  status: ('A' for Active; 'I' for Inactive)
REMARK    1  A    between atoms: N1_1  and  C1_4 
REMARK    2  A    between atoms: C5_14  and  N6_15 
REMARK    3  A    between atoms: N6_15  and  C6_17 
REMARK    4  A    between atoms: C6_17  and  O1_18 
REMARK    5  A    between atoms: C8_23  and  C9_24 
REMARK       I    between atoms: C9_24  and  N8_26 
REMARK    6  A    between atoms: N8_26  and  C10_28 
REMARK    7  A    between atoms: C10_28  and  C11_29 
REMARK    8  A    between atoms: C11_29  and  O3_30 
REMARK    9  A    between atoms: N10_34  and  N11_35 
REMARK   10  A    between atoms: C13_41  and  O4_42 
ROOT
HETATM    1  C6  UNL     1      -4.914  -1.357   2.917  1.00  0.00     0.203 C 
HETATM    2  C7  UNL     1      -5.827  -1.756   3.967  1.00  0.00     0.201 A 
HETATM    3  N7  UNL     1      -6.869  -2.596   3.714  1.00  0.00    -0.317 N 
ATOM      4  H7  UNL     1      -7.084  -2.998   2.802  1.00  0.00     0.169 HD
HETATM    5  C8  UNL     1      -7.568  -2.819   4.827  1.00  0.00     0.192 A 
HETATM    6  N9  UNL     1      -6.965  -2.120   5.777  1.00  0.00    -0.256 N 
ATOM      7  H9  UNL     1      -7.262  -2.082   6.752  1.00  0.00     0.191 HD
HETATM    8  N10 UNL     1      -5.893  -1.462   5.260  1.00  0.00    -0.149 N 
ENDROOT
BRANCH   1   9
HETATM    9  N6  UNL     1      -3.803  -0.508   3.013  1.00  0.00    -0.165 N 
ATOM     10  H6  UNL     1      -2.961  -0.835   3.486  1.00  0.00     0.186 HD
BRANCH   9  11
HETATM   11  C5  UNL     1      -3.831   0.803   2.460  1.00  0.00     0.701 A 
HETATM   12  N5  UNL     1      -3.979   1.982   3.079  1.00  0.00    -0.171 N 
HETATM   13  C4  UNL     1      -3.949   2.991   2.190  1.00  0.00     0.189 A 
ATOM     14  H5  UNL     1      -4.097   2.098   4.085  1.00  0.00     0.186 HD
HETATM   15  C3  UNL     1      -4.054   4.374   2.295  1.00  0.00     0.135 A 
HETATM   16  N15 UNL     1      -3.778   2.418   0.985  1.00  0.00    -0.053 N 
HETATM   17  C2  UNL     1      -3.988   5.194   1.188  1.00  0.00     0.160 A 
HETATM   18  N4  UNL     1      -4.233   4.971   3.564  1.00  0.00    -0.095 NA
HETATM   19  N2  UNL     1      -3.813   4.558  -0.009  1.00  0.00    -0.175 N 
HETATM   20  N3  UNL     1      -4.090   6.600   1.251  1.00  0.00    -0.080 NA
HETATM   21  C1  UNL     1      -3.714   3.220  -0.093  1.00  0.00     0.700 A 
ATOM     22  H2  UNL     1      -3.756   5.115  -0.861  1.00  0.00     0.185 HD
HETATM   23  N14 UNL     1      -3.707   1.106   1.144  1.00  0.00    -0.109 N 
ATOM     24  H14 UNL     1      -3.580   0.427   0.393  1.00  0.00     0.207 HD
BRANCH  21  25
HETATM   25  N1  UNL     1      -3.551   2.711  -1.268  1.00  0.00    -0.233 N 
ATOM     26  H12 UNL     1      -3.816   3.244  -2.096  1.00  0.00     0.174 HD
ATOM     27  H11 UNL     1      -3.154   1.774  -1.320  1.00  0.00     0.174 HD
ENDBRANCH  21  25
ENDBRANCH   9  11
ENDBRANCH   1   9
BRANCH   1  28
HETATM   28  O1  UNL     1      -5.125  -1.830   1.721  1.00  0.00    -0.343 OA
ATOM     29  H1  UNL     1      -6.038  -2.008   1.527  1.00  0.00     0.219 HD
ENDBRANCH   1  28
BRANCH   8  30
HETATM   30  N11 UNL     1      -5.060  -0.644   6.019  1.00  0.00    -0.134 N 
HETATM   31  N12 UNL     1      -4.072  -1.067   6.778  1.00  0.00    -0.218 N 
HETATM   32  N13 UNL     1      -3.461  -0.024   7.336  1.00  0.00    -0.292 N 
ATOM     33  H12 UNL     1      -3.815  -2.044   6.918  1.00  0.00     0.210 HD
HETATM   34  C12 UNL     1      -4.067   1.094   6.928  1.00  0.00     0.168 A 
ATOM     35  H13 UNL     1      -2.663  -0.072   7.971  1.00  0.00     0.187 HD
HETATM   36  C13 UNL     1      -5.100   0.687   6.076  1.00  0.00     0.200 A 
BRANCH  36  37
HETATM   37  O4  UNL     1      -5.964   1.570   5.448  1.00  0.00    -0.343 OA
ATOM     38  H4  UNL     1      -6.325   2.389   5.765  1.00  0.00     0.219 HD
ENDBRANCH  36  37
ENDBRANCH   8  30
BRANCH   5  39
HETATM   39  C9  UNL     1      -8.756  -3.673   4.929  1.00  0.00     0.287 C 
HETATM   40  O2  UNL     1      -8.586  -4.905   4.787  1.00  0.00    -0.264 OA
HETATM   41  N8  UNL     1     -10.049  -3.156   5.174  1.00  0.00    -0.352 N 
ATOM     42  H8  UNL     1     -10.187  -2.152   5.289  1.00  0.00     0.162 HD
BRANCH  41  43
HETATM   43  C10 UNL     1     -11.163  -4.048   5.261  1.00  0.00     0.149 C 
BRANCH  43  44
HETATM   44  C11 UNL     1     -11.990  -3.772   6.505  1.00  0.00     0.183 C 
BRANCH  44  45
HETATM   45  O3  UNL     1     -12.527  -4.965   6.979  1.00  0.00    -0.399 OA
ATOM     46  H3  UNL     1     -13.035  -4.795   7.763  1.00  0.00     0.209 HD
ENDBRANCH  44  45
ENDBRANCH  43  44
ENDBRANCH  41  43
ENDBRANCH   5  39
TORSDOF 10
ENDMDL
