MODEL 1
REMARK VINA RESULT: -9.721686645      0.000      0.000
REMARK  11 active torsions:
REMARK  status: ('A' for Active; 'I' for Inactive)
REMARK    1  A    between atoms: C3_5  and  O2_6 
REMARK    2  A    between atoms: C6_10  and  O3_11 
REMARK    3  A    between atoms: C7_13  and  O4_14 
REMARK    4  A    between atoms: C8_16  and  N2_17 
REMARK    5  A    between atoms: N2_17  and  C9_19 
REMARK    6  A    between atoms: C10_20  and  N3_21 
REMARK    7  A    between atoms: N3_21  and  S1_23 
REMARK    8  A    between atoms: S1_23  and  N4_26 
REMARK    9  A    between atoms: N4_26  and  C11_28 
REMARK   10  A    between atoms: C11_28  and  C12_29 
REMARK   11  A    between atoms: C12_29  and  O7_30 
ROOT
HETATM    1  N2  UNL     1     -14.694 -15.731 -30.752  1.00  0.00    -0.349 N 
ATOM      2  H2  UNL     1     -14.672 -16.718 -30.498  1.00  0.00     0.166 HD
ENDROOT
BRANCH   1   3
HETATM    3  C8  UNL     1     -13.910 -14.800 -30.012  1.00  0.00     0.071 A 
HETATM    4  C7  UNL     1     -14.225 -14.518 -28.701  1.00  0.00     0.127 A 
HETATM    5  C6  UNL     1     -13.508 -13.630 -27.932  1.00  0.00     0.113 A 
HETATM    6  C5  UNL     1     -12.430 -13.012 -28.538  1.00  0.00     0.030 A 
HETATM    7  C4  UNL     1     -11.658 -12.102 -27.824  1.00  0.00     0.059 A 
HETATM    8  C16 UNL     1     -12.060 -13.247 -29.845  1.00  0.00     0.052 A 
HETATM    9  C3  UNL     1     -10.576 -11.465 -28.394  1.00  0.00     0.135 A 
HETATM   10  C2  UNL     1     -10.242 -11.732 -29.704  1.00  0.00     0.281 A 
HETATM   11  N1  UNL     1     -10.992 -12.618 -30.401  1.00  0.00    -0.316 N 
HETATM   12  O1  UNL     1      -9.273 -11.200 -30.307  1.00  0.00    -0.265 OA
HETATM   13  C1  UNL     1     -10.662 -12.915 -31.782  1.00  0.00     0.160 C 
HETATM   14  C15 UNL     1     -12.825 -14.156 -30.568  1.00  0.00     0.063 A 
BRANCH   4  15
HETATM   15  O4  UNL     1     -15.309 -15.162 -28.147  1.00  0.00    -0.356 OA
ATOM     16  H4  UNL     1     -16.047 -15.386 -28.703  1.00  0.00     0.218 HD
ENDBRANCH   4  15
BRANCH   5  17
HETATM   17  O3  UNL     1     -13.799 -13.329 -26.621  1.00  0.00    -0.357 OA
ATOM     18  H3  UNL     1     -13.770 -14.022 -25.972  1.00  0.00     0.217 HD
ENDBRANCH   5  17
BRANCH   9  19
HETATM   19  O2  UNL     1      -9.793 -10.555 -27.701  1.00  0.00    -0.356 OA
ATOM     20  H2  UNL     1      -9.315 -10.870 -26.943  1.00  0.00     0.218 HD
ENDBRANCH   9  19
ENDBRANCH   1   3
BRANCH   1  21
HETATM   21  C9  UNL     1     -15.509 -15.304 -31.844  1.00  0.00     0.119 A 
HETATM   22  C10 UNL     1     -16.674 -15.776 -32.440  1.00  0.00     0.129 A 
HETATM   23  C13 UNL     1     -16.671 -14.747 -33.356  1.00  0.00     0.253 A 
HETATM   24  O8  UNL     1     -17.382 -14.361 -34.323  1.00  0.00    -0.281 OA
HETATM   25  C14 UNL     1     -15.516 -14.279 -32.766  1.00  0.00     0.253 A 
HETATM   26  O9  UNL     1     -14.716 -13.300 -32.943  1.00  0.00    -0.281 OA
BRANCH  22  27
HETATM   27  N3  UNL     1     -17.527 -16.881 -32.197  1.00  0.00    -0.261 N 
ATOM     28  H3  UNL     1     -17.852 -17.425 -32.996  1.00  0.00     0.180 HD
BRANCH  27  29
HETATM   29  S1  UNL     1     -18.039 -17.351 -30.633  1.00  0.00     0.319 S 
HETATM   30  O5  UNL     1     -17.024 -16.957 -29.576  1.00  0.00    -0.182 OA
HETATM   31  O6  UNL     1     -18.123 -18.867 -30.558  1.00  0.00    -0.182 OA
BRANCH  29  32
HETATM   32  N4  UNL     1     -19.540 -16.638 -30.169  1.00  0.00    -0.301 N 
ATOM     33  H4  UNL     1     -20.170 -16.153 -30.809  1.00  0.00     0.173 HD
BRANCH  32  34
HETATM   34  C11 UNL     1     -19.790 -16.817 -28.748  1.00  0.00     0.159 C 
BRANCH  34  35
HETATM   35  C12 UNL     1     -19.733 -15.494 -28.013  1.00  0.00     0.184 C 
BRANCH  35  36
HETATM   36  O7  UNL     1     -18.453 -15.116 -27.700  1.00  0.00    -0.399 OA
ATOM     37  H7  UNL     1     -18.385 -14.193 -27.485  1.00  0.00     0.209 HD
ENDBRANCH  35  36
ENDBRANCH  34  35
ENDBRANCH  32  34
ENDBRANCH  29  32
ENDBRANCH  27  29
ENDBRANCH  22  27
ENDBRANCH   1  21
TORSDOF 11
ENDMDL
MODEL 2
REMARK VINA RESULT: -9.420925860      1.115      1.245
REMARK  11 active torsions:
REMARK  status: ('A' for Active; 'I' for Inactive)
REMARK    1  A    between atoms: C3_5  and  O2_6 
REMARK    2  A    between atoms: C6_10  and  O3_11 
REMARK    3  A    between atoms: C7_13  and  O4_14 
REMARK    4  A    between atoms: C8_16  and  N2_17 
REMARK    5  A    between atoms: N2_17  and  C9_19 
REMARK    6  A    between atoms: C10_20  and  N3_21 
REMARK    7  A    between atoms: N3_21  and  S1_23 
REMARK    8  A    between atoms: S1_23  and  N4_26 
REMARK    9  A    between atoms: N4_26  and  C11_28 
REMARK   10  A    between atoms: C11_28  and  C12_29 
REMARK   11  A    between atoms: C12_29  and  O7_30 
ROOT
HETATM    1  N2  UNL     1     -14.647 -15.731 -30.777  1.00  0.00    -0.349 N 
ATOM      2  H2  UNL     1     -14.617 -16.720 -30.527  1.00  0.00     0.166 HD
ENDROOT
BRANCH   1   3
HETATM    3  C8  UNL     1     -13.865 -14.798 -30.037  1.00  0.00     0.071 A 
HETATM    4  C7  UNL     1     -14.183 -14.515 -28.727  1.00  0.00     0.127 A 
HETATM    5  C6  UNL     1     -13.469 -13.625 -27.958  1.00  0.00     0.113 A 
HETATM    6  C5  UNL     1     -12.390 -13.006 -28.563  1.00  0.00     0.030 A 
HETATM    7  C4  UNL     1     -11.621 -12.094 -27.849  1.00  0.00     0.059 A 
HETATM    8  C16 UNL     1     -12.018 -13.243 -29.870  1.00  0.00     0.052 A 
HETATM    9  C3  UNL     1     -10.539 -11.456 -28.419  1.00  0.00     0.135 A 
HETATM   10  C2  UNL     1     -10.203 -11.724 -29.729  1.00  0.00     0.281 A 
HETATM   11  N1  UNL     1     -10.951 -12.612 -30.425  1.00  0.00    -0.316 N 
HETATM   12  O1  UNL     1      -9.234 -11.192 -30.330  1.00  0.00    -0.265 OA
HETATM   13  C1  UNL     1     -10.618 -12.911 -31.805  1.00  0.00     0.160 C 
HETATM   14  C15 UNL     1     -12.781 -14.153 -30.592  1.00  0.00     0.063 A 
BRANCH   4  15
HETATM   15  O4  UNL     1     -15.267 -15.160 -28.174  1.00  0.00    -0.356 OA
ATOM     16  H4  UNL     1     -15.967 -14.644 -27.792  1.00  0.00     0.218 HD
ENDBRANCH   4  15
BRANCH   5  17
HETATM   17  O3  UNL     1     -13.761 -13.323 -26.647  1.00  0.00    -0.357 OA
ATOM     18  H3  UNL     1     -13.901 -14.032 -26.032  1.00  0.00     0.217 HD
ENDBRANCH   5  17
BRANCH   9  19
HETATM   19  O2  UNL     1      -9.758 -10.544 -27.727  1.00  0.00    -0.356 OA
ATOM     20  H2  UNL     1     -10.096  -9.662 -27.622  1.00  0.00     0.218 HD
ENDBRANCH   9  19
ENDBRANCH   1   3
BRANCH   1  21
HETATM   21  C9  UNL     1     -15.472 -15.305 -31.862  1.00  0.00     0.119 A 
HETATM   22  C10 UNL     1     -16.644 -15.776 -32.444  1.00  0.00     0.129 A 
HETATM   23  C13 UNL     1     -16.647 -14.749 -33.364  1.00  0.00     0.253 A 
HETATM   24  O8  UNL     1     -17.367 -14.364 -34.324  1.00  0.00    -0.281 OA
HETATM   25  C14 UNL     1     -15.485 -14.283 -32.786  1.00  0.00     0.253 A 
HETATM   26  O9  UNL     1     -14.684 -13.306 -32.975  1.00  0.00    -0.281 OA
BRANCH  22  27
HETATM   27  N3  UNL     1     -17.497 -16.878 -32.190  1.00  0.00    -0.261 N 
ATOM     28  H3  UNL     1     -17.709 -17.513 -32.960  1.00  0.00     0.180 HD
BRANCH  27  29
HETATM   29  S1  UNL     1     -18.191 -17.199 -30.659  1.00  0.00     0.319 S 
HETATM   30  O5  UNL     1     -19.278 -16.195 -30.321  1.00  0.00    -0.182 OA
HETATM   31  O6  UNL     1     -17.138 -17.024 -29.575  1.00  0.00    -0.182 OA
BRANCH  29  32
HETATM   32  N4  UNL     1     -18.911 -18.763 -30.556  1.00  0.00    -0.301 N 
ATOM     33  H4  UNL     1     -18.422 -19.637 -30.751  1.00  0.00     0.173 HD
BRANCH  32  34
HETATM   34  C11 UNL     1     -20.306 -18.674 -30.154  1.00  0.00     0.159 C 
BRANCH  34  35
HETATM   35  C12 UNL     1     -20.467 -18.964 -28.677  1.00  0.00     0.184 C 
BRANCH  35  36
HETATM   36  O7  UNL     1     -19.612 -18.230 -27.896  1.00  0.00    -0.399 OA
ATOM     37  H7  UNL     1     -20.010 -17.434 -27.564  1.00  0.00     0.209 HD
ENDBRANCH  35  36
ENDBRANCH  34  35
ENDBRANCH  32  34
ENDBRANCH  29  32
ENDBRANCH  27  29
ENDBRANCH  22  27
ENDBRANCH   1  21
TORSDOF 11
ENDMDL
MODEL 3
REMARK VINA RESULT: -8.671411710      1.232      1.712
REMARK  11 active torsions:
REMARK  status: ('A' for Active; 'I' for Inactive)
REMARK    1  A    between atoms: C3_5  and  O2_6 
REMARK    2  A    between atoms: C6_10  and  O3_11 
REMARK    3  A    between atoms: C7_13  and  O4_14 
REMARK    4  A    between atoms: C8_16  and  N2_17 
REMARK    5  A    between atoms: N2_17  and  C9_19 
REMARK    6  A    between atoms: C10_20  and  N3_21 
REMARK    7  A    between atoms: N3_21  and  S1_23 
REMARK    8  A    between atoms: S1_23  and  N4_26 
REMARK    9  A    between atoms: N4_26  and  C11_28 
REMARK   10  A    between atoms: C11_28  and  C12_29 
REMARK   11  A    between atoms: C12_29  and  O7_30 
ROOT
HETATM    1  N2  UNL     1     -14.514 -15.024 -30.438  1.00  0.00    -0.349 N 
ATOM      2  H2  UNL     1     -14.786 -15.697 -29.721  1.00  0.00     0.166 HD
ENDROOT
BRANCH   1   3
HETATM    3  C8  UNL     1     -13.296 -14.300 -30.292  1.00  0.00     0.071 A 
HETATM    4  C7  UNL     1     -12.969 -13.733 -29.081  1.00  0.00     0.127 A 
HETATM    5  C6  UNL     1     -11.809 -13.022 -28.874  1.00  0.00     0.113 A 
HETATM    6  C5  UNL     1     -10.958 -12.893 -29.956  1.00  0.00     0.030 A 
HETATM    7  C4  UNL     1      -9.767 -12.187 -29.825  1.00  0.00     0.059 A 
HETATM    8  C16 UNL     1     -11.224 -13.434 -31.197  1.00  0.00     0.052 A 
HETATM    9  C3  UNL     1      -8.893 -12.037 -30.881  1.00  0.00     0.135 A 
HETATM   10  C2  UNL     1      -9.200 -12.596 -32.103  1.00  0.00     0.281 A 
HETATM   11  N1  UNL     1     -10.360 -13.282 -32.233  1.00  0.00    -0.316 N 
HETATM   12  O1  UNL     1      -8.465 -12.510 -33.121  1.00  0.00    -0.265 OA
HETATM   13  C1  UNL     1     -10.706 -13.880 -33.509  1.00  0.00     0.160 C 
HETATM   14  C15 UNL     1     -12.413 -14.140 -31.339  1.00  0.00     0.063 A 
BRANCH   4  15
HETATM   15  O4  UNL     1     -13.853 -13.893 -28.036  1.00  0.00    -0.356 OA
ATOM     16  H4  UNL     1     -13.531 -14.222 -27.205  1.00  0.00     0.218 HD
ENDBRANCH   4  15
BRANCH   5  17
HETATM   17  O3  UNL     1     -11.455 -12.445 -27.676  1.00  0.00    -0.357 OA
ATOM     18  H3  UNL     1     -12.140 -12.150 -27.087  1.00  0.00     0.217 HD
ENDBRANCH   5  17
BRANCH   9  19
HETATM   19  O2  UNL     1      -7.700 -11.339 -30.773  1.00  0.00    -0.356 OA
ATOM     20  H2  UNL     1      -7.504 -10.926 -29.940  1.00  0.00     0.218 HD
ENDBRANCH   9  19
ENDBRANCH   1   3
BRANCH   1  21
HETATM   21  C9  UNL     1     -15.361 -14.823 -31.570  1.00  0.00     0.119 A 
HETATM   22  C10 UNL     1     -16.299 -15.599 -32.242  1.00  0.00     0.129 A 
HETATM   23  C13 UNL     1     -16.554 -14.586 -33.141  1.00  0.00     0.253 A 
HETATM   24  O8  UNL     1     -17.296 -14.396 -34.142  1.00  0.00    -0.281 OA
HETATM   25  C14 UNL     1     -15.623 -13.816 -32.475  1.00  0.00     0.253 A 
HETATM   26  O9  UNL     1     -15.143 -12.639 -32.589  1.00  0.00    -0.281 OA
BRANCH  22  27
HETATM   27  N3  UNL     1     -16.796 -16.914 -32.068  1.00  0.00    -0.261 N 
ATOM     28  H3  UNL     1     -16.710 -17.570 -32.845  1.00  0.00     0.180 HD
BRANCH  27  29
HETATM   29  S1  UNL     1     -17.531 -17.461 -30.622  1.00  0.00     0.319 S 
HETATM   30  O5  UNL     1     -16.790 -16.955 -29.398  1.00  0.00    -0.182 OA
HETATM   31  O6  UNL     1     -17.438 -18.977 -30.545  1.00  0.00    -0.182 OA
BRANCH  29  32
HETATM   32  N4  UNL     1     -19.169 -16.945 -30.458  1.00  0.00    -0.301 N 
ATOM     33  H4  UNL     1     -19.752 -16.623 -31.231  1.00  0.00     0.173 HD
BRANCH  32  34
HETATM   34  C11 UNL     1     -19.611 -17.031 -29.076  1.00  0.00     0.159 C 
BRANCH  34  35
HETATM   35  C12 UNL     1     -19.903 -15.657 -28.511  1.00  0.00     0.184 C 
BRANCH  35  36
HETATM   36  O7  UNL     1     -18.803 -15.076 -27.935  1.00  0.00    -0.399 OA
ATOM     37  H7  UNL     1     -19.019 -14.301 -27.430  1.00  0.00     0.209 HD
ENDBRANCH  35  36
ENDBRANCH  34  35
ENDBRANCH  32  34
ENDBRANCH  29  32
ENDBRANCH  27  29
ENDBRANCH  22  27
ENDBRANCH   1  21
TORSDOF 11
ENDMDL
MODEL 4
REMARK VINA RESULT: -8.565552261      1.707      2.389
REMARK  11 active torsions:
REMARK  status: ('A' for Active; 'I' for Inactive)
REMARK    1  A    between atoms: C3_5  and  O2_6 
REMARK    2  A    between atoms: C6_10  and  O3_11 
REMARK    3  A    between atoms: C7_13  and  O4_14 
REMARK    4  A    between atoms: C8_16  and  N2_17 
REMARK    5  A    between atoms: N2_17  and  C9_19 
REMARK    6  A    between atoms: C10_20  and  N3_21 
REMARK    7  A    between atoms: N3_21  and  S1_23 
REMARK    8  A    between atoms: S1_23  and  N4_26 
REMARK    9  A    between atoms: N4_26  and  C11_28 
REMARK   10  A    between atoms: C11_28  and  C12_29 
REMARK   11  A    between atoms: C12_29  and  O7_30 
ROOT
HETATM    1  N2  UNL     1     -14.513 -15.062 -30.478  1.00  0.00    -0.349 N 
ATOM      2  H2  UNL     1     -14.778 -15.750 -29.773  1.00  0.00     0.166 HD
ENDROOT
BRANCH   1   3
HETATM    3  C8  UNL     1     -13.300 -14.331 -30.320  1.00  0.00     0.071 A 
HETATM    4  C7  UNL     1     -12.984 -13.770 -29.103  1.00  0.00     0.127 A 
HETATM    5  C6  UNL     1     -11.830 -13.053 -28.885  1.00  0.00     0.113 A 
HETATM    6  C5  UNL     1     -10.974 -12.910 -29.962  1.00  0.00     0.030 A 
HETATM    7  C4  UNL     1      -9.789 -12.198 -29.819  1.00  0.00     0.059 A 
HETATM    8  C16 UNL     1     -11.230 -13.445 -31.207  1.00  0.00     0.052 A 
HETATM    9  C3  UNL     1      -8.910 -12.034 -30.869  1.00  0.00     0.135 A 
HETATM   10  C2  UNL     1      -9.207 -12.587 -32.097  1.00  0.00     0.281 A 
HETATM   11  N1  UNL     1     -10.360 -13.280 -32.238  1.00  0.00    -0.316 N 
HETATM   12  O1  UNL     1      -8.467 -12.490 -33.110  1.00  0.00    -0.265 OA
HETATM   13  C1  UNL     1     -10.695 -13.871 -33.520  1.00  0.00     0.160 C 
HETATM   14  C15 UNL     1     -12.413 -14.159 -31.361  1.00  0.00     0.063 A 
BRANCH   4  15
HETATM   15  O4  UNL     1     -13.872 -13.943 -28.065  1.00  0.00    -0.356 OA
ATOM     16  H4  UNL     1     -14.220 -13.178 -27.622  1.00  0.00     0.218 HD
ENDBRANCH   4  15
BRANCH   5  17
HETATM   17  O3  UNL     1     -11.487 -12.482 -27.681  1.00  0.00    -0.357 OA
ATOM     18  H3  UNL     1     -12.056 -12.611 -26.932  1.00  0.00     0.217 HD
ENDBRANCH   5  17
BRANCH   9  19
HETATM   19  O2  UNL     1      -7.723 -11.329 -30.750  1.00  0.00    -0.356 OA
ATOM     20  H2  UNL     1      -7.778 -10.390 -30.616  1.00  0.00     0.218 HD
ENDBRANCH   9  19
ENDBRANCH   1   3
BRANCH   1  21
HETATM   21  C9  UNL     1     -15.362 -14.849 -31.606  1.00  0.00     0.119 A 
HETATM   22  C10 UNL     1     -16.335 -15.600 -32.255  1.00  0.00     0.129 A 
HETATM   23  C13 UNL     1     -16.560 -14.594 -33.170  1.00  0.00     0.253 A 
HETATM   24  O8  UNL     1     -17.304 -14.393 -34.167  1.00  0.00    -0.281 OA
HETATM   25  C14 UNL     1     -15.595 -13.849 -32.525  1.00  0.00     0.253 A 
HETATM   26  O9  UNL     1     -15.072 -12.692 -32.664  1.00  0.00    -0.281 OA
BRANCH  22  27
HETATM   27  N3  UNL     1     -16.879 -16.892 -32.054  1.00  0.00    -0.261 N 
ATOM     28  H3  UNL     1     -16.754 -17.589 -32.789  1.00  0.00     0.180 HD
BRANCH  27  29
HETATM   29  S1  UNL     1     -17.735 -17.346 -30.643  1.00  0.00     0.319 S 
HETATM   30  O5  UNL     1     -19.047 -16.591 -30.524  1.00  0.00    -0.182 OA
HETATM   31  O6  UNL     1     -16.935 -16.949 -29.412  1.00  0.00    -0.182 OA
BRANCH  29  32
HETATM   32  N4  UNL     1     -18.124 -19.026 -30.596  1.00  0.00    -0.301 N 
ATOM     33  H4  UNL     1     -17.532 -19.765 -30.974  1.00  0.00     0.173 HD
BRANCH  32  34
HETATM   34  C11 UNL     1     -19.406 -19.251 -29.949  1.00  0.00     0.159 C 
BRANCH  34  35
HETATM   35  C12 UNL     1     -20.462 -19.656 -30.955  1.00  0.00     0.184 C 
BRANCH  35  36
HETATM   36  O7  UNL     1     -21.232 -18.600 -31.370  1.00  0.00    -0.399 OA
ATOM     37  H7  UNL     1     -21.121 -18.404 -32.293  1.00  0.00     0.209 HD
ENDBRANCH  35  36
ENDBRANCH  34  35
ENDBRANCH  32  34
ENDBRANCH  29  32
ENDBRANCH  27  29
ENDBRANCH  22  27
ENDBRANCH   1  21
TORSDOF 11
ENDMDL
MODEL 5
REMARK VINA RESULT: -8.560423129      1.742      2.203
REMARK  11 active torsions:
REMARK  status: ('A' for Active; 'I' for Inactive)
REMARK    1  A    between atoms: C3_5  and  O2_6 
REMARK    2  A    between atoms: C6_10  and  O3_11 
REMARK    3  A    between atoms: C7_13  and  O4_14 
REMARK    4  A    between atoms: C8_16  and  N2_17 
REMARK    5  A    between atoms: N2_17  and  C9_19 
REMARK    6  A    between atoms: C10_20  and  N3_21 
REMARK    7  A    between atoms: N3_21  and  S1_23 
REMARK    8  A    between atoms: S1_23  and  N4_26 
REMARK    9  A    between atoms: N4_26  and  C11_28 
REMARK   10  A    between atoms: C11_28  and  C12_29 
REMARK   11  A    between atoms: C12_29  and  O7_30 
ROOT
HETATM    1  N2  UNL     1     -15.531 -15.407 -30.997  1.00  0.00    -0.349 N 
ATOM      2  H2  UNL     1     -16.434 -14.941 -31.082  1.00  0.00     0.166 HD
ENDROOT
BRANCH   1   3
HETATM    3  C8  UNL     1     -14.429 -14.703 -30.431  1.00  0.00     0.071 A 
HETATM    4  C7  UNL     1     -14.322 -14.567 -29.066  1.00  0.00     0.127 A 
HETATM    5  C6  UNL     1     -13.284 -13.899 -28.457  1.00  0.00     0.113 A 
HETATM    6  C5  UNL     1     -12.324 -13.353 -29.289  1.00  0.00     0.030 A 
HETATM    7  C4  UNL     1     -11.246 -12.662 -28.747  1.00  0.00     0.059 A 
HETATM    8  C16 UNL     1     -12.371 -13.450 -30.664  1.00  0.00     0.052 A 
HETATM    9  C3  UNL     1     -10.269 -12.103 -29.544  1.00  0.00     0.135 A 
HETATM   10  C2  UNL     1     -10.356 -12.226 -30.914  1.00  0.00     0.281 A 
HETATM   11  N1  UNL     1     -11.405 -12.898 -31.443  1.00  0.00    -0.316 N 
HETATM   12  O1  UNL     1      -9.513 -11.751 -31.719  1.00  0.00    -0.265 OA
HETATM   13  C1  UNL     1     -11.519 -13.041 -32.882  1.00  0.00     0.160 C 
HETATM   14  C15 UNL     1     -13.445 -14.138 -31.215  1.00  0.00     0.063 A 
BRANCH   4  15
HETATM   15  O4  UNL     1     -15.307 -15.131 -28.284  1.00  0.00    -0.356 OA
ATOM     16  H4  UNL     1     -16.098 -14.635 -28.108  1.00  0.00     0.218 HD
ENDBRANCH   4  15
BRANCH   5  17
HETATM   17  O3  UNL     1     -13.151 -13.748 -27.096  1.00  0.00    -0.357 OA
ATOM     18  H3  UNL     1     -12.287 -13.819 -26.707  1.00  0.00     0.217 HD
ENDBRANCH   5  17
BRANCH   9  19
HETATM   19  O2  UNL     1      -9.185 -11.412 -29.026  1.00  0.00    -0.356 OA
ATOM     20  H2  UNL     1      -8.399 -11.907 -28.828  1.00  0.00     0.218 HD
ENDBRANCH   9  19
ENDBRANCH   1   3
BRANCH   1  21
HETATM   21  C9  UNL     1     -15.392 -16.756 -31.446  1.00  0.00     0.119 A 
HETATM   22  C10 UNL     1     -16.165 -17.907 -31.344  1.00  0.00     0.129 A 
HETATM   23  C13 UNL     1     -15.238 -18.642 -32.051  1.00  0.00     0.253 A 
HETATM   24  O8  UNL     1     -15.103 -19.829 -32.452  1.00  0.00    -0.281 OA
HETATM   25  C14 UNL     1     -14.471 -17.500 -32.151  1.00  0.00     0.253 A 
HETATM   26  O9  UNL     1     -13.349 -17.182 -32.670  1.00  0.00    -0.281 OA
BRANCH  22  27
HETATM   27  N3  UNL     1     -17.416 -18.204 -30.749  1.00  0.00    -0.261 N 
ATOM     28  H3  UNL     1     -17.489 -19.040 -30.168  1.00  0.00     0.180 HD
BRANCH  27  29
HETATM   29  S1  UNL     1     -18.811 -17.233 -30.951  1.00  0.00     0.319 S 
HETATM   30  O5  UNL     1     -19.666 -17.726 -32.104  1.00  0.00    -0.182 OA
HETATM   31  O6  UNL     1     -18.398 -15.821 -31.337  1.00  0.00    -0.182 OA
BRANCH  29  32
HETATM   32  N4  UNL     1     -19.827 -17.207 -29.557  1.00  0.00    -0.301 N 
ATOM     33  H4  UNL     1     -20.837 -17.344 -29.578  1.00  0.00     0.173 HD
BRANCH  32  34
HETATM   34  C11 UNL     1     -19.055 -16.963 -28.349  1.00  0.00     0.159 C 
BRANCH  34  35
HETATM   35  C12 UNL     1     -19.406 -15.623 -27.739  1.00  0.00     0.184 C 
BRANCH  35  36
HETATM   36  O7  UNL     1     -19.499 -14.623 -28.673  1.00  0.00    -0.399 OA
ATOM     37  H7  UNL     1     -19.940 -13.850 -28.342  1.00  0.00     0.209 HD
ENDBRANCH  35  36
ENDBRANCH  34  35
ENDBRANCH  32  34
ENDBRANCH  29  32
ENDBRANCH  27  29
ENDBRANCH  22  27
ENDBRANCH   1  21
TORSDOF 11
ENDMDL
