MODEL 1
REMARK VINA RESULT: -9.806326561      0.000      0.000
REMARK  8 active torsions:
REMARK  status: ('A' for Active; 'I' for Inactive)
REMARK    1  A    between atoms: C1_2  and  C2_7 
REMARK    2  A    between atoms: N2_3  and  O1_5 
REMARK    3  A    between atoms: C5_12  and  C6_13 
REMARK    4  A    between atoms: C6_13  and  N4_14 
REMARK    5  A    between atoms: N5_17  and  C9_18 
REMARK    6  A    between atoms: C9_18  and  C10_19 
REMARK    7  A    between atoms: N7_29  and  O2_30 
REMARK    8  A    between atoms: C18_32  and  N8_33 
REMARK       I    between atoms: N8_33  and  C19_35 
REMARK       I    between atoms: C19_35  and  N9_36 
REMARK       I    between atoms: C19_35  and  N10_40 
ROOT
HETATM    1  C2  UNL     1     -13.124 -14.143 -28.880  1.00  0.00     0.152 A 
HETATM    2  N3  UNL     1     -12.446 -12.980 -28.881  1.00  0.00    -0.322 N 
ATOM      3  H3  UNL     1     -12.681 -12.256 -28.201  1.00  0.00     0.169 HD
HETATM    4  C3  UNL     1     -11.460 -12.767 -29.774  1.00  0.00     0.169 A 
HETATM    5  C4  UNL     1     -11.188 -13.769 -30.660  1.00  0.00     0.082 A 
HETATM    6  C5  UNL     1     -10.161 -13.295 -31.452  1.00  0.00     0.064 A 
HETATM    7  N6  UNL     1      -9.872 -12.058 -31.011  1.00  0.00    -0.274 N 
ATOM      8  H6  UNL     1      -9.146 -11.463 -31.413  1.00  0.00     0.189 HD
HETATM    9  N7  UNL     1     -10.633 -11.707 -30.002  1.00  0.00    -0.145 N 
HETATM   10  C18 UNL     1     -11.879 -15.000 -30.687  1.00  0.00     0.121 A 
HETATM   11  N11 UNL     1     -12.846 -15.140 -29.769  1.00  0.00    -0.325 N 
ATOM     12  H11 UNL     1     -13.383 -16.007 -29.734  1.00  0.00     0.169 HD
ENDROOT
BRANCH   6  13
HETATM   13  C6  UNL     1      -9.538 -14.058 -32.562  1.00  0.00     0.182 C 
BRANCH  13  14
HETATM   14  N4  UNL     1      -9.783 -13.513 -33.861  1.00  0.00    -0.382 N 
HETATM   15  C7  UNL     1      -8.840 -12.654 -34.407  1.00  0.00     0.102 C 
HETATM   16  C8  UNL     1      -9.293 -11.382 -35.035  1.00  0.00     0.102 C 
HETATM   17  N5  UNL     1     -10.634 -11.322 -35.454  1.00  0.00    -0.383 N 
HETATM   18  C16 UNL     1     -11.599 -12.092 -34.768  1.00  0.00     0.142 C 
HETATM   19  C17 UNL     1     -11.140 -13.394 -34.227  1.00  0.00     0.142 C 
BRANCH  17  20
HETATM   20  C9  UNL     1     -10.911 -10.980 -36.800  1.00  0.00     0.160 C 
BRANCH  20  21
HETATM   21  C10 UNL     1     -11.325  -9.563 -36.996  1.00  0.00    -0.040 A 
HETATM   22  C11 UNL     1     -10.793  -8.770 -37.989  1.00  0.00     0.009 A 
HETATM   23  C12 UNL     1     -11.184  -7.473 -38.160  1.00  0.00     0.001 A 
HETATM   24  C13 UNL     1     -12.121  -6.884 -37.359  1.00  0.00     0.000 A 
HETATM   25  C14 UNL     1     -12.668  -7.675 -36.349  1.00  0.00     0.001 A 
HETATM   26  C15 UNL     1     -12.278  -8.985 -36.172  1.00  0.00     0.009 A 
ENDBRANCH  20  21
ENDBRANCH  17  20
ENDBRANCH  13  14
ENDBRANCH   6  13
BRANCH  10  27
HETATM   27  N8  UNL     1     -11.506 -15.859 -31.544  1.00  0.00    -0.326 N 
HETATM   28  C19 UNL     1     -12.254 -16.587 -32.480  1.00  0.00     0.481 C 
HETATM   29  N9  UNL     1     -13.134 -15.748 -33.241  1.00  0.00    -0.033 N 
HETATM   30  N10 UNL     1     -13.044 -17.597 -31.784  1.00  0.00    -0.033 N 
ATOM     31  H93 UNL     1     -13.740 -15.199 -32.631  1.00  0.00     0.278 HD
ATOM     32  H92 UNL     1     -12.623 -14.988 -33.689  1.00  0.00     0.278 HD
ATOM     33  H91 UNL     1     -13.679 -16.277 -33.921  1.00  0.00     0.278 HD
ATOM     34 3H10 UNL     1     -12.468 -18.199 -31.196  1.00  0.00     0.278 HD
ATOM     35 2H10 UNL     1     -13.627 -17.194 -31.052  1.00  0.00     0.278 HD
ATOM     36 1H10 UNL     1     -13.588 -18.126 -32.465  1.00  0.00     0.278 HD
ATOM     37  H8  UNL     1     -10.503 -16.050 -31.554  1.00  0.00     0.164 HD
ENDBRANCH  10  27
BRANCH   9  38
HETATM   38  O2  UNL     1     -10.671 -10.542 -29.264  1.00  0.00    -0.266 OA
ATOM     39  H2  UNL     1      -9.906 -10.005 -29.097  1.00  0.00     0.247 HD
ENDBRANCH   9  38
BRANCH   1  40
HETATM   40  C1  UNL     1     -14.181 -14.383 -27.917  1.00  0.00     0.180 C 
HETATM   41  N1  UNL     1     -15.350 -15.105 -28.265  1.00  0.00    -0.077 NA
HETATM   42  N2  UNL     1     -14.107 -13.959 -26.704  1.00  0.00    -0.252 N 
ATOM     43  H2  UNL     1     -14.875 -14.157 -26.064  1.00  0.00     0.195 HD
BRANCH  42  44
HETATM   44  O1  UNL     1     -13.043 -13.259 -26.251  1.00  0.00    -0.288 OA
ATOM     45  H1  UNL     1     -12.824 -13.212 -25.328  1.00  0.00     0.244 HD
ENDBRANCH  42  44
ENDBRANCH   1  40
TORSDOF 8
ENDMDL
MODEL 2
REMARK VINA RESULT: -9.741102691      1.924      3.449
REMARK  8 active torsions:
REMARK  status: ('A' for Active; 'I' for Inactive)
REMARK    1  A    between atoms: C1_2  and  C2_7 
REMARK    2  A    between atoms: N2_3  and  O1_5 
REMARK    3  A    between atoms: C5_12  and  C6_13 
REMARK    4  A    between atoms: C6_13  and  N4_14 
REMARK    5  A    between atoms: N5_17  and  C9_18 
REMARK    6  A    between atoms: C9_18  and  C10_19 
REMARK    7  A    between atoms: N7_29  and  O2_30 
REMARK    8  A    between atoms: C18_32  and  N8_33 
REMARK       I    between atoms: N8_33  and  C19_35 
REMARK       I    between atoms: C19_35  and  N9_36 
REMARK       I    between atoms: C19_35  and  N10_40 
ROOT
HETATM    1  C2  UNL     1     -14.215 -14.635 -29.012  1.00  0.00     0.152 A 
HETATM    2  N3  UNL     1     -14.546 -15.503 -29.986  1.00  0.00    -0.322 N 
ATOM      3  H3  UNL     1     -15.318 -16.155 -29.843  1.00  0.00     0.169 HD
HETATM    4  C3  UNL     1     -13.863 -15.516 -31.147  1.00  0.00     0.169 A 
HETATM    5  C4  UNL     1     -12.840 -14.623 -31.285  1.00  0.00     0.082 A 
HETATM    6  C5  UNL     1     -12.315 -14.851 -32.541  1.00  0.00     0.064 A 
HETATM    7  N6  UNL     1     -13.033 -15.849 -33.086  1.00  0.00    -0.274 N 
ATOM      8  H6  UNL     1     -12.867 -16.230 -34.017  1.00  0.00     0.189 HD
HETATM    9  N7  UNL     1     -13.974 -16.274 -32.276  1.00  0.00    -0.145 N 
HETATM   10  C18 UNL     1     -12.467 -13.699 -30.284  1.00  0.00     0.121 A 
HETATM   11  N11 UNL     1     -13.191 -13.744 -29.157  1.00  0.00    -0.325 N 
ATOM     12  H11 UNL     1     -12.973 -13.102 -28.395  1.00  0.00     0.169 HD
ENDROOT
BRANCH   6  13
HETATM   13  C6  UNL     1     -11.173 -14.102 -33.121  1.00  0.00     0.182 C 
BRANCH  13  14
HETATM   14  N4  UNL     1     -11.537 -12.881 -33.769  1.00  0.00    -0.382 N 
HETATM   15  C7  UNL     1     -12.470 -12.929 -34.794  1.00  0.00     0.102 C 
HETATM   16  C8  UNL     1     -12.199 -12.193 -36.060  1.00  0.00     0.102 C 
HETATM   17  N5  UNL     1     -11.268 -11.140 -35.996  1.00  0.00    -0.383 N 
HETATM   18  C16 UNL     1     -10.230 -11.203 -35.041  1.00  0.00     0.142 C 
HETATM   19  C17 UNL     1     -10.557 -11.867 -33.756  1.00  0.00     0.142 C 
BRANCH  17  20
HETATM   20  C9  UNL     1     -11.663  -9.857 -36.445  1.00  0.00     0.160 C 
BRANCH  20  21
HETATM   21  C10 UNL     1     -10.836  -9.322 -37.562  1.00  0.00    -0.040 A 
HETATM   22  C11 UNL     1      -9.683  -9.942 -37.989  1.00  0.00     0.009 A 
HETATM   23  C12 UNL     1      -8.934  -9.442 -39.016  1.00  0.00     0.001 A 
HETATM   24  C13 UNL     1      -9.282  -8.301 -39.681  1.00  0.00     0.000 A 
HETATM   25  C14 UNL     1     -10.448  -7.662 -39.259  1.00  0.00     0.001 A 
HETATM   26  C15 UNL     1     -11.207  -8.161 -38.223  1.00  0.00     0.009 A 
ENDBRANCH  20  21
ENDBRANCH  17  20
ENDBRANCH  13  14
ENDBRANCH   6  13
BRANCH  10  27
HETATM   27  N8  UNL     1     -11.515 -12.902 -30.553  1.00  0.00    -0.326 N 
HETATM   28  C19 UNL     1     -10.246 -12.782 -29.970  1.00  0.00     0.481 C 
HETATM   29  N9  UNL     1      -9.575 -14.045 -29.863  1.00  0.00    -0.033 N 
HETATM   30  N10 UNL     1     -10.381 -12.202 -28.639  1.00  0.00    -0.033 N 
ATOM     31  H93 UNL     1     -10.148 -14.726 -29.363  1.00  0.00     0.278 HD
ATOM     32  H92 UNL     1      -9.522 -14.512 -30.769  1.00  0.00     0.278 HD
ATOM     33  H91 UNL     1      -8.652 -13.957 -29.439  1.00  0.00     0.278 HD
ATOM     34 3H10 UNL     1     -10.886 -11.316 -28.653  1.00  0.00     0.278 HD
ATOM     35 2H10 UNL     1     -11.027 -12.727 -28.052  1.00  0.00     0.278 HD
ATOM     36 1H10 UNL     1      -9.458 -12.114 -28.215  1.00  0.00     0.278 HD
ATOM     37  H8  UNL     1     -11.704 -12.248 -31.312  1.00  0.00     0.164 HD
ENDBRANCH  10  27
BRANCH   9  38
HETATM   38  O2  UNL     1     -14.920 -17.265 -32.434  1.00  0.00    -0.266 OA
ATOM     39  H2  UNL     1     -14.744 -18.185 -32.275  1.00  0.00     0.247 HD
ENDBRANCH   9  38
BRANCH   1  40
HETATM   40  C1  UNL     1     -14.950 -14.608 -27.762  1.00  0.00     0.180 C 
HETATM   41  N1  UNL     1     -16.270 -15.114 -27.668  1.00  0.00    -0.077 NA
HETATM   42  N2  UNL     1     -14.439 -14.128 -26.683  1.00  0.00    -0.252 N 
ATOM     43  H2  UNL     1     -14.996 -14.135 -25.828  1.00  0.00     0.195 HD
BRANCH  42  44
HETATM   44  O1  UNL     1     -13.190 -13.615 -26.644  1.00  0.00    -0.288 OA
ATOM     45  H1  UNL     1     -12.994 -12.793 -26.210  1.00  0.00     0.244 HD
ENDBRANCH  42  44
ENDBRANCH   1  40
TORSDOF 8
ENDMDL
MODEL 3
REMARK VINA RESULT: -9.459774916      1.546      2.188
REMARK  8 active torsions:
REMARK  status: ('A' for Active; 'I' for Inactive)
REMARK    1  A    between atoms: C1_2  and  C2_7 
REMARK    2  A    between atoms: N2_3  and  O1_5 
REMARK    3  A    between atoms: C5_12  and  C6_13 
REMARK    4  A    between atoms: C6_13  and  N4_14 
REMARK    5  A    between atoms: N5_17  and  C9_18 
REMARK    6  A    between atoms: C9_18  and  C10_19 
REMARK    7  A    between atoms: N7_29  and  O2_30 
REMARK    8  A    between atoms: C18_32  and  N8_33 
REMARK       I    between atoms: N8_33  and  C19_35 
REMARK       I    between atoms: C19_35  and  N9_36 
REMARK       I    between atoms: C19_35  and  N10_40 
ROOT
HETATM    1  C2  UNL     1     -13.563 -14.067 -28.838  1.00  0.00     0.152 A 
HETATM    2  N3  UNL     1     -12.378 -13.447 -28.691  1.00  0.00    -0.322 N 
ATOM      3  H3  UNL     1     -12.068 -13.160 -27.762  1.00  0.00     0.169 HD
HETATM    4  C3  UNL     1     -11.598 -13.204 -29.762  1.00  0.00     0.169 A 
HETATM    5  C4  UNL     1     -12.061 -13.609 -30.981  1.00  0.00     0.082 A 
HETATM    6  C5  UNL     1     -11.090 -13.237 -31.889  1.00  0.00     0.064 A 
HETATM    7  N6  UNL     1     -10.111 -12.639 -31.186  1.00  0.00    -0.274 N 
ATOM      8  H6  UNL     1      -9.259 -12.261 -31.600  1.00  0.00     0.189 HD
HETATM    9  N7  UNL     1     -10.382 -12.602 -29.903  1.00  0.00    -0.145 N 
HETATM   10  C18 UNL     1     -13.299 -14.261 -31.171  1.00  0.00     0.121 A 
HETATM   11  N11 UNL     1     -14.020 -14.469 -30.060  1.00  0.00    -0.325 N 
ATOM     12  H11 UNL     1     -14.924 -14.936 -30.129  1.00  0.00     0.169 HD
ENDROOT
BRANCH   6  13
HETATM   13  C6  UNL     1     -11.172 -13.479 -33.350  1.00  0.00     0.182 C 
BRANCH  13  14
HETATM   14  N4  UNL     1     -11.574 -12.340 -34.115  1.00  0.00    -0.382 N 
HETATM   15  C7  UNL     1     -12.487 -12.523 -35.144  1.00  0.00     0.102 C 
HETATM   16  C8  UNL     1     -12.224 -11.898 -36.469  1.00  0.00     0.102 C 
HETATM   17  N5  UNL     1     -11.339 -10.804 -36.492  1.00  0.00    -0.383 N 
HETATM   18  C16 UNL     1     -10.316 -10.734 -35.521  1.00  0.00     0.142 C 
HETATM   19  C17 UNL     1     -10.637 -11.289 -34.184  1.00  0.00     0.142 C 
BRANCH  17  20
HETATM   20  C9  UNL     1     -11.777  -9.587 -37.064  1.00  0.00     0.160 C 
BRANCH  20  21
HETATM   21  C10 UNL     1     -10.798  -8.965 -37.998  1.00  0.00    -0.040 A 
HETATM   22  C11 UNL     1      -9.645  -9.607 -38.392  1.00  0.00     0.009 A 
HETATM   23  C12 UNL     1      -8.756  -9.027 -39.251  1.00  0.00     0.001 A 
HETATM   24  C13 UNL     1      -8.954  -7.779 -39.770  1.00  0.00     0.000 A 
HETATM   25  C14 UNL     1     -10.118  -7.116 -39.379  1.00  0.00     0.001 A 
HETATM   26  C15 UNL     1     -11.018  -7.696 -38.512  1.00  0.00     0.009 A 
ENDBRANCH  20  21
ENDBRANCH  17  20
ENDBRANCH  13  14
ENDBRANCH   6  13
BRANCH  10  27
HETATM   27  N8  UNL     1     -13.596 -14.612 -32.355  1.00  0.00    -0.326 N 
HETATM   28  C19 UNL     1     -14.838 -14.641 -33.004  1.00  0.00     0.481 C 
HETATM   29  N9  UNL     1     -15.558 -13.409 -32.853  1.00  0.00    -0.033 N 
HETATM   30  N10 UNL     1     -15.641 -15.730 -32.459  1.00  0.00    -0.033 N 
ATOM     31  H93 UNL     1     -15.662 -13.161 -31.869  1.00  0.00     0.278 HD
ATOM     32  H92 UNL     1     -14.999 -12.615 -33.164  1.00  0.00     0.278 HD
ATOM     33  H91 UNL     1     -16.462 -13.430 -33.325  1.00  0.00     0.278 HD
ATOM     34 3H10 UNL     1     -15.158 -16.627 -32.507  1.00  0.00     0.278 HD
ATOM     35 2H10 UNL     1     -15.736 -15.671 -31.446  1.00  0.00     0.278 HD
ATOM     36 1H10 UNL     1     -16.545 -15.751 -32.931  1.00  0.00     0.278 HD
ATOM     37  H8  UNL     1     -12.807 -14.921 -32.923  1.00  0.00     0.164 HD
ENDBRANCH  10  27
BRANCH   9  38
HETATM   38  O2  UNL     1      -9.663 -12.088 -28.844  1.00  0.00    -0.266 OA
ATOM     39  H2  UNL     1      -8.824 -12.434 -28.566  1.00  0.00     0.247 HD
ENDBRANCH   9  38
BRANCH   1  40
HETATM   40  C1  UNL     1     -14.405 -14.340 -27.689  1.00  0.00     0.180 C 
HETATM   41  N1  UNL     1     -15.619 -15.059 -27.815  1.00  0.00    -0.077 NA
HETATM   42  N2  UNL     1     -14.089 -13.948 -26.505  1.00  0.00    -0.252 N 
ATOM     43  H2  UNL     1     -14.713 -14.168 -25.730  1.00  0.00     0.195 HD
BRANCH  42  44
HETATM   44  O1  UNL     1     -12.957 -13.253 -26.256  1.00  0.00    -0.288 OA
ATOM     45  H1  UNL     1     -12.357 -13.495 -25.560  1.00  0.00     0.244 HD
ENDBRANCH  42  44
ENDBRANCH   1  40
TORSDOF 8
ENDMDL
MODEL 4
REMARK VINA RESULT: -9.348909260      1.173      1.580
REMARK  8 active torsions:
REMARK  status: ('A' for Active; 'I' for Inactive)
REMARK    1  A    between atoms: C1_2  and  C2_7 
REMARK    2  A    between atoms: N2_3  and  O1_5 
REMARK    3  A    between atoms: C5_12  and  C6_13 
REMARK    4  A    between atoms: C6_13  and  N4_14 
REMARK    5  A    between atoms: N5_17  and  C9_18 
REMARK    6  A    between atoms: C9_18  and  C10_19 
REMARK    7  A    between atoms: N7_29  and  O2_30 
REMARK    8  A    between atoms: C18_32  and  N8_33 
REMARK       I    between atoms: N8_33  and  C19_35 
REMARK       I    between atoms: C19_35  and  N9_36 
REMARK       I    between atoms: C19_35  and  N10_40 
ROOT
HETATM    1  C2  UNL     1     -12.635 -13.506 -28.307  1.00  0.00     0.152 A 
HETATM    2  N3  UNL     1     -11.545 -12.749 -28.527  1.00  0.00    -0.322 N 
ATOM      3  H3  UNL     1     -11.263 -12.053 -27.836  1.00  0.00     0.169 HD
HETATM    4  C3  UNL     1     -10.823 -12.905 -29.654  1.00  0.00     0.169 A 
HETATM    5  C4  UNL     1     -11.245 -13.850 -30.545  1.00  0.00     0.082 A 
HETATM    6  C5  UNL     1     -10.349 -13.798 -31.594  1.00  0.00     0.064 A 
HETATM    7  N6  UNL     1      -9.452 -12.844 -31.289  1.00  0.00    -0.274 N 
ATOM      8  H6  UNL     1      -8.667 -12.586 -31.888  1.00  0.00     0.189 HD
HETATM    9  N7  UNL     1      -9.705 -12.285 -30.130  1.00  0.00    -0.145 N 
HETATM   10  C18 UNL     1     -12.384 -14.661 -30.345  1.00  0.00     0.121 A 
HETATM   11  N11 UNL     1     -13.051 -14.450 -29.201  1.00  0.00    -0.325 N 
ATOM     12  H11 UNL     1     -13.882 -15.003 -28.996  1.00  0.00     0.169 HD
ENDROOT
BRANCH   6  13
HETATM   13  C6  UNL     1     -10.420 -14.659 -32.800  1.00  0.00     0.182 C 
BRANCH  13  14
HETATM   14  N4  UNL     1     -10.490 -13.940 -34.034  1.00  0.00    -0.382 N 
HETATM   15  C7  UNL     1      -9.549 -12.951 -34.278  1.00  0.00     0.102 C 
HETATM   16  C8  UNL     1     -10.000 -11.629 -34.795  1.00  0.00     0.102 C 
HETATM   17  N5  UNL     1     -11.252 -11.591 -35.436  1.00  0.00    -0.383 N 
HETATM   18  C16 UNL     1     -12.246 -12.515 -35.047  1.00  0.00     0.142 C 
HETATM   19  C17 UNL     1     -11.772 -13.852 -34.617  1.00  0.00     0.142 C 
BRANCH  17  20
HETATM   20  C9  UNL     1     -11.327 -11.067 -36.749  1.00  0.00     0.160 C 
BRANCH  20  21
HETATM   21  C10 UNL     1     -11.628  -9.610 -36.808  1.00  0.00    -0.040 A 
HETATM   22  C11 UNL     1     -12.437  -8.987 -35.883  1.00  0.00     0.009 A 
HETATM   23  C12 UNL     1     -12.704  -7.649 -35.946  1.00  0.00     0.001 A 
HETATM   24  C13 UNL     1     -12.188  -6.850 -36.926  1.00  0.00     0.000 A 
HETATM   25  C14 UNL     1     -11.367  -7.468 -37.870  1.00  0.00     0.001 A 
HETATM   26  C15 UNL     1     -11.094  -8.817 -37.811  1.00  0.00     0.009 A 
ENDBRANCH  20  21
ENDBRANCH  17  20
ENDBRANCH  13  14
ENDBRANCH   6  13
BRANCH  10  27
HETATM   27  N8  UNL     1     -12.648 -15.524 -31.238  1.00  0.00    -0.326 N 
HETATM   28  C19 UNL     1     -13.847 -15.783 -31.917  1.00  0.00     0.481 C 
HETATM   29  N9  UNL     1     -14.439 -14.590 -32.450  1.00  0.00    -0.033 N 
HETATM   30  N10 UNL     1     -14.792 -16.414 -31.002  1.00  0.00    -0.033 N 
ATOM     31  H93 UNL     1     -14.571 -13.887 -31.722  1.00  0.00     0.278 HD
ATOM     32  H92 UNL     1     -13.780 -14.086 -33.044  1.00  0.00     0.278 HD
ATOM     33  H91 UNL     1     -15.311 -14.778 -32.943  1.00  0.00     0.278 HD
ATOM     34 3H10 UNL     1     -14.406 -17.250 -30.565  1.00  0.00     0.278 HD
ATOM     35 2H10 UNL     1     -14.938 -15.863 -30.157  1.00  0.00     0.278 HD
ATOM     36 1H10 UNL     1     -15.664 -16.602 -31.496  1.00  0.00     0.278 HD
ATOM     37  H8  UNL     1     -11.866 -16.122 -31.504  1.00  0.00     0.164 HD
ENDBRANCH  10  27
BRANCH   9  38
HETATM   38  O2  UNL     1      -9.047 -11.282 -29.449  1.00  0.00    -0.266 OA
ATOM     39  H2  UNL     1      -8.473 -11.442 -28.710  1.00  0.00     0.247 HD
ENDBRANCH   9  38
BRANCH   1  40
HETATM   40  C1  UNL     1     -13.412 -13.351 -27.092  1.00  0.00     0.180 C 
HETATM   41  N1  UNL     1     -13.001 -12.475 -26.057  1.00  0.00    -0.077 NA
HETATM   42  N2  UNL     1     -14.509 -13.995 -26.899  1.00  0.00    -0.252 N 
ATOM     43  H2  UNL     1     -15.020 -13.849 -26.029  1.00  0.00     0.195 HD
BRANCH  42  44
HETATM   44  O1  UNL     1     -15.005 -14.861 -27.810  1.00  0.00    -0.288 OA
ATOM     45  H1  UNL     1     -14.821 -15.792 -27.776  1.00  0.00     0.244 HD
ENDBRANCH  42  44
ENDBRANCH   1  40
TORSDOF 8
ENDMDL
MODEL 5
REMARK VINA RESULT: -9.276869621      1.699      3.032
REMARK  8 active torsions:
REMARK  status: ('A' for Active; 'I' for Inactive)
REMARK    1  A    between atoms: C1_2  and  C2_7 
REMARK    2  A    between atoms: N2_3  and  O1_5 
REMARK    3  A    between atoms: C5_12  and  C6_13 
REMARK    4  A    between atoms: C6_13  and  N4_14 
REMARK    5  A    between atoms: N5_17  and  C9_18 
REMARK    6  A    between atoms: C9_18  and  C10_19 
REMARK    7  A    between atoms: N7_29  and  O2_30 
REMARK    8  A    between atoms: C18_32  and  N8_33 
REMARK       I    between atoms: N8_33  and  C19_35 
REMARK       I    between atoms: C19_35  and  N9_36 
REMARK       I    between atoms: C19_35  and  N10_40 
ROOT
HETATM    1  C2  UNL     1     -13.977 -14.649 -28.798  1.00  0.00     0.152 A 
HETATM    2  N3  UNL     1     -14.556 -15.166 -29.897  1.00  0.00    -0.322 N 
ATOM      3  H3  UNL     1     -15.541 -15.433 -29.873  1.00  0.00     0.169 HD
HETATM    4  C3  UNL     1     -13.844 -15.335 -31.027  1.00  0.00     0.169 A 
HETATM    5  C4  UNL     1     -12.530 -14.962 -31.003  1.00  0.00     0.082 A 
HETATM    6  C5  UNL     1     -12.041 -15.244 -32.264  1.00  0.00     0.064 A 
HETATM    7  N6  UNL     1     -13.063 -15.760 -32.968  1.00  0.00    -0.274 N 
ATOM      8  H6  UNL     1     -12.992 -16.062 -33.940  1.00  0.00     0.189 HD
HETATM    9  N7  UNL     1     -14.163 -15.830 -32.257  1.00  0.00    -0.145 N 
HETATM   10  C18 UNL     1     -11.892 -14.417 -29.868  1.00  0.00     0.121 A 
HETATM   11  N11 UNL     1     -12.664 -14.278 -28.781  1.00  0.00    -0.325 N 
ATOM     12  H11 UNL     1     -12.264 -13.890 -27.927  1.00  0.00     0.169 HD
ENDROOT
BRANCH   6  13
HETATM   13  C6  UNL     1     -10.643 -14.998 -32.694  1.00  0.00     0.182 C 
BRANCH  13  14
HETATM   14  N4  UNL     1     -10.522 -14.234 -33.896  1.00  0.00    -0.382 N 
HETATM   15  C7  UNL     1      -9.592 -13.206 -33.935  1.00  0.00     0.102 C 
HETATM   16  C8  UNL     1      -9.995 -11.880 -34.481  1.00  0.00     0.102 C 
HETATM   17  N5  UNL     1     -11.114 -11.857 -35.333  1.00  0.00    -0.383 N 
HETATM   18  C16 UNL     1     -12.125 -12.828 -35.158  1.00  0.00     0.142 C 
HETATM   19  C17 UNL     1     -11.682 -14.165 -34.695  1.00  0.00     0.142 C 
BRANCH  17  20
HETATM   20  C9  UNL     1     -10.977 -11.285 -36.620  1.00  0.00     0.160 C 
BRANCH  20  21
HETATM   21  C10 UNL     1     -11.413  -9.863 -36.704  1.00  0.00    -0.040 A 
HETATM   22  C11 UNL     1     -10.995  -9.023 -37.712  1.00  0.00     0.009 A 
HETATM   23  C12 UNL     1     -11.403  -7.721 -37.780  1.00  0.00     0.001 A 
HETATM   24  C13 UNL     1     -12.248  -7.175 -36.856  1.00  0.00     0.000 A 
HETATM   25  C14 UNL     1     -12.679  -8.015 -35.829  1.00  0.00     0.001 A 
HETATM   26  C15 UNL     1     -12.270  -9.329 -35.755  1.00  0.00     0.009 A 
ENDBRANCH  20  21
ENDBRANCH  17  20
ENDBRANCH  13  14
ENDBRANCH   6  13
BRANCH  10  27
HETATM   27  N8  UNL     1     -10.672 -14.084 -29.990  1.00  0.00    -0.326 N 
HETATM   28  C19 UNL     1     -10.045 -12.851 -29.760  1.00  0.00     0.481 C 
HETATM   29  N9  UNL     1     -10.396 -12.293 -28.486  1.00  0.00    -0.033 N 
HETATM   30  N10 UNL     1     -10.425 -11.914 -30.810  1.00  0.00    -0.033 N 
ATOM     31  H93 UNL     1     -11.408 -12.216 -28.383  1.00  0.00     0.278 HD
ATOM     32  H92 UNL     1     -10.204 -12.950 -27.730  1.00  0.00     0.278 HD
ATOM     33  H91 UNL     1      -9.939 -11.396 -28.319  1.00  0.00     0.278 HD
ATOM     34 3H10 UNL     1     -10.232 -12.279 -31.743  1.00  0.00     0.278 HD
ATOM     35 2H10 UNL     1     -11.437 -11.822 -30.899  1.00  0.00     0.278 HD
ATOM     36 1H10 UNL     1      -9.969 -11.018 -30.644  1.00  0.00     0.278 HD
ATOM     37  H8  UNL     1     -10.052 -14.830 -30.304  1.00  0.00     0.164 HD
ENDBRANCH  10  27
BRANCH   9  38
HETATM   38  O2  UNL     1     -15.422 -16.289 -32.586  1.00  0.00    -0.266 OA
ATOM     39  H2  UNL     1     -16.006 -16.703 -31.961  1.00  0.00     0.247 HD
ENDBRANCH   9  38
BRANCH   1  40
HETATM   40  C1  UNL     1     -14.740 -14.457 -27.579  1.00  0.00     0.180 C 
HETATM   41  N1  UNL     1     -16.079 -14.906 -27.465  1.00  0.00    -0.077 NA
HETATM   42  N2  UNL     1     -14.238 -13.874 -26.547  1.00  0.00    -0.252 N 
ATOM     43  H2  UNL     1     -14.815 -13.766 -25.713  1.00  0.00     0.195 HD
BRANCH  42  44
HETATM   44  O1  UNL     1     -12.972 -13.402 -26.532  1.00  0.00    -0.288 OA
ATOM     45  H1  UNL     1     -12.476 -13.310 -25.728  1.00  0.00     0.244 HD
ENDBRANCH  42  44
ENDBRANCH   1  40
TORSDOF 8
ENDMDL
