MODEL 1
REMARK VINA RESULT: -7.296524401      0.000      0.000
REMARK  11 active torsions:
REMARK  status: ('A' for Active; 'I' for Inactive)
REMARK    1  A    between atoms: O1_2  and  C2_3 
REMARK    2  A    between atoms: C7_9  and  O3_10 
REMARK    3  A    between atoms: O3_10  and  C8_11 
REMARK    4  A    between atoms: C9_13  and  C10_14 
REMARK    5  A    between atoms: C10_14  and  O5_15 
REMARK    6  A    between atoms: C11_17  and  O6_19 
REMARK    7  A    between atoms: N1_22  and  O7_24 
REMARK    8  A    between atoms: C14_26  and  N2_27 
REMARK    9  A    between atoms: C15_31  and  N3_32 
REMARK       I    between atoms: N3_32  and  C16_34 
REMARK   10  A    between atoms: C16_34  and  C17_36 
REMARK   11  A    between atoms: C17_36  and  N4_38 
ROOT
HETATM    1  O3  UNL     1     -12.620 -14.246 -32.082  1.00  0.00    -0.351 OA
ENDROOT
BRANCH   1   2
HETATM    2  C7  UNL     1     -11.500 -14.773 -32.731  1.00  0.00     0.158 C 
HETATM    3  C5  UNL     1     -10.744 -13.632 -33.378  1.00  0.00     0.041 C 
HETATM    4  C3  UNL     1     -11.129 -13.421 -34.818  1.00  0.00     0.127 C 
HETATM    5  C6  UNL     1      -9.251 -13.807 -33.249  1.00  0.00     0.015 C 
HETATM    6  O2  UNL     1     -11.038 -14.535 -35.589  1.00  0.00    -0.354 OA
HETATM    7  C4  UNL     1     -12.492 -12.735 -34.929  1.00  0.00     0.040 C 
HETATM    8  C2  UNL     1     -11.175 -15.739 -35.003  1.00  0.00     0.284 C 
HETATM    9  C15 UNL     1     -11.949 -15.788 -33.719  1.00  0.00     0.169 C 
BRANCH   8  10
HETATM   10  O1  UNL     1      -9.926 -16.347 -34.907  1.00  0.00    -0.364 OA
HETATM   11  C1  UNL     1      -9.311 -16.451 -36.154  1.00  0.00     0.204 C 
ENDBRANCH   8  10
BRANCH   9  12
HETATM   12  N3  UNL     1     -11.908 -17.095 -33.108  1.00  0.00    -0.347 N 
HETATM   13  C16 UNL     1     -13.017 -17.795 -32.626  1.00  0.00     0.248 C 
HETATM   14  O8  UNL     1     -14.188 -17.316 -32.685  1.00  0.00    -0.271 OA
ATOM     15  H3  UNL     1     -10.996 -17.543 -33.021  1.00  0.00     0.163 HD
BRANCH  13  16
HETATM   16  C17 UNL     1     -12.891 -19.139 -32.019  1.00  0.00     0.270 C 
HETATM   17  C18 UNL     1     -13.886 -20.071 -32.672  1.00  0.00     0.050 C 
BRANCH  16  18
HETATM   18  N4  UNL     1     -11.574 -19.715 -32.234  1.00  0.00    -0.067 N 
ATOM     19  H43 UNL     1     -10.894 -18.998 -32.489  1.00  0.00     0.275 HD
ATOM     20  H42 UNL     1     -11.159 -20.026 -31.356  1.00  0.00     0.275 HD
ATOM     21  H41 UNL     1     -11.592 -20.467 -32.921  1.00  0.00     0.275 HD
ENDBRANCH  16  18
ENDBRANCH  13  16
ENDBRANCH   9  12
ENDBRANCH   1   2
BRANCH   1  22
HETATM   22  C8  UNL     1     -12.394 -13.995 -30.727  1.00  0.00     0.297 C 
HETATM   23  O4  UNL     1     -12.711 -12.649 -30.546  1.00  0.00    -0.348 OA
HETATM   24  C9  UNL     1     -12.542 -12.169 -29.280  1.00  0.00     0.188 C 
HETATM   25  C11 UNL     1     -12.608 -13.225 -28.197  1.00  0.00     0.124 C 
HETATM   26  C12 UNL     1     -13.054 -12.621 -26.875  1.00  0.00     0.055 C 
HETATM   27  C13 UNL     1     -13.596 -14.233 -28.653  1.00  0.00     0.081 C 
HETATM   28  N1  UNL     1     -14.665 -14.496 -28.014  1.00  0.00    -0.272 N 
HETATM   29  C14 UNL     1     -13.250 -14.934 -29.935  1.00  0.00     0.288 C 
ATOM     30  H1  UNL     1     -14.834 -13.979 -27.151  1.00  0.00     0.193 HD
BRANCH  24  31
HETATM   31  C10 UNL     1     -11.355 -11.283 -29.065  1.00  0.00     0.199 C 
BRANCH  31  32
HETATM   32  O5  UNL     1     -11.772  -9.958 -28.874  1.00  0.00    -0.398 OA
ATOM     33  H5  UNL     1     -12.258  -9.656 -29.632  1.00  0.00     0.209 HD
ENDBRANCH  31  32
ENDBRANCH  24  31
BRANCH  25  34
HETATM   34  O6  UNL     1     -11.388 -13.824 -28.005  1.00  0.00    -0.381 OA
ATOM     35  H6  UNL     1     -11.237 -14.018 -27.087  1.00  0.00     0.211 HD
ENDBRANCH  25  34
BRANCH  28  36
HETATM   36  O7  UNL     1     -15.598 -15.405 -28.388  1.00  0.00    -0.290 OA
ATOM     37  H7  UNL     1     -16.483 -15.455 -28.047  1.00  0.00     0.244 HD
ENDBRANCH  28  36
BRANCH  29  38
HETATM   38  N2  UNL     1     -14.468 -15.332 -30.596  1.00  0.00    -0.065 N 
ATOM     39  H23 UNL     1     -14.799 -14.588 -31.211  1.00  0.00     0.275 HD
ATOM     40  H22 UNL     1     -14.277 -16.059 -31.287  1.00  0.00     0.275 HD
ATOM     41  H21 UNL     1     -15.213 -15.629 -29.966  1.00  0.00     0.275 HD
ENDBRANCH  29  38
ENDBRANCH   1  22
TORSDOF 11
ENDMDL
MODEL 2
REMARK VINA RESULT: -7.147463371      4.027      5.841
REMARK  11 active torsions:
REMARK  status: ('A' for Active; 'I' for Inactive)
REMARK    1  A    between atoms: O1_2  and  C2_3 
REMARK    2  A    between atoms: C7_9  and  O3_10 
REMARK    3  A    between atoms: O3_10  and  C8_11 
REMARK    4  A    between atoms: C9_13  and  C10_14 
REMARK    5  A    between atoms: C10_14  and  O5_15 
REMARK    6  A    between atoms: C11_17  and  O6_19 
REMARK    7  A    between atoms: N1_22  and  O7_24 
REMARK    8  A    between atoms: C14_26  and  N2_27 
REMARK    9  A    between atoms: C15_31  and  N3_32 
REMARK       I    between atoms: N3_32  and  C16_34 
REMARK   10  A    between atoms: C16_34  and  C17_36 
REMARK   11  A    between atoms: C17_36  and  N4_38 
ROOT
HETATM    1  O3  UNL     1     -16.295 -16.942 -31.478  1.00  0.00    -0.351 OA
ENDROOT
BRANCH   1   2
HETATM    2  C7  UNL     1     -15.024 -16.593 -31.014  1.00  0.00     0.158 C 
HETATM    3  C5  UNL     1     -15.079 -15.170 -30.504  1.00  0.00     0.041 C 
HETATM    4  C3  UNL     1     -14.666 -14.162 -31.544  1.00  0.00     0.127 C 
HETATM    5  C6  UNL     1     -14.263 -14.995 -29.246  1.00  0.00     0.015 C 
HETATM    6  O2  UNL     1     -13.456 -14.408 -32.110  1.00  0.00    -0.354 OA
HETATM    7  C4  UNL     1     -15.772 -13.956 -32.581  1.00  0.00     0.040 C 
HETATM    8  C2  UNL     1     -13.011 -15.677 -32.158  1.00  0.00     0.284 C 
HETATM    9  C15 UNL     1     -14.045 -16.764 -32.118  1.00  0.00     0.169 C 
BRANCH   8  10
HETATM   10  O1  UNL     1     -12.008 -15.848 -31.206  1.00  0.00    -0.364 OA
HETATM   11  C1  UNL     1     -11.003 -14.891 -31.347  1.00  0.00     0.204 C 
ENDBRANCH   8  10
BRANCH   9  12
HETATM   12  N3  UNL     1     -13.452 -18.077 -32.027  1.00  0.00    -0.347 N 
HETATM   13  C16 UNL     1     -13.908 -19.216 -32.694  1.00  0.00     0.248 C 
HETATM   14  O8  UNL     1     -14.921 -19.185 -33.456  1.00  0.00    -0.271 OA
ATOM     15  H3  UNL     1     -12.633 -18.180 -31.427  1.00  0.00     0.163 HD
BRANCH  13  16
HETATM   16  C17 UNL     1     -13.236 -20.527 -32.554  1.00  0.00     0.270 C 
HETATM   17  C18 UNL     1     -12.656 -20.929 -33.891  1.00  0.00     0.050 C 
BRANCH  16  18
HETATM   18  N4  UNL     1     -12.129 -20.476 -31.615  1.00  0.00    -0.067 N 
ATOM     19  H43 UNL     1     -11.612 -21.356 -31.606  1.00  0.00     0.275 HD
ATOM     20  H42 UNL     1     -11.391 -19.857 -31.947  1.00  0.00     0.275 HD
ATOM     21  H41 UNL     1     -12.433 -20.218 -30.677  1.00  0.00     0.275 HD
ENDBRANCH  16  18
ENDBRANCH  13  16
ENDBRANCH   9  12
ENDBRANCH   1   2
BRANCH   1  22
HETATM   22  C8  UNL     1     -17.182 -17.262 -30.447  1.00  0.00     0.297 C 
HETATM   23  O4  UNL     1     -18.401 -16.703 -30.826  1.00  0.00    -0.348 OA
HETATM   24  C9  UNL     1     -19.428 -16.875 -29.942  1.00  0.00     0.188 C 
HETATM   25  C11 UNL     1     -19.273 -18.072 -29.029  1.00  0.00     0.124 C 
HETATM   26  C12 UNL     1     -20.629 -18.580 -28.565  1.00  0.00     0.055 C 
HETATM   27  C13 UNL     1     -18.583 -19.119 -29.823  1.00  0.00     0.081 C 
HETATM   28  N1  UNL     1     -19.105 -20.251 -30.081  1.00  0.00    -0.272 N 
HETATM   29  C14 UNL     1     -17.211 -18.753 -30.310  1.00  0.00     0.288 C 
ATOM     30  H1  UNL     1     -20.041 -20.429 -29.717  1.00  0.00     0.193 HD
BRANCH  24  31
HETATM   31  C10 UNL     1     -19.822 -15.668 -29.149  1.00  0.00     0.199 C 
BRANCH  31  32
HETATM   32  O5  UNL     1     -19.567 -14.503 -29.886  1.00  0.00    -0.398 OA
ATOM     33  H5  UNL     1     -18.961 -14.690 -30.594  1.00  0.00     0.209 HD
ENDBRANCH  31  32
ENDBRANCH  24  31
BRANCH  25  34
HETATM   34  O6  UNL     1     -18.527 -17.764 -27.919  1.00  0.00    -0.381 OA
ATOM     35  H6  UNL     1     -17.612 -17.635 -28.141  1.00  0.00     0.211 HD
ENDBRANCH  25  34
BRANCH  28  36
HETATM   36  O7  UNL     1     -18.519 -21.238 -30.800  1.00  0.00    -0.290 OA
ATOM     37  H7  UNL     1     -18.865 -22.115 -30.913  1.00  0.00     0.244 HD
ENDBRANCH  28  36
BRANCH  29  38
HETATM   38  N2  UNL     1     -16.939 -19.470 -31.532  1.00  0.00    -0.065 N 
ATOM     39  H23 UNL     1     -16.853 -18.820 -32.313  1.00  0.00     0.275 HD
ATOM     40  H22 UNL     1     -15.994 -19.852 -31.516  1.00  0.00     0.275 HD
ATOM     41  H21 UNL     1     -17.615 -20.201 -31.751  1.00  0.00     0.275 HD
ENDBRANCH  29  38
ENDBRANCH   1  22
TORSDOF 11
ENDMDL
MODEL 3
REMARK VINA RESULT: -6.874325150      1.392      1.406
REMARK  11 active torsions:
REMARK  status: ('A' for Active; 'I' for Inactive)
REMARK    1  A    between atoms: O1_2  and  C2_3 
REMARK    2  A    between atoms: C7_9  and  O3_10 
REMARK    3  A    between atoms: O3_10  and  C8_11 
REMARK    4  A    between atoms: C9_13  and  C10_14 
REMARK    5  A    between atoms: C10_14  and  O5_15 
REMARK    6  A    between atoms: C11_17  and  O6_19 
REMARK    7  A    between atoms: N1_22  and  O7_24 
REMARK    8  A    between atoms: C14_26  and  N2_27 
REMARK    9  A    between atoms: C15_31  and  N3_32 
REMARK       I    between atoms: N3_32  and  C16_34 
REMARK   10  A    between atoms: C16_34  and  C17_36 
REMARK   11  A    between atoms: C17_36  and  N4_38 
ROOT
HETATM    1  O3  UNL     1     -12.174 -14.037 -32.237  1.00  0.00    -0.351 OA
ENDROOT
BRANCH   1   2
HETATM    2  C7  UNL     1     -10.920 -14.106 -32.850  1.00  0.00     0.158 C 
HETATM    3  C5  UNL     1     -10.697 -12.825 -33.624  1.00  0.00     0.041 C 
HETATM    4  C3  UNL     1     -11.098 -12.941 -35.071  1.00  0.00     0.127 C 
HETATM    5  C6  UNL     1      -9.273 -12.342 -33.507  1.00  0.00     0.015 C 
HETATM    6  O2  UNL     1     -10.527 -13.986 -35.726  1.00  0.00    -0.354 OA
HETATM    7  C4  UNL     1     -12.620 -12.908 -35.226  1.00  0.00     0.040 C 
HETATM    8  C2  UNL     1     -10.161 -15.070 -35.017  1.00  0.00     0.284 C 
HETATM    9  C15 UNL     1     -10.875 -15.310 -33.720  1.00  0.00     0.169 C 
BRANCH   8  10
HETATM   10  O1  UNL     1      -8.774 -15.083 -34.883  1.00  0.00    -0.364 OA
HETATM   11  C1  UNL     1      -8.140 -14.971 -36.120  1.00  0.00     0.204 C 
ENDBRANCH   8  10
BRANCH   9  12
HETATM   12  N3  UNL     1     -10.304 -16.410 -32.979  1.00  0.00    -0.347 N 
HETATM   13  C16 UNL     1     -11.030 -17.443 -32.382  1.00  0.00     0.248 C 
HETATM   14  O8  UNL     1     -12.295 -17.494 -32.442  1.00  0.00    -0.271 OA
ATOM     15  H3  UNL     1      -9.289 -16.434 -32.885  1.00  0.00     0.163 HD
BRANCH  13  16
HETATM   16  C17 UNL     1     -10.367 -18.541 -31.645  1.00  0.00     0.270 C 
HETATM   17  C18 UNL     1      -9.940 -19.608 -32.628  1.00  0.00     0.050 C 
BRANCH  16  18
HETATM   18  N4  UNL     1      -9.164 -18.094 -30.963  1.00  0.00    -0.067 N 
ATOM     19  H43 UNL     1      -9.333 -17.233 -30.443  1.00  0.00     0.275 HD
ATOM     20  H42 UNL     1      -8.931 -18.711 -30.185  1.00  0.00     0.275 HD
ATOM     21  H41 UNL     1      -8.376 -17.992 -31.602  1.00  0.00     0.275 HD
ENDBRANCH  16  18
ENDBRANCH  13  16
ENDBRANCH   9  12
ENDBRANCH   1   2
BRANCH   1  22
HETATM   22  C8  UNL     1     -12.093 -13.876 -30.852  1.00  0.00     0.297 C 
HETATM   23  O4  UNL     1     -12.480 -12.557 -30.614  1.00  0.00    -0.348 OA
HETATM   24  C9  UNL     1     -12.455 -12.164 -29.307  1.00  0.00     0.188 C 
HETATM   25  C11 UNL     1     -12.587 -13.295 -28.310  1.00  0.00     0.124 C 
HETATM   26  C12 UNL     1     -13.184 -12.801 -27.003  1.00  0.00     0.055 C 
HETATM   27  C13 UNL     1     -13.484 -14.300 -28.932  1.00  0.00     0.081 C 
HETATM   28  N1  UNL     1     -14.600 -14.642 -28.424  1.00  0.00    -0.272 N 
HETATM   29  C14 UNL     1     -12.986 -14.896 -30.217  1.00  0.00     0.288 C 
ATOM     30  H1  UNL     1     -14.874 -14.194 -27.549  1.00  0.00     0.193 HD
BRANCH  24  31
HETATM   31  C10 UNL     1     -11.331 -11.257 -28.914  1.00  0.00     0.199 C 
BRANCH  31  32
HETATM   32  O5  UNL     1     -11.778  -9.929 -28.864  1.00  0.00    -0.398 OA
ATOM     33  H5  UNL     1     -12.727  -9.902 -28.914  1.00  0.00     0.209 HD
ENDBRANCH  31  32
ENDBRANCH  24  31
BRANCH  25  34
HETATM   34  O6  UNL     1     -11.369 -13.867 -28.037  1.00  0.00    -0.381 OA
ATOM     35  H6  UNL     1     -11.139 -14.521 -28.686  1.00  0.00     0.211 HD
ENDBRANCH  25  34
BRANCH  28  36
HETATM   36  O7  UNL     1     -15.455 -15.552 -28.951  1.00  0.00    -0.290 OA
ATOM     37  H7  UNL     1     -15.623 -16.417 -28.596  1.00  0.00     0.244 HD
ENDBRANCH  28  36
BRANCH  29  38
HETATM   38  N2  UNL     1     -14.116 -15.286 -31.023  1.00  0.00    -0.065 N 
ATOM     39  H23 UNL     1     -13.814 -15.520 -31.969  1.00  0.00     0.275 HD
ATOM     40  H22 UNL     1     -14.472 -16.194 -30.722  1.00  0.00     0.275 HD
ATOM     41  H21 UNL     1     -14.871 -14.600 -31.052  1.00  0.00     0.275 HD
ENDBRANCH  29  38
ENDBRANCH   1  22
TORSDOF 11
ENDMDL
MODEL 4
REMARK VINA RESULT: -6.830042739      2.776      5.211
REMARK  11 active torsions:
REMARK  status: ('A' for Active; 'I' for Inactive)
REMARK    1  A    between atoms: O1_2  and  C2_3 
REMARK    2  A    between atoms: C7_9  and  O3_10 
REMARK    3  A    between atoms: O3_10  and  C8_11 
REMARK    4  A    between atoms: C9_13  and  C10_14 
REMARK    5  A    between atoms: C10_14  and  O5_15 
REMARK    6  A    between atoms: C11_17  and  O6_19 
REMARK    7  A    between atoms: N1_22  and  O7_24 
REMARK    8  A    between atoms: C14_26  and  N2_27 
REMARK    9  A    between atoms: C15_31  and  N3_32 
REMARK       I    between atoms: N3_32  and  C16_34 
REMARK   10  A    between atoms: C16_34  and  C17_36 
REMARK   11  A    between atoms: C17_36  and  N4_38 
ROOT
HETATM    1  O3  UNL     1     -11.552 -15.961 -31.574  1.00  0.00    -0.351 OA
ENDROOT
BRANCH   1   2
HETATM    2  C7  UNL     1     -10.659 -15.073 -32.180  1.00  0.00     0.158 C 
HETATM    3  C5  UNL     1      -9.892 -15.823 -33.247  1.00  0.00     0.041 C 
HETATM    4  C3  UNL     1      -8.577 -16.362 -32.749  1.00  0.00     0.127 C 
HETATM    5  C6  UNL     1      -9.684 -14.980 -34.481  1.00  0.00     0.015 C 
HETATM    6  O2  UNL     1      -7.777 -15.432 -32.167  1.00  0.00    -0.354 OA
HETATM    7  C4  UNL     1      -8.786 -17.596 -31.867  1.00  0.00     0.040 C 
HETATM    8  C2  UNL     1      -8.347 -14.356 -31.594  1.00  0.00     0.284 C 
HETATM    9  C15 UNL     1      -9.769 -14.500 -31.137  1.00  0.00     0.169 C 
BRANCH   8  10
HETATM   10  O1  UNL     1      -8.151 -13.244 -32.410  1.00  0.00    -0.364 OA
HETATM   11  C1  UNL     1      -7.016 -12.527 -32.032  1.00  0.00     0.204 C 
ENDBRANCH   8  10
BRANCH   9  12
HETATM   12  N3  UNL     1     -10.322 -13.249 -30.676  1.00  0.00    -0.347 N 
HETATM   13  C16 UNL     1     -10.592 -12.929 -29.343  1.00  0.00     0.248 C 
HETATM   14  O8  UNL     1     -10.368 -13.747 -28.400  1.00  0.00    -0.271 OA
ATOM     15  H3  UNL     1     -10.533 -12.542 -31.380  1.00  0.00     0.163 HD
BRANCH  13  16
HETATM   16  C17 UNL     1     -11.152 -11.618 -28.950  1.00  0.00     0.270 C 
HETATM   17  C18 UNL     1     -12.175 -11.825 -27.857  1.00  0.00     0.050 C 
BRANCH  16  18
HETATM   18  N4  UNL     1     -10.138 -10.728 -28.412  1.00  0.00    -0.067 N 
ATOM     19  H43 UNL     1      -9.648 -10.232 -29.157  1.00  0.00     0.275 HD
ATOM     20  H42 UNL     1     -10.561  -9.930 -27.937  1.00  0.00     0.275 HD
ATOM     21  H41 UNL     1      -9.484 -11.217 -27.801  1.00  0.00     0.275 HD
ENDBRANCH  16  18
ENDBRANCH  13  16
ENDBRANCH   9  12
ENDBRANCH   1   2
BRANCH   1  22
HETATM   22  C8  UNL     1     -12.849 -15.451 -31.484  1.00  0.00     0.297 C 
HETATM   23  O4  UNL     1     -13.037 -14.721 -32.657  1.00  0.00    -0.348 OA
HETATM   24  C9  UNL     1     -14.249 -14.103 -32.778  1.00  0.00     0.188 C 
HETATM   25  C11 UNL     1     -15.359 -14.741 -31.970  1.00  0.00     0.124 C 
HETATM   26  C12 UNL     1     -16.715 -14.467 -32.600  1.00  0.00     0.055 C 
HETATM   27  C13 UNL     1     -15.088 -16.200 -31.962  1.00  0.00     0.081 C 
HETATM   28  N1  UNL     1     -15.890 -17.057 -32.454  1.00  0.00    -0.272 N 
HETATM   29  C14 UNL     1     -13.789 -16.606 -31.329  1.00  0.00     0.288 C 
ATOM     30  H1  UNL     1     -16.754 -16.707 -32.869  1.00  0.00     0.193 HD
BRANCH  24  31
HETATM   31  C10 UNL     1     -14.254 -12.619 -32.582  1.00  0.00     0.199 C 
BRANCH  31  32
HETATM   32  O5  UNL     1     -13.388 -12.269 -31.537  1.00  0.00    -0.398 OA
ATOM     33  H5  UNL     1     -13.412 -11.330 -31.393  1.00  0.00     0.209 HD
ENDBRANCH  31  32
ENDBRANCH  24  31
BRANCH  25  34
HETATM   34  O6  UNL     1     -15.380 -14.265 -30.683  1.00  0.00    -0.381 OA
ATOM     35  H6  UNL     1     -15.634 -13.351 -30.655  1.00  0.00     0.211 HD
ENDBRANCH  25  34
BRANCH  28  36
HETATM   36  O7  UNL     1     -15.689 -18.397 -32.473  1.00  0.00    -0.290 OA
ATOM     37  H7  UNL     1     -15.463 -18.908 -33.241  1.00  0.00     0.244 HD
ENDBRANCH  28  36
BRANCH  29  38
HETATM   38  N2  UNL     1     -13.333 -17.832 -31.936  1.00  0.00    -0.065 N 
ATOM     39  H23 UNL     1     -12.699 -17.631 -32.710  1.00  0.00     0.275 HD
ATOM     40  H22 UNL     1     -12.696 -18.324 -31.309  1.00  0.00     0.275 HD
ATOM     41  H21 UNL     1     -14.081 -18.455 -32.243  1.00  0.00     0.275 HD
ENDBRANCH  29  38
ENDBRANCH   1  22
TORSDOF 11
ENDMDL
MODEL 5
REMARK VINA RESULT: -6.813932217      2.622      5.433
REMARK  11 active torsions:
REMARK  status: ('A' for Active; 'I' for Inactive)
REMARK    1  A    between atoms: O1_2  and  C2_3 
REMARK    2  A    between atoms: C7_9  and  O3_10 
REMARK    3  A    between atoms: O3_10  and  C8_11 
REMARK    4  A    between atoms: C9_13  and  C10_14 
REMARK    5  A    between atoms: C10_14  and  O5_15 
REMARK    6  A    between atoms: C11_17  and  O6_19 
REMARK    7  A    between atoms: N1_22  and  O7_24 
REMARK    8  A    between atoms: C14_26  and  N2_27 
REMARK    9  A    between atoms: C15_31  and  N3_32 
REMARK       I    between atoms: N3_32  and  C16_34 
REMARK   10  A    between atoms: C16_34  and  C17_36 
REMARK   11  A    between atoms: C17_36  and  N4_38 
ROOT
HETATM    1  O3  UNL     1     -10.781 -14.545 -31.526  1.00  0.00    -0.351 OA
ENDROOT
BRANCH   1   2
HETATM    2  C7  UNL     1     -10.294 -13.291 -31.907  1.00  0.00     0.158 C 
HETATM    3  C5  UNL     1      -9.582 -13.440 -33.234  1.00  0.00     0.041 C 
HETATM    4  C3  UNL     1      -8.100 -13.655 -33.079  1.00  0.00     0.127 C 
HETATM    5  C6  UNL     1      -9.854 -12.270 -34.148  1.00  0.00     0.015 C 
HETATM    6  O2  UNL     1      -7.476 -12.718 -32.319  1.00  0.00    -0.354 OA
HETATM    7  C4  UNL     1      -7.795 -15.084 -32.623  1.00  0.00     0.040 C 
HETATM    8  C2  UNL     1      -8.187 -12.075 -31.374  1.00  0.00     0.284 C 
HETATM    9  C15 UNL     1      -9.400 -12.778 -30.837  1.00  0.00     0.169 C 
BRANCH   8  10
HETATM   10  O1  UNL     1      -8.458 -10.779 -31.806  1.00  0.00    -0.364 OA
HETATM   11  C1  UNL     1      -7.298 -10.127 -32.223  1.00  0.00     0.204 C 
ENDBRANCH   8  10
BRANCH   9  12
HETATM   12  N3  UNL     1     -10.162 -11.940 -29.942  1.00  0.00    -0.347 N 
HETATM   13  C16 UNL     1     -10.698 -12.346 -28.718  1.00  0.00     0.248 C 
HETATM   14  O8  UNL     1     -10.555 -13.529 -28.284  1.00  0.00    -0.271 OA
ATOM     15  H3  UNL     1     -10.323 -10.974 -30.228  1.00  0.00     0.163 HD
BRANCH  13  16
HETATM   16  C17 UNL     1     -11.462 -11.421 -27.852  1.00  0.00     0.270 C 
HETATM   17  C18 UNL     1     -12.306 -10.516 -28.721  1.00  0.00     0.050 C 
BRANCH  16  18
HETATM   18  N4  UNL     1     -12.376 -12.127 -26.971  1.00  0.00    -0.067 N 
ATOM     19  H43 UNL     1     -13.112 -12.595 -27.499  1.00  0.00     0.275 HD
ATOM     20  H42 UNL     1     -11.931 -12.945 -26.555  1.00  0.00     0.275 HD
ATOM     21  H41 UNL     1     -12.768 -11.516 -26.255  1.00  0.00     0.275 HD
ENDBRANCH  16  18
ENDBRANCH  13  16
ENDBRANCH   9  12
ENDBRANCH   1   2
BRANCH   1  22
HETATM   22  C8  UNL     1     -12.171 -14.568 -31.388  1.00  0.00     0.297 C 
HETATM   23  O4  UNL     1     -12.665 -14.032 -32.576  1.00  0.00    -0.348 OA
HETATM   24  C9  UNL     1     -14.025 -13.936 -32.657  1.00  0.00     0.188 C 
HETATM   25  C11 UNL     1     -14.774 -14.907 -31.770  1.00  0.00     0.124 C 
HETATM   26  C12 UNL     1     -16.151 -15.210 -32.338  1.00  0.00     0.055 C 
HETATM   27  C13 UNL     1     -13.960 -16.146 -31.721  1.00  0.00     0.081 C 
HETATM   28  N1  UNL     1     -14.384 -17.271 -32.139  1.00  0.00    -0.272 N 
HETATM   29  C14 UNL     1     -12.584 -15.986 -31.141  1.00  0.00     0.288 C 
ATOM     30  H1  UNL     1     -15.329 -17.304 -32.521  1.00  0.00     0.193 HD
BRANCH  24  31
HETATM   31  C10 UNL     1     -14.597 -12.560 -32.517  1.00  0.00     0.199 C 
BRANCH  31  32
HETATM   32  O5  UNL     1     -13.928 -11.861 -31.502  1.00  0.00    -0.398 OA
ATOM     33  H5  UNL     1     -14.542 -11.596 -30.828  1.00  0.00     0.209 HD
ENDBRANCH  31  32
ENDBRANCH  24  31
BRANCH  25  34
HETATM   34  O6  UNL     1     -14.934 -14.406 -30.501  1.00  0.00    -0.381 OA
ATOM     35  H6  UNL     1     -15.015 -13.460 -30.510  1.00  0.00     0.211 HD
ENDBRANCH  25  34
BRANCH  28  36
HETATM   36  O7  UNL     1     -13.681 -18.430 -32.117  1.00  0.00    -0.290 OA
ATOM     37  H7  UNL     1     -12.734 -18.497 -32.108  1.00  0.00     0.244 HD
ENDBRANCH  28  36
BRANCH  29  38
HETATM   38  N2  UNL     1     -11.711 -16.974 -31.725  1.00  0.00    -0.065 N 
ATOM     39  H23 UNL     1     -11.377 -16.659 -32.636  1.00  0.00     0.275 HD
ATOM     40  H22 UNL     1     -10.827 -17.011 -31.217  1.00  0.00     0.275 HD
ATOM     41  H21 UNL     1     -12.117 -17.906 -31.799  1.00  0.00     0.275 HD
ENDBRANCH  29  38
ENDBRANCH   1  22
TORSDOF 11
ENDMDL
