MODEL 1
REMARK VINA RESULT: -6.487037870      0.000      0.000
REMARK  13 active torsions:
REMARK  status: ('A' for Active; 'I' for Inactive)
REMARK    1  A    between atoms: C2_2  and  C3_3 
REMARK    2  A    between atoms: C4_5  and  C5_6 
REMARK    3  A    between atoms: C5_6  and  N1_7 
REMARK    4  A    between atoms: C6_12  and  O2_13 
REMARK    5  A    between atoms: C7_15  and  O3_16 
REMARK    6  A    between atoms: O3_16  and  C8_17 
REMARK    7  A    between atoms: C9_18  and  N2_19 
REMARK    8  A    between atoms: C11_24  and  N3_25 
REMARK    9  A    between atoms: C12_29  and  O4_30 
REMARK   10  A    between atoms: C13_32  and  O5_33 
REMARK   11  A    between atoms: O5_33  and  C14_34 
REMARK   12  A    between atoms: C17_37  and  N4_38 
REMARK   13  A    between atoms: C18_42  and  N5_43 
ROOT
HETATM    1  C8  UNL     1     -12.333 -13.828 -30.968  1.00  0.00     0.184 C 
HETATM    2  C9  UNL     1     -12.632 -12.909 -29.794  1.00  0.00     0.217 C 
HETATM    3  C10 UNL     1     -11.360 -12.515 -29.075  1.00  0.00     0.071 C 
HETATM    4  C11 UNL     1     -10.380 -13.634 -29.118  1.00  0.00     0.216 C 
HETATM    5  C12 UNL     1      -9.948 -13.916 -30.515  1.00  0.00     0.180 C 
HETATM    6  C13 UNL     1     -10.986 -13.544 -31.561  1.00  0.00     0.186 C 
ENDROOT
BRANCH   1   7
HETATM    7  O3  UNL     1     -13.399 -13.672 -31.847  1.00  0.00    -0.370 OA
BRANCH   7   8
HETATM    8  C7  UNL     1     -13.965 -14.905 -32.229  1.00  0.00     0.191 C 
HETATM    9  C3  UNL     1     -13.777 -15.944 -31.142  1.00  0.00     0.083 C 
HETATM   10  S1  UNL     1     -15.408 -16.343 -30.453  1.00  0.00    -0.128 SA
HETATM   11  C4  UNL     1     -16.533 -16.589 -31.853  1.00  0.00     0.211 C 
HETATM   12  O1  UNL     1     -16.090 -15.824 -32.900  1.00  0.00    -0.342 OA
HETATM   13  C6  UNL     1     -15.407 -14.676 -32.556  1.00  0.00     0.288 C 
BRANCH   9  14
HETATM   14  C2  UNL     1     -13.112 -17.205 -31.698  1.00  0.00     0.013 C 
HETATM   15  C1  UNL     1     -12.488 -16.958 -33.031  1.00  0.00     0.006 C 
ENDBRANCH   9  14
BRANCH  11  16
HETATM   16  C5  UNL     1     -17.970 -16.313 -31.458  1.00  0.00     0.272 C 
BRANCH  16  17
HETATM   17  N1  UNL     1     -18.565 -17.622 -31.148  1.00  0.00    -0.076 N 
ATOM     18  H13 UNL     1     -18.088 -18.403 -31.599  1.00  0.00     0.274 HD
ATOM     19  H12 UNL     1     -18.409 -17.922 -30.186  1.00  0.00     0.274 HD
ATOM     20  H11 UNL     1     -19.552 -17.550 -31.396  1.00  0.00     0.274 HD
ENDBRANCH  16  17
ENDBRANCH  11  16
BRANCH  13  21
HETATM   21  O2  UNL     1     -15.992 -14.037 -31.465  1.00  0.00    -0.369 OA
ATOM     22  H2  UNL     1     -15.696 -13.138 -31.385  1.00  0.00     0.212 HD
ENDBRANCH  13  21
ENDBRANCH   7   8
ENDBRANCH   1   7
BRANCH   2  23
HETATM   23  N2  UNL     1     -13.406 -11.750 -30.187  1.00  0.00    -0.072 N 
ATOM     24  H23 UNL     1     -12.801 -11.002 -30.527  1.00  0.00     0.274 HD
ATOM     25  H22 UNL     1     -13.934 -11.931 -31.040  1.00  0.00     0.274 HD
ATOM     26  H21 UNL     1     -14.016 -11.420 -29.439  1.00  0.00     0.274 HD
ENDBRANCH   2  23
BRANCH   6  27
HETATM   27  O5  UNL     1     -10.787 -14.224 -32.732  1.00  0.00    -0.351 OA
BRANCH  27  28
HETATM   28  C14 UNL     1     -10.469 -13.414 -33.813  1.00  0.00     0.263 C 
HETATM   29  C15 UNL     1     -11.355 -13.860 -34.962  1.00  0.00     0.063 C 
HETATM   30  C16 UNL     1     -12.546 -12.961 -35.137  1.00  0.00     0.042 C 
HETATM   31  C17 UNL     1     -12.034 -11.564 -35.387  1.00  0.00     0.239 C 
HETATM   32  C18 UNL     1     -10.803 -11.250 -34.577  1.00  0.00     0.351 C 
HETATM   33  O6  UNL     1     -10.583 -12.088 -33.526  1.00  0.00    -0.327 OA
BRANCH  31  34
HETATM   34  N4  UNL     1     -11.804 -11.403 -36.816  1.00  0.00    -0.071 N 
ATOM     35  H43 UNL     1     -12.623 -11.648 -37.373  1.00  0.00     0.274 HD
ATOM     36  H42 UNL     1     -11.735 -10.423 -37.093  1.00  0.00     0.274 HD
ATOM     37  H41 UNL     1     -10.979 -11.942 -37.075  1.00  0.00     0.274 HD
ENDBRANCH  31  34
BRANCH  32  38
HETATM   38  N5  UNL     1      -9.672 -11.096 -35.470  1.00  0.00    -0.051 N 
ATOM     39  H53 UNL     1      -9.414 -11.973 -35.923  1.00  0.00     0.277 HD
ATOM     40  H52 UNL     1      -9.910 -10.565 -36.308  1.00  0.00     0.277 HD
ATOM     41  H51 UNL     1      -8.893 -10.682 -34.957  1.00  0.00     0.277 HD
ENDBRANCH  32  38
ENDBRANCH  27  28
ENDBRANCH   6  27
BRANCH   5  42
HETATM   42  O4  UNL     1      -9.653 -15.294 -30.584  1.00  0.00    -0.391 OA
ATOM     43  H4  UNL     1     -10.131 -15.642 -31.329  1.00  0.00     0.210 HD
ENDBRANCH   5  42
BRANCH   4  44
HETATM   44  N3  UNL     1     -10.931 -14.803 -28.457  1.00  0.00    -0.072 N 
ATOM     45  H33 UNL     1     -10.209 -15.357 -27.997  1.00  0.00     0.274 HD
ATOM     46  H32 UNL     1     -11.478 -14.554 -27.633  1.00  0.00     0.274 HD
ATOM     47  H31 UNL     1     -11.472 -15.357 -29.122  1.00  0.00     0.274 HD
ENDBRANCH   4  44
TORSDOF 13
ENDMDL
MODEL 2
REMARK VINA RESULT: -6.260767899      2.976      6.020
REMARK  13 active torsions:
REMARK  status: ('A' for Active; 'I' for Inactive)
REMARK    1  A    between atoms: C2_2  and  C3_3 
REMARK    2  A    between atoms: C4_5  and  C5_6 
REMARK    3  A    between atoms: C5_6  and  N1_7 
REMARK    4  A    between atoms: C6_12  and  O2_13 
REMARK    5  A    between atoms: C7_15  and  O3_16 
REMARK    6  A    between atoms: O3_16  and  C8_17 
REMARK    7  A    between atoms: C9_18  and  N2_19 
REMARK    8  A    between atoms: C11_24  and  N3_25 
REMARK    9  A    between atoms: C12_29  and  O4_30 
REMARK   10  A    between atoms: C13_32  and  O5_33 
REMARK   11  A    between atoms: O5_33  and  C14_34 
REMARK   12  A    between atoms: C17_37  and  N4_38 
REMARK   13  A    between atoms: C18_42  and  N5_43 
ROOT
HETATM    1  C8  UNL     1     -12.921 -14.891 -32.228  1.00  0.00     0.184 C 
HETATM    2  C9  UNL     1     -13.593 -14.160 -33.380  1.00  0.00     0.217 C 
HETATM    3  C10 UNL     1     -14.868 -13.485 -32.925  1.00  0.00     0.071 C 
HETATM    4  C11 UNL     1     -15.527 -14.295 -31.865  1.00  0.00     0.216 C 
HETATM    5  C12 UNL     1     -14.683 -14.364 -30.640  1.00  0.00     0.180 C 
HETATM    6  C13 UNL     1     -13.195 -14.220 -30.916  1.00  0.00     0.186 C 
ENDROOT
BRANCH   1   7
HETATM    7  O3  UNL     1     -11.576 -14.973 -32.570  1.00  0.00    -0.370 OA
BRANCH   7   8
HETATM    8  C7  UNL     1     -11.207 -16.265 -32.992  1.00  0.00     0.191 C 
HETATM    9  C3  UNL     1     -10.060 -16.203 -33.980  1.00  0.00     0.083 C 
HETATM   10  S1  UNL     1      -8.597 -16.933 -33.194  1.00  0.00    -0.128 SA
HETATM   11  C4  UNL     1      -9.126 -18.480 -32.413  1.00  0.00     0.211 C 
HETATM   12  O1  UNL     1     -10.446 -18.356 -32.066  1.00  0.00    -0.342 OA
HETATM   13  C6  UNL     1     -10.872 -17.076 -31.781  1.00  0.00     0.288 C 
BRANCH   9  14
HETATM   14  C2  UNL     1     -10.403 -16.954 -35.268  1.00  0.00     0.013 C 
HETATM   15  C1  UNL     1      -9.400 -16.695 -36.342  1.00  0.00     0.006 C 
ENDBRANCH   9  14
BRANCH  11  16
HETATM   16  C5  UNL     1      -8.220 -18.849 -31.256  1.00  0.00     0.272 C 
BRANCH  16  17
HETATM   17  N1  UNL     1      -7.267 -17.738 -31.115  1.00  0.00    -0.076 N 
ATOM     18  H13 UNL     1      -6.894 -17.407 -32.005  1.00  0.00     0.274 HD
ATOM     19  H12 UNL     1      -7.703 -16.862 -30.829  1.00  0.00     0.274 HD
ATOM     20  H11 UNL     1      -6.548 -18.063 -30.468  1.00  0.00     0.274 HD
ENDBRANCH  16  17
ENDBRANCH  11  16
BRANCH  13  21
HETATM   21  O2  UNL     1      -9.922 -16.368 -31.048  1.00  0.00    -0.369 OA
ATOM     22  H2  UNL     1     -10.252 -16.119 -30.193  1.00  0.00     0.212 HD
ENDBRANCH  13  21
ENDBRANCH   7   8
ENDBRANCH   1   7
BRANCH   2  23
HETATM   23  N2  UNL     1     -12.699 -13.229 -34.036  1.00  0.00    -0.072 N 
ATOM     24  H23 UNL     1     -12.863 -12.274 -33.717  1.00  0.00     0.274 HD
ATOM     25  H22 UNL     1     -11.740 -13.346 -33.709  1.00  0.00     0.274 HD
ATOM     26  H21 UNL     1     -12.751 -13.292 -35.053  1.00  0.00     0.274 HD
ENDBRANCH   2  23
BRANCH   6  27
HETATM   27  O5  UNL     1     -12.442 -14.748 -29.903  1.00  0.00    -0.351 OA
BRANCH  27  28
HETATM   28  C14 UNL     1     -12.033 -13.821 -28.955  1.00  0.00     0.263 C 
HETATM   29  C15 UNL     1     -10.527 -13.692 -29.097  1.00  0.00     0.063 C 
HETATM   30  C16 UNL     1     -10.139 -12.475 -29.887  1.00  0.00     0.042 C 
HETATM   31  C17 UNL     1     -10.699 -11.268 -29.177  1.00  0.00     0.239 C 
HETATM   32  C18 UNL     1     -12.056 -11.533 -28.576  1.00  0.00     0.351 C 
HETATM   33  O6  UNL     1     -12.690 -12.634 -29.065  1.00  0.00    -0.327 OA
BRANCH  31  34
HETATM   34  N4  UNL     1      -9.735 -10.827 -28.179  1.00  0.00    -0.071 N 
ATOM     35  H43 UNL     1      -9.764 -11.393 -27.331  1.00  0.00     0.274 HD
ATOM     36  H42 UNL     1      -8.772 -11.030 -28.449  1.00  0.00     0.274 HD
ATOM     37  H41 UNL     1      -9.888  -9.837 -27.994  1.00  0.00     0.274 HD
ENDBRANCH  31  34
BRANCH  32  38
HETATM   38  N5  UNL     1     -11.951 -11.493 -27.130  1.00  0.00    -0.051 N 
ATOM     39  H53 UNL     1     -12.466 -12.252 -26.684  1.00  0.00     0.277 HD
ATOM     40  H52 UNL     1     -11.017 -11.739 -26.803  1.00  0.00     0.277 HD
ATOM     41  H51 UNL     1     -12.248 -10.574 -26.799  1.00  0.00     0.277 HD
ENDBRANCH  32  38
ENDBRANCH  27  28
ENDBRANCH   6  27
BRANCH   5  42
HETATM   42  O4  UNL     1     -14.950 -15.605 -30.025  1.00  0.00    -0.391 OA
ATOM     43  H4  UNL     1     -15.528 -15.431 -29.290  1.00  0.00     0.210 HD
ENDBRANCH   5  42
BRANCH   4  44
HETATM   44  N3  UNL     1     -15.869 -15.607 -32.382  1.00  0.00    -0.072 N 
ATOM     45  H33 UNL     1     -16.843 -15.848 -32.199  1.00  0.00     0.274 HD
ATOM     46  H32 UNL     1     -15.900 -15.620 -33.401  1.00  0.00     0.274 HD
ATOM     47  H31 UNL     1     -15.226 -16.306 -32.010  1.00  0.00     0.274 HD
ENDBRANCH   4  44
TORSDOF 13
ENDMDL
MODEL 3
REMARK VINA RESULT: -6.215352767      3.011      5.997
REMARK  13 active torsions:
REMARK  status: ('A' for Active; 'I' for Inactive)
REMARK    1  A    between atoms: C2_2  and  C3_3 
REMARK    2  A    between atoms: C4_5  and  C5_6 
REMARK    3  A    between atoms: C5_6  and  N1_7 
REMARK    4  A    between atoms: C6_12  and  O2_13 
REMARK    5  A    between atoms: C7_15  and  O3_16 
REMARK    6  A    between atoms: O3_16  and  C8_17 
REMARK    7  A    between atoms: C9_18  and  N2_19 
REMARK    8  A    between atoms: C11_24  and  N3_25 
REMARK    9  A    between atoms: C12_29  and  O4_30 
REMARK   10  A    between atoms: C13_32  and  O5_33 
REMARK   11  A    between atoms: O5_33  and  C14_34 
REMARK   12  A    between atoms: C17_37  and  N4_38 
REMARK   13  A    between atoms: C18_42  and  N5_43 
ROOT
HETATM    1  C8  UNL     1     -12.925 -15.343 -32.001  1.00  0.00     0.184 C 
HETATM    2  C9  UNL     1     -13.309 -14.716 -33.333  1.00  0.00     0.217 C 
HETATM    3  C10 UNL     1     -14.409 -13.693 -33.153  1.00  0.00     0.071 C 
HETATM    4  C11 UNL     1     -15.324 -14.109 -32.055  1.00  0.00     0.216 C 
HETATM    5  C12 UNL     1     -14.614 -14.129 -30.746  1.00  0.00     0.180 C 
HETATM    6  C13 UNL     1     -13.120 -14.385 -30.865  1.00  0.00     0.186 C 
ENDROOT
BRANCH   1   7
HETATM    7  O3  UNL     1     -11.620 -15.794 -32.163  1.00  0.00    -0.370 OA
BRANCH   7   8
HETATM    8  C7  UNL     1     -11.461 -17.133 -31.755  1.00  0.00     0.191 C 
HETATM    9  C3  UNL     1     -12.009 -18.084 -32.800  1.00  0.00     0.083 C 
HETATM   10  S1  UNL     1     -10.616 -18.997 -33.519  1.00  0.00    -0.128 SA
HETATM   11  C4  UNL     1      -9.575 -19.555 -32.144  1.00  0.00     0.211 C 
HETATM   12  O1  UNL     1      -9.714 -18.665 -31.111  1.00  0.00    -0.342 OA
HETATM   13  C6  UNL     1     -10.010 -17.368 -31.476  1.00  0.00     0.288 C 
BRANCH   9  14
HETATM   14  C2  UNL     1     -13.019 -19.054 -32.184  1.00  0.00     0.013 C 
HETATM   15  C1  UNL     1     -14.421 -18.696 -32.549  1.00  0.00     0.006 C 
ENDBRANCH   9  14
BRANCH  11  16
HETATM   16  C5  UNL     1      -8.141 -19.761 -32.588  1.00  0.00     0.272 C 
BRANCH  16  17
HETATM   17  N1  UNL     1      -7.437 -20.340 -31.433  1.00  0.00    -0.076 N 
ATOM     18  H13 UNL     1      -7.277 -19.673 -30.678  1.00  0.00     0.274 HD
ATOM     19  H12 UNL     1      -8.005 -20.998 -30.899  1.00  0.00     0.274 HD
ATOM     20  H11 UNL     1      -6.579 -20.750 -31.802  1.00  0.00     0.274 HD
ENDBRANCH  16  17
ENDBRANCH  11  16
BRANCH  13  21
HETATM   21  O2  UNL     1      -9.293 -16.974 -32.604  1.00  0.00    -0.369 OA
ATOM     22  H2  UNL     1      -8.400 -16.734 -32.386  1.00  0.00     0.212 HD
ENDBRANCH  13  21
ENDBRANCH   7   8
ENDBRANCH   1   7
BRANCH   2  23
HETATM   23  N2  UNL     1     -12.168 -14.159 -34.028  1.00  0.00    -0.072 N 
ATOM     24  H23 UNL     1     -12.370 -13.221 -34.375  1.00  0.00     0.274 HD
ATOM     25  H22 UNL     1     -11.415 -13.933 -33.378  1.00  0.00     0.274 HD
ATOM     26  H21 UNL     1     -11.837 -14.766 -34.778  1.00  0.00     0.274 HD
ENDBRANCH   2  23
BRANCH   6  27
HETATM   27  O5  UNL     1     -12.597 -14.864 -29.695  1.00  0.00    -0.351 OA
BRANCH  27  28
HETATM   28  C14 UNL     1     -12.095 -13.883 -28.853  1.00  0.00     0.263 C 
HETATM   29  C15 UNL     1     -10.597 -13.827 -29.098  1.00  0.00     0.063 C 
HETATM   30  C16 UNL     1     -10.216 -12.694 -30.007  1.00  0.00     0.042 C 
HETATM   31  C17 UNL     1     -10.685 -11.412 -29.365  1.00  0.00     0.239 C 
HETATM   32  C18 UNL     1     -12.009 -11.572 -28.662  1.00  0.00     0.351 C 
HETATM   33  O6  UNL     1     -12.713 -12.681 -29.020  1.00  0.00    -0.327 OA
BRANCH  31  34
HETATM   34  N4  UNL     1      -9.643 -10.935 -28.468  1.00  0.00    -0.071 N 
ATOM     35  H43 UNL     1      -9.662 -11.403 -27.562  1.00  0.00     0.274 HD
ATOM     36  H42 UNL     1      -8.711 -11.231 -28.758  1.00  0.00     0.274 HD
ATOM     37  H41 UNL     1      -9.724  -9.922 -28.386  1.00  0.00     0.274 HD
ENDBRANCH  31  34
BRANCH  32  38
HETATM   38  N5  UNL     1     -11.809 -11.422 -27.234  1.00  0.00    -0.051 N 
ATOM     39  H53 UNL     1     -10.858 -11.655 -26.949  1.00  0.00     0.277 HD
ATOM     40  H52 UNL     1     -11.811 -10.444 -26.943  1.00  0.00     0.277 HD
ATOM     41  H51 UNL     1     -12.509 -11.975 -26.738  1.00  0.00     0.277 HD
ENDBRANCH  32  38
ENDBRANCH  27  28
ENDBRANCH   6  27
BRANCH   5  42
HETATM   42  O4  UNL     1     -15.223 -15.133 -29.963  1.00  0.00    -0.391 OA
ATOM     43  H4  UNL     1     -15.259 -14.805 -29.072  1.00  0.00     0.210 HD
ENDBRANCH   5  42
BRANCH   4  44
HETATM   44  N3  UNL     1     -15.938 -15.384 -32.376  1.00  0.00    -0.072 N 
ATOM     45  H33 UNL     1     -16.912 -15.277 -32.660  1.00  0.00     0.274 HD
ATOM     46  H32 UNL     1     -15.572 -15.776 -33.243  1.00  0.00     0.274 HD
ATOM     47  H31 UNL     1     -15.837 -16.027 -31.592  1.00  0.00     0.274 HD
ENDBRANCH   4  44
TORSDOF 13
ENDMDL
MODEL 4
REMARK VINA RESULT: -6.028002926      3.111      6.665
REMARK  13 active torsions:
REMARK  status: ('A' for Active; 'I' for Inactive)
REMARK    1  A    between atoms: C2_2  and  C3_3 
REMARK    2  A    between atoms: C4_5  and  C5_6 
REMARK    3  A    between atoms: C5_6  and  N1_7 
REMARK    4  A    between atoms: C6_12  and  O2_13 
REMARK    5  A    between atoms: C7_15  and  O3_16 
REMARK    6  A    between atoms: O3_16  and  C8_17 
REMARK    7  A    between atoms: C9_18  and  N2_19 
REMARK    8  A    between atoms: C11_24  and  N3_25 
REMARK    9  A    between atoms: C12_29  and  O4_30 
REMARK   10  A    between atoms: C13_32  and  O5_33 
REMARK   11  A    between atoms: O5_33  and  C14_34 
REMARK   12  A    between atoms: C17_37  and  N4_38 
REMARK   13  A    between atoms: C18_42  and  N5_43 
ROOT
HETATM    1  C8  UNL     1     -12.417 -14.543 -30.712  1.00  0.00     0.184 C 
HETATM    2  C9  UNL     1     -13.290 -14.143 -29.532  1.00  0.00     0.217 C 
HETATM    3  C10 UNL     1     -14.546 -14.985 -29.478  1.00  0.00     0.071 C 
HETATM    4  C11 UNL     1     -14.993 -15.329 -30.856  1.00  0.00     0.216 C 
HETATM    5  C12 UNL     1     -13.994 -16.193 -31.543  1.00  0.00     0.180 C 
HETATM    6  C13 UNL     1     -12.571 -15.996 -31.045  1.00  0.00     0.186 C 
ENDROOT
BRANCH   1   7
HETATM    7  O3  UNL     1     -11.125 -14.159 -30.368  1.00  0.00    -0.370 OA
BRANCH   7   8
HETATM    8  C7  UNL     1     -10.781 -12.899 -30.895  1.00  0.00     0.191 C 
HETATM    9  C3  UNL     1      -9.535 -12.356 -30.225  1.00  0.00     0.083 C 
HETATM   10  S1  UNL     1      -8.201 -12.322 -31.455  1.00  0.00    -0.128 SA
HETATM   11  C4  UNL     1      -8.888 -11.597 -32.968  1.00  0.00     0.211 C 
HETATM   12  O1  UNL     1     -10.229 -11.877 -33.008  1.00  0.00    -0.342 OA
HETATM   13  C6  UNL     1     -10.616 -13.040 -32.375  1.00  0.00     0.288 C 
BRANCH   9  14
HETATM   14  C2  UNL     1      -9.779 -10.954 -29.666  1.00  0.00     0.013 C 
HETATM   15  C1  UNL     1     -10.578 -10.993 -28.405  1.00  0.00     0.006 C 
ENDBRANCH   9  14
BRANCH  11  16
HETATM   16  C5  UNL     1      -8.128 -12.062 -34.194  1.00  0.00     0.272 C 
BRANCH  16  17
HETATM   17  N1  UNL     1      -7.109 -13.004 -33.708  1.00  0.00    -0.076 N 
ATOM     18  H13 UNL     1      -7.372 -13.479 -32.844  1.00  0.00     0.274 HD
ATOM     19  H12 UNL     1      -7.020 -13.840 -34.286  1.00  0.00     0.274 HD
ATOM     20  H11 UNL     1      -6.243 -12.470 -33.630  1.00  0.00     0.274 HD
ENDBRANCH  16  17
ENDBRANCH  11  16
BRANCH  13  21
HETATM   21  O2  UNL     1      -9.713 -14.076 -32.604  1.00  0.00    -0.369 OA
ATOM     22  H2  UNL     1     -10.033 -14.903 -32.265  1.00  0.00     0.212 HD
ENDBRANCH  13  21
ENDBRANCH   7   8
ENDBRANCH   1   7
BRANCH   2  23
HETATM   23  N2  UNL     1     -12.568 -14.178 -28.278  1.00  0.00    -0.072 N 
ATOM     24  H23 UNL     1     -12.434 -15.136 -27.956  1.00  0.00     0.274 HD
ATOM     25  H22 UNL     1     -11.592 -13.912 -28.407  1.00  0.00     0.274 HD
ATOM     26  H21 UNL     1     -13.013 -13.606 -27.559  1.00  0.00     0.274 HD
ENDBRANCH   2  23
BRANCH   6  27
HETATM   27  O5  UNL     1     -11.652 -16.411 -31.969  1.00  0.00    -0.351 OA
BRANCH  27  28
HETATM   28  C14 UNL     1     -10.820 -17.429 -31.527  1.00  0.00     0.263 C 
HETATM   29  C15 UNL     1     -11.324 -18.709 -32.171  1.00  0.00     0.063 C 
HETATM   30  C16 UNL     1     -10.510 -19.094 -33.373  1.00  0.00     0.042 C 
HETATM   31  C17 UNL     1      -9.080 -19.266 -32.924  1.00  0.00     0.239 C 
HETATM   32  C18 UNL     1      -8.682 -18.260 -31.874  1.00  0.00     0.351 C 
HETATM   33  O6  UNL     1      -9.506 -17.180 -31.780  1.00  0.00    -0.327 OA
BRANCH  31  34
HETATM   34  N4  UNL     1      -8.900 -20.636 -32.465  1.00  0.00    -0.071 N 
ATOM     35  H43 UNL     1      -9.565 -20.894 -31.735  1.00  0.00     0.274 HD
ATOM     36  H42 UNL     1      -9.185 -21.323 -33.163  1.00  0.00     0.274 HD
ATOM     37  H41 UNL     1      -7.931 -20.755 -32.172  1.00  0.00     0.274 HD
ENDBRANCH  31  34
BRANCH  32  38
HETATM   38  N5  UNL     1      -8.448 -18.949 -30.620  1.00  0.00    -0.051 N 
ATOM     39  H53 UNL     1      -8.993 -19.808 -30.543  1.00  0.00     0.277 HD
ATOM     40  H52 UNL     1      -7.518 -19.364 -30.574  1.00  0.00     0.277 HD
ATOM     41  H51 UNL     1      -8.625 -18.306 -29.848  1.00  0.00     0.277 HD
ENDBRANCH  32  38
ENDBRANCH  27  28
ENDBRANCH   6  27
BRANCH   5  42
HETATM   42  O4  UNL     1     -14.076 -15.901 -32.921  1.00  0.00    -0.391 OA
ATOM     43  H4  UNL     1     -13.685 -16.634 -33.383  1.00  0.00     0.210 HD
ENDBRANCH   5  42
BRANCH   4  44
HETATM   44  N3  UNL     1     -15.290 -14.119 -31.599  1.00  0.00    -0.072 N 
ATOM     45  H33 UNL     1     -15.806 -14.314 -32.456  1.00  0.00     0.274 HD
ATOM     46  H32 UNL     1     -15.990 -13.544 -31.130  1.00  0.00     0.274 HD
ATOM     47  H31 UNL     1     -14.430 -13.601 -31.780  1.00  0.00     0.274 HD
ENDBRANCH   4  44
TORSDOF 13
ENDMDL
MODEL 5
REMARK VINA RESULT: -5.867939757      2.815      6.379
REMARK  13 active torsions:
REMARK  status: ('A' for Active; 'I' for Inactive)
REMARK    1  A    between atoms: C2_2  and  C3_3 
REMARK    2  A    between atoms: C4_5  and  C5_6 
REMARK    3  A    between atoms: C5_6  and  N1_7 
REMARK    4  A    between atoms: C6_12  and  O2_13 
REMARK    5  A    between atoms: C7_15  and  O3_16 
REMARK    6  A    between atoms: O3_16  and  C8_17 
REMARK    7  A    between atoms: C9_18  and  N2_19 
REMARK    8  A    between atoms: C11_24  and  N3_25 
REMARK    9  A    between atoms: C12_29  and  O4_30 
REMARK   10  A    between atoms: C13_32  and  O5_33 
REMARK   11  A    between atoms: O5_33  and  C14_34 
REMARK   12  A    between atoms: C17_37  and  N4_38 
REMARK   13  A    between atoms: C18_42  and  N5_43 
ROOT
HETATM    1  C8  UNL     1     -12.900 -14.367 -32.708  1.00  0.00     0.184 C 
HETATM    2  C9  UNL     1     -14.339 -14.744 -33.025  1.00  0.00     0.217 C 
HETATM    3  C10 UNL     1     -14.851 -15.790 -32.059  1.00  0.00     0.071 C 
HETATM    4  C11 UNL     1     -13.747 -16.704 -31.659  1.00  0.00     0.216 C 
HETATM    5  C12 UNL     1     -12.696 -15.974 -30.897  1.00  0.00     0.180 C 
HETATM    6  C13 UNL     1     -12.606 -14.497 -31.243  1.00  0.00     0.186 C 
ENDROOT
BRANCH   1   7
HETATM    7  O3  UNL     1     -12.725 -13.088 -33.225  1.00  0.00    -0.370 OA
BRANCH   7   8
HETATM    8  C7  UNL     1     -12.108 -13.101 -34.491  1.00  0.00     0.191 C 
HETATM    9  C3  UNL     1     -11.796 -11.692 -34.953  1.00  0.00     0.083 C 
HETATM   10  S1  UNL     1      -9.993 -11.493 -34.985  1.00  0.00    -0.128 SA
HETATM   11  C4  UNL     1      -9.308 -12.960 -35.802  1.00  0.00     0.211 C 
HETATM   12  O1  UNL     1     -10.159 -14.011 -35.579  1.00  0.00    -0.342 OA
HETATM   13  C6  UNL     1     -10.884 -13.957 -34.407  1.00  0.00     0.288 C 
BRANCH   9  14
HETATM   14  C2  UNL     1     -12.386 -11.426 -36.340  1.00  0.00     0.013 C 
HETATM   15  C1  UNL     1     -12.248  -9.992 -36.732  1.00  0.00     0.006 C 
ENDBRANCH   9  14
BRANCH  11  16
HETATM   16  C5  UNL     1      -7.883 -13.220 -35.359  1.00  0.00     0.272 C 
BRANCH  16  17
HETATM   17  N1  UNL     1      -7.576 -12.194 -34.350  1.00  0.00    -0.076 N 
ATOM     18  H13 UNL     1      -8.204 -11.391 -34.383  1.00  0.00     0.274 HD
ATOM     19  H12 UNL     1      -7.796 -12.483 -33.397  1.00  0.00     0.274 HD
ATOM     20  H11 UNL     1      -6.595 -11.950 -34.485  1.00  0.00     0.274 HD
ENDBRANCH  16  17
ENDBRANCH  11  16
BRANCH  13  21
HETATM   21  O2  UNL     1     -10.112 -13.488 -33.346  1.00  0.00    -0.369 OA
ATOM     22  H2  UNL     1      -9.693 -14.199 -32.876  1.00  0.00     0.212 HD
ENDBRANCH  13  21
ENDBRANCH   7   8
ENDBRANCH   1   7
BRANCH   2  23
HETATM   23  N2  UNL     1     -15.210 -13.589 -33.076  1.00  0.00    -0.072 N 
ATOM     24  H23 UNL     1     -15.082 -12.995 -32.257  1.00  0.00     0.274 HD
ATOM     25  H22 UNL     1     -14.914 -12.935 -33.799  1.00  0.00     0.274 HD
ATOM     26  H21 UNL     1     -16.190 -13.848 -33.193  1.00  0.00     0.274 HD
ENDBRANCH   2  23
BRANCH   6  27
HETATM   27  O5  UNL     1     -11.383 -13.977 -30.918  1.00  0.00    -0.351 OA
BRANCH  27  28
HETATM   28  C14 UNL     1     -11.341 -13.357 -29.677  1.00  0.00     0.263 C 
HETATM   29  C15 UNL     1      -9.926 -12.832 -29.505  1.00  0.00     0.063 C 
HETATM   30  C16 UNL     1      -9.829 -11.364 -29.807  1.00  0.00     0.042 C 
HETATM   31  C17 UNL     1     -10.770 -10.640 -28.877  1.00  0.00     0.239 C 
HETATM   32  C18 UNL     1     -12.044 -11.408 -28.634  1.00  0.00     0.351 C 
HETATM   33  O6  UNL     1     -12.294 -12.395 -29.538  1.00  0.00    -0.327 OA
BRANCH  31  34
HETATM   34  N4  UNL     1     -10.063 -10.348 -27.638  1.00  0.00    -0.071 N 
ATOM     35  H43 UNL     1     -10.682 -10.340 -26.827  1.00  0.00     0.274 HD
ATOM     36  H42 UNL     1      -9.456 -11.113 -27.344  1.00  0.00     0.274 HD
ATOM     37  H41 UNL     1      -9.557  -9.470 -27.753  1.00  0.00     0.274 HD
ENDBRANCH  31  34
BRANCH  32  38
HETATM   38  N5  UNL     1     -12.084 -11.836 -27.250  1.00  0.00    -0.051 N 
ATOM     39  H53 UNL     1     -11.840 -12.821 -27.142  1.00  0.00     0.277 HD
ATOM     40  H52 UNL     1     -11.324 -11.437 -26.699  1.00  0.00     0.277 HD
ATOM     41  H51 UNL     1     -13.002 -11.619 -26.859  1.00  0.00     0.277 HD
ENDBRANCH  32  38
ENDBRANCH  27  28
ENDBRANCH   6  27
BRANCH   5  42
HETATM   42  O4  UNL     1     -11.470 -16.617 -31.168  1.00  0.00    -0.391 OA
ATOM     43  H4  UNL     1     -10.797 -15.947 -31.152  1.00  0.00     0.210 HD
ENDBRANCH   5  42
BRANCH   4  44
HETATM   44  N3  UNL     1     -13.218 -17.385 -32.827  1.00  0.00    -0.072 N 
ATOM     45  H33 UNL     1     -12.797 -16.734 -33.490  1.00  0.00     0.274 HD
ATOM     46  H32 UNL     1     -12.386 -17.932 -32.606  1.00  0.00     0.274 HD
ATOM     47  H31 UNL     1     -13.946 -17.953 -33.259  1.00  0.00     0.274 HD
ENDBRANCH   4  44
TORSDOF 13
ENDMDL
