MODEL 1
REMARK VINA RESULT: -8.522866300      0.000      0.000
REMARK  9 active torsions:
REMARK  status: ('A' for Active; 'I' for Inactive)
REMARK    1  A    between atoms: O1_2  and  C2_3 
REMARK       I    between atoms: C2_3  and  N1_5 
REMARK    2  A    between atoms: N1_5  and  C3_7 
REMARK    3  A    between atoms: C3_7  and  C4_8 
REMARK    4  A    between atoms: C4_8  and  C6_10 
REMARK    5  A    between atoms: C6_10  and  N2_12 
REMARK    6  A    between atoms: N2_12  and  N3_14 
REMARK       I    between atoms: N3_14  and  C7_16 
REMARK    7  A    between atoms: C7_16  and  C8_18 
REMARK    8  A    between atoms: N4_20  and  C10_21 
REMARK    9  A    between atoms: C15_35  and  N9_36 
ROOT
HETATM    1  C8  UNL     1     -10.143 -11.816 -34.113  1.00  0.00     0.133 A 
HETATM    2  C9  UNL     1     -10.832 -12.716 -33.335  1.00  0.00     0.152 A 
HETATM    3  N4  UNL     1     -10.448 -12.574 -32.055  1.00  0.00    -0.231 N 
HETATM    4  N11 UNL     1      -9.541 -11.609 -32.039  1.00  0.00    -0.013 NA
HETATM    5  N12 UNL     1      -9.343 -11.137 -33.279  1.00  0.00    -0.277 N 
ATOM      6  H12 UNL     1      -8.697 -10.392 -33.541  1.00  0.00     0.184 HD
ENDROOT
BRANCH   3   7
HETATM    7  C10 UNL     1     -10.895 -13.302 -30.920  1.00  0.00     0.142 C 
HETATM    8  C11 UNL     1     -10.326 -12.958 -29.702  1.00  0.00     0.140 C 
HETATM    9  N5  UNL     1     -10.898 -13.078 -28.468  1.00  0.00    -0.347 N 
HETATM   10  C12 UNL     1     -12.146 -13.505 -28.157  1.00  0.00     0.138 A 
ATOM     11  H5  UNL     1     -10.310 -12.812 -27.678  1.00  0.00     0.167 HD
HETATM   12  N6  UNL     1     -12.812 -13.297 -27.004  1.00  0.00    -0.283 N 
HETATM   13  C14 UNL     1     -13.006 -14.247 -28.959  1.00  0.00     0.098 A 
HETATM   14  N7  UNL     1     -14.013 -13.875 -27.081  1.00  0.00    -0.283 N 
ATOM     15  H6  UNL     1     -12.454 -12.781 -26.199  1.00  0.00     0.188 HD
HETATM   16  C13 UNL     1     -14.182 -14.473 -28.266  1.00  0.00     0.131 A 
ATOM     17  H7  UNL     1     -14.709 -13.862 -26.336  1.00  0.00     0.188 HD
HETATM   18  N8  UNL     1     -15.195 -15.131 -28.720  1.00  0.00    -0.384 N 
ATOM     19  H82 UNL     1     -16.061 -15.298 -28.209  1.00  0.00     0.157 HD
ATOM     20  H81 UNL     1     -15.324 -15.587 -29.623  1.00  0.00     0.157 HD
HETATM   21  C15 UNL     1     -12.760 -14.696 -30.233  1.00  0.00     0.118 C 
HETATM   22  N10 UNL     1     -11.826 -14.256 -31.102  1.00  0.00    -0.326 N 
ATOM     23  H10 UNL     1     -11.825 -14.706 -32.018  1.00  0.00     0.169 HD
BRANCH  21  24
HETATM   24  N9  UNL     1     -13.499 -15.649 -30.669  1.00  0.00    -0.385 N 
ATOM     25  H92 UNL     1     -14.501 -15.462 -30.648  1.00  0.00     0.157 HD
ATOM     26  H91 UNL     1     -13.026 -16.494 -30.989  1.00  0.00     0.157 HD
ENDBRANCH  21  24
ENDBRANCH   3   7
BRANCH   1  27
HETATM   27  C7  UNL     1     -10.231 -11.608 -35.562  1.00  0.00     0.289 C 
HETATM   28  N3  UNL     1     -10.570 -10.354 -36.121  1.00  0.00    -0.264 N 
ATOM     29  H3  UNL     1     -10.762  -9.563 -35.506  1.00  0.00     0.190 HD
HETATM   30  O3  UNL     1      -9.998 -12.573 -36.330  1.00  0.00    -0.264 OA
BRANCH  28  31
HETATM   31  N2  UNL     1     -10.643 -10.187 -37.488  1.00  0.00    -0.291 N 
ATOM     32  H2  UNL     1     -11.467 -10.553 -37.965  1.00  0.00     0.187 HD
BRANCH  31  33
HETATM   33  C6  UNL     1      -9.659  -9.543 -38.276  1.00  0.00     0.097 C 
HETATM   34  S1  UNL     1      -8.225 -10.268 -38.605  1.00  0.00    -0.064 SA
BRANCH  33  35
HETATM   35  C4  UNL     1      -9.935  -8.190 -38.809  1.00  0.00     0.062 C 
HETATM   36  C5  UNL     1      -9.484  -8.197 -40.278  1.00  0.00     0.019 C 
BRANCH  35  37
HETATM   37  C3  UNL     1     -11.458  -8.012 -38.811  1.00  0.00     0.136 C 
BRANCH  37  38
HETATM   38  N1  UNL     1     -11.902  -7.025 -37.866  1.00  0.00    -0.336 N 
HETATM   39  C2  UNL     1     -12.672  -7.351 -36.726  1.00  0.00     0.360 C 
HETATM   40  O2  UNL     1     -13.024  -8.523 -36.457  1.00  0.00    -0.239 OA
ATOM     41  H1  UNL     1     -11.652  -6.049 -38.024  1.00  0.00     0.164 HD
BRANCH  39  42
HETATM   42  O1  UNL     1     -13.079  -6.339 -35.831  1.00  0.00    -0.309 OA
HETATM   43  C1  UNL     1     -14.386  -6.396 -35.323  1.00  0.00     0.215 C 
ENDBRANCH  39  42
ENDBRANCH  37  38
ENDBRANCH  35  37
ENDBRANCH  33  35
ENDBRANCH  31  33
ENDBRANCH  28  31
ENDBRANCH   1  27
TORSDOF 9
ENDMDL
MODEL 2
REMARK VINA RESULT: -8.363515759      1.349      1.756
REMARK  9 active torsions:
REMARK  status: ('A' for Active; 'I' for Inactive)
REMARK    1  A    between atoms: O1_2  and  C2_3 
REMARK       I    between atoms: C2_3  and  N1_5 
REMARK    2  A    between atoms: N1_5  and  C3_7 
REMARK    3  A    between atoms: C3_7  and  C4_8 
REMARK    4  A    between atoms: C4_8  and  C6_10 
REMARK    5  A    between atoms: C6_10  and  N2_12 
REMARK    6  A    between atoms: N2_12  and  N3_14 
REMARK       I    between atoms: N3_14  and  C7_16 
REMARK    7  A    between atoms: C7_16  and  C8_18 
REMARK    8  A    between atoms: N4_20  and  C10_21 
REMARK    9  A    between atoms: C15_35  and  N9_36 
ROOT
HETATM    1  C8  UNL     1     -11.803 -12.761 -34.916  1.00  0.00     0.133 A 
HETATM    2  C9  UNL     1     -11.459 -12.365 -33.645  1.00  0.00     0.152 A 
HETATM    3  N4  UNL     1     -11.595 -13.408 -32.809  1.00  0.00    -0.231 N 
HETATM    4  N11 UNL     1     -12.014 -14.427 -33.542  1.00  0.00    -0.013 NA
HETATM    5  N12 UNL     1     -12.147 -14.054 -34.824  1.00  0.00    -0.277 N 
ATOM      6  H12 UNL     1     -12.455 -14.649 -35.593  1.00  0.00     0.184 HD
ENDROOT
BRANCH   3   7
HETATM    7  C10 UNL     1     -11.355 -13.445 -31.409  1.00  0.00     0.142 C 
HETATM    8  C11 UNL     1     -10.376 -12.587 -30.928  1.00  0.00     0.140 C 
HETATM    9  N5  UNL     1     -10.309 -12.040 -29.679  1.00  0.00    -0.347 N 
HETATM   10  C12 UNL     1     -11.190 -12.164 -28.658  1.00  0.00     0.138 A 
ATOM     11  H5  UNL     1      -9.489 -11.463 -29.491  1.00  0.00     0.167 HD
HETATM   12  N6  UNL     1     -11.300 -11.366 -27.577  1.00  0.00    -0.283 N 
HETATM   13  C14 UNL     1     -12.169 -13.140 -28.504  1.00  0.00     0.098 A 
HETATM   14  N7  UNL     1     -12.286 -11.815 -26.797  1.00  0.00    -0.283 N 
ATOM     15  H6  UNL     1     -10.721 -10.547 -27.385  1.00  0.00     0.188 HD
HETATM   16  C13 UNL     1     -12.854 -12.907 -27.325  1.00  0.00     0.131 A 
ATOM     17  H7  UNL     1     -12.569 -11.385 -25.917  1.00  0.00     0.188 HD
HETATM   18  N8  UNL     1     -13.828 -13.626 -26.879  1.00  0.00    -0.384 N 
ATOM     19  H82 UNL     1     -14.332 -13.454 -26.009  1.00  0.00     0.157 HD
ATOM     20  H81 UNL     1     -14.261 -14.458 -27.280  1.00  0.00     0.157 HD
HETATM   21  C15 UNL     1     -12.439 -14.177 -29.364  1.00  0.00     0.118 C 
HETATM   22  N10 UNL     1     -12.083 -14.293 -30.661  1.00  0.00    -0.326 N 
ATOM     23  H10 UNL     1     -12.408 -15.136 -31.136  1.00  0.00     0.169 HD
BRANCH  21  24
HETATM   24  N9  UNL     1     -13.111 -15.163 -28.895  1.00  0.00    -0.385 N 
ATOM     25  H92 UNL     1     -13.785 -14.919 -28.169  1.00  0.00     0.157 HD
ATOM     26  H91 UNL     1     -12.914 -16.085 -29.284  1.00  0.00     0.157 HD
ENDBRANCH  21  24
ENDBRANCH   3   7
BRANCH   1  27
HETATM   27  C7  UNL     1     -11.812 -11.967 -36.149  1.00  0.00     0.289 C 
HETATM   28  N3  UNL     1     -10.845 -10.968 -36.405  1.00  0.00    -0.264 N 
ATOM     29  H3  UNL     1     -10.115 -10.784 -35.716  1.00  0.00     0.190 HD
HETATM   30  O3  UNL     1     -12.706 -12.182 -37.003  1.00  0.00    -0.264 OA
BRANCH  28  31
HETATM   31  N2  UNL     1     -10.877 -10.237 -37.574  1.00  0.00    -0.291 N 
ATOM     32  H2  UNL     1     -11.770 -10.164 -38.062  1.00  0.00     0.187 HD
BRANCH  31  33
HETATM   33  C6  UNL     1      -9.761  -9.582 -38.147  1.00  0.00     0.097 C 
HETATM   34  S1  UNL     1      -8.286 -10.298 -38.195  1.00  0.00    -0.064 SA
BRANCH  33  35
HETATM   35  C4  UNL     1      -9.933  -8.223 -38.709  1.00  0.00     0.062 C 
HETATM   36  C5  UNL     1      -9.407  -8.276 -40.152  1.00  0.00     0.019 C 
BRANCH  35  37
HETATM   37  C3  UNL     1     -11.442  -7.964 -38.794  1.00  0.00     0.136 C 
BRANCH  37  38
HETATM   38  N1  UNL     1     -11.891  -6.979 -37.848  1.00  0.00    -0.336 N 
HETATM   39  C2  UNL     1     -12.646  -7.313 -36.700  1.00  0.00     0.360 C 
HETATM   40  O2  UNL     1     -12.981  -8.489 -36.426  1.00  0.00    -0.239 OA
ATOM     41  H1  UNL     1     -11.653  -6.001 -38.010  1.00  0.00     0.164 HD
BRANCH  39  42
HETATM   42  O1  UNL     1     -13.058  -6.304 -35.804  1.00  0.00    -0.309 OA
HETATM   43  C1  UNL     1     -14.382  -6.334 -35.341  1.00  0.00     0.215 C 
ENDBRANCH  39  42
ENDBRANCH  37  38
ENDBRANCH  35  37
ENDBRANCH  33  35
ENDBRANCH  31  33
ENDBRANCH  28  31
ENDBRANCH   1  27
TORSDOF 9
ENDMDL
MODEL 3
REMARK VINA RESULT: -8.361595697      7.023     10.674
REMARK  9 active torsions:
REMARK  status: ('A' for Active; 'I' for Inactive)
REMARK    1  A    between atoms: O1_2  and  C2_3 
REMARK       I    between atoms: C2_3  and  N1_5 
REMARK    2  A    between atoms: N1_5  and  C3_7 
REMARK    3  A    between atoms: C3_7  and  C4_8 
REMARK    4  A    between atoms: C4_8  and  C6_10 
REMARK    5  A    between atoms: C6_10  and  N2_12 
REMARK    6  A    between atoms: N2_12  and  N3_14 
REMARK       I    between atoms: N3_14  and  C7_16 
REMARK    7  A    between atoms: C7_16  and  C8_18 
REMARK    8  A    between atoms: N4_20  and  C10_21 
REMARK    9  A    between atoms: C15_35  and  N9_36 
ROOT
HETATM    1  C8  UNL     1     -15.802 -16.592 -31.396  1.00  0.00     0.133 A 
HETATM    2  C9  UNL     1     -15.052 -15.790 -30.568  1.00  0.00     0.152 A 
HETATM    3  N4  UNL     1     -13.750 -16.065 -30.753  1.00  0.00    -0.231 N 
HETATM    4  N11 UNL     1     -13.693 -17.015 -31.674  1.00  0.00    -0.013 NA
HETATM    5  N12 UNL     1     -14.928 -17.348 -32.076  1.00  0.00    -0.277 N 
ATOM      6  H12 UNL     1     -15.162 -18.052 -32.776  1.00  0.00     0.184 HD
ENDROOT
BRANCH   3   7
HETATM    7  C10 UNL     1     -12.630 -15.480 -30.103  1.00  0.00     0.142 C 
HETATM    8  C11 UNL     1     -11.396 -15.673 -30.706  1.00  0.00     0.140 C 
HETATM    9  N5  UNL     1     -10.311 -14.847 -30.634  1.00  0.00    -0.347 N 
HETATM   10  C12 UNL     1     -10.207 -13.648 -30.013  1.00  0.00     0.138 A 
ATOM     11  H5  UNL     1      -9.471 -15.175 -31.110  1.00  0.00     0.167 HD
HETATM   12  N6  UNL     1      -9.276 -12.698 -30.230  1.00  0.00    -0.283 N 
HETATM   13  C14 UNL     1     -11.037 -13.140 -29.018  1.00  0.00     0.098 A 
HETATM   14  N7  UNL     1      -9.510 -11.661 -29.421  1.00  0.00    -0.283 N 
ATOM     15  H6  UNL     1      -8.514 -12.761 -30.905  1.00  0.00     0.188 HD
HETATM   16  C13 UNL     1     -10.584 -11.884 -28.654  1.00  0.00     0.131 A 
ATOM     17  H7  UNL     1      -8.945 -10.813 -29.392  1.00  0.00     0.188 HD
HETATM   18  N8  UNL     1     -11.126 -11.133 -27.757  1.00  0.00    -0.384 N 
ATOM     19  H82 UNL     1     -10.792 -10.207 -27.489  1.00  0.00     0.157 HD
ATOM     20  H81 UNL     1     -11.945 -11.302 -27.173  1.00  0.00     0.157 HD
HETATM   21  C15 UNL     1     -12.133 -13.757 -28.467  1.00  0.00     0.118 C 
HETATM   22  N10 UNL     1     -12.843 -14.790 -28.968  1.00  0.00    -0.326 N 
ATOM     23  H10 UNL     1     -13.647 -15.086 -28.414  1.00  0.00     0.169 HD
BRANCH  21  24
HETATM   24  N9  UNL     1     -12.547 -13.311 -27.339  1.00  0.00    -0.385 N 
ATOM     25  H92 UNL     1     -13.324 -12.652 -27.395  1.00  0.00     0.157 HD
ATOM     26  H91 UNL     1     -12.071 -13.649 -26.502  1.00  0.00     0.157 HD
ENDBRANCH  21  24
ENDBRANCH   3   7
BRANCH   1  27
HETATM   27  C7  UNL     1     -17.261 -16.646 -31.539  1.00  0.00     0.289 C 
HETATM   28  N3  UNL     1     -18.021 -17.742 -31.069  1.00  0.00    -0.264 N 
ATOM     29  H3  UNL     1     -17.549 -18.524 -30.615  1.00  0.00     0.190 HD
HETATM   30  O3  UNL     1     -17.852 -15.690 -32.097  1.00  0.00    -0.264 OA
BRANCH  28  31
HETATM   31  N2  UNL     1     -19.392 -17.765 -31.216  1.00  0.00    -0.291 N 
ATOM     32  H2  UNL     1     -19.848 -16.910 -31.533  1.00  0.00     0.187 HD
BRANCH  31  33
HETATM   33  C6  UNL     1     -20.212 -18.890 -30.958  1.00  0.00     0.097 C 
HETATM   34  S1  UNL     1     -20.842 -19.781 -32.182  1.00  0.00    -0.064 SA
BRANCH  33  35
HETATM   35  C4  UNL     1     -20.506 -19.261 -29.556  1.00  0.00     0.062 C 
HETATM   36  C5  UNL     1     -20.289 -20.779 -29.450  1.00  0.00     0.019 C 
BRANCH  35  37
HETATM   37  C3  UNL     1     -19.434 -18.597 -28.684  1.00  0.00     0.136 C 
BRANCH  37  38
HETATM   38  N1  UNL     1     -19.990 -17.705 -27.703  1.00  0.00    -0.336 N 
HETATM   39  C2  UNL     1     -19.941 -16.298 -27.836  1.00  0.00     0.360 C 
HETATM   40  O2  UNL     1     -19.409 -15.727 -28.815  1.00  0.00    -0.239 OA
ATOM     41  H1  UNL     1     -20.439 -18.104 -26.879  1.00  0.00     0.164 HD
BRANCH  39  42
HETATM   42  O1  UNL     1     -20.506 -15.472 -26.842  1.00  0.00    -0.309 OA
HETATM   43  C1  UNL     1     -21.301 -16.077 -25.856  1.00  0.00     0.215 C 
ENDBRANCH  39  42
ENDBRANCH  37  38
ENDBRANCH  35  37
ENDBRANCH  33  35
ENDBRANCH  31  33
ENDBRANCH  28  31
ENDBRANCH   1  27
TORSDOF 9
ENDMDL
MODEL 4
REMARK VINA RESULT: -8.085202562      6.758     10.915
REMARK  9 active torsions:
REMARK  status: ('A' for Active; 'I' for Inactive)
REMARK    1  A    between atoms: O1_2  and  C2_3 
REMARK       I    between atoms: C2_3  and  N1_5 
REMARK    2  A    between atoms: N1_5  and  C3_7 
REMARK    3  A    between atoms: C3_7  and  C4_8 
REMARK    4  A    between atoms: C4_8  and  C6_10 
REMARK    5  A    between atoms: C6_10  and  N2_12 
REMARK    6  A    between atoms: N2_12  and  N3_14 
REMARK       I    between atoms: N3_14  and  C7_16 
REMARK    7  A    between atoms: C7_16  and  C8_18 
REMARK    8  A    between atoms: N4_20  and  C10_21 
REMARK    9  A    between atoms: C15_35  and  N9_36 
ROOT
HETATM    1  C8  UNL     1     -14.836 -16.610 -31.450  1.00  0.00     0.133 A 
HETATM    2  C9  UNL     1     -14.115 -15.729 -30.678  1.00  0.00     0.152 A 
HETATM    3  N4  UNL     1     -12.807 -15.880 -30.947  1.00  0.00    -0.231 N 
HETATM    4  N11 UNL     1     -12.718 -16.831 -31.863  1.00  0.00    -0.013 NA
HETATM    5  N12 UNL     1     -13.939 -17.287 -32.181  1.00  0.00    -0.277 N 
ATOM      6  H12 UNL     1     -14.149 -18.020 -32.859  1.00  0.00     0.184 HD
ENDROOT
BRANCH   3   7
HETATM    7  C10 UNL     1     -11.709 -15.182 -30.376  1.00  0.00     0.142 C 
HETATM    8  C11 UNL     1     -10.474 -15.375 -30.978  1.00  0.00     0.140 C 
HETATM    9  N5  UNL     1      -9.430 -14.495 -31.005  1.00  0.00    -0.347 N 
HETATM   10  C12 UNL     1      -9.377 -13.237 -30.505  1.00  0.00     0.138 A 
ATOM     11  H5  UNL     1      -8.581 -14.829 -31.461  1.00  0.00     0.167 HD
HETATM   12  N6  UNL     1      -8.496 -12.270 -30.830  1.00  0.00    -0.283 N 
HETATM   13  C14 UNL     1     -10.218 -12.674 -29.551  1.00  0.00     0.098 A 
HETATM   14  N7  UNL     1      -8.770 -11.172 -30.122  1.00  0.00    -0.283 N 
ATOM     15  H6  UNL     1      -7.740 -12.363 -31.509  1.00  0.00     0.188 HD
HETATM   16  C13 UNL     1      -9.823 -11.369 -29.319  1.00  0.00     0.131 A 
ATOM     17  H7  UNL     1      -8.246 -10.299 -30.185  1.00  0.00     0.188 HD
HETATM   18  N8  UNL     1     -10.389 -10.559 -28.490  1.00  0.00    -0.384 N 
ATOM     19  H82 UNL     1     -10.098  -9.597 -28.319  1.00  0.00     0.157 HD
ATOM     20  H81 UNL     1     -11.192 -10.709 -27.878  1.00  0.00     0.157 HD
HETATM   21  C15 UNL     1     -11.276 -13.285 -28.924  1.00  0.00     0.118 C 
HETATM   22  N10 UNL     1     -11.941 -14.394 -29.310  1.00  0.00    -0.326 N 
ATOM     23  H10 UNL     1     -12.723 -14.672 -28.716  1.00  0.00     0.169 HD
BRANCH  21  24
HETATM   24  N9  UNL     1     -11.698 -12.751 -27.838  1.00  0.00    -0.385 N 
ATOM     25  H92 UNL     1     -12.481 -13.233 -27.395  1.00  0.00     0.157 HD
ATOM     26  H91 UNL     1     -11.222 -11.906 -27.521  1.00  0.00     0.157 HD
ENDBRANCH  21  24
ENDBRANCH   3   7
BRANCH   1  27
HETATM   27  C7  UNL     1     -16.289 -16.806 -31.495  1.00  0.00     0.289 C 
HETATM   28  N3  UNL     1     -17.031 -17.187 -30.354  1.00  0.00    -0.264 N 
ATOM     29  H3  UNL     1     -16.551 -17.333 -29.466  1.00  0.00     0.190 HD
HETATM   30  O3  UNL     1     -16.891 -16.630 -32.583  1.00  0.00    -0.264 OA
BRANCH  28  31
HETATM   31  N2  UNL     1     -18.397 -17.363 -30.427  1.00  0.00    -0.291 N 
ATOM     32  H2  UNL     1     -18.823 -17.384 -31.353  1.00  0.00     0.187 HD
BRANCH  31  33
HETATM   33  C6  UNL     1     -19.252 -17.517 -29.309  1.00  0.00     0.097 C 
HETATM   34  S1  UNL     1     -19.620 -16.247 -28.339  1.00  0.00    -0.064 SA
BRANCH  33  35
HETATM   35  C4  UNL     1     -19.817 -18.852 -29.013  1.00  0.00     0.062 C 
HETATM   36  C5  UNL     1     -20.700 -18.688 -27.766  1.00  0.00     0.019 C 
BRANCH  35  37
HETATM   37  C3  UNL     1     -20.751 -19.209 -30.176  1.00  0.00     0.136 C 
BRANCH  37  38
HETATM   38  N1  UNL     1     -20.215 -20.240 -31.022  1.00  0.00    -0.336 N 
HETATM   39  C2  UNL     1     -20.773 -20.559 -32.281  1.00  0.00     0.360 C 
HETATM   40  O2  UNL     1     -21.773 -19.970 -32.750  1.00  0.00    -0.239 OA
ATOM     41  H1  UNL     1     -19.399 -20.761 -30.701  1.00  0.00     0.164 HD
BRANCH  39  42
HETATM   42  O1  UNL     1     -20.202 -21.580 -33.071  1.00  0.00    -0.309 OA
HETATM   43  C1  UNL     1     -20.649 -21.717 -34.394  1.00  0.00     0.215 C 
ENDBRANCH  39  42
ENDBRANCH  37  38
ENDBRANCH  35  37
ENDBRANCH  33  35
ENDBRANCH  31  33
ENDBRANCH  28  31
ENDBRANCH   1  27
TORSDOF 9
ENDMDL
MODEL 5
REMARK VINA RESULT: -8.033584109      1.464      1.697
REMARK  9 active torsions:
REMARK  status: ('A' for Active; 'I' for Inactive)
REMARK    1  A    between atoms: O1_2  and  C2_3 
REMARK       I    between atoms: C2_3  and  N1_5 
REMARK    2  A    between atoms: N1_5  and  C3_7 
REMARK    3  A    between atoms: C3_7  and  C4_8 
REMARK    4  A    between atoms: C4_8  and  C6_10 
REMARK    5  A    between atoms: C6_10  and  N2_12 
REMARK    6  A    between atoms: N2_12  and  N3_14 
REMARK       I    between atoms: N3_14  and  C7_16 
REMARK    7  A    between atoms: C7_16  and  C8_18 
REMARK    8  A    between atoms: N4_20  and  C10_21 
REMARK    9  A    between atoms: C15_35  and  N9_36 
ROOT
HETATM    1  C8  UNL     1     -11.802 -13.184 -35.139  1.00  0.00     0.133 A 
HETATM    2  C9  UNL     1     -11.993 -13.089 -33.781  1.00  0.00     0.152 A 
HETATM    3  N4  UNL     1     -11.839 -14.306 -33.231  1.00  0.00    -0.231 N 
HETATM    4  N11 UNL     1     -11.561 -15.136 -34.223  1.00  0.00    -0.013 NA
HETATM    5  N12 UNL     1     -11.534 -14.474 -35.390  1.00  0.00    -0.277 N 
ATOM      6  H12 UNL     1     -11.343 -14.879 -36.306  1.00  0.00     0.184 HD
ENDROOT
BRANCH   3   7
HETATM    7  C10 UNL     1     -11.955 -14.669 -31.862  1.00  0.00     0.142 C 
HETATM    8  C11 UNL     1     -10.866 -14.377 -31.052  1.00  0.00     0.140 C 
HETATM    9  N5  UNL     1     -10.888 -14.120 -29.712  1.00  0.00    -0.347 N 
HETATM   10  C12 UNL     1     -11.961 -14.041 -28.888  1.00  0.00     0.138 A 
ATOM     11  H5  UNL     1      -9.980 -13.967 -29.274  1.00  0.00     0.167 HD
HETATM   12  N6  UNL     1     -12.012 -13.458 -27.674  1.00  0.00    -0.283 N 
HETATM   13  C14 UNL     1     -13.238 -14.544 -29.118  1.00  0.00     0.098 A 
HETATM   14  N7  UNL     1     -13.244 -13.589 -27.176  1.00  0.00    -0.283 N 
ATOM     15  H6  UNL     1     -11.233 -12.991 -27.209  1.00  0.00     0.188 HD
HETATM   16  C13 UNL     1     -14.038 -14.250 -28.028  1.00  0.00     0.131 A 
ATOM     17  H7  UNL     1     -13.541 -13.233 -26.268  1.00  0.00     0.188 HD
HETATM   18  N8  UNL     1     -15.281 -14.573 -27.913  1.00  0.00    -0.384 N 
ATOM     19  H82 UNL     1     -15.871 -14.357 -27.110  1.00  0.00     0.157 HD
ATOM     20  H81 UNL     1     -15.886 -15.077 -28.562  1.00  0.00     0.157 HD
HETATM   21  C15 UNL     1     -13.666 -15.222 -30.232  1.00  0.00     0.118 C 
HETATM   22  N10 UNL     1     -13.093 -15.258 -31.453  1.00  0.00    -0.326 N 
ATOM     23  H10 UNL     1     -13.588 -15.803 -32.160  1.00  0.00     0.169 HD
BRANCH  21  24
HETATM   24  N9  UNL     1     -14.741 -15.911 -30.117  1.00  0.00    -0.385 N 
ATOM     25  H92 UNL     1     -14.710 -16.835 -30.549  1.00  0.00     0.157 HD
ATOM     26  H91 UNL     1     -15.517 -15.481 -29.614  1.00  0.00     0.157 HD
ENDBRANCH  21  24
ENDBRANCH   3   7
BRANCH   1  27
HETATM   27  C7  UNL     1     -11.871 -12.121 -36.147  1.00  0.00     0.289 C 
HETATM   28  N3  UNL     1     -10.958 -11.041 -36.163  1.00  0.00    -0.264 N 
ATOM     29  H3  UNL     1     -10.225 -10.990 -35.455  1.00  0.00     0.190 HD
HETATM   30  O3  UNL     1     -12.769 -12.171 -37.022  1.00  0.00    -0.264 OA
BRANCH  28  31
HETATM   31  N2  UNL     1     -11.046 -10.056 -37.124  1.00  0.00    -0.291 N 
ATOM     32  H2  UNL     1     -11.949  -9.600 -37.252  1.00  0.00     0.187 HD
BRANCH  31  33
HETATM   33  C6  UNL     1      -9.974  -9.631 -37.944  1.00  0.00     0.097 C 
HETATM   34  S1  UNL     1      -8.681 -10.600 -38.223  1.00  0.00    -0.064 SA
BRANCH  33  35
HETATM   35  C4  UNL     1     -10.025  -8.284 -38.556  1.00  0.00     0.062 C 
HETATM   36  C5  UNL     1      -9.438  -8.422 -39.970  1.00  0.00     0.019 C 
BRANCH  35  37
HETATM   37  C3  UNL     1     -11.507  -7.926 -38.723  1.00  0.00     0.136 C 
BRANCH  37  38
HETATM   38  N1  UNL     1     -11.946  -6.931 -37.784  1.00  0.00    -0.336 N 
HETATM   39  C2  UNL     1     -12.779  -7.236 -36.683  1.00  0.00     0.360 C 
HETATM   40  O2  UNL     1     -13.194  -8.394 -36.446  1.00  0.00    -0.239 OA
ATOM     41  H1  UNL     1     -11.645  -5.966 -37.917  1.00  0.00     0.164 HD
BRANCH  39  42
HETATM   42  O1  UNL     1     -13.177  -6.218 -35.791  1.00  0.00    -0.309 OA
HETATM   43  C1  UNL     1     -14.487  -6.258 -35.288  1.00  0.00     0.215 C 
ENDBRANCH  39  42
ENDBRANCH  37  38
ENDBRANCH  35  37
ENDBRANCH  33  35
ENDBRANCH  31  33
ENDBRANCH  28  31
ENDBRANCH   1  27
TORSDOF 9
ENDMDL
