MODEL 1
REMARK VINA RESULT: -5.102083611      0.000      0.000
REMARK  10 active torsions:
REMARK  status: ('A' for Active; 'I' for Inactive)
REMARK    1  A    between atoms: C2_2  and  C3_3 
REMARK    2  A    between atoms: C3_3  and  C4_4 
REMARK       I    between atoms: C4_4  and  N1_6 
REMARK    3  A    between atoms: C10_13  and  C11_14 
REMARK    4  A    between atoms: C11_14  and  C12_15 
REMARK    5  A    between atoms: C12_15  and  C13_16 
REMARK       I    between atoms: C13_16  and  N2_18 
REMARK    6  A    between atoms: N2_18  and  C14_20 
REMARK    7  A    between atoms: C23_31  and  O3_32 
REMARK    8  A    between atoms: N3_34  and  C24_35 
REMARK    9  A    between atoms: C24_35  and  C25_36 
REMARK   10  A    between atoms: C31_42  and  O4_43 
ROOT
HETATM    1  C3  UNL     1      16.936  19.442  23.211  1.00  0.00     0.121 C 
HETATM    2  S1  UNL     1      17.381  19.169  24.993  1.00  0.00    -0.134 SA
HETATM    3  C10 UNL     1      17.932  17.463  24.748  1.00  0.00     0.087 C 
HETATM    4  C21 UNL     1      18.321  17.480  23.350  1.00  0.00     0.019 A 
HETATM    5  C22 UNL     1      17.816  18.464  22.568  1.00  0.00     0.033 A 
HETATM    6  C23 UNL     1      18.343  18.244  21.288  1.00  0.00     0.153 A 
HETATM    7  N3  UNL     1      19.142  17.172  21.278  1.00  0.00    -0.303 N 
HETATM    8  C31 UNL     1      19.140  16.695  22.528  1.00  0.00     0.152 A 
ENDROOT
BRANCH   3   9
HETATM    9  C11 UNL     1      16.840  16.500  25.038  1.00  0.00     0.029 C 
BRANCH   9  10
HETATM   10  C12 UNL     1      17.199  15.267  25.791  1.00  0.00     0.104 C 
BRANCH  10  11
HETATM   11  C13 UNL     1      16.799  14.085  24.953  1.00  0.00     0.217 C 
HETATM   12  O2  UNL     1      15.835  13.367  25.271  1.00  0.00    -0.274 OA
HETATM   13  N2  UNL     1      17.533  13.785  23.783  1.00  0.00    -0.356 N 
ATOM     14  H2  UNL     1      18.321  14.383  23.533  1.00  0.00     0.162 HD
BRANCH  13  15
HETATM   15  C14 UNL     1      17.212  12.665  22.923  1.00  0.00     0.088 C 
HETATM   16  C15 UNL     1      18.483  12.262  22.220  1.00  0.00     0.025 C 
HETATM   17  C16 UNL     1      18.415  10.806  21.824  1.00  0.00     0.002 C 
HETATM   18  C17 UNL     1      17.309  10.613  20.795  1.00  0.00     0.004 C 
HETATM   19  C18 UNL     1      15.942  10.709  21.448  1.00  0.00     0.060 C 
HETATM   20  C19 UNL     1      15.359  12.088  21.318  1.00  0.00     0.180 C 
HETATM   21  F1  UNL     1      15.079  12.361  19.972  1.00  0.00    -0.226 F 
HETATM   22 CL1  UNL     1      13.793  12.107  22.170  1.00  0.00    -0.083 Cl
HETATM   23  C20 UNL     1      16.210  13.168  21.905  1.00  0.00     0.085 C 
ENDBRANCH  13  15
ENDBRANCH  10  11
ENDBRANCH   9  10
ENDBRANCH   3   9
BRANCH   1  24
HETATM   24  C2  UNL     1      17.325  20.890  22.986  1.00  0.00     0.031 C 
HETATM   25  C1  UNL     1      18.674  21.286  23.449  1.00  0.00     0.007 C 
ENDBRANCH   1  24
BRANCH   1  26
HETATM   26  C4  UNL     1      15.532  19.149  22.949  1.00  0.00     0.243 C 
HETATM   27  O1  UNL     1      15.241  18.855  21.718  1.00  0.00    -0.271 OA
HETATM   28  N1  UNL     1      14.433  19.136  23.839  1.00  0.00    -0.350 N 
HETATM   29  C5  UNL     1      13.125  18.796  23.265  1.00  0.00     0.126 C 
HETATM   30  C9  UNL     1      14.598  19.447  25.221  1.00  0.00     0.126 C 
HETATM   31  C6  UNL     1      12.219  18.131  24.272  1.00  0.00     0.020 C 
HETATM   32  C7  UNL     1      12.138  19.128  25.439  1.00  0.00     0.003 C 
HETATM   33  C8  UNL     1      13.471  19.005  26.125  1.00  0.00     0.020 C 
ENDBRANCH   1  26
BRANCH   8  34
HETATM   34  O4  UNL     1      19.880  15.558  22.915  1.00  0.00    -0.345 OA
ATOM     35  H4  UNL     1      20.694  15.550  23.405  1.00  0.00     0.219 HD
ENDBRANCH   8  34
BRANCH   6  36
HETATM   36  O3  UNL     1      18.137  18.966  20.111  1.00  0.00    -0.345 OA
ATOM     37  H3  UNL     1      17.557  18.777  19.383  1.00  0.00     0.219 HD
ENDBRANCH   6  36
BRANCH   7  38
HETATM   38  C24 UNL     1      19.886  16.606  20.142  1.00  0.00     0.171 C 
BRANCH  38  39
HETATM   39  C25 UNL     1      19.175  15.467  19.521  1.00  0.00    -0.040 A 
HETATM   40  C26 UNL     1      19.815  14.238  19.355  1.00  0.00     0.009 A 
HETATM   41  C27 UNL     1      19.177  13.157  18.776  1.00  0.00     0.001 A 
HETATM   42  C28 UNL     1      17.874  13.249  18.336  1.00  0.00     0.000 A 
HETATM   43  C29 UNL     1      17.240  14.465  18.501  1.00  0.00     0.001 A 
HETATM   44  C30 UNL     1      17.873  15.546  19.077  1.00  0.00     0.009 A 
ENDBRANCH  38  39
ENDBRANCH   7  38
TORSDOF 10
ENDMDL
MODEL 2
REMARK VINA RESULT: -5.006072361      6.909     10.170
REMARK  10 active torsions:
REMARK  status: ('A' for Active; 'I' for Inactive)
REMARK    1  A    between atoms: C2_2  and  C3_3 
REMARK    2  A    between atoms: C3_3  and  C4_4 
REMARK       I    between atoms: C4_4  and  N1_6 
REMARK    3  A    between atoms: C10_13  and  C11_14 
REMARK    4  A    between atoms: C11_14  and  C12_15 
REMARK    5  A    between atoms: C12_15  and  C13_16 
REMARK       I    between atoms: C13_16  and  N2_18 
REMARK    6  A    between atoms: N2_18  and  C14_20 
REMARK    7  A    between atoms: C23_31  and  O3_32 
REMARK    8  A    between atoms: N3_34  and  C24_35 
REMARK    9  A    between atoms: C24_35  and  C25_36 
REMARK   10  A    between atoms: C31_42  and  O4_43 
ROOT
HETATM    1  C3  UNL     1       5.704  13.735  25.881  1.00  0.00     0.121 C 
HETATM    2  S1  UNL     1       6.098  12.285  26.972  1.00  0.00    -0.134 SA
HETATM    3  C10 UNL     1       7.883  12.586  26.980  1.00  0.00     0.087 C 
HETATM    4  C21 UNL     1       7.938  14.015  26.731  1.00  0.00     0.019 A 
HETATM    5  C22 UNL     1       6.852  14.598  26.168  1.00  0.00     0.033 A 
HETATM    6  C23 UNL     1       7.172  15.956  26.037  1.00  0.00     0.153 A 
HETATM    7  N3  UNL     1       8.401  16.204  26.502  1.00  0.00    -0.303 N 
HETATM    8  C31 UNL     1       8.881  15.031  26.930  1.00  0.00     0.152 A 
ENDROOT
BRANCH   3   9
HETATM    9  C11 UNL     1       8.567  11.784  25.936  1.00  0.00     0.029 C 
BRANCH   9  10
HETATM   10  C12 UNL     1       9.802  11.055  26.335  1.00  0.00     0.104 C 
BRANCH  10  11
HETATM   11  C13 UNL     1      10.954  11.657  25.580  1.00  0.00     0.217 C 
HETATM   12  O2  UNL     1      11.368  12.800  25.843  1.00  0.00    -0.274 OA
HETATM   13  N2  UNL     1      11.577  10.910  24.556  1.00  0.00    -0.356 N 
ATOM     14  H2  UNL     1      11.228   9.974  24.351  1.00  0.00     0.162 HD
BRANCH  13  15
HETATM   15  C14 UNL     1      12.692  11.420  23.783  1.00  0.00     0.088 C 
HETATM   16  C15 UNL     1      12.116  12.196  22.626  1.00  0.00     0.025 C 
HETATM   17  C16 UNL     1      13.106  13.237  22.160  1.00  0.00     0.002 C 
HETATM   18  C17 UNL     1      14.343  12.545  21.602  1.00  0.00     0.004 C 
HETATM   19  C18 UNL     1      15.181  11.956  22.722  1.00  0.00     0.060 C 
HETATM   20  C19 UNL     1      14.878  10.501  22.938  1.00  0.00     0.180 C 
HETATM   21  F1  UNL     1      15.287   9.758  21.820  1.00  0.00    -0.226 F 
HETATM   22 CL1  UNL     1      15.865   9.929  24.308  1.00  0.00    -0.083 Cl
HETATM   23  C20 UNL     1      13.446  10.216  23.258  1.00  0.00     0.085 C 
ENDBRANCH  13  15
ENDBRANCH  10  11
ENDBRANCH   9  10
ENDBRANCH   3   9
BRANCH   1  24
HETATM   24  C2  UNL     1       4.384  14.228  26.442  1.00  0.00     0.031 C 
HETATM   25  C1  UNL     1       4.310  14.373  27.913  1.00  0.00     0.007 C 
ENDBRANCH   1  24
BRANCH   1  26
HETATM   26  C4  UNL     1       5.658  13.360  24.473  1.00  0.00     0.243 C 
HETATM   27  O1  UNL     1       5.972  14.300  23.633  1.00  0.00    -0.271 OA
HETATM   28  N1  UNL     1       5.319  12.122  23.881  1.00  0.00    -0.350 N 
HETATM   29  C5  UNL     1       5.367  12.058  22.415  1.00  0.00     0.126 C 
HETATM   30  C9  UNL     1       4.943  11.001  24.678  1.00  0.00     0.126 C 
HETATM   31  C6  UNL     1       5.697  10.671  21.918  1.00  0.00     0.020 C 
HETATM   32  C7  UNL     1       4.616   9.771  22.537  1.00  0.00     0.003 C 
HETATM   33  C8  UNL     1       5.010   9.660  23.985  1.00  0.00     0.020 C 
ENDBRANCH   1  26
BRANCH   8  34
HETATM   34  O4  UNL     1      10.165  14.890  27.497  1.00  0.00    -0.345 OA
ATOM     35  H4  UNL     1      10.965  15.306  27.200  1.00  0.00     0.219 HD
ENDBRANCH   8  34
BRANCH   6  36
HETATM   36  O3  UNL     1       6.406  16.999  25.512  1.00  0.00    -0.345 OA
ATOM     37  H3  UNL     1       6.597  17.578  24.784  1.00  0.00     0.219 HD
ENDBRANCH   6  36
BRANCH   7  38
HETATM   38  C24 UNL     1       9.110  17.493  26.548  1.00  0.00     0.171 C 
BRANCH  38  39
HETATM   39  C25 UNL     1      10.049  17.655  25.416  1.00  0.00    -0.040 A 
HETATM   40  C26 UNL     1      10.519  18.920  25.062  1.00  0.00     0.009 A 
HETATM   41  C27 UNL     1      11.395  19.102  24.008  1.00  0.00     0.001 A 
HETATM   42  C28 UNL     1      11.842  18.034  23.258  1.00  0.00     0.000 A 
HETATM   43  C29 UNL     1      11.376  16.782  23.609  1.00  0.00     0.001 A 
HETATM   44  C30 UNL     1      10.502  16.596  24.659  1.00  0.00     0.009 A 
ENDBRANCH  38  39
ENDBRANCH   7  38
TORSDOF 10
ENDMDL
MODEL 3
REMARK VINA RESULT: -4.992200239      3.134      7.950
REMARK  10 active torsions:
REMARK  status: ('A' for Active; 'I' for Inactive)
REMARK    1  A    between atoms: C2_2  and  C3_3 
REMARK    2  A    between atoms: C3_3  and  C4_4 
REMARK       I    between atoms: C4_4  and  N1_6 
REMARK    3  A    between atoms: C10_13  and  C11_14 
REMARK    4  A    between atoms: C11_14  and  C12_15 
REMARK    5  A    between atoms: C12_15  and  C13_16 
REMARK       I    between atoms: C13_16  and  N2_18 
REMARK    6  A    between atoms: N2_18  and  C14_20 
REMARK    7  A    between atoms: C23_31  and  O3_32 
REMARK    8  A    between atoms: N3_34  and  C24_35 
REMARK    9  A    between atoms: C24_35  and  C25_36 
REMARK   10  A    between atoms: C31_42  and  O4_43 
ROOT
HETATM    1  C3  UNL     1      17.480  12.393  21.820  1.00  0.00     0.121 C 
HETATM    2  S1  UNL     1      18.840  13.244  22.755  1.00  0.00    -0.134 SA
HETATM    3  C10 UNL     1      17.720  14.217  23.791  1.00  0.00     0.087 C 
HETATM    4  C21 UNL     1      16.530  13.387  23.794  1.00  0.00     0.019 A 
HETATM    5  C22 UNL     1      16.396  12.475  22.801  1.00  0.00     0.033 A 
HETATM    6  C23 UNL     1      15.177  11.825  23.040  1.00  0.00     0.153 A 
HETATM    7  N3  UNL     1      14.584  12.311  24.136  1.00  0.00    -0.303 N 
HETATM    8  C31 UNL     1      15.397  13.263  24.608  1.00  0.00     0.152 A 
ENDROOT
BRANCH   3   9
HETATM    9  C11 UNL     1      17.491  15.565  23.213  1.00  0.00     0.029 C 
BRANCH   9  10
HETATM   10  C12 UNL     1      17.726  16.738  24.099  1.00  0.00     0.104 C 
BRANCH  10  11
HETATM   11  C13 UNL     1      16.437  17.505  24.197  1.00  0.00     0.217 C 
HETATM   12  O2  UNL     1      16.341  18.661  23.750  1.00  0.00    -0.274 OA
HETATM   13  N2  UNL     1      15.316  16.900  24.809  1.00  0.00    -0.356 N 
ATOM     14  H2  UNL     1      15.409  15.951  25.170  1.00  0.00     0.162 HD
BRANCH  13  15
HETATM   15  C14 UNL     1      14.040  17.572  24.942  1.00  0.00     0.088 C 
HETATM   16  C15 UNL     1      13.334  16.961  26.126  1.00  0.00     0.025 C 
HETATM   17  C16 UNL     1      12.354  17.950  26.711  1.00  0.00     0.002 C 
HETATM   18  C17 UNL     1      11.257  18.237  25.693  1.00  0.00     0.004 C 
HETATM   19  C18 UNL     1      11.781  19.112  24.569  1.00  0.00     0.060 C 
HETATM   20  C19 UNL     1      12.203  18.296  23.380  1.00  0.00     0.180 C 
HETATM   21  F1  UNL     1      11.082  17.684  22.801  1.00  0.00    -0.226 F 
HETATM   22 CL1  UNL     1      12.857  19.409  22.151  1.00  0.00    -0.083 Cl
HETATM   23  C20 UNL     1      13.257  17.279  23.680  1.00  0.00     0.085 C 
ENDBRANCH  13  15
ENDBRANCH  10  11
ENDBRANCH   9  10
ENDBRANCH   3   9
BRANCH   1  24
HETATM   24  C2  UNL     1      18.039  10.999  21.609  1.00  0.00     0.031 C 
HETATM   25  C1  UNL     1      17.492  10.239  20.463  1.00  0.00     0.007 C 
ENDBRANCH   1  24
BRANCH   1  26
HETATM   26  C4  UNL     1      17.141  13.097  20.590  1.00  0.00     0.243 C 
HETATM   27  O1  UNL     1      15.878  13.346  20.416  1.00  0.00    -0.271 OA
HETATM   28  N1  UNL     1      17.985  13.554  19.551  1.00  0.00    -0.350 N 
HETATM   29  C5  UNL     1      17.334  14.240  18.428  1.00  0.00     0.126 C 
HETATM   30  C9  UNL     1      19.395  13.344  19.600  1.00  0.00     0.126 C 
HETATM   31  C6  UNL     1      18.243  15.259  17.784  1.00  0.00     0.020 C 
HETATM   32  C7  UNL     1      19.492  14.463  17.377  1.00  0.00     0.003 C 
HETATM   33  C8  UNL     1      20.213  14.214  18.674  1.00  0.00     0.020 C 
ENDBRANCH   1  26
BRANCH   8  34
HETATM   34  O4  UNL     1      15.108  14.009  25.770  1.00  0.00    -0.345 OA
ATOM     35  H4  UNL     1      14.315  13.963  26.292  1.00  0.00     0.219 HD
ENDBRANCH   8  34
BRANCH   6  36
HETATM   36  O3  UNL     1      14.561  10.806  22.313  1.00  0.00    -0.345 OA
ATOM     37  H3  UNL     1      13.851  10.229  22.568  1.00  0.00     0.219 HD
ENDBRANCH   6  36
BRANCH   7  38
HETATM   38  C24 UNL     1      13.300  11.903  24.728  1.00  0.00     0.171 C 
BRANCH  38  39
HETATM   39  C25 UNL     1      12.267  12.954  24.598  1.00  0.00    -0.040 A 
HETATM   40  C26 UNL     1      11.957  13.490  23.348  1.00  0.00     0.009 A 
HETATM   41  C27 UNL     1      10.998  14.474  23.195  1.00  0.00     0.001 A 
HETATM   42  C28 UNL     1      10.305  14.970  24.279  1.00  0.00     0.000 A 
HETATM   43  C29 UNL     1      10.612  14.438  25.517  1.00  0.00     0.001 A 
HETATM   44  C30 UNL     1      11.568  13.457  25.674  1.00  0.00     0.009 A 
ENDBRANCH  38  39
ENDBRANCH   7  38
TORSDOF 10
ENDMDL
MODEL 4
REMARK VINA RESULT: -4.949660674      5.717      7.914
REMARK  10 active torsions:
REMARK  status: ('A' for Active; 'I' for Inactive)
REMARK    1  A    between atoms: C2_2  and  C3_3 
REMARK    2  A    between atoms: C3_3  and  C4_4 
REMARK       I    between atoms: C4_4  and  N1_6 
REMARK    3  A    between atoms: C10_13  and  C11_14 
REMARK    4  A    between atoms: C11_14  and  C12_15 
REMARK    5  A    between atoms: C12_15  and  C13_16 
REMARK       I    between atoms: C13_16  and  N2_18 
REMARK    6  A    between atoms: N2_18  and  C14_20 
REMARK    7  A    between atoms: C23_31  and  O3_32 
REMARK    8  A    between atoms: N3_34  and  C24_35 
REMARK    9  A    between atoms: C24_35  and  C25_36 
REMARK   10  A    between atoms: C31_42  and  O4_43 
ROOT
HETATM    1  C3  UNL     1      13.208  14.930  26.695  1.00  0.00     0.121 C 
HETATM    2  S1  UNL     1      13.336  13.975  28.282  1.00  0.00    -0.134 SA
HETATM    3  C10 UNL     1      12.362  12.569  27.687  1.00  0.00     0.087 C 
HETATM    4  C21 UNL     1      12.580  12.649  26.255  1.00  0.00     0.019 A 
HETATM    5  C22 UNL     1      12.994  13.835  25.746  1.00  0.00     0.033 A 
HETATM    6  C23 UNL     1      13.119  13.636  24.364  1.00  0.00     0.153 A 
HETATM    7  N3  UNL     1      12.799  12.381  24.032  1.00  0.00    -0.303 N 
HETATM    8  C31 UNL     1      12.469  11.766  25.173  1.00  0.00     0.152 A 
ENDROOT
BRANCH   3   9
HETATM    9  C11 UNL     1      10.934  12.707  28.070  1.00  0.00     0.029 C 
BRANCH   9  10
HETATM   10  C12 UNL     1      10.203  11.463  28.438  1.00  0.00     0.104 C 
BRANCH  10  11
HETATM   11  C13 UNL     1       8.888  11.471  27.710  1.00  0.00     0.217 C 
HETATM   12  O2  UNL     1       7.844  11.084  28.264  1.00  0.00    -0.274 OA
HETATM   13  N2  UNL     1       8.839  11.928  26.374  1.00  0.00    -0.356 N 
ATOM     14  H2  UNL     1       9.703  12.244  25.933  1.00  0.00     0.162 HD
BRANCH  13  15
HETATM   15  C14 UNL     1       7.612  11.967  25.605  1.00  0.00     0.088 C 
HETATM   16  C15 UNL     1       7.585  10.730  24.743  1.00  0.00     0.025 C 
HETATM   17  C16 UNL     1       6.158  10.365  24.409  1.00  0.00     0.002 C 
HETATM   18  C17 UNL     1       5.542  11.464  23.553  1.00  0.00     0.004 C 
HETATM   19  C18 UNL     1       5.245  12.695  24.389  1.00  0.00     0.060 C 
HETATM   20  C19 UNL     1       6.349  13.710  24.298  1.00  0.00     0.180 C 
HETATM   21  F1  UNL     1       6.415  14.227  22.996  1.00  0.00    -0.226 F 
HETATM   22 CL1  UNL     1       5.931  15.078  25.361  1.00  0.00    -0.083 Cl
HETATM   23  C20 UNL     1       7.687  13.196  24.724  1.00  0.00     0.085 C 
ENDBRANCH  13  15
ENDBRANCH  10  11
ENDBRANCH   9  10
ENDBRANCH   3   9
BRANCH   1  24
HETATM   24  C2  UNL     1      14.566  15.598  26.595  1.00  0.00     0.031 C 
HETATM   25  C1  UNL     1      15.742  14.731  26.832  1.00  0.00     0.007 C 
ENDBRANCH   1  24
BRANCH   1  26
HETATM   26  C4  UNL     1      12.082  15.855  26.705  1.00  0.00     0.243 C 
HETATM   27  O1  UNL     1      11.222  15.679  27.663  1.00  0.00    -0.271 OA
HETATM   28  N1  UNL     1      11.782  16.920  25.825  1.00  0.00    -0.350 N 
HETATM   29  C5  UNL     1      10.556  17.679  26.103  1.00  0.00     0.126 C 
HETATM   30  C9  UNL     1      12.630  17.225  24.720  1.00  0.00     0.126 C 
HETATM   31  C6  UNL     1      10.661  19.113  25.643  1.00  0.00     0.020 C 
HETATM   32  C7  UNL     1      10.997  19.016  24.146  1.00  0.00     0.003 C 
HETATM   33  C8  UNL     1      12.442  18.598  24.117  1.00  0.00     0.020 C 
ENDBRANCH   1  26
BRANCH   8  34
HETATM   34  O4  UNL     1      12.074  10.412  25.228  1.00  0.00    -0.345 OA
ATOM     35  H4  UNL     1      11.316  10.025  24.807  1.00  0.00     0.219 HD
ENDBRANCH   8  34
BRANCH   6  36
HETATM   36  O3  UNL     1      13.508  14.537  23.372  1.00  0.00    -0.345 OA
ATOM     37  H3  UNL     1      13.939  14.370  22.543  1.00  0.00     0.219 HD
ENDBRANCH   6  36
BRANCH   7  38
HETATM   38  C24 UNL     1      12.800  11.769  22.694  1.00  0.00     0.171 C 
BRANCH  38  39
HETATM   39  C25 UNL     1      14.125  11.217  22.334  1.00  0.00    -0.040 A 
HETATM   40  C26 UNL     1      14.992  11.937  21.510  1.00  0.00     0.009 A 
HETATM   41  C27 UNL     1      16.234  11.446  21.156  1.00  0.00     0.001 A 
HETATM   42  C28 UNL     1      16.671  10.218  21.604  1.00  0.00     0.000 A 
HETATM   43  C29 UNL     1      15.813   9.506  22.420  1.00  0.00     0.001 A 
HETATM   44  C30 UNL     1      14.573   9.991  22.776  1.00  0.00     0.009 A 
ENDBRANCH  38  39
ENDBRANCH   7  38
TORSDOF 10
ENDMDL
MODEL 5
REMARK VINA RESULT: -4.927297476      5.997      8.354
REMARK  10 active torsions:
REMARK  status: ('A' for Active; 'I' for Inactive)
REMARK    1  A    between atoms: C2_2  and  C3_3 
REMARK    2  A    between atoms: C3_3  and  C4_4 
REMARK       I    between atoms: C4_4  and  N1_6 
REMARK    3  A    between atoms: C10_13  and  C11_14 
REMARK    4  A    between atoms: C11_14  and  C12_15 
REMARK    5  A    between atoms: C12_15  and  C13_16 
REMARK       I    between atoms: C13_16  and  N2_18 
REMARK    6  A    between atoms: N2_18  and  C14_20 
REMARK    7  A    between atoms: C23_31  and  O3_32 
REMARK    8  A    between atoms: N3_34  and  C24_35 
REMARK    9  A    between atoms: C24_35  and  C25_36 
REMARK   10  A    between atoms: C31_42  and  O4_43 
ROOT
HETATM    1  C3  UNL     1      12.921  14.755  26.509  1.00  0.00     0.121 C 
HETATM    2  S1  UNL     1      12.701  13.788  28.079  1.00  0.00    -0.134 SA
HETATM    3  C10 UNL     1      11.749  12.459  27.301  1.00  0.00     0.087 C 
HETATM    4  C21 UNL     1      12.219  12.528  25.930  1.00  0.00     0.019 A 
HETATM    5  C22 UNL     1      12.799  13.682  25.520  1.00  0.00     0.033 A 
HETATM    6  C23 UNL     1      13.150  13.479  24.179  1.00  0.00     0.153 A 
HETATM    7  N3  UNL     1      12.805  12.251  23.776  1.00  0.00    -0.303 N 
HETATM    8  C31 UNL     1      12.238  11.658  24.832  1.00  0.00     0.152 A 
ENDROOT
BRANCH   3   9
HETATM    9  C11 UNL     1      10.290  12.698  27.432  1.00  0.00     0.029 C 
BRANCH   9  10
HETATM   10  C12 UNL     1       9.403  11.503  27.471  1.00  0.00     0.104 C 
BRANCH  10  11
HETATM   11  C13 UNL     1       8.571  11.507  26.220  1.00  0.00     0.217 C 
HETATM   12  O2  UNL     1       8.869  10.793  25.246  1.00  0.00    -0.274 OA
HETATM   13  N2  UNL     1       7.429  12.337  26.150  1.00  0.00    -0.356 N 
ATOM     14  H2  UNL     1       7.196  12.917  26.956  1.00  0.00     0.162 HD
BRANCH  13  15
HETATM   15  C14 UNL     1       6.576  12.399  24.981  1.00  0.00     0.088 C 
HETATM   16  C15 UNL     1       6.223  13.848  24.761  1.00  0.00     0.025 C 
HETATM   17  C16 UNL     1       5.899  14.084  23.305  1.00  0.00     0.002 C 
HETATM   18  C17 UNL     1       4.644  13.304  22.932  1.00  0.00     0.004 C 
HETATM   19  C18 UNL     1       4.943  11.820  22.834  1.00  0.00     0.060 C 
HETATM   20  C19 UNL     1       4.605  11.098  24.108  1.00  0.00     0.180 C 
HETATM   21  F1  UNL     1       3.218  11.123  24.315  1.00  0.00    -0.226 F 
HETATM   22 CL1  UNL     1       5.052   9.384  23.906  1.00  0.00    -0.083 Cl
HETATM   23  C20 UNL     1       5.323  11.617  25.312  1.00  0.00     0.085 C 
ENDBRANCH  13  15
ENDBRANCH  10  11
ENDBRANCH   9  10
ENDBRANCH   3   9
BRANCH   1  24
HETATM   24  C2  UNL     1      14.319  15.324  26.659  1.00  0.00     0.031 C 
HETATM   25  C1  UNL     1      15.373  14.372  27.076  1.00  0.00     0.007 C 
ENDBRANCH   1  24
BRANCH   1  26
HETATM   26  C4  UNL     1      11.878  15.759  26.338  1.00  0.00     0.243 C 
HETATM   27  O1  UNL     1      10.866  15.660  27.147  1.00  0.00    -0.271 OA
HETATM   28  N1  UNL     1      11.801  16.831  25.419  1.00  0.00    -0.350 N 
HETATM   29  C5  UNL     1      10.606  17.680  25.496  1.00  0.00     0.126 C 
HETATM   30  C9  UNL     1      12.834  17.058  24.463  1.00  0.00     0.126 C 
HETATM   31  C6  UNL     1      10.888  19.097  25.056  1.00  0.00     0.020 C 
HETATM   32  C7  UNL     1      11.450  18.955  23.632  1.00  0.00     0.003 C 
HETATM   33  C8  UNL     1      12.846  18.433  23.835  1.00  0.00     0.020 C 
ENDBRANCH   1  26
BRANCH   8  34
HETATM   34  O4  UNL     1      11.745  10.337  24.796  1.00  0.00    -0.345 OA
ATOM     35  H4  UNL     1      12.155   9.567  25.173  1.00  0.00     0.219 HD
ENDBRANCH   8  34
BRANCH   6  36
HETATM   36  O3  UNL     1      13.769  14.353  23.284  1.00  0.00    -0.345 OA
ATOM     37  H3  UNL     1      14.370  14.162  22.574  1.00  0.00     0.219 HD
ENDBRANCH   6  36
BRANCH   7  38
HETATM   38  C24 UNL     1      12.997  11.645  22.449  1.00  0.00     0.171 C 
BRANCH  38  39
HETATM   39  C25 UNL     1      14.347  11.061  22.293  1.00  0.00    -0.040 A 
HETATM   40  C26 UNL     1      15.300  11.685  21.487  1.00  0.00     0.009 A 
HETATM   41  C27 UNL     1      16.568  11.162  21.321  1.00  0.00     0.001 A 
HETATM   42  C28 UNL     1      16.947   9.994  21.948  1.00  0.00     0.000 A 
HETATM   43  C29 UNL     1      16.003   9.376  22.746  1.00  0.00     0.001 A 
HETATM   44  C30 UNL     1      14.737   9.894  22.914  1.00  0.00     0.009 A 
ENDBRANCH  38  39
ENDBRANCH   7  38
TORSDOF 10
ENDMDL
