MODEL 1
REMARK VINA RESULT: -5.771242550      0.000      0.000
REMARK  12 active torsions:
REMARK  status: ('A' for Active; 'I' for Inactive)
REMARK    1  A    between atoms: C14_14  and  O1_15 
REMARK    2  A    between atoms: C23_25  and  C24_26 
REMARK    3  A    between atoms: C24_26  and  N1_27 
REMARK    4  A    between atoms: N1_27  and  C25_28 
REMARK    5  A    between atoms: N1_27  and  O3_41 
REMARK    6  A    between atoms: C25_28  and  C26_29 
REMARK    7  A    between atoms: C29_32  and  C30_33 
REMARK    8  A    between atoms: C32_38  and  O2_39 
REMARK    9  A    between atoms: O3_41  and  C33_42 
REMARK   10  A    between atoms: C33_42  and  C34_43 
REMARK   11  A    between atoms: C34_43  and  C35_44 
REMARK   12  A    between atoms: C35_44  and  O4_45 
ROOT
HETATM    1  C1  UNL     1       9.789  11.182  25.133  1.00  0.00     0.016 C 
HETATM    2  C2  UNL     1       8.788  12.086  25.947  1.00  0.00    -0.035 C 
HETATM    3  C3  UNL     1       8.797  11.664  27.330  1.00  0.00     0.016 C 
HETATM    4  C4  UNL     1       8.915  13.524  25.512  1.00  0.00     0.021 C 
HETATM    5  C5  UNL     1       9.806  14.238  26.345  1.00  0.00    -0.020 C 
HETATM    6  C6  UNL     1       9.892  15.298  27.153  1.00  0.00     0.003 C 
HETATM    7  C7  UNL     1       8.909  16.304  27.535  1.00  0.00    -0.057 C 
HETATM    8  C8  UNL     1       9.558  17.464  27.417  1.00  0.00    -0.019 C 
HETATM    9  C9  UNL     1       8.783  18.679  27.742  1.00  0.00     0.034 C 
HETATM   10  C10 UNL     1       8.040  18.323  29.011  1.00  0.00     0.008 C 
HETATM   11  C11 UNL     1       7.611  19.615  29.625  1.00  0.00    -0.017 C 
HETATM   12  C12 UNL     1       7.130  19.575  31.031  1.00  0.00     0.018 C 
HETATM   13  C13 UNL     1       8.843  20.534  29.632  1.00  0.00     0.018 C 
HETATM   14  C14 UNL     1       6.606  20.297  28.749  1.00  0.00     0.126 C 
HETATM   15  C15 UNL     1       5.486  19.394  28.384  1.00  0.00     0.033 C 
HETATM   16  C16 UNL     1       5.878  18.084  27.802  1.00  0.00     0.012 C 
HETATM   17  C17 UNL     1       6.940  17.356  28.627  1.00  0.00    -0.032 C 
HETATM   18  C18 UNL     1       6.179  16.918  29.894  1.00  0.00     0.016 C 
HETATM   19  C19 UNL     1       7.488  16.160  27.936  1.00  0.00     0.027 C 
HETATM   20  C20 UNL     1       6.743  15.585  26.786  1.00  0.00     0.010 C 
HETATM   21  C21 UNL     1       6.822  14.035  26.786  1.00  0.00     0.006 C 
HETATM   22  C22 UNL     1       7.434  13.581  25.560  1.00  0.00    -0.000 C 
HETATM   23  C23 UNL     1       7.472  12.069  25.150  1.00  0.00     0.014 C 
ENDROOT
BRANCH  23  24
HETATM   24  C24 UNL     1       6.364  11.240  25.682  1.00  0.00     0.132 C 
BRANCH  24  25
HETATM   25  N1  UNL     1       5.364  11.099  24.651  1.00  0.00    -0.172 NA
BRANCH  25  26
HETATM   26  C25 UNL     1       4.045  11.270  25.055  1.00  0.00     0.104 C 
BRANCH  26  27
HETATM   27  C26 UNL     1       3.544  12.673  25.055  1.00  0.00     0.010 A 
HETATM   28  C27 UNL     1       3.201  13.385  26.177  1.00  0.00     0.016 A 
HETATM   29  C28 UNL     1       3.233  14.791  26.108  1.00  0.00     0.017 A 
HETATM   30  C29 UNL     1       3.589  15.443  24.942  1.00  0.00     0.050 A 
HETATM   31  C31 UNL     1       3.917  14.722  23.811  1.00  0.00     0.053 A 
HETATM   32  C32 UNL     1       3.886  13.394  23.902  1.00  0.00     0.077 A 
BRANCH  30  33
HETATM   33  C30 UNL     1       3.813  16.917  24.839  1.00  0.00     0.417 C 
HETATM   34  F1  UNL     1       5.083  17.255  24.612  1.00  0.00    -0.166 F 
HETATM   35  F2  UNL     1       3.169  17.546  25.866  1.00  0.00    -0.166 F 
HETATM   36  F3  UNL     1       3.034  17.317  23.690  1.00  0.00    -0.166 F 
ENDBRANCH  30  33
BRANCH  32  37
HETATM   37  O2  UNL     1       4.205  12.572  22.816  1.00  0.00    -0.360 OA
ATOM     38  H2  UNL     1       3.824  12.870  21.999  1.00  0.00     0.217 HD
ENDBRANCH  32  37
ENDBRANCH  26  27
ENDBRANCH  25  26
BRANCH  25  39
HETATM   39  O3  UNL     1       5.529   9.922  23.909  1.00  0.00    -0.299 OA
BRANCH  39  40
HETATM   40  C33 UNL     1       4.304   9.233  23.978  1.00  0.00     0.196 C 
BRANCH  40  41
HETATM   41  C34 UNL     1       4.617   7.778  23.936  1.00  0.00     0.054 C 
BRANCH  41  42
HETATM   42  C35 UNL     1       4.139   6.924  22.842  1.00  0.00     0.166 C 
BRANCH  42  43
HETATM   43  O4  UNL     1       4.618   5.642  22.829  1.00  0.00    -0.401 OA
ATOM     44  H4  UNL     1       4.156   5.019  23.380  1.00  0.00     0.209 HD
ENDBRANCH  42  43
ENDBRANCH  41  42
ENDBRANCH  40  41
ENDBRANCH  39  40
ENDBRANCH  25  39
ENDBRANCH  24  25
ENDBRANCH  23  24
BRANCH  14  45
HETATM   45  O1  UNL     1       7.172  20.951  27.657  1.00  0.00    -0.395 OA
ATOM     46  H1  UNL     1       8.035  21.306  27.833  1.00  0.00     0.210 HD
ENDBRANCH  14  45
TORSDOF 12
ENDMDL
MODEL 2
REMARK VINA RESULT: -5.697995848      5.823      8.876
REMARK  12 active torsions:
REMARK  status: ('A' for Active; 'I' for Inactive)
REMARK    1  A    between atoms: C14_14  and  O1_15 
REMARK    2  A    between atoms: C23_25  and  C24_26 
REMARK    3  A    between atoms: C24_26  and  N1_27 
REMARK    4  A    between atoms: N1_27  and  C25_28 
REMARK    5  A    between atoms: N1_27  and  O3_41 
REMARK    6  A    between atoms: C25_28  and  C26_29 
REMARK    7  A    between atoms: C29_32  and  C30_33 
REMARK    8  A    between atoms: C32_38  and  O2_39 
REMARK    9  A    between atoms: O3_41  and  C33_42 
REMARK   10  A    between atoms: C33_42  and  C34_43 
REMARK   11  A    between atoms: C34_43  and  C35_44 
REMARK   12  A    between atoms: C35_44  and  O4_45 
ROOT
HETATM    1  C1  UNL     1      12.687  14.762  26.222  1.00  0.00     0.016 C 
HETATM    2  C2  UNL     1      11.256  14.135  26.013  1.00  0.00    -0.035 C 
HETATM    3  C3  UNL     1      10.865  13.451  27.225  1.00  0.00     0.016 C 
HETATM    4  C4  UNL     1      10.366  15.105  25.278  1.00  0.00     0.021 C 
HETATM    5  C5  UNL     1       9.595  15.879  26.174  1.00  0.00    -0.020 C 
HETATM    6  C6  UNL     1       8.339  16.195  26.501  1.00  0.00     0.003 C 
HETATM    7  C7  UNL     1       7.060  15.784  25.934  1.00  0.00    -0.057 C 
HETATM    8  C8  UNL     1       6.368  16.919  25.819  1.00  0.00    -0.019 C 
HETATM    9  C9  UNL     1       5.009  16.797  25.253  1.00  0.00     0.034 C 
HETATM   10  C10 UNL     1       4.420  15.588  25.946  1.00  0.00     0.008 C 
HETATM   11  C11 UNL     1       2.940  15.679  25.766  1.00  0.00    -0.017 C 
HETATM   12  C12 UNL     1       2.096  14.788  26.606  1.00  0.00     0.018 C 
HETATM   13  C13 UNL     1       2.535  17.113  26.144  1.00  0.00     0.018 C 
HETATM   14  C14 UNL     1       2.583  15.527  24.321  1.00  0.00     0.126 C 
HETATM   15  C15 UNL     1       3.196  14.314  23.723  1.00  0.00     0.033 C 
HETATM   16  C16 UNL     1       4.663  14.175  23.912  1.00  0.00     0.012 C 
HETATM   17  C17 UNL     1       5.100  14.366  25.365  1.00  0.00    -0.032 C 
HETATM   18  C18 UNL     1       4.573  13.103  26.073  1.00  0.00     0.016 C 
HETATM   19  C19 UNL     1       6.576  14.445  25.518  1.00  0.00     0.027 C 
HETATM   20  C20 UNL     1       7.445  13.967  24.411  1.00  0.00     0.010 C 
HETATM   21  C21 UNL     1       8.710  13.257  24.958  1.00  0.00     0.006 C 
HETATM   22  C22 UNL     1       9.892  13.943  24.490  1.00  0.00    -0.000 C 
HETATM   23  C23 UNL     1      11.334  13.361  24.686  1.00  0.00     0.014 C 
ENDROOT
BRANCH  23  24
HETATM   24  C24 UNL     1      11.415  11.882  24.764  1.00  0.00     0.132 C 
BRANCH  24  25
HETATM   25  N1  UNL     1      12.764  11.481  24.446  1.00  0.00    -0.172 NA
BRANCH  25  26
HETATM   26  C25 UNL     1      12.965  10.994  23.159  1.00  0.00     0.104 C 
BRANCH  26  27
HETATM   27  C26 UNL     1      14.358  11.093  22.639  1.00  0.00     0.010 A 
HETATM   28  C27 UNL     1      15.255  10.056  22.594  1.00  0.00     0.016 A 
HETATM   29  C28 UNL     1      16.307  10.126  21.659  1.00  0.00     0.017 A 
HETATM   30  C29 UNL     1      16.442  11.212  20.814  1.00  0.00     0.050 A 
HETATM   31  C31 UNL     1      15.545  12.260  20.875  1.00  0.00     0.053 A 
HETATM   32  C32 UNL     1      14.557  12.169  21.762  1.00  0.00     0.077 A 
BRANCH  30  33
HETATM   33  C30 UNL     1      17.420  11.280  19.685  1.00  0.00     0.417 C 
HETATM   34  F1  UNL     1      17.228  12.316  18.867  1.00  0.00    -0.166 F 
HETATM   35  F2  UNL     1      17.543  10.044  19.118  1.00  0.00    -0.166 F 
HETATM   36  F3  UNL     1      18.699  11.455  20.334  1.00  0.00    -0.166 F 
ENDBRANCH  30  33
BRANCH  32  37
HETATM   37  O2  UNL     1      13.594  13.174  21.899  1.00  0.00    -0.360 OA
ATOM     38  H2  UNL     1      13.893  14.021  21.592  1.00  0.00     0.217 HD
ENDBRANCH  32  37
ENDBRANCH  26  27
ENDBRANCH  25  26
BRANCH  25  39
HETATM   39  O3  UNL     1      13.307  10.628  25.414  1.00  0.00    -0.299 OA
BRANCH  39  40
HETATM   40  C33 UNL     1      14.165  11.417  26.203  1.00  0.00     0.196 C 
BRANCH  40  41
HETATM   41  C34 UNL     1      13.785  11.190  27.625  1.00  0.00     0.054 C 
BRANCH  41  42
HETATM   42  C35 UNL     1      12.725  10.244  27.992  1.00  0.00     0.166 C 
BRANCH  42  43
HETATM   43  O4  UNL     1      13.048   8.917  27.904  1.00  0.00    -0.401 OA
ATOM     44  H4  UNL     1      12.980   8.418  28.710  1.00  0.00     0.209 HD
ENDBRANCH  42  43
ENDBRANCH  41  42
ENDBRANCH  40  41
ENDBRANCH  39  40
ENDBRANCH  25  39
ENDBRANCH  24  25
ENDBRANCH  23  24
BRANCH  14  45
HETATM   45  O1  UNL     1       2.791  16.683  23.571  1.00  0.00    -0.395 OA
ATOM     46  H1  UNL     1       2.422  16.639  22.697  1.00  0.00     0.210 HD
ENDBRANCH  14  45
TORSDOF 12
ENDMDL
MODEL 3
REMARK VINA RESULT: -5.555799278      3.559      5.352
REMARK  12 active torsions:
REMARK  status: ('A' for Active; 'I' for Inactive)
REMARK    1  A    between atoms: C14_14  and  O1_15 
REMARK    2  A    between atoms: C23_25  and  C24_26 
REMARK    3  A    between atoms: C24_26  and  N1_27 
REMARK    4  A    between atoms: N1_27  and  C25_28 
REMARK    5  A    between atoms: N1_27  and  O3_41 
REMARK    6  A    between atoms: C25_28  and  C26_29 
REMARK    7  A    between atoms: C29_32  and  C30_33 
REMARK    8  A    between atoms: C32_38  and  O2_39 
REMARK    9  A    between atoms: O3_41  and  C33_42 
REMARK   10  A    between atoms: C33_42  and  C34_43 
REMARK   11  A    between atoms: C34_43  and  C35_44 
REMARK   12  A    between atoms: C35_44  and  O4_45 
ROOT
HETATM    1  C1  UNL     1       4.822  10.123  22.231  1.00  0.00     0.016 C 
HETATM    2  C2  UNL     1       5.018  10.271  23.788  1.00  0.00    -0.035 C 
HETATM    3  C3  UNL     1       5.057   8.953  24.381  1.00  0.00     0.016 C 
HETATM    4  C4  UNL     1       6.028  11.350  24.084  1.00  0.00     0.021 C 
HETATM    5  C5  UNL     1       7.324  10.812  24.249  1.00  0.00    -0.020 C 
HETATM    6  C6  UNL     1       8.339  10.722  25.113  1.00  0.00     0.003 C 
HETATM    7  C7  UNL     1       8.515  11.260  26.457  1.00  0.00    -0.057 C 
HETATM    8  C8  UNL     1       9.742  11.783  26.447  1.00  0.00    -0.019 C 
HETATM    9  C9  UNL     1      10.190  12.415  27.704  1.00  0.00     0.034 C 
HETATM   10  C10 UNL     1       9.759  11.448  28.786  1.00  0.00     0.008 C 
HETATM   11  C11 UNL     1      10.558  11.792  30.000  1.00  0.00    -0.017 C 
HETATM   12  C12 UNL     1      10.559  10.808  31.115  1.00  0.00     0.018 C 
HETATM   13  C13 UNL     1      12.023  11.910  29.549  1.00  0.00     0.018 C 
HETATM   14  C14 UNL     1      10.180  13.151  30.502  1.00  0.00     0.126 C 
HETATM   15  C15 UNL     1       8.713  13.287  30.679  1.00  0.00     0.033 C 
HETATM   16  C16 UNL     1       7.885  12.921  29.501  1.00  0.00     0.012 C 
HETATM   17  C17 UNL     1       8.254  11.560  28.909  1.00  0.00    -0.032 C 
HETATM   18  C18 UNL     1       7.753  10.557  29.966  1.00  0.00     0.016 C 
HETATM   19  C19 UNL     1       7.583  11.294  27.611  1.00  0.00     0.027 C 
HETATM   20  C20 UNL     1       6.405  12.113  27.224  1.00  0.00     0.010 C 
HETATM   21  C21 UNL     1       5.343  11.253  26.489  1.00  0.00     0.006 C 
HETATM   22  C22 UNL     1       5.116  11.789  25.168  1.00  0.00    -0.000 C 
HETATM   23  C23 UNL     1       3.954  11.284  24.245  1.00  0.00     0.014 C 
ENDROOT
BRANCH  23  24
HETATM   24  C24 UNL     1       2.766  10.753  24.955  1.00  0.00     0.132 C 
BRANCH  24  25
HETATM   25  N1  UNL     1       1.609  11.505  24.535  1.00  0.00    -0.172 NA
BRANCH  25  26
HETATM   26  C25 UNL     1       1.055  12.351  25.489  1.00  0.00     0.104 C 
BRANCH  26  27
HETATM   27  C26 UNL     1       1.843  13.577  25.803  1.00  0.00     0.010 A 
HETATM   28  C27 UNL     1       2.617  13.746  26.923  1.00  0.00     0.016 A 
HETATM   29  C28 UNL     1       3.668  14.682  26.870  1.00  0.00     0.017 A 
HETATM   30  C29 UNL     1       3.912  15.420  25.726  1.00  0.00     0.050 A 
HETATM   31  C31 UNL     1       3.119  15.257  24.608  1.00  0.00     0.053 A 
HETATM   32  C32 UNL     1       2.136  14.363  24.680  1.00  0.00     0.077 A 
BRANCH  30  33
HETATM   33  C30 UNL     1       5.105  16.299  25.533  1.00  0.00     0.417 C 
HETATM   34  F1  UNL     1       5.762  16.574  26.661  1.00  0.00    -0.166 F 
HETATM   35  F2  UNL     1       4.768  17.351  24.730  1.00  0.00    -0.166 F 
HETATM   36  F3  UNL     1       5.982  15.526  24.684  1.00  0.00    -0.166 F 
ENDBRANCH  30  33
BRANCH  32  37
HETATM   37  O2  UNL     1       1.279  14.119  23.601  1.00  0.00    -0.360 OA
ATOM     38  H2  UNL     1       1.344  14.775  22.918  1.00  0.00     0.217 HD
ENDBRANCH  32  37
ENDBRANCH  26  27
ENDBRANCH  25  26
BRANCH  25  39
HETATM   39  O3  UNL     1       0.637  10.693  23.937  1.00  0.00    -0.299 OA
BRANCH  39  40
HETATM   40  C33 UNL     1      -0.482  10.717  24.791  1.00  0.00     0.196 C 
BRANCH  40  41
HETATM   41  C34 UNL     1      -1.694  10.682  23.926  1.00  0.00     0.054 C 
BRANCH  41  42
HETATM   42  C35 UNL     1      -1.807  11.528  22.733  1.00  0.00     0.166 C 
BRANCH  42  43
HETATM   43  O4  UNL     1      -0.981  12.618  22.689  1.00  0.00    -0.401 OA
ATOM     44  H4  UNL     1      -0.815  12.981  21.827  1.00  0.00     0.209 HD
ENDBRANCH  42  43
ENDBRANCH  41  42
ENDBRANCH  40  41
ENDBRANCH  39  40
ENDBRANCH  25  39
ENDBRANCH  24  25
ENDBRANCH  23  24
BRANCH  14  45
HETATM   45  O1  UNL     1      10.753  14.192  29.775  1.00  0.00    -0.395 OA
ATOM     46  H1  UNL     1      10.485  15.054  30.072  1.00  0.00     0.210 HD
ENDBRANCH  14  45
TORSDOF 12
ENDMDL
MODEL 4
REMARK VINA RESULT: -5.450275596      4.369      8.692
REMARK  12 active torsions:
REMARK  status: ('A' for Active; 'I' for Inactive)
REMARK    1  A    between atoms: C14_14  and  O1_15 
REMARK    2  A    between atoms: C23_25  and  C24_26 
REMARK    3  A    between atoms: C24_26  and  N1_27 
REMARK    4  A    between atoms: N1_27  and  C25_28 
REMARK    5  A    between atoms: N1_27  and  O3_41 
REMARK    6  A    between atoms: C25_28  and  C26_29 
REMARK    7  A    between atoms: C29_32  and  C30_33 
REMARK    8  A    between atoms: C32_38  and  O2_39 
REMARK    9  A    between atoms: O3_41  and  C33_42 
REMARK   10  A    between atoms: C33_42  and  C34_43 
REMARK   11  A    between atoms: C34_43  and  C35_44 
REMARK   12  A    between atoms: C35_44  and  O4_45 
ROOT
HETATM    1  C1  UNL     1      14.361  13.603  24.336  1.00  0.00     0.016 C 
HETATM    2  C2  UNL     1      12.870  14.072  24.133  1.00  0.00    -0.035 C 
HETATM    3  C3  UNL     1      12.482  13.813  22.764  1.00  0.00     0.016 C 
HETATM    4  C4  UNL     1      12.036  13.681  25.326  1.00  0.00     0.021 C 
HETATM    5  C5  UNL     1      11.386  12.443  25.117  1.00  0.00    -0.020 C 
HETATM    6  C6  UNL     1      10.183  11.864  25.078  1.00  0.00     0.003 C 
HETATM    7  C7  UNL     1       8.844  12.403  25.287  1.00  0.00    -0.057 C 
HETATM    8  C8  UNL     1       8.254  11.519  26.094  1.00  0.00    -0.019 C 
HETATM    9  C9  UNL     1       6.861  11.823  26.483  1.00  0.00     0.034 C 
HETATM   10  C10 UNL     1       6.201  12.273  25.198  1.00  0.00     0.008 C 
HETATM   11  C11 UNL     1       4.729  12.160  25.419  1.00  0.00    -0.017 C 
HETATM   12  C12 UNL     1       3.852  12.245  24.221  1.00  0.00     0.018 C 
HETATM   13  C13 UNL     1       4.476  10.768  26.021  1.00  0.00     0.018 C 
HETATM   14  C14 UNL     1       4.284  13.137  26.462  1.00  0.00     0.126 C 
HETATM   15  C15 UNL     1       4.752  14.515  26.166  1.00  0.00     0.033 C 
HETATM   16  C16 UNL     1       6.208  14.658  25.908  1.00  0.00     0.012 C 
HETATM   17  C17 UNL     1       6.736  13.654  24.883  1.00  0.00    -0.032 C 
HETATM   18  C18 UNL     1       6.133  14.143  23.551  1.00  0.00     0.016 C 
HETATM   19  C19 UNL     1       8.219  13.652  24.788  1.00  0.00     0.027 C 
HETATM   20  C20 UNL     1       8.981  14.800  25.344  1.00  0.00     0.010 C 
HETATM   21  C21 UNL     1      10.203  15.145  24.453  1.00  0.00     0.006 C 
HETATM   22  C22 UNL     1      11.417  15.024  25.227  1.00  0.00    -0.000 C 
HETATM   23  C23 UNL     1      12.808  15.505  24.689  1.00  0.00     0.014 C 
ENDROOT
BRANCH  23  24
HETATM   24  C24 UNL     1      12.757  16.615  23.707  1.00  0.00     0.132 C 
BRANCH  24  25
HETATM   25  N1  UNL     1      13.567  17.701  24.205  1.00  0.00    -0.172 NA
BRANCH  25  26
HETATM   26  C25 UNL     1      12.915  18.918  24.372  1.00  0.00     0.104 C 
BRANCH  26  27
HETATM   27  C26 UNL     1      11.789  18.922  25.348  1.00  0.00     0.010 A 
HETATM   28  C27 UNL     1      10.459  18.892  25.012  1.00  0.00     0.016 A 
HETATM   29  C28 UNL     1       9.543  18.402  25.964  1.00  0.00     0.017 A 
HETATM   30  C29 UNL     1       9.966  17.970  27.208  1.00  0.00     0.050 A 
HETATM   31  C31 UNL     1      11.304  18.018  27.546  1.00  0.00     0.053 A 
HETATM   32  C32 UNL     1      12.151  18.479  26.628  1.00  0.00     0.077 A 
BRANCH  30  33
HETATM   33  C30 UNL     1       9.087  17.280  28.200  1.00  0.00     0.417 C 
HETATM   34  F1  UNL     1       8.834  18.003  29.292  1.00  0.00    -0.166 F 
HETATM   35  F2  UNL     1       9.527  16.000  28.382  1.00  0.00    -0.166 F 
HETATM   36  F3  UNL     1       7.841  17.085  27.496  1.00  0.00    -0.166 F 
ENDBRANCH  30  33
BRANCH  32  37
HETATM   37  O2  UNL     1      13.526  18.564  26.869  1.00  0.00    -0.360 OA
ATOM     38  H2  UNL     1      13.993  17.767  26.648  1.00  0.00     0.217 HD
ENDBRANCH  32  37
ENDBRANCH  26  27
ENDBRANCH  25  26
BRANCH  25  39
HETATM   39  O3  UNL     1      14.759  17.848  23.485  1.00  0.00    -0.299 OA
BRANCH  39  40
HETATM   40  C33 UNL     1      15.170  19.182  23.664  1.00  0.00     0.196 C 
BRANCH  40  41
HETATM   41  C34 UNL     1      15.619  19.683  22.335  1.00  0.00     0.054 C 
BRANCH  41  42
HETATM   42  C35 UNL     1      14.660  19.979  21.265  1.00  0.00     0.166 C 
BRANCH  42  43
HETATM   43  O4  UNL     1      13.574  19.150  21.186  1.00  0.00    -0.401 OA
ATOM     44  H4  UNL     1      13.715  18.319  20.748  1.00  0.00     0.209 HD
ENDBRANCH  42  43
ENDBRANCH  41  42
ENDBRANCH  40  41
ENDBRANCH  39  40
ENDBRANCH  25  39
ENDBRANCH  24  25
ENDBRANCH  23  24
BRANCH  14  45
HETATM   45  O1  UNL     1       4.557  12.724  27.764  1.00  0.00    -0.395 OA
ATOM     46  H1  UNL     1       5.433  12.372  27.875  1.00  0.00     0.210 HD
ENDBRANCH  14  45
TORSDOF 12
ENDMDL
MODEL 5
REMARK VINA RESULT: -5.381181283      4.344      7.871
REMARK  12 active torsions:
REMARK  status: ('A' for Active; 'I' for Inactive)
REMARK    1  A    between atoms: C14_14  and  O1_15 
REMARK    2  A    between atoms: C23_25  and  C24_26 
REMARK    3  A    between atoms: C24_26  and  N1_27 
REMARK    4  A    between atoms: N1_27  and  C25_28 
REMARK    5  A    between atoms: N1_27  and  O3_41 
REMARK    6  A    between atoms: C25_28  and  C26_29 
REMARK    7  A    between atoms: C29_32  and  C30_33 
REMARK    8  A    between atoms: C32_38  and  O2_39 
REMARK    9  A    between atoms: O3_41  and  C33_42 
REMARK   10  A    between atoms: C33_42  and  C34_43 
REMARK   11  A    between atoms: C34_43  and  C35_44 
REMARK   12  A    between atoms: C35_44  and  O4_45 
ROOT
HETATM    1  C1  UNL     1       4.282  12.218  29.200  1.00  0.00     0.016 C 
HETATM    2  C2  UNL     1       5.835  12.431  29.039  1.00  0.00    -0.035 C 
HETATM    3  C3  UNL     1       6.278  13.395  30.021  1.00  0.00     0.016 C 
HETATM    4  C4  UNL     1       6.519  11.109  28.800  1.00  0.00     0.021 C 
HETATM    5  C5  UNL     1       6.998  10.551  30.006  1.00  0.00    -0.020 C 
HETATM    6  C6  UNL     1       8.106  10.118  30.615  1.00  0.00     0.003 C 
HETATM    7  C7  UNL     1       9.489  10.041  30.162  1.00  0.00    -0.057 C 
HETATM    8  C8  UNL     1       9.889   8.820  30.523  1.00  0.00    -0.019 C 
HETATM    9  C9  UNL     1      11.280   8.462  30.175  1.00  0.00     0.034 C 
HETATM   10  C10 UNL     1      12.086   9.690  30.539  1.00  0.00     0.008 C 
HETATM   11  C11 UNL     1      13.508   9.245  30.639  1.00  0.00    -0.017 C 
HETATM   12  C12 UNL     1      14.471  10.179  31.281  1.00  0.00     0.018 C 
HETATM   13  C13 UNL     1      13.516   7.977  31.509  1.00  0.00     0.018 C 
HETATM   14  C14 UNL     1      14.013   8.815  29.297  1.00  0.00     0.126 C 
HETATM   15  C15 UNL     1      13.769   9.847  28.258  1.00  0.00     0.033 C 
HETATM   16  C16 UNL     1      12.371  10.338  28.153  1.00  0.00     0.012 C 
HETATM   17  C17 UNL     1      11.778  10.749  29.501  1.00  0.00    -0.032 C 
HETATM   18  C18 UNL     1      12.537  12.043  29.853  1.00  0.00     0.016 C 
HETATM   19  C19 UNL     1      10.321  11.028  29.430  1.00  0.00     0.027 C 
HETATM   20  C20 UNL     1       9.693  11.263  28.104  1.00  0.00     0.010 C 
HETATM   21  C21 UNL     1       8.598  12.359  28.188  1.00  0.00     0.006 C 
HETATM   22  C22 UNL     1       7.329  11.809  27.775  1.00  0.00    -0.000 C 
HETATM   23  C23 UNL     1       6.062  12.702  27.542  1.00  0.00     0.014 C 
ENDROOT
BRANCH  23  24
HETATM   24  C24 UNL     1       6.340  14.101  27.137  1.00  0.00     0.132 C 
BRANCH  24  25
HETATM   25  N1  UNL     1       5.833  14.299  25.801  1.00  0.00    -0.172 NA
BRANCH  25  26
HETATM   26  C25 UNL     1       6.695  13.952  24.766  1.00  0.00     0.104 C 
BRANCH  26  27
HETATM   27  C26 UNL     1       6.437  12.633  24.123  1.00  0.00     0.010 A 
HETATM   28  C27 UNL     1       7.125  11.478  24.397  1.00  0.00     0.016 A 
HETATM   29  C28 UNL     1       6.493  10.248  24.129  1.00  0.00     0.017 A 
HETATM   30  C29 UNL     1       5.219  10.199  23.594  1.00  0.00     0.050 A 
HETATM   31  C31 UNL     1       4.538  11.365  23.305  1.00  0.00     0.053 A 
HETATM   32  C32 UNL     1       5.153  12.515  23.573  1.00  0.00     0.077 A 
BRANCH  30  33
HETATM   33  C30 UNL     1       4.419   8.945  23.445  1.00  0.00     0.417 C 
HETATM   34  F1  UNL     1       4.699   8.014  24.357  1.00  0.00    -0.166 F 
HETATM   35  F2  UNL     1       4.419   8.562  22.134  1.00  0.00    -0.166 F 
HETATM   36  F3  UNL     1       3.052   9.370  23.646  1.00  0.00    -0.166 F 
ENDBRANCH  30  33
BRANCH  32  37
HETATM   37  O2  UNL     1       4.548  13.751  23.322  1.00  0.00    -0.360 OA
ATOM     38  H2  UNL     1       3.903  13.716  22.626  1.00  0.00     0.217 HD
ENDBRANCH  32  37
ENDBRANCH  26  27
ENDBRANCH  25  26
BRANCH  25  39
HETATM   39  O3  UNL     1       5.297  15.580  25.620  1.00  0.00    -0.299 OA
BRANCH  39  40
HETATM   40  C33 UNL     1       4.668  15.923  26.831  1.00  0.00     0.196 C 
BRANCH  40  41
HETATM   41  C34 UNL     1       3.201  15.928  26.576  1.00  0.00     0.054 C 
BRANCH  41  42
HETATM   42  C35 UNL     1       2.415  14.689  26.605  1.00  0.00     0.166 C 
BRANCH  42  43
HETATM   43  O4  UNL     1       2.958  13.618  25.949  1.00  0.00    -0.401 OA
ATOM     44  H4  UNL     1       2.839  12.771  26.363  1.00  0.00     0.209 HD
ENDBRANCH  42  43
ENDBRANCH  41  42
ENDBRANCH  40  41
ENDBRANCH  39  40
ENDBRANCH  25  39
ENDBRANCH  24  25
ENDBRANCH  23  24
BRANCH  14  45
HETATM   45  O1  UNL     1      13.593   7.541  28.925  1.00  0.00    -0.395 OA
ATOM     46  H1  UNL     1      13.677   6.896  29.618  1.00  0.00     0.210 HD
ENDBRANCH  14  45
TORSDOF 12
ENDMDL
