MODEL 1
REMARK VINA RESULT: -6.642631675      0.000      0.000
REMARK  9 active torsions:
REMARK  status: ('A' for Active; 'I' for Inactive)
REMARK       I    between atoms: C1_2  and  N1_3 
REMARK    1  A    between atoms: C1_2  and  C25_32 
REMARK    2  A    between atoms: N1_3  and  C2_5 
REMARK    3  A    between atoms: C5_8  and  N2_9 
REMARK    4  A    between atoms: N2_9  and  C6_11 
REMARK    5  A    between atoms: C12_17  and  N3_18 
REMARK    6  A    between atoms: N3_18  and  C13_20 
REMARK    7  A    between atoms: N4_35  and  S1_36 
REMARK    8  A    between atoms: S1_36  and  N5_37 
REMARK    9  A    between atoms: S1_36  and  C28_40 
ROOT
HETATM    1  C2  UNL     1       7.016  11.295  24.580  1.00  0.00     0.037 A 
HETATM    2  C3  UNL     1       6.641  12.598  24.497  1.00  0.00     0.032 A 
HETATM    3  C4  UNL     1       7.526  13.619  24.859  1.00  0.00     0.034 A 
HETATM    4  C5  UNL     1       8.779  13.310  25.304  1.00  0.00     0.055 A 
HETATM    5  C12 UNL     1       9.214  11.997  25.410  1.00  0.00     0.061 A 
HETATM    6  C24 UNL     1       8.318  11.025  25.043  1.00  0.00     0.061 A 
ENDROOT
BRANCH   1   7
HETATM    7  N1  UNL     1       6.210  10.211  24.220  1.00  0.00    -0.327 N 
HETATM    8  C1  UNL     1       5.088   9.790  24.929  1.00  0.00     0.226 C 
HETATM    9  O1  UNL     1       4.657  10.326  25.964  1.00  0.00    -0.273 OA
ATOM     10  H1  UNL     1       6.462   9.692  23.378  1.00  0.00     0.169 HD
BRANCH   8  11
HETATM   11  C25 UNL     1       4.351   8.577  24.374  1.00  0.00     0.080 C 
HETATM   12  C26 UNL     1       5.417   7.538  24.135  1.00  0.00     0.029 C 
HETATM   13  C27 UNL     1       4.809   6.275  23.553  1.00  0.00     0.105 C 
HETATM   14  N4  UNL     1       3.839   6.563  22.553  1.00  0.00    -0.239 NA
HETATM   15  C29 UNL     1       3.866   7.911  22.066  1.00  0.00     0.105 C 
HETATM   16  C30 UNL     1       3.631   8.955  23.123  1.00  0.00     0.029 C 
BRANCH  14  17
HETATM   17  S1  UNL     1       2.280   5.971  22.840  1.00  0.00     0.126 SA
BRANCH  17  18
HETATM   18  N5  UNL     1       1.137   6.660  21.770  1.00  0.00    -0.072 N 
HETATM   19  O2  UNL     1       1.223   6.521  20.527  1.00  0.00    -0.525 OA
HETATM   20  O3  UNL     1       0.079   7.394  22.238  1.00  0.00    -0.525 OA
ENDBRANCH  17  18
BRANCH  17  21
HETATM   21  C28 UNL     1       2.122   4.233  22.952  1.00  0.00     0.471 C 
HETATM   22  F1  UNL     1       3.324   3.555  23.036  1.00  0.00    -0.159 F 
HETATM   23  F2  UNL     1       1.574   3.804  21.728  1.00  0.00    -0.159 F 
HETATM   24  F3  UNL     1       1.226   3.810  23.911  1.00  0.00    -0.159 F 
ENDBRANCH  17  21
ENDBRANCH  14  17
ENDBRANCH   8  11
ENDBRANCH   1   7
BRANCH   5  25
HETATM   25  N3  UNL     1      10.507  11.697  25.805  1.00  0.00    -0.354 N 
ATOM     26  H3  UNL     1      10.658  11.666  26.813  1.00  0.00     0.166 HD
BRANCH  25  27
HETATM   27  C13 UNL     1      11.653  11.426  25.010  1.00  0.00     0.033 A 
HETATM   28  C14 UNL     1      11.613  10.591  23.923  1.00  0.00     0.030 A 
HETATM   29  C15 UNL     1      12.764  10.408  23.194  1.00  0.00     0.010 A 
HETATM   30  C16 UNL     1      13.927  11.045  23.545  1.00  0.00    -0.052 A 
HETATM   31  C17 UNL     1      14.012  11.893  24.630  1.00  0.00    -0.050 A 
HETATM   32  C23 UNL     1      15.080  10.730  22.636  1.00  0.00     0.039 C 
HETATM   33  C18 UNL     1      12.840  12.053  25.337  1.00  0.00     0.037 A 
HETATM   34  C19 UNL     1      15.162  12.672  25.174  1.00  0.00     0.039 C 
HETATM   35  C20 UNL     1      16.125  13.032  24.036  1.00  0.00     0.005 C 
HETATM   36  C21 UNL     1      15.361  13.215  22.745  1.00  0.00     0.001 C 
HETATM   37  C22 UNL     1      15.370  12.004  21.871  1.00  0.00     0.005 C 
ENDBRANCH  25  27
ENDBRANCH   5  25
BRANCH   4  38
HETATM   38  N2  UNL     1       9.645  14.346  25.708  1.00  0.00    -0.383 N 
ATOM     39  H2  UNL     1       9.975  14.401  26.671  1.00  0.00     0.160 HD
BRANCH  38  40
HETATM   40  C6  UNL     1      10.063  15.338  24.718  1.00  0.00     0.081 C 
HETATM   41  C7  UNL     1      10.943  14.790  23.646  1.00  0.00     0.025 C 
HETATM   42  C8  UNL     1      12.298  15.501  23.600  1.00  0.00     0.002 C 
HETATM   43  C9  UNL     1      12.926  15.630  24.949  1.00  0.00     0.000 C 
HETATM   44  C10 UNL     1      11.994  16.075  26.034  1.00  0.00     0.002 C 
HETATM   45  C11 UNL     1      10.694  16.513  25.444  1.00  0.00     0.025 C 
ENDBRANCH  38  40
ENDBRANCH   4  38
TORSDOF 9
ENDMDL
MODEL 2
REMARK VINA RESULT: -6.468143309      1.824      2.744
REMARK  9 active torsions:
REMARK  status: ('A' for Active; 'I' for Inactive)
REMARK       I    between atoms: C1_2  and  N1_3 
REMARK    1  A    between atoms: C1_2  and  C25_32 
REMARK    2  A    between atoms: N1_3  and  C2_5 
REMARK    3  A    between atoms: C5_8  and  N2_9 
REMARK    4  A    between atoms: N2_9  and  C6_11 
REMARK    5  A    between atoms: C12_17  and  N3_18 
REMARK    6  A    between atoms: N3_18  and  C13_20 
REMARK    7  A    between atoms: N4_35  and  S1_36 
REMARK    8  A    between atoms: S1_36  and  N5_37 
REMARK    9  A    between atoms: S1_36  and  C28_40 
ROOT
HETATM    1  C2  UNL     1       8.080  13.301  24.828  1.00  0.00     0.037 A 
HETATM    2  C3  UNL     1       7.736  14.579  25.138  1.00  0.00     0.032 A 
HETATM    3  C4  UNL     1       8.708  15.502  25.539  1.00  0.00     0.034 A 
HETATM    4  C5  UNL     1      10.016  15.121  25.623  1.00  0.00     0.055 A 
HETATM    5  C12 UNL     1      10.423  13.830  25.319  1.00  0.00     0.061 A 
HETATM    6  C24 UNL     1       9.441  12.956  24.929  1.00  0.00     0.061 A 
ENDROOT
BRANCH   1   7
HETATM    7  N1  UNL     1       7.184  12.319  24.398  1.00  0.00    -0.327 N 
HETATM    8  C1  UNL     1       6.734  11.261  25.184  1.00  0.00     0.226 C 
HETATM    9  O1  UNL     1       7.065  11.060  26.365  1.00  0.00    -0.273 OA
ATOM     10  H1  UNL     1       6.835  12.381  23.441  1.00  0.00     0.169 HD
BRANCH   8  11
HETATM   11  C25 UNL     1       5.765  10.288  24.522  1.00  0.00     0.080 C 
HETATM   12  C26 UNL     1       5.719  10.697  23.071  1.00  0.00     0.029 C 
HETATM   13  C27 UNL     1       4.759   9.812  22.298  1.00  0.00     0.105 C 
HETATM   14  N4  UNL     1       3.559   9.567  23.022  1.00  0.00    -0.239 NA
HETATM   15  C29 UNL     1       3.350  10.439  24.140  1.00  0.00     0.105 C 
HETATM   16  C30 UNL     1       4.431  10.379  25.184  1.00  0.00     0.029 C 
BRANCH  14  17
HETATM   17  S1  UNL     1       3.204   7.945  23.345  1.00  0.00     0.126 SA
BRANCH  17  18
HETATM   18  N5  UNL     1       1.841   7.410  22.462  1.00  0.00    -0.072 N 
HETATM   19  O2  UNL     1       0.693   7.377  22.967  1.00  0.00    -0.525 OA
HETATM   20  O3  UNL     1       1.955   6.995  21.161  1.00  0.00    -0.525 OA
ENDBRANCH  17  18
BRANCH  17  21
HETATM   21  C28 UNL     1       4.545   6.826  23.241  1.00  0.00     0.471 C 
HETATM   22  F1  UNL     1       5.253   6.894  22.056  1.00  0.00    -0.159 F 
HETATM   23  F2  UNL     1       3.985   5.535  23.231  1.00  0.00    -0.159 F 
HETATM   24  F3  UNL     1       5.379   6.844  24.339  1.00  0.00    -0.159 F 
ENDBRANCH  17  21
ENDBRANCH  14  17
ENDBRANCH   8  11
ENDBRANCH   1   7
BRANCH   5  25
HETATM   25  N3  UNL     1      11.760  13.471  25.351  1.00  0.00    -0.354 N 
ATOM     26  H3  UNL     1      12.182  13.441  26.279  1.00  0.00     0.166 HD
BRANCH  25  27
HETATM   27  C13 UNL     1      12.630  13.139  24.277  1.00  0.00     0.033 A 
HETATM   28  C14 UNL     1      13.241  14.093  23.505  1.00  0.00     0.030 A 
HETATM   29  C15 UNL     1      14.090  13.680  22.505  1.00  0.00     0.010 A 
HETATM   30  C16 UNL     1      14.320  12.347  22.283  1.00  0.00    -0.052 A 
HETATM   31  C17 UNL     1      13.727  11.354  23.036  1.00  0.00    -0.050 A 
HETATM   32  C23 UNL     1      15.274  12.083  21.153  1.00  0.00     0.039 C 
HETATM   33  C18 UNL     1      12.883  11.803  24.029  1.00  0.00     0.037 A 
HETATM   34  C19 UNL     1      13.841   9.869  22.960  1.00  0.00     0.039 C 
HETATM   35  C20 UNL     1      15.225   9.486  22.419  1.00  0.00     0.005 C 
HETATM   36  C21 UNL     1      16.251  10.511  22.840  1.00  0.00     0.001 C 
HETATM   37  C22 UNL     1      16.534  11.536  21.789  1.00  0.00     0.005 C 
ENDBRANCH  25  27
ENDBRANCH   5  25
BRANCH   4  38
HETATM   38  N2  UNL     1      10.979  16.048  26.070  1.00  0.00    -0.383 N 
ATOM     39  H2  UNL     1      11.592  15.823  26.854  1.00  0.00     0.160 HD
BRANCH  38  40
HETATM   40  C6  UNL     1      11.083  17.337  25.388  1.00  0.00     0.081 C 
HETATM   41  C7  UNL     1      11.294  17.228  23.915  1.00  0.00     0.025 C 
HETATM   42  C8  UNL     1      12.591  17.909  23.472  1.00  0.00     0.002 C 
HETATM   43  C9  UNL     1      13.760  17.533  24.323  1.00  0.00     0.000 C 
HETATM   44  C10 UNL     1      13.491  17.542  25.796  1.00  0.00     0.002 C 
HETATM   45  C11 UNL     1      12.160  18.163  26.069  1.00  0.00     0.025 C 
ENDBRANCH  38  40
ENDBRANCH   4  38
TORSDOF 9
ENDMDL
MODEL 3
REMARK VINA RESULT: -6.448356722      3.669      6.346
REMARK  9 active torsions:
REMARK  status: ('A' for Active; 'I' for Inactive)
REMARK       I    between atoms: C1_2  and  N1_3 
REMARK    1  A    between atoms: C1_2  and  C25_32 
REMARK    2  A    between atoms: N1_3  and  C2_5 
REMARK    3  A    between atoms: C5_8  and  N2_9 
REMARK    4  A    between atoms: N2_9  and  C6_11 
REMARK    5  A    between atoms: C12_17  and  N3_18 
REMARK    6  A    between atoms: N3_18  and  C13_20 
REMARK    7  A    between atoms: N4_35  and  S1_36 
REMARK    8  A    between atoms: S1_36  and  N5_37 
REMARK    9  A    between atoms: S1_36  and  C28_40 
ROOT
HETATM    1  C2  UNL     1      12.095  11.292  25.070  1.00  0.00     0.037 A 
HETATM    2  C3  UNL     1      12.788  11.826  26.109  1.00  0.00     0.032 A 
HETATM    3  C4  UNL     1      14.187  11.810  26.117  1.00  0.00     0.034 A 
HETATM    4  C5  UNL     1      14.868  11.253  25.074  1.00  0.00     0.055 A 
HETATM    5  C12 UNL     1      14.212  10.693  23.987  1.00  0.00     0.061 A 
HETATM    6  C24 UNL     1      12.841  10.730  24.017  1.00  0.00     0.061 A 
ENDROOT
BRANCH   1   7
HETATM    7  N1  UNL     1      10.701  11.282  24.965  1.00  0.00    -0.327 N 
HETATM    8  C1  UNL     1       9.891  12.407  25.103  1.00  0.00     0.226 C 
HETATM    9  O1  UNL     1      10.302  13.558  25.328  1.00  0.00    -0.273 OA
ATOM     10  H1  UNL     1      10.246  10.390  24.774  1.00  0.00     0.169 HD
BRANCH   8  11
HETATM   11  C25 UNL     1       8.389  12.182  24.963  1.00  0.00     0.080 C 
HETATM   12  C26 UNL     1       7.794  13.558  24.803  1.00  0.00     0.029 C 
HETATM   13  C27 UNL     1       6.284  13.473  24.678  1.00  0.00     0.105 C 
HETATM   14  N4  UNL     1       5.724  12.542  25.597  1.00  0.00    -0.239 NA
HETATM   15  C29 UNL     1       6.611  12.136  26.647  1.00  0.00     0.105 C 
HETATM   16  C30 UNL     1       7.873  11.472  26.170  1.00  0.00     0.029 C 
BRANCH  14  17
HETATM   17  S1  UNL     1       4.840  11.269  24.918  1.00  0.00     0.126 SA
BRANCH  17  18
HETATM   18  N5  UNL     1       3.184  11.359  25.335  1.00  0.00    -0.072 N 
HETATM   19  O2  UNL     1       2.302  11.657  24.495  1.00  0.00    -0.525 OA
HETATM   20  O3  UNL     1       2.759  11.105  26.613  1.00  0.00    -0.525 OA
ENDBRANCH  17  18
BRANCH  17  21
HETATM   21  C28 UNL     1       5.081  10.988  23.208  1.00  0.00     0.471 C 
HETATM   22  F1  UNL     1       4.649  12.018  22.395  1.00  0.00    -0.159 F 
HETATM   23  F2  UNL     1       4.248   9.907  22.863  1.00  0.00    -0.159 F 
HETATM   24  F3  UNL     1       6.355  10.574  22.881  1.00  0.00    -0.159 F 
ENDBRANCH  17  21
ENDBRANCH  14  17
ENDBRANCH   8  11
ENDBRANCH   1   7
BRANCH   5  25
HETATM   25  N3  UNL     1      14.913  10.184  22.907  1.00  0.00    -0.354 N 
ATOM     26  H3  UNL     1      14.989   9.168  22.876  1.00  0.00     0.166 HD
BRANCH  25  27
HETATM   27  C13 UNL     1      15.542  10.873  21.835  1.00  0.00     0.033 A 
HETATM   28  C14 UNL     1      15.142  12.119  21.428  1.00  0.00     0.030 A 
HETATM   29  C15 UNL     1      15.827  12.724  20.400  1.00  0.00     0.010 A 
HETATM   30  C16 UNL     1      16.884  12.094  19.794  1.00  0.00    -0.052 A 
HETATM   31  C17 UNL     1      17.319  10.840  20.171  1.00  0.00    -0.050 A 
HETATM   32  C23 UNL     1      17.511  12.902  18.693  1.00  0.00     0.039 C 
HETATM   33  C18 UNL     1      16.611  10.265  21.203  1.00  0.00     0.037 A 
HETATM   34  C19 UNL     1      18.430   9.993  19.650  1.00  0.00     0.039 C 
HETATM   35  C20 UNL     1      19.546  10.890  19.097  1.00  0.00     0.005 C 
HETATM   36  C21 UNL     1      19.603  12.187  19.870  1.00  0.00     0.001 C 
HETATM   37  C22 UNL     1      18.878  13.309  19.202  1.00  0.00     0.005 C 
ENDBRANCH  25  27
ENDBRANCH   5  25
BRANCH   4  38
HETATM   38  N2  UNL     1      16.276  11.203  25.114  1.00  0.00    -0.383 N 
ATOM     39  H2  UNL     1      16.769  10.319  24.990  1.00  0.00     0.160 HD
BRANCH  38  40
HETATM   40  C6  UNL     1      17.016  12.445  25.335  1.00  0.00     0.081 C 
HETATM   41  C7  UNL     1      16.624  13.555  24.420  1.00  0.00     0.025 C 
HETATM   42  C8  UNL     1      17.809  14.057  23.590  1.00  0.00     0.002 C 
HETATM   43  C9  UNL     1      18.585  12.945  22.964  1.00  0.00     0.000 C 
HETATM   44  C10 UNL     1      18.871  11.790  23.873  1.00  0.00     0.002 C 
HETATM   45  C11 UNL     1      18.503  12.142  25.278  1.00  0.00     0.025 C 
ENDBRANCH  38  40
ENDBRANCH   4  38
TORSDOF 9
ENDMDL
MODEL 4
REMARK VINA RESULT: -6.395696926      7.700     11.347
REMARK  9 active torsions:
REMARK  status: ('A' for Active; 'I' for Inactive)
REMARK       I    between atoms: C1_2  and  N1_3 
REMARK    1  A    between atoms: C1_2  and  C25_32 
REMARK    2  A    between atoms: N1_3  and  C2_5 
REMARK    3  A    between atoms: C5_8  and  N2_9 
REMARK    4  A    between atoms: N2_9  and  C6_11 
REMARK    5  A    between atoms: C12_17  and  N3_18 
REMARK    6  A    between atoms: N3_18  and  C13_20 
REMARK    7  A    between atoms: N4_35  and  S1_36 
REMARK    8  A    between atoms: S1_36  and  N5_37 
REMARK    9  A    between atoms: S1_36  and  C28_40 
ROOT
HETATM    1  C2  UNL     1      13.111  11.579  23.731  1.00  0.00     0.037 A 
HETATM    2  C3  UNL     1      12.189  10.594  23.572  1.00  0.00     0.032 A 
HETATM    3  C4  UNL     1      11.053  10.541  24.386  1.00  0.00     0.034 A 
HETATM    4  C5  UNL     1      10.863  11.485  25.353  1.00  0.00     0.055 A 
HETATM    5  C12 UNL     1      11.772  12.514  25.560  1.00  0.00     0.061 A 
HETATM    6  C24 UNL     1      12.872  12.530  24.740  1.00  0.00     0.061 A 
ENDROOT
BRANCH   1   7
HETATM    7  N1  UNL     1      14.262  11.724  22.952  1.00  0.00    -0.327 N 
HETATM    8  C1  UNL     1      14.369  12.570  21.850  1.00  0.00     0.226 C 
HETATM    9  O1  UNL     1      13.461  13.305  21.426  1.00  0.00    -0.273 OA
ATOM     10  H1  UNL     1      15.081  11.173  23.208  1.00  0.00     0.169 HD
BRANCH   8  11
HETATM   11  C25 UNL     1      15.711  12.575  21.126  1.00  0.00     0.080 C 
HETATM   12  C26 UNL     1      16.096  11.123  20.993  1.00  0.00     0.029 C 
HETATM   13  C27 UNL     1      17.441  10.991  20.303  1.00  0.00     0.105 C 
HETATM   14  N4  UNL     1      18.379  11.951  20.775  1.00  0.00    -0.239 NA
HETATM   15  C29 UNL     1      18.002  12.604  21.994  1.00  0.00     0.105 C 
HETATM   16  C30 UNL     1      16.704  13.360  21.915  1.00  0.00     0.029 C 
BRANCH  14  17
HETATM   17  S1  UNL     1      19.020  12.998  19.610  1.00  0.00     0.126 SA
BRANCH  17  18
HETATM   18  N5  UNL     1      20.399  12.328  18.852  1.00  0.00    -0.072 N 
HETATM   19  O2  UNL     1      20.565  11.089  18.749  1.00  0.00    -0.525 OA
HETATM   20  O3  UNL     1      21.379  13.129  18.324  1.00  0.00    -0.525 OA
ENDBRANCH  17  18
BRANCH  17  21
HETATM   21  C28 UNL     1      17.883  13.660  18.458  1.00  0.00     0.471 C 
HETATM   22  F1  UNL     1      17.042  12.724  17.885  1.00  0.00    -0.159 F 
HETATM   23  F2  UNL     1      18.647  14.140  17.378  1.00  0.00    -0.159 F 
HETATM   24  F3  UNL     1      17.189  14.758  18.920  1.00  0.00    -0.159 F 
ENDBRANCH  17  21
ENDBRANCH  14  17
ENDBRANCH   8  11
ENDBRANCH   1   7
BRANCH   5  25
HETATM   25  N3  UNL     1      11.540  13.500  26.504  1.00  0.00    -0.354 N 
ATOM     26  H3  UNL     1      11.685  13.218  27.473  1.00  0.00     0.166 HD
BRANCH  25  27
HETATM   27  C13 UNL     1      11.128  14.847  26.318  1.00  0.00     0.033 A 
HETATM   28  C14 UNL     1      10.602  15.601  27.335  1.00  0.00     0.030 A 
HETATM   29  C15 UNL     1      10.257  16.906  27.072  1.00  0.00     0.010 A 
HETATM   30  C16 UNL     1      10.432  17.441  25.821  1.00  0.00    -0.052 A 
HETATM   31  C17 UNL     1      10.956  16.718  24.769  1.00  0.00    -0.050 A 
HETATM   32  C23 UNL     1      10.001  18.876  25.718  1.00  0.00     0.039 C 
HETATM   33  C18 UNL     1      11.291  15.416  25.069  1.00  0.00     0.037 A 
HETATM   34  C19 UNL     1      11.224  17.105  23.354  1.00  0.00     0.039 C 
HETATM   35  C20 UNL     1      11.529  18.607  23.280  1.00  0.00     0.005 C 
HETATM   36  C21 UNL     1      12.207  19.065  24.549  1.00  0.00     0.001 C 
HETATM   37  C22 UNL     1      11.270  19.681  25.536  1.00  0.00     0.005 C 
ENDBRANCH  25  27
ENDBRANCH   5  25
BRANCH   4  38
HETATM   38  N2  UNL     1       9.737  11.397  26.196  1.00  0.00    -0.383 N 
ATOM     39  H2  UNL     1       9.841  11.134  27.176  1.00  0.00     0.160 HD
BRANCH  38  40
HETATM   40  C6  UNL     1       8.417  11.690  25.638  1.00  0.00     0.081 C 
HETATM   41  C7  UNL     1       8.349  12.977  24.888  1.00  0.00     0.025 C 
HETATM   42  C8  UNL     1       7.312  13.932  25.484  1.00  0.00     0.002 C 
HETATM   43  C9  UNL     1       7.427  14.053  26.969  1.00  0.00     0.000 C 
HETATM   44  C10 UNL     1       7.607  12.754  27.691  1.00  0.00     0.002 C 
HETATM   45  C11 UNL     1       7.389  11.612  26.753  1.00  0.00     0.025 C 
ENDBRANCH  38  40
ENDBRANCH   4  38
TORSDOF 9
ENDMDL
MODEL 5
REMARK VINA RESULT: -6.375446409      2.014      3.227
REMARK  9 active torsions:
REMARK  status: ('A' for Active; 'I' for Inactive)
REMARK       I    between atoms: C1_2  and  N1_3 
REMARK    1  A    between atoms: C1_2  and  C25_32 
REMARK    2  A    between atoms: N1_3  and  C2_5 
REMARK    3  A    between atoms: C5_8  and  N2_9 
REMARK    4  A    between atoms: N2_9  and  C6_11 
REMARK    5  A    between atoms: C12_17  and  N3_18 
REMARK    6  A    between atoms: N3_18  and  C13_20 
REMARK    7  A    between atoms: N4_35  and  S1_36 
REMARK    8  A    between atoms: S1_36  and  N5_37 
REMARK    9  A    between atoms: S1_36  and  C28_40 
ROOT
HETATM    1  C2  UNL     1       9.598  11.056  25.290  1.00  0.00     0.037 A 
HETATM    2  C3  UNL     1       9.608  12.088  26.174  1.00  0.00     0.032 A 
HETATM    3  C4  UNL     1      10.813  12.689  26.555  1.00  0.00     0.034 A 
HETATM    4  C5  UNL     1      11.993  12.238  26.038  1.00  0.00     0.055 A 
HETATM    5  C12 UNL     1      12.041  11.188  25.132  1.00  0.00     0.061 A 
HETATM    6  C24 UNL     1      10.839  10.627  24.783  1.00  0.00     0.061 A 
ENDROOT
BRANCH   1   7
HETATM    7  N1  UNL     1       8.445  10.410  24.835  1.00  0.00    -0.327 N 
HETATM    8  C1  UNL     1       7.216  11.035  24.634  1.00  0.00     0.226 C 
HETATM    9  O1  UNL     1       6.991  12.242  24.827  1.00  0.00    -0.273 OA
ATOM     10  H1  UNL     1       8.507   9.412  24.635  1.00  0.00     0.169 HD
BRANCH   8  11
HETATM   11  C25 UNL     1       6.077  10.149  24.143  1.00  0.00     0.080 C 
HETATM   12  C26 UNL     1       5.747  10.655  22.761  1.00  0.00     0.029 C 
HETATM   13  C27 UNL     1       4.598   9.863  22.165  1.00  0.00     0.105 C 
HETATM   14  N4  UNL     1       3.567   9.621  23.115  1.00  0.00    -0.239 NA
HETATM   15  C29 UNL     1       3.648  10.424  24.300  1.00  0.00     0.105 C 
HETATM   16  C30 UNL     1       4.921  10.250  25.081  1.00  0.00     0.029 C 
BRANCH  14  17
HETATM   17  S1  UNL     1       3.201   7.996  23.415  1.00  0.00     0.126 SA
BRANCH  17  18
HETATM   18  N5  UNL     1       1.836   7.482  22.524  1.00  0.00    -0.072 N 
HETATM   19  O2  UNL     1       1.940   6.985  21.377  1.00  0.00    -0.525 OA
HETATM   20  O3  UNL     1       0.569   7.596  23.035  1.00  0.00    -0.525 OA
ENDBRANCH  17  18
BRANCH  17  21
HETATM   21  C28 UNL     1       4.535   6.870  23.298  1.00  0.00     0.471 C 
HETATM   22  F1  UNL     1       5.235   6.938  22.108  1.00  0.00    -0.159 F 
HETATM   23  F2  UNL     1       3.967   5.583  23.288  1.00  0.00    -0.159 F 
HETATM   24  F3  UNL     1       5.377   6.880  24.390  1.00  0.00    -0.159 F 
ENDBRANCH  17  21
ENDBRANCH  14  17
ENDBRANCH   8  11
ENDBRANCH   1   7
BRANCH   5  25
HETATM   25  N3  UNL     1      13.238  10.778  24.569  1.00  0.00    -0.354 N 
ATOM     26  H3  UNL     1      13.723  10.033  25.070  1.00  0.00     0.166 HD
BRANCH  25  27
HETATM   27  C13 UNL     1      13.889  11.244  23.395  1.00  0.00     0.033 A 
HETATM   28  C14 UNL     1      13.338  12.200  22.582  1.00  0.00     0.030 A 
HETATM   29  C15 UNL     1      14.052  12.613  21.480  1.00  0.00     0.010 A 
HETATM   30  C16 UNL     1      15.284  12.080  21.201  1.00  0.00    -0.052 A 
HETATM   31  C17 UNL     1      15.874  11.116  21.992  1.00  0.00    -0.050 A 
HETATM   32  C23 UNL     1      15.916  12.648  19.962  1.00  0.00     0.039 C 
HETATM   33  C18 UNL     1      15.132  10.727  23.086  1.00  0.00     0.037 A 
HETATM   34  C19 UNL     1      17.186  10.416  21.867  1.00  0.00     0.039 C 
HETATM   35  C20 UNL     1      18.193  11.333  21.161  1.00  0.00     0.005 C 
HETATM   36  C21 UNL     1      17.899  12.779  21.486  1.00  0.00     0.001 C 
HETATM   37  C22 UNL     1      17.094  13.473  20.436  1.00  0.00     0.005 C 
ENDBRANCH  25  27
ENDBRANCH   5  25
BRANCH   4  38
HETATM   38  N2  UNL     1      13.203  12.822  26.463  1.00  0.00    -0.383 N 
ATOM     39  H2  UNL     1      13.925  12.257  26.908  1.00  0.00     0.160 HD
BRANCH  38  40
HETATM   40  C6  UNL     1      13.402  14.256  26.253  1.00  0.00     0.081 C 
HETATM   41  C7  UNL     1      13.062  14.719  24.877  1.00  0.00     0.025 C 
HETATM   42  C8  UNL     1      14.261  15.369  24.180  1.00  0.00     0.002 C 
HETATM   43  C9  UNL     1      15.507  14.553  24.300  1.00  0.00     0.000 C 
HETATM   44  C10 UNL     1      15.769  14.005  25.668  1.00  0.00     0.002 C 
HETATM   45  C11 UNL     1      14.823  14.613  26.652  1.00  0.00     0.025 C 
ENDBRANCH  38  40
ENDBRANCH   4  38
TORSDOF 9
ENDMDL
