MODEL 1
REMARK VINA RESULT: -6.140835782      0.000      0.000
REMARK  10 active torsions:
REMARK  status: ('A' for Active; 'I' for Inactive)
REMARK    1  A    between atoms: C2_2  and  C3_3 
REMARK    2  A    between atoms: C3_3  and  O1_4 
REMARK    3  A    between atoms: O1_4  and  C4_5 
REMARK    4  A    between atoms: C5_6  and  C6_7 
REMARK    5  A    between atoms: C7_8  and  C8_9 
REMARK    6  A    between atoms: C23_25  and  O2_26 
REMARK    7  A    between atoms: C23_25  and  C24_28 
REMARK    8  A    between atoms: C24_28  and  O4_30 
REMARK    9  A    between atoms: C31_37  and  O5_38 
REMARK   10  A    between atoms: C33_40  and  O6_41 
ROOT
HETATM    1  C8  UNL     1       7.582  11.909  25.437  1.00  0.00     0.063 C 
HETATM    2 CL1  UNL     1       8.376  11.378  23.943  1.00  0.00    -0.114 Cl
HETATM    3  C9  UNL     1       6.495  11.007  25.888  1.00  0.00     0.009 C 
HETATM    4  C10 UNL     1       5.811  10.223  24.761  1.00  0.00     0.012 C 
HETATM    5  C11 UNL     1       5.441  11.596  26.764  1.00  0.00     0.007 C 
HETATM    6  C12 UNL     1       5.603  13.026  27.130  1.00  0.00     0.014 C 
HETATM    7  C13 UNL     1       6.181  13.928  26.098  1.00  0.00    -0.015 C 
HETATM    8  C14 UNL     1       7.033  14.965  26.869  1.00  0.00     0.020 C 
HETATM    9  C15 UNL     1       5.057  14.779  25.564  1.00  0.00    -0.070 C 
HETATM   10  C16 UNL     1       4.365  15.498  26.461  1.00  0.00    -0.022 C 
HETATM   11  C17 UNL     1       3.263  16.367  26.095  1.00  0.00     0.040 C 
HETATM   12  C18 UNL     1       2.448  15.970  24.898  1.00  0.00     0.004 C 
HETATM   13  C19 UNL     1       2.185  17.218  24.025  1.00  0.00     0.019 C 
HETATM   14  C20 UNL     1       3.108  14.904  24.108  1.00  0.00     0.006 C 
HETATM   15  C21 UNL     1       2.543  13.606  24.603  1.00  0.00     0.010 C 
HETATM   16  C22 UNL     1       1.562  13.972  25.707  1.00  0.00     0.050 C 
HETATM   17  C23 UNL     1       1.125  15.385  25.321  1.00  0.00     0.153 C 
HETATM   18  C26 UNL     1       4.639  14.898  24.183  1.00  0.00     0.020 C 
HETATM   19  C27 UNL     1       5.092  13.736  23.393  1.00  0.00     0.010 C 
HETATM   20  C28 UNL     1       6.460  13.256  23.684  1.00  0.00     0.009 C 
HETATM   21  C29 UNL     1       6.989  13.310  25.044  1.00  0.00     0.026 C 
ENDROOT
BRANCH   1  22
HETATM   22  C7  UNL     1       8.611  12.119  26.461  1.00  0.00     0.000 C 
HETATM   23  C6  UNL     1       9.781  12.632  26.554  1.00  0.00     0.012 C 
BRANCH  23  24
HETATM   24  C5  UNL     1      10.744  13.305  25.731  1.00  0.00     0.002 A 
HETATM   25  C4  UNL     1      12.028  12.751  25.603  1.00  0.00     0.103 A 
HETATM   26  C34 UNL     1      12.963  13.477  24.853  1.00  0.00     0.104 A 
HETATM   27  C33 UNL     1      12.644  14.672  24.272  1.00  0.00     0.123 A 
HETATM   28 CL2  UNL     1      14.576  12.815  24.657  1.00  0.00    -0.078 Cl
HETATM   29  C31 UNL     1      11.386  15.200  24.410  1.00  0.00     0.103 A 
HETATM   30  C30 UNL     1      10.443  14.519  25.135  1.00  0.00     0.054 A 
BRANCH  25  31
HETATM   31  O1  UNL     1      12.443  11.560  26.164  1.00  0.00    -0.348 OA
BRANCH  31  32
HETATM   32  C3  UNL     1      12.370  10.277  25.677  1.00  0.00     0.175 C 
BRANCH  32  33
HETATM   33  C2  UNL     1      11.601   9.959  24.461  1.00  0.00     0.022 C 
HETATM   34  C1  UNL     1      12.548   9.431  23.398  1.00  0.00     0.007 C 
ENDBRANCH  32  33
ENDBRANCH  31  32
ENDBRANCH  25  31
BRANCH  27  35
HETATM   35  O6  UNL     1      13.585  15.391  23.531  1.00  0.00    -0.356 OA
ATOM     36  H6  UNL     1      14.497  15.338  23.790  1.00  0.00     0.218 HD
ENDBRANCH  27  35
BRANCH  29  37
HETATM   37  O5  UNL     1      11.018  16.410  23.838  1.00  0.00    -0.353 OA
HETATM   38  C32 UNL     1      10.615  17.516  24.629  1.00  0.00     0.210 C 
ENDBRANCH  29  37
ENDBRANCH  23  24
ENDBRANCH   1  22
BRANCH  17  39
HETATM   39  O2  UNL     1       0.563  16.025  26.429  1.00  0.00    -0.379 OA
ATOM     40  H2  UNL     1      -0.344  15.787  26.584  1.00  0.00     0.211 HD
ENDBRANCH  17  39
BRANCH  17  41
HETATM   41  C24 UNL     1       0.186  15.251  24.214  1.00  0.00     0.294 C 
HETATM   42  O3  UNL     1      -0.457  16.287  23.771  1.00  0.00    -0.262 OA
BRANCH  41  43
HETATM   43  O4  UNL     1      -0.130  14.093  23.531  1.00  0.00    -0.324 OA
HETATM   44  C25 UNL     1      -1.414  13.533  23.489  1.00  0.00     0.213 C 
ENDBRANCH  41  43
ENDBRANCH  17  41
TORSDOF 10
ENDMDL
MODEL 2
REMARK VINA RESULT: -5.965715358      1.183      1.404
REMARK  10 active torsions:
REMARK  status: ('A' for Active; 'I' for Inactive)
REMARK    1  A    between atoms: C2_2  and  C3_3 
REMARK    2  A    between atoms: C3_3  and  O1_4 
REMARK    3  A    between atoms: O1_4  and  C4_5 
REMARK    4  A    between atoms: C5_6  and  C6_7 
REMARK    5  A    between atoms: C7_8  and  C8_9 
REMARK    6  A    between atoms: C23_25  and  O2_26 
REMARK    7  A    between atoms: C23_25  and  C24_28 
REMARK    8  A    between atoms: C24_28  and  O4_30 
REMARK    9  A    between atoms: C31_37  and  O5_38 
REMARK   10  A    between atoms: C33_40  and  O6_41 
ROOT
HETATM    1  C8  UNL     1       6.813  11.403  24.799  1.00  0.00     0.063 C 
HETATM    2 CL1  UNL     1       7.481  10.952  23.219  1.00  0.00    -0.114 Cl
HETATM    3  C9  UNL     1       5.633  10.599  25.199  1.00  0.00     0.009 C 
HETATM    4  C10 UNL     1       4.815  10.043  24.026  1.00  0.00     0.012 C 
HETATM    5  C11 UNL     1       4.695  11.211  26.184  1.00  0.00     0.007 C 
HETATM    6  C12 UNL     1       5.054  12.557  26.697  1.00  0.00     0.014 C 
HETATM    7  C13 UNL     1       5.710  13.492  25.745  1.00  0.00    -0.015 C 
HETATM    8  C14 UNL     1       6.716  14.318  26.583  1.00  0.00     0.020 C 
HETATM    9  C15 UNL     1       4.690  14.534  25.362  1.00  0.00    -0.070 C 
HETATM   10  C16 UNL     1       4.129  15.226  26.364  1.00  0.00    -0.022 C 
HETATM   11  C17 UNL     1       3.138  16.264  26.149  1.00  0.00     0.040 C 
HETATM   12  C18 UNL     1       2.239  16.113  24.956  1.00  0.00     0.004 C 
HETATM   13  C19 UNL     1       2.113  17.477  24.239  1.00  0.00     0.019 C 
HETATM   14  C20 UNL     1       2.727  15.071  24.022  1.00  0.00     0.006 C 
HETATM   15  C21 UNL     1       2.014  13.807  24.398  1.00  0.00     0.010 C 
HETATM   16  C22 UNL     1       1.127  14.163  25.581  1.00  0.00     0.050 C 
HETATM   17  C23 UNL     1       0.865  15.655  25.375  1.00  0.00     0.153 C 
HETATM   18  C26 UNL     1       4.246  14.863  24.024  1.00  0.00     0.020 C 
HETATM   19  C27 UNL     1       4.517  13.752  23.090  1.00  0.00     0.010 C 
HETATM   20  C28 UNL     1       5.819  13.073  23.260  1.00  0.00     0.009 C 
HETATM   21  C29 UNL     1       6.395  12.903  24.592  1.00  0.00     0.026 C 
ENDROOT
BRANCH   1  22
HETATM   22  C7  UNL     1       7.894  11.361  25.790  1.00  0.00     0.000 C 
HETATM   23  C6  UNL     1       9.047  11.888  25.974  1.00  0.00     0.012 C 
BRANCH  23  24
HETATM   24  C5  UNL     1       9.932  12.822  25.339  1.00  0.00     0.002 A 
HETATM   25  C4  UNL     1      10.732  12.378  24.275  1.00  0.00     0.103 A 
HETATM   26  C34 UNL     1      11.638  13.299  23.732  1.00  0.00     0.104 A 
HETATM   27  C33 UNL     1      11.743  14.573  24.214  1.00  0.00     0.123 A 
HETATM   28 CL2  UNL     1      12.649  12.789  22.391  1.00  0.00    -0.078 Cl
HETATM   29  C31 UNL     1      10.955  14.989  25.258  1.00  0.00     0.103 A 
HETATM   30  C30 UNL     1      10.056  14.117  25.815  1.00  0.00     0.054 A 
BRANCH  25  31
HETATM   31  O1  UNL     1      10.706  11.109  23.731  1.00  0.00    -0.348 OA
BRANCH  31  32
HETATM   32  C3  UNL     1      11.294   9.946  24.162  1.00  0.00     0.175 C 
BRANCH  32  33
HETATM   33  C2  UNL     1      12.574   9.478  23.603  1.00  0.00     0.022 C 
HETATM   34  C1  UNL     1      13.715  10.021  24.445  1.00  0.00     0.007 C 
ENDBRANCH  32  33
ENDBRANCH  31  32
ENDBRANCH  25  31
BRANCH  27  35
HETATM   35  O6  UNL     1      12.653  15.482  23.670  1.00  0.00    -0.356 OA
ATOM     36  H6  UNL     1      13.046  15.277  22.831  1.00  0.00     0.218 HD
ENDBRANCH  27  35
BRANCH  29  37
HETATM   37  O5  UNL     1      11.026  16.273  25.781  1.00  0.00    -0.353 OA
HETATM   38  C32 UNL     1       9.961  17.198  25.634  1.00  0.00     0.210 C 
ENDBRANCH  29  37
ENDBRANCH  23  24
ENDBRANCH   1  22
BRANCH  17  39
HETATM   39  O2  UNL     1       0.429  16.229  26.572  1.00  0.00    -0.379 OA
ATOM     40  H2  UNL     1      -0.138  16.981  26.445  1.00  0.00     0.211 HD
ENDBRANCH  17  39
BRANCH  17  41
HETATM   41  C24 UNL     1      -0.119  15.770  24.306  1.00  0.00     0.294 C 
HETATM   42  O3  UNL     1      -0.771  14.725  23.898  1.00  0.00    -0.262 OA
BRANCH  41  43
HETATM   43  O4  UNL     1      -0.473  16.919  23.626  1.00  0.00    -0.324 OA
HETATM   44  C25 UNL     1      -1.785  17.235  23.251  1.00  0.00     0.213 C 
ENDBRANCH  41  43
ENDBRANCH  17  41
TORSDOF 10
ENDMDL
MODEL 3
REMARK VINA RESULT: -5.858601174      3.225      5.425
REMARK  10 active torsions:
REMARK  status: ('A' for Active; 'I' for Inactive)
REMARK    1  A    between atoms: C2_2  and  C3_3 
REMARK    2  A    between atoms: C3_3  and  O1_4 
REMARK    3  A    between atoms: O1_4  and  C4_5 
REMARK    4  A    between atoms: C5_6  and  C6_7 
REMARK    5  A    between atoms: C7_8  and  C8_9 
REMARK    6  A    between atoms: C23_25  and  O2_26 
REMARK    7  A    between atoms: C23_25  and  C24_28 
REMARK    8  A    between atoms: C24_28  and  O4_30 
REMARK    9  A    between atoms: C31_37  and  O5_38 
REMARK   10  A    between atoms: C33_40  and  O6_41 
ROOT
HETATM    1  C8  UNL     1       9.769  13.343  27.618  1.00  0.00     0.063 C 
HETATM    2 CL1  UNL     1      11.414  12.708  27.434  1.00  0.00    -0.114 Cl
HETATM    3  C9  UNL     1       8.902  12.512  28.488  1.00  0.00     0.009 C 
HETATM    4  C10 UNL     1       9.278  11.025  28.527  1.00  0.00     0.012 C 
HETATM    5  C11 UNL     1       7.428  12.623  28.286  1.00  0.00     0.007 C 
HETATM    6  C12 UNL     1       6.968  13.586  27.253  1.00  0.00     0.014 C 
HETATM    7  C13 UNL     1       7.812  13.727  26.036  1.00  0.00    -0.015 C 
HETATM    8  C14 UNL     1       7.718  15.216  25.623  1.00  0.00     0.020 C 
HETATM    9  C15 UNL     1       7.089  13.041  24.906  1.00  0.00    -0.070 C 
HETATM   10  C16 UNL     1       5.842  13.459  24.645  1.00  0.00    -0.022 C 
HETATM   11  C17 UNL     1       5.026  12.898  23.583  1.00  0.00     0.040 C 
HETATM   12  C18 UNL     1       5.252  11.454  23.239  1.00  0.00     0.004 C 
HETATM   13  C19 UNL     1       5.283  11.297  21.702  1.00  0.00     0.019 C 
HETATM   14  C20 UNL     1       6.496  10.927  23.847  1.00  0.00     0.006 C 
HETATM   15  C21 UNL     1       6.091  10.290  25.143  1.00  0.00     0.010 C 
HETATM   16  C22 UNL     1       4.587  10.490  25.254  1.00  0.00     0.050 C 
HETATM   17  C23 UNL     1       4.147  10.592  23.794  1.00  0.00     0.153 C 
HETATM   18  C26 UNL     1       7.597  11.971  24.073  1.00  0.00     0.020 C 
HETATM   19  C27 UNL     1       8.710  11.267  24.740  1.00  0.00     0.010 C 
HETATM   20  C28 UNL     1       9.674  12.127  25.460  1.00  0.00     0.009 C 
HETATM   21  C29 UNL     1       9.219  13.333  26.146  1.00  0.00     0.026 C 
ENDROOT
BRANCH   1  22
HETATM   22  C7  UNL     1       9.856  14.737  28.065  1.00  0.00     0.000 C 
HETATM   23  C6  UNL     1      10.355  15.845  27.659  1.00  0.00     0.012 C 
BRANCH  23  24
HETATM   24  C5  UNL     1      11.092  16.364  26.543  1.00  0.00     0.002 A 
HETATM   25  C4  UNL     1      11.088  17.748  26.315  1.00  0.00     0.103 A 
HETATM   26  C34 UNL     1      11.757  18.208  25.172  1.00  0.00     0.104 A 
HETATM   27  C33 UNL     1      12.383  17.350  24.314  1.00  0.00     0.123 A 
HETATM   28 CL2  UNL     1      11.787  19.935  24.856  1.00  0.00    -0.078 Cl
HETATM   29  C31 UNL     1      12.374  15.999  24.550  1.00  0.00     0.103 A 
HETATM   30  C30 UNL     1      11.733  15.511  25.658  1.00  0.00     0.054 A 
BRANCH  25  31
HETATM   31  O1  UNL     1      10.473  18.688  27.118  1.00  0.00    -0.348 OA
BRANCH  31  32
HETATM   32  C3  UNL     1       9.190  19.178  27.087  1.00  0.00     0.175 C 
BRANCH  32  33
HETATM   33  C2  UNL     1       8.304  19.088  28.262  1.00  0.00     0.022 C 
HETATM   34  C1  UNL     1       7.308  17.963  28.050  1.00  0.00     0.007 C 
ENDBRANCH  32  33
ENDBRANCH  31  32
ENDBRANCH  25  31
BRANCH  27  35
HETATM   35  O6  UNL     1      13.042  17.817  23.173  1.00  0.00    -0.356 OA
ATOM     36  H6  UNL     1      12.848  17.403  22.341  1.00  0.00     0.218 HD
ENDBRANCH  27  35
BRANCH  29  37
HETATM   37  O5  UNL     1      12.997  15.090  23.706  1.00  0.00    -0.353 OA
HETATM   38  C32 UNL     1      12.598  13.730  23.650  1.00  0.00     0.210 C 
ENDBRANCH  29  37
ENDBRANCH  23  24
ENDBRANCH   1  22
BRANCH  17  39
HETATM   39  O2  UNL     1       2.885  11.190  23.720  1.00  0.00    -0.379 OA
ATOM     40  H2  UNL     1       2.908  12.133  23.831  1.00  0.00     0.211 HD
ENDBRANCH  17  39
BRANCH  17  41
HETATM   41  C24 UNL     1       4.159   9.239  23.252  1.00  0.00     0.294 C 
HETATM   42  O3  UNL     1       3.747   9.013  22.043  1.00  0.00    -0.262 OA
BRANCH  41  43
HETATM   43  O4  UNL     1       4.578   8.092  23.897  1.00  0.00    -0.324 OA
HETATM   44  C25 UNL     1       4.144   6.802  23.564  1.00  0.00     0.213 C 
ENDBRANCH  41  43
ENDBRANCH  17  41
TORSDOF 10
ENDMDL
MODEL 4
REMARK VINA RESULT: -5.856302257      3.200      5.818
REMARK  10 active torsions:
REMARK  status: ('A' for Active; 'I' for Inactive)
REMARK    1  A    between atoms: C2_2  and  C3_3 
REMARK    2  A    between atoms: C3_3  and  O1_4 
REMARK    3  A    between atoms: O1_4  and  C4_5 
REMARK    4  A    between atoms: C5_6  and  C6_7 
REMARK    5  A    between atoms: C7_8  and  C8_9 
REMARK    6  A    between atoms: C23_25  and  O2_26 
REMARK    7  A    between atoms: C23_25  and  C24_28 
REMARK    8  A    between atoms: C24_28  and  O4_30 
REMARK    9  A    between atoms: C31_37  and  O5_38 
REMARK   10  A    between atoms: C33_40  and  O6_41 
ROOT
HETATM    1  C8  UNL     1      10.461  12.791  27.870  1.00  0.00     0.063 C 
HETATM    2 CL1  UNL     1      10.197  12.530  29.604  1.00  0.00    -0.114 Cl
HETATM    3  C9  UNL     1      10.122  14.161  27.414  1.00  0.00     0.009 C 
HETATM    4  C10 UNL     1       9.047  14.863  28.254  1.00  0.00     0.012 C 
HETATM    5  C11 UNL     1       9.786  14.335  25.971  1.00  0.00     0.007 C 
HETATM    6  C12 UNL     1       9.858  13.121  25.120  1.00  0.00     0.014 C 
HETATM    7  C13 UNL     1       9.446  11.833  25.742  1.00  0.00    -0.015 C 
HETATM    8  C14 UNL     1      10.367  10.751  25.128  1.00  0.00     0.020 C 
HETATM    9  C15 UNL     1       8.102  11.465  25.166  1.00  0.00    -0.070 C 
HETATM   10  C16 UNL     1       8.022  11.372  23.831  1.00  0.00    -0.022 C 
HETATM   11  C17 UNL     1       6.798  11.019  23.136  1.00  0.00     0.040 C 
HETATM   12  C18 UNL     1       5.505  11.428  23.781  1.00  0.00     0.004 C 
HETATM   13  C19 UNL     1       4.504  10.254  23.701  1.00  0.00     0.019 C 
HETATM   14  C20 UNL     1       5.698  11.861  25.185  1.00  0.00     0.006 C 
HETATM   15  C21 UNL     1       5.854  13.352  25.144  1.00  0.00     0.010 C 
HETATM   16  C22 UNL     1       5.761  13.742  23.677  1.00  0.00     0.050 C 
HETATM   17  C23 UNL     1       4.911  12.623  23.079  1.00  0.00     0.153 C 
HETATM   18  C26 UNL     1       6.884  11.208  25.905  1.00  0.00     0.020 C 
HETATM   19  C27 UNL     1       6.943  11.815  27.249  1.00  0.00     0.010 C 
HETATM   20  C28 UNL     1       8.239  11.695  27.951  1.00  0.00     0.009 C 
HETATM   21  C29 UNL     1       9.492  11.749  27.203  1.00  0.00     0.026 C 
ENDROOT
BRANCH   1  22
HETATM   22  C7  UNL     1      11.839  12.407  27.546  1.00  0.00     0.000 C 
HETATM   23  C6  UNL     1      12.648  11.444  27.788  1.00  0.00     0.012 C 
BRANCH  23  24
HETATM   24  C5  UNL     1      12.674  10.193  28.489  1.00  0.00     0.002 A 
HETATM   25  C4  UNL     1      13.711   9.287  28.216  1.00  0.00     0.103 A 
HETATM   26  C34 UNL     1      13.659   8.045  28.865  1.00  0.00     0.104 A 
HETATM   27  C33 UNL     1      12.644   7.725  29.722  1.00  0.00     0.123 A 
HETATM   28 CL2  UNL     1      14.942   6.887  28.563  1.00  0.00    -0.078 Cl
HETATM   29  C31 UNL     1      11.637   8.622  29.974  1.00  0.00     0.103 A 
HETATM   30  C30 UNL     1      11.654   9.847  29.360  1.00  0.00     0.054 A 
BRANCH  25  31
HETATM   31  O1  UNL     1      14.767   9.516  27.357  1.00  0.00    -0.348 OA
BRANCH  31  32
HETATM   32  C3  UNL     1      14.892   9.254  26.015  1.00  0.00     0.175 C 
BRANCH  32  33
HETATM   33  C2  UNL     1      13.722   9.249  25.120  1.00  0.00     0.022 C 
HETATM   34  C1  UNL     1      13.859  10.379  24.116  1.00  0.00     0.007 C 
ENDBRANCH  32  33
ENDBRANCH  31  32
ENDBRANCH  25  31
BRANCH  27  35
HETATM   35  O6  UNL     1      12.597   6.483  30.359  1.00  0.00    -0.356 OA
ATOM     36  H6  UNL     1      13.396   5.972  30.407  1.00  0.00     0.218 HD
ENDBRANCH  27  35
BRANCH  29  37
HETATM   37  O5  UNL     1      10.587   8.341  30.837  1.00  0.00    -0.353 OA
HETATM   38  C32 UNL     1       9.366   9.062  30.785  1.00  0.00     0.210 C 
ENDBRANCH  29  37
ENDBRANCH  23  24
ENDBRANCH   1  22
BRANCH  17  39
HETATM   39  O2  UNL     1       5.077  12.591  21.691  1.00  0.00    -0.379 OA
ATOM     40  H2  UNL     1       4.345  12.964  21.214  1.00  0.00     0.211 HD
ENDBRANCH  17  39
BRANCH  17  41
HETATM   41  C24 UNL     1       3.531  12.881  23.472  1.00  0.00     0.294 C 
HETATM   42  O3  UNL     1       2.924  13.954  23.070  1.00  0.00    -0.262 OA
BRANCH  41  43
HETATM   43  O4  UNL     1       2.733  12.081  24.268  1.00  0.00    -0.324 OA
HETATM   44  C25 UNL     1       2.009  12.548  25.372  1.00  0.00     0.213 C 
ENDBRANCH  41  43
ENDBRANCH  17  41
TORSDOF 10
ENDMDL
MODEL 5
REMARK VINA RESULT: -5.754921082      1.292      3.081
REMARK  10 active torsions:
REMARK  status: ('A' for Active; 'I' for Inactive)
REMARK    1  A    between atoms: C2_2  and  C3_3 
REMARK    2  A    between atoms: C3_3  and  O1_4 
REMARK    3  A    between atoms: O1_4  and  C4_5 
REMARK    4  A    between atoms: C5_6  and  C6_7 
REMARK    5  A    between atoms: C7_8  and  C8_9 
REMARK    6  A    between atoms: C23_25  and  O2_26 
REMARK    7  A    between atoms: C23_25  and  C24_28 
REMARK    8  A    between atoms: C24_28  and  O4_30 
REMARK    9  A    between atoms: C31_37  and  O5_38 
REMARK   10  A    between atoms: C33_40  and  O6_41 
ROOT
HETATM    1  C8  UNL     1       7.737  11.910  25.230  1.00  0.00     0.063 C 
HETATM    2 CL1  UNL     1       8.414  11.254  23.728  1.00  0.00    -0.114 Cl
HETATM    3  C9  UNL     1       6.688  11.055  25.835  1.00  0.00     0.009 C 
HETATM    4  C10 UNL     1       5.919  10.185  24.833  1.00  0.00     0.012 C 
HETATM    5  C11 UNL     1       5.705  11.720  26.739  1.00  0.00     0.007 C 
HETATM    6  C12 UNL     1       5.894  13.174  26.973  1.00  0.00     0.014 C 
HETATM    7  C13 UNL     1       6.391  13.985  25.829  1.00  0.00    -0.015 C 
HETATM    8  C14 UNL     1       7.300  15.076  26.444  1.00  0.00     0.020 C 
HETATM    9  C15 UNL     1       5.229  14.796  25.316  1.00  0.00    -0.070 C 
HETATM   10  C16 UNL     1       4.609  15.590  26.201  1.00  0.00    -0.022 C 
HETATM   11  C17 UNL     1       3.481  16.434  25.851  1.00  0.00     0.040 C 
HETATM   12  C18 UNL     1       2.576  15.945  24.757  1.00  0.00     0.004 C 
HETATM   13  C19 UNL     1       2.246  17.119  23.808  1.00  0.00     0.019 C 
HETATM   14  C20 UNL     1       3.173  14.814  24.008  1.00  0.00     0.006 C 
HETATM   15  C21 UNL     1       2.648  13.565  24.650  1.00  0.00     0.010 C 
HETATM   16  C22 UNL     1       1.756  14.025  25.793  1.00  0.00     0.050 C 
HETATM   17  C23 UNL     1       1.289  15.404  25.327  1.00  0.00     0.153 C 
HETATM   18  C26 UNL     1       4.705  14.804  23.966  1.00  0.00     0.020 C 
HETATM   19  C27 UNL     1       5.096  13.579  23.241  1.00  0.00     0.010 C 
HETATM   20  C28 UNL     1       6.483  13.116  23.464  1.00  0.00     0.009 C 
HETATM   21  C29 UNL     1       7.115  13.278  24.770  1.00  0.00     0.026 C 
ENDROOT
BRANCH   1  22
HETATM   22  C7  UNL     1       8.842  12.196  26.151  1.00  0.00     0.000 C 
HETATM   23  C6  UNL     1      10.118  12.081  26.184  1.00  0.00     0.012 C 
BRANCH  23  24
HETATM   24  C5  UNL     1      11.192  11.628  25.349  1.00  0.00     0.002 A 
HETATM   25  C4  UNL     1      11.532  12.383  24.216  1.00  0.00     0.103 A 
HETATM   26  C34 UNL     1      12.536  11.868  23.384  1.00  0.00     0.104 A 
HETATM   27  C33 UNL     1      13.157  10.682  23.659  1.00  0.00     0.123 A 
HETATM   28 CL2  UNL     1      13.000  12.787  21.963  1.00  0.00    -0.078 Cl
HETATM   29  C31 UNL     1      12.810   9.956  24.769  1.00  0.00     0.103 A 
HETATM   30  C30 UNL     1      11.834  10.427  25.608  1.00  0.00     0.054 A 
BRANCH  25  31
HETATM   31  O1  UNL     1      10.952  13.582  23.852  1.00  0.00    -0.348 OA
BRANCH  31  32
HETATM   32  C3  UNL     1      11.333  14.872  24.129  1.00  0.00     0.175 C 
BRANCH  32  33
HETATM   33  C2  UNL     1      10.516  15.747  24.988  1.00  0.00     0.022 C 
HETATM   34  C1  UNL     1      11.031  15.667  26.413  1.00  0.00     0.007 C 
ENDBRANCH  32  33
ENDBRANCH  31  32
ENDBRANCH  25  31
BRANCH  27  35
HETATM   35  O6  UNL     1      14.152  10.174  22.821  1.00  0.00    -0.356 OA
ATOM     36  H6  UNL     1      14.813   9.608  23.200  1.00  0.00     0.218 HD
ENDBRANCH  27  35
BRANCH  29  37
HETATM   37  O5  UNL     1      13.414   8.747  25.088  1.00  0.00    -0.353 OA
HETATM   38  C32 UNL     1      13.989   8.515  26.364  1.00  0.00     0.210 C 
ENDBRANCH  29  37
ENDBRANCH  23  24
ENDBRANCH   1  22
BRANCH  17  39
HETATM   39  O2  UNL     1       0.815  16.137  26.419  1.00  0.00    -0.379 OA
ATOM     40  H2  UNL     1       0.366  16.937  26.170  1.00  0.00     0.211 HD
ENDBRANCH  17  39
BRANCH  17  41
HETATM   41  C24 UNL     1       0.268  15.187  24.311  1.00  0.00     0.294 C 
HETATM   42  O3  UNL     1      -0.488  16.166  23.920  1.00  0.00    -0.262 OA
BRANCH  41  43
HETATM   43  O4  UNL     1      -0.020  13.999  23.667  1.00  0.00    -0.324 OA
HETATM   44  C25 UNL     1      -1.270  13.367  23.710  1.00  0.00     0.213 C 
ENDBRANCH  41  43
ENDBRANCH  17  41
TORSDOF 10
ENDMDL
