MODEL 1
REMARK VINA RESULT: -7.256998540      0.000      0.000
REMARK  11 active torsions:
REMARK  status: ('A' for Active; 'I' for Inactive)
REMARK    1  A    between atoms: C2_2  and  C3_3 
REMARK    2  A    between atoms: C3_3  and  C4_4 
REMARK    3  A    between atoms: C4_4  and  C5_5 
REMARK    4  A    between atoms: C12_16  and  N2_17 
REMARK    5  A    between atoms: N2_17  and  C13_19 
REMARK    6  A    between atoms: C16_22  and  O1_23 
REMARK    7  A    between atoms: O1_23  and  C17_24 
REMARK    8  A    between atoms: C17_24  and  C18_25 
REMARK    9  A    between atoms: C21_28  and  N3_29 
REMARK   10  A    between atoms: C25_33  and  C26_34 
REMARK   11  A    between atoms: C26_34  and  N4_35 
ROOT
HETATM    1  C13 UNL     1       4.715  10.813  23.369  1.00  0.00     0.082 C 
HETATM    2  C14 UNL     1       5.173   9.863  24.436  1.00  0.00     0.027 C 
HETATM    3  C15 UNL     1       4.450   8.537  24.337  1.00  0.00     0.034 C 
HETATM    4  C16 UNL     1       4.278   8.076  22.901  1.00  0.00     0.122 C 
HETATM    5  C31 UNL     1       5.308   8.810  22.071  1.00  0.00     0.034 C 
HETATM    6  C32 UNL     1       4.954  10.268  21.977  1.00  0.00     0.027 C 
ENDROOT
BRANCH   4   7
HETATM    7  O1  UNL     1       2.991   8.348  22.542  1.00  0.00    -0.381 OA
BRANCH   7   8
HETATM    8  C17 UNL     1       2.032   7.651  23.248  1.00  0.00     0.214 C 
BRANCH   8   9
HETATM    9  C18 UNL     1       2.007   6.239  22.718  1.00  0.00     0.009 A 
HETATM   10  C19 UNL     1       1.005   5.614  22.023  1.00  0.00     0.033 A 
HETATM   11  C20 UNL     1       1.212   4.340  21.648  1.00  0.00     0.025 A 
HETATM   12  C21 UNL     1       0.340   3.502  20.936  1.00  0.00     0.044 A 
HETATM   13  C30 UNL     1       2.404   3.773  21.991  1.00  0.00     0.086 A 
HETATM   14  C28 UNL     1       0.728   2.215  20.640  1.00  0.00     0.047 A 
HETATM   15  C29 UNL     1       1.939   1.662  20.997  1.00  0.00     0.091 A 
HETATM   16  N5  UNL     1       2.759   2.487  21.681  1.00  0.00    -0.359 N 
ATOM     17  H5  UNL     1       3.672   2.142  21.976  1.00  0.00     0.166 HD
HETATM   18  S1  UNL     1       3.205   5.029  22.825  1.00  0.00    -0.074 SA
BRANCH  12  19
HETATM   19  N3  UNL     1      -0.963   3.945  20.500  1.00  0.00    -0.380 N 
HETATM   20  C22 UNL     1      -2.043   4.231  21.399  1.00  0.00     0.123 C 
HETATM   21  C23 UNL     1      -2.867   5.390  20.959  1.00  0.00     0.020 C 
HETATM   22  C24 UNL     1      -2.483   6.006  19.657  1.00  0.00     0.009 C 
HETATM   23  C25 UNL     1      -2.313   4.888  18.649  1.00  0.00     0.029 C 
HETATM   24  C27 UNL     1      -1.148   4.073  19.079  1.00  0.00     0.129 C 
BRANCH  23  25
HETATM   25  C26 UNL     1      -2.088   5.391  17.249  1.00  0.00     0.235 C 
BRANCH  25  26
HETATM   26  N4  UNL     1      -1.733   4.242  16.433  1.00  0.00    -0.079 N 
ATOM     27  H43 UNL     1      -0.738   4.019  16.470  1.00  0.00     0.274 HD
ATOM     28  H42 UNL     1      -2.080   3.361  16.811  1.00  0.00     0.274 HD
ATOM     29  H41 UNL     1      -2.066   4.430  15.488  1.00  0.00     0.274 HD
ENDBRANCH  25  26
ENDBRANCH  23  25
ENDBRANCH  12  19
ENDBRANCH   8   9
ENDBRANCH   7   8
ENDBRANCH   4   7
BRANCH   1  30
HETATM   30  N2  UNL     1       5.209  12.138  23.577  1.00  0.00    -0.384 N 
ATOM     31  H2  UNL     1       6.099  12.347  23.124  1.00  0.00     0.160 HD
BRANCH  30  32
HETATM   32  C12 UNL     1       4.647  13.199  24.318  1.00  0.00     0.043 A 
HETATM   33  C11 UNL     1       3.251  13.378  24.185  1.00  0.00     0.047 A 
HETATM   34  C10 UNL     1       2.633  14.516  24.654  1.00  0.00     0.090 A 
HETATM   35  N1  UNL     1       3.326  15.476  25.244  1.00  0.00    -0.365 N 
HETATM   36  C9  UNL     1       4.647  15.344  25.393  1.00  0.00     0.047 A 
ATOM     37  H1  UNL     1       2.853  16.314  25.583  1.00  0.00     0.165 HD
HETATM   38  C8  UNL     1       5.351  16.346  26.053  1.00  0.00     0.056 A 
HETATM   39  C33 UNL     1       5.337  14.203  24.943  1.00  0.00     0.037 A 
HETATM   40  C7  UNL     1       6.694  16.252  26.278  1.00  0.00     0.059 A 
HETATM   41  C6  UNL     1       7.328  15.122  25.828  1.00  0.00     0.075 A 
HETATM   42 CL2  UNL     1       7.527  17.538  27.105  1.00  0.00    -0.082 Cl
HETATM   43  C5  UNL     1       6.678  14.078  25.161  1.00  0.00     0.056 A 
HETATM   44 CL1  UNL     1       9.060  14.949  26.087  1.00  0.00    -0.081 Cl
BRANCH  43  45
HETATM   45  C4  UNL     1       7.416  12.871  24.918  1.00  0.00    -0.064 C 
BRANCH  45  46
HETATM   46  C3  UNL     1       8.114  11.865  24.740  1.00  0.00    -0.101 C 
BRANCH  46  47
HETATM   47  C2  UNL     1       8.957  10.688  24.539  1.00  0.00     0.090 C 
HETATM   48  C1  UNL     1      10.192  11.141  23.788  1.00  0.00     0.018 C 
ENDBRANCH  46  47
ENDBRANCH  45  46
ENDBRANCH  43  45
ENDBRANCH  30  32
ENDBRANCH   1  30
TORSDOF 11
ENDMDL
MODEL 2
REMARK VINA RESULT: -6.804545731      1.919      3.501
REMARK  11 active torsions:
REMARK  status: ('A' for Active; 'I' for Inactive)
REMARK    1  A    between atoms: C2_2  and  C3_3 
REMARK    2  A    between atoms: C3_3  and  C4_4 
REMARK    3  A    between atoms: C4_4  and  C5_5 
REMARK    4  A    between atoms: C12_16  and  N2_17 
REMARK    5  A    between atoms: N2_17  and  C13_19 
REMARK    6  A    between atoms: C16_22  and  O1_23 
REMARK    7  A    between atoms: O1_23  and  C17_24 
REMARK    8  A    between atoms: C17_24  and  C18_25 
REMARK    9  A    between atoms: C21_28  and  N3_29 
REMARK   10  A    between atoms: C25_33  and  C26_34 
REMARK   11  A    between atoms: C26_34  and  N4_35 
ROOT
HETATM    1  C13 UNL     1       5.118  11.025  23.439  1.00  0.00     0.082 C 
HETATM    2  C14 UNL     1       5.735   9.935  24.266  1.00  0.00     0.027 C 
HETATM    3  C15 UNL     1       4.956   8.644  24.140  1.00  0.00     0.034 C 
HETATM    4  C16 UNL     1       4.494   8.380  22.719  1.00  0.00     0.122 C 
HETATM    5  C31 UNL     1       5.374   9.205  21.805  1.00  0.00     0.034 C 
HETATM    6  C32 UNL     1       5.065  10.668  21.969  1.00  0.00     0.027 C 
ENDROOT
BRANCH   4   7
HETATM    7  O1  UNL     1       3.174   8.714  22.656  1.00  0.00    -0.381 OA
BRANCH   7   8
HETATM    8  C17 UNL     1       2.480   8.564  23.839  1.00  0.00     0.214 C 
BRANCH   8   9
HETATM    9  C18 UNL     1       1.247   7.745  23.546  1.00  0.00     0.009 A 
HETATM   10  C19 UNL     1       1.179   6.461  23.072  1.00  0.00     0.033 A 
HETATM   11  C20 UNL     1      -0.044   5.932  22.888  1.00  0.00     0.025 A 
HETATM   12  C21 UNL     1      -0.362   4.649  22.417  1.00  0.00     0.044 A 
HETATM   13  C30 UNL     1      -1.117   6.718  23.190  1.00  0.00     0.086 A 
HETATM   14  C28 UNL     1      -1.683   4.281  22.293  1.00  0.00     0.047 A 
HETATM   15  C29 UNL     1      -2.753   5.093  22.604  1.00  0.00     0.091 A 
HETATM   16  N5  UNL     1      -2.420   6.321  23.056  1.00  0.00    -0.359 N 
ATOM     17  H5  UNL     1      -3.164   6.973  23.304  1.00  0.00     0.166 HD
HETATM   18  S1  UNL     1      -0.395   8.172  23.721  1.00  0.00    -0.074 SA
BRANCH  12  19
HETATM   19  N3  UNL     1       0.656   3.693  22.049  1.00  0.00    -0.380 N 
HETATM   20  C22 UNL     1       1.224   3.609  20.736  1.00  0.00     0.123 C 
HETATM   21  C23 UNL     1       2.677   3.287  20.757  1.00  0.00     0.020 C 
HETATM   22  C24 UNL     1       3.272   3.047  22.103  1.00  0.00     0.009 C 
HETATM   23  C25 UNL     1       2.366   2.087  22.845  1.00  0.00     0.029 C 
HETATM   24  C27 UNL     1       1.076   2.785  23.082  1.00  0.00     0.129 C 
BRANCH  23  25
HETATM   25  C26 UNL     1       2.944   1.632  24.158  1.00  0.00     0.235 C 
BRANCH  25  26
HETATM   26  N4  UNL     1       1.869   1.671  25.135  1.00  0.00    -0.079 N 
ATOM     27  H43 UNL     1       1.996   2.397  25.840  1.00  0.00     0.274 HD
ATOM     28  H42 UNL     1       0.990   2.016  24.749  1.00  0.00     0.274 HD
ATOM     29  H41 UNL     1       1.790   0.735  25.533  1.00  0.00     0.274 HD
ENDBRANCH  25  26
ENDBRANCH  23  25
ENDBRANCH  12  19
ENDBRANCH   8   9
ENDBRANCH   7   8
ENDBRANCH   4   7
BRANCH   1  30
HETATM   30  N2  UNL     1       5.693  12.304  23.715  1.00  0.00    -0.384 N 
ATOM     31  H2  UNL     1       6.617  12.462  23.312  1.00  0.00     0.160 HD
BRANCH  30  32
HETATM   32  C12 UNL     1       5.171  13.381  24.464  1.00  0.00     0.043 A 
HETATM   33  C11 UNL     1       3.773  13.571  24.385  1.00  0.00     0.047 A 
HETATM   34  C10 UNL     1       3.185  14.720  24.864  1.00  0.00     0.090 A 
HETATM   35  N1  UNL     1       3.910  15.682  25.412  1.00  0.00    -0.365 N 
HETATM   36  C9  UNL     1       5.235  15.539  25.510  1.00  0.00     0.047 A 
ATOM     37  H1  UNL     1       3.459  16.528  25.759  1.00  0.00     0.165 HD
HETATM   38  C8  UNL     1       5.975  16.542  26.128  1.00  0.00     0.056 A 
HETATM   39  C33 UNL     1       5.896  14.385  25.047  1.00  0.00     0.037 A 
HETATM   40  C7  UNL     1       7.325  16.437  26.299  1.00  0.00     0.059 A 
HETATM   41  C6  UNL     1       7.929  15.296  25.839  1.00  0.00     0.075 A 
HETATM   42 CL2  UNL     1       8.202  17.727  27.074  1.00  0.00    -0.082 Cl
HETATM   43  C5  UNL     1       7.244  14.250  25.213  1.00  0.00     0.056 A 
HETATM   44 CL1  UNL     1       9.669  15.110  26.030  1.00  0.00    -0.081 Cl
BRANCH  43  45
HETATM   45  C4  UNL     1       7.960  13.033  24.955  1.00  0.00    -0.064 C 
BRANCH  45  46
HETATM   46  C3  UNL     1       8.632  12.009  24.783  1.00  0.00    -0.101 C 
BRANCH  46  47
HETATM   47  C2  UNL     1       9.437  10.809  24.559  1.00  0.00     0.090 C 
HETATM   48  C1  UNL     1      10.579  11.197  23.644  1.00  0.00     0.018 C 
ENDBRANCH  46  47
ENDBRANCH  45  46
ENDBRANCH  43  45
ENDBRANCH  30  32
ENDBRANCH   1  30
TORSDOF 11
ENDMDL
MODEL 3
REMARK VINA RESULT: -6.793996915      1.072      2.995
REMARK  11 active torsions:
REMARK  status: ('A' for Active; 'I' for Inactive)
REMARK    1  A    between atoms: C2_2  and  C3_3 
REMARK    2  A    between atoms: C3_3  and  C4_4 
REMARK    3  A    between atoms: C4_4  and  C5_5 
REMARK    4  A    between atoms: C12_16  and  N2_17 
REMARK    5  A    between atoms: N2_17  and  C13_19 
REMARK    6  A    between atoms: C16_22  and  O1_23 
REMARK    7  A    between atoms: O1_23  and  C17_24 
REMARK    8  A    between atoms: C17_24  and  C18_25 
REMARK    9  A    between atoms: C21_28  and  N3_29 
REMARK   10  A    between atoms: C25_33  and  C26_34 
REMARK   11  A    between atoms: C26_34  and  N4_35 
ROOT
HETATM    1  C13 UNL     1       4.899  10.608  23.575  1.00  0.00     0.082 C 
HETATM    2  C14 UNL     1       5.331   9.551  24.549  1.00  0.00     0.027 C 
HETATM    3  C15 UNL     1       4.470   8.312  24.431  1.00  0.00     0.034 C 
HETATM    4  C16 UNL     1       4.149   7.963  22.990  1.00  0.00     0.122 C 
HETATM    5  C31 UNL     1       5.188   8.643  22.125  1.00  0.00     0.034 C 
HETATM    6  C32 UNL     1       4.982  10.132  22.140  1.00  0.00     0.027 C 
ENDROOT
BRANCH   4   7
HETATM    7  O1  UNL     1       2.875   8.383  22.747  1.00  0.00    -0.381 OA
BRANCH   7   8
HETATM    8  C17 UNL     1       1.892   7.654  23.383  1.00  0.00     0.214 C 
BRANCH   8   9
HETATM    9  C18 UNL     1       1.897   6.265  22.794  1.00  0.00     0.009 A 
HETATM   10  C19 UNL     1       0.913   5.654  22.060  1.00  0.00     0.033 A 
HETATM   11  C20 UNL     1       1.146   4.400  21.635  1.00  0.00     0.025 A 
HETATM   12  C21 UNL     1       0.297   3.580  20.876  1.00  0.00     0.044 A 
HETATM   13  C30 UNL     1       2.344   3.839  21.968  1.00  0.00     0.086 A 
HETATM   14  C28 UNL     1       0.709   2.313  20.532  1.00  0.00     0.047 A 
HETATM   15  C29 UNL     1       1.925   1.765  20.880  1.00  0.00     0.091 A 
HETATM   16  N5  UNL     1       2.724   2.573  21.608  1.00  0.00    -0.359 N 
ATOM     17  H5  UNL     1       3.639   2.230  21.900  1.00  0.00     0.166 HD
HETATM   18  S1  UNL     1       3.113   5.071  22.865  1.00  0.00    -0.074 SA
BRANCH  12  19
HETATM   19  N3  UNL     1      -1.009   4.020  20.443  1.00  0.00    -0.380 N 
HETATM   20  C22 UNL     1      -2.088   4.301  21.344  1.00  0.00     0.123 C 
HETATM   21  C23 UNL     1      -2.916   5.458  20.908  1.00  0.00     0.020 C 
HETATM   22  C24 UNL     1      -2.535   6.078  19.607  1.00  0.00     0.009 C 
HETATM   23  C25 UNL     1      -2.363   4.964  18.596  1.00  0.00     0.029 C 
HETATM   24  C27 UNL     1      -1.195   4.151  19.023  1.00  0.00     0.129 C 
BRANCH  23  25
HETATM   25  C26 UNL     1      -2.142   5.471  17.197  1.00  0.00     0.235 C 
BRANCH  25  26
HETATM   26  N4  UNL     1      -1.766   4.328  16.382  1.00  0.00    -0.079 N 
ATOM     27  H43 UNL     1      -1.096   4.562  15.650  1.00  0.00     0.274 HD
ATOM     28  H42 UNL     1      -1.186   3.654  16.881  1.00  0.00     0.274 HD
ATOM     29  H41 UNL     1      -2.629   3.921  16.020  1.00  0.00     0.274 HD
ENDBRANCH  25  26
ENDBRANCH  23  25
ENDBRANCH  12  19
ENDBRANCH   8   9
ENDBRANCH   7   8
ENDBRANCH   4   7
BRANCH   1  30
HETATM   30  N2  UNL     1       5.541  11.861  23.819  1.00  0.00    -0.384 N 
ATOM     31  H2  UNL     1       4.927  12.675  23.802  1.00  0.00     0.160 HD
BRANCH  30  32
HETATM   32  C12 UNL     1       6.900  12.138  24.080  1.00  0.00     0.043 A 
HETATM   33  C11 UNL     1       7.815  11.110  23.758  1.00  0.00     0.047 A 
HETATM   34  C10 UNL     1       9.122  11.163  24.191  1.00  0.00     0.090 A 
HETATM   35  N1  UNL     1       9.561  12.176  24.920  1.00  0.00    -0.365 N 
HETATM   36  C9  UNL     1       8.728  13.171  25.242  1.00  0.00     0.047 A 
ATOM     37  H1  UNL     1      10.531  12.198  25.235  1.00  0.00     0.165 HD
HETATM   38  C8  UNL     1       9.220  14.247  25.973  1.00  0.00     0.056 A 
HETATM   39  C33 UNL     1       7.384  13.180  24.824  1.00  0.00     0.037 A 
HETATM   40  C7  UNL     1       8.433  15.315  26.295  1.00  0.00     0.059 A 
HETATM   41  C6  UNL     1       7.131  15.289  25.866  1.00  0.00     0.075 A 
HETATM   42 CL2  UNL     1       9.098  16.634  27.218  1.00  0.00    -0.082 Cl
HETATM   43  C5  UNL     1       6.577  14.239  25.126  1.00  0.00     0.056 A 
HETATM   44 CL1  UNL     1       6.071  16.637  26.257  1.00  0.00    -0.081 Cl
BRANCH  43  45
HETATM   45  C4  UNL     1       5.265  14.423  24.574  1.00  0.00    -0.064 C 
BRANCH  45  46
HETATM   46  C3  UNL     1       4.144  14.658  24.106  1.00  0.00    -0.101 C 
BRANCH  46  47
HETATM   47  C2  UNL     1       2.820  14.958  23.561  1.00  0.00     0.090 C 
HETATM   48  C1  UNL     1       2.511  16.400  23.901  1.00  0.00     0.018 C 
ENDBRANCH  46  47
ENDBRANCH  45  46
ENDBRANCH  43  45
ENDBRANCH  30  32
ENDBRANCH   1  30
TORSDOF 11
ENDMDL
MODEL 4
REMARK VINA RESULT: -6.693077963      2.404      3.714
REMARK  11 active torsions:
REMARK  status: ('A' for Active; 'I' for Inactive)
REMARK    1  A    between atoms: C2_2  and  C3_3 
REMARK    2  A    between atoms: C3_3  and  C4_4 
REMARK    3  A    between atoms: C4_4  and  C5_5 
REMARK    4  A    between atoms: C12_16  and  N2_17 
REMARK    5  A    between atoms: N2_17  and  C13_19 
REMARK    6  A    between atoms: C16_22  and  O1_23 
REMARK    7  A    between atoms: O1_23  and  C17_24 
REMARK    8  A    between atoms: C17_24  and  C18_25 
REMARK    9  A    between atoms: C21_28  and  N3_29 
REMARK   10  A    between atoms: C25_33  and  C26_34 
REMARK   11  A    between atoms: C26_34  and  N4_35 
ROOT
HETATM    1  C13 UNL     1       4.558  10.211  24.067  1.00  0.00     0.082 C 
HETATM    2  C14 UNL     1       5.096   8.962  24.703  1.00  0.00     0.027 C 
HETATM    3  C15 UNL     1       4.301   7.746  24.282  1.00  0.00     0.034 C 
HETATM    4  C16 UNL     1       3.928   7.776  22.811  1.00  0.00     0.122 C 
HETATM    5  C31 UNL     1       4.883   8.732  22.129  1.00  0.00     0.034 C 
HETATM    6  C32 UNL     1       4.595  10.145  22.555  1.00  0.00     0.027 C 
ENDROOT
BRANCH   4   7
HETATM    7  O1  UNL     1       2.622   8.160  22.734  1.00  0.00    -0.381 OA
BRANCH   7   8
HETATM    8  C17 UNL     1       1.737   7.348  23.414  1.00  0.00     0.214 C 
BRANCH   8   9
HETATM    9  C18 UNL     1       1.739   6.000  22.736  1.00  0.00     0.009 A 
HETATM   10  C19 UNL     1       0.767   5.453  21.940  1.00  0.00     0.033 A 
HETATM   11  C20 UNL     1       0.994   4.225  21.441  1.00  0.00     0.025 A 
HETATM   12  C21 UNL     1       0.154   3.469  20.609  1.00  0.00     0.044 A 
HETATM   13  C30 UNL     1       2.173   3.624  21.769  1.00  0.00     0.086 A 
HETATM   14  C28 UNL     1       0.557   2.220  20.195  1.00  0.00     0.047 A 
HETATM   15  C29 UNL     1       1.755   1.631  20.540  1.00  0.00     0.091 A 
HETATM   16  N5  UNL     1       2.544   2.378  21.339  1.00  0.00    -0.359 N 
ATOM     17  H5  UNL     1       3.446   2.003  21.633  1.00  0.00     0.166 HD
HETATM   18  S1  UNL     1       2.936   4.784  22.763  1.00  0.00    -0.074 SA
BRANCH  12  19
HETATM   19  N3  UNL     1      -1.133   3.957  20.171  1.00  0.00    -0.380 N 
HETATM   20  C22 UNL     1      -2.228   4.209  21.060  1.00  0.00     0.123 C 
HETATM   21  C23 UNL     1      -3.025   5.404  20.669  1.00  0.00     0.020 C 
HETATM   22  C24 UNL     1      -2.602   6.086  19.413  1.00  0.00     0.009 C 
HETATM   23  C25 UNL     1      -2.425   5.025  18.347  1.00  0.00     0.029 C 
HETATM   24  C27 UNL     1      -1.283   4.168  18.756  1.00  0.00     0.129 C 
BRANCH  23  25
HETATM   25  C26 UNL     1      -2.161   5.603  16.983  1.00  0.00     0.235 C 
BRANCH  25  26
HETATM   26  N4  UNL     1      -1.907   4.487  16.087  1.00  0.00    -0.079 N 
ATOM     27  H43 UNL     1      -1.610   3.642  16.575  1.00  0.00     0.274 HD
ATOM     28  H42 UNL     1      -2.757   4.107  15.672  1.00  0.00     0.274 HD
ATOM     29  H41 UNL     1      -1.232   4.807  15.393  1.00  0.00     0.274 HD
ENDBRANCH  25  26
ENDBRANCH  23  25
ENDBRANCH  12  19
ENDBRANCH   8   9
ENDBRANCH   7   8
ENDBRANCH   4   7
BRANCH   1  30
HETATM   30  N2  UNL     1       5.140  11.393  24.621  1.00  0.00    -0.384 N 
ATOM     31  H2  UNL     1       4.515  12.196  24.687  1.00  0.00     0.160 HD
BRANCH  30  32
HETATM   32  C12 UNL     1       6.453  11.612  25.090  1.00  0.00     0.043 A 
HETATM   33  C11 UNL     1       7.457  11.712  24.100  1.00  0.00     0.047 A 
HETATM   34  C10 UNL     1       8.792  11.677  24.436  1.00  0.00     0.090 A 
HETATM   35  N1  UNL     1       9.177  11.549  25.696  1.00  0.00    -0.365 N 
HETATM   36  C9  UNL     1       8.258  11.456  26.662  1.00  0.00     0.047 A 
ATOM     37  H1  UNL     1      10.169  11.521  25.928  1.00  0.00     0.165 HD
HETATM   38  C8  UNL     1       8.683  11.364  27.984  1.00  0.00     0.056 A 
HETATM   39  C33 UNL     1       6.879  11.493  26.386  1.00  0.00     0.037 A 
HETATM   40  C7  UNL     1       7.797  11.312  29.021  1.00  0.00     0.059 A 
HETATM   41  C6  UNL     1       6.462  11.356  28.709  1.00  0.00     0.075 A 
HETATM   42 CL2  UNL     1       8.383  11.192  30.657  1.00  0.00    -0.082 Cl
HETATM   43  C5  UNL     1       5.971  11.450  27.403  1.00  0.00     0.056 A 
HETATM   44 CL1  UNL     1       5.276  11.287  30.007  1.00  0.00    -0.081 Cl
BRANCH  43  45
HETATM   45  C4  UNL     1       4.565  11.684  27.228  1.00  0.00    -0.064 C 
BRANCH  45  46
HETATM   46  C3  UNL     1       3.347  11.887  27.153  1.00  0.00    -0.101 C 
BRANCH  46  47
HETATM   47  C2  UNL     1       1.909  12.140  27.085  1.00  0.00     0.090 C 
HETATM   48  C1  UNL     1       1.302  11.631  28.376  1.00  0.00     0.018 C 
ENDBRANCH  46  47
ENDBRANCH  45  46
ENDBRANCH  43  45
ENDBRANCH  30  32
ENDBRANCH   1  30
TORSDOF 11
ENDMDL
MODEL 5
REMARK VINA RESULT: -6.678616668      7.124     10.956
REMARK  11 active torsions:
REMARK  status: ('A' for Active; 'I' for Inactive)
REMARK    1  A    between atoms: C2_2  and  C3_3 
REMARK    2  A    between atoms: C3_3  and  C4_4 
REMARK    3  A    between atoms: C4_4  and  C5_5 
REMARK    4  A    between atoms: C12_16  and  N2_17 
REMARK    5  A    between atoms: N2_17  and  C13_19 
REMARK    6  A    between atoms: C16_22  and  O1_23 
REMARK    7  A    between atoms: O1_23  and  C17_24 
REMARK    8  A    between atoms: C17_24  and  C18_25 
REMARK    9  A    between atoms: C21_28  and  N3_29 
REMARK   10  A    between atoms: C25_33  and  C26_34 
REMARK   11  A    between atoms: C26_34  and  N4_35 
ROOT
HETATM    1  C13 UNL     1       8.941  12.831  25.719  1.00  0.00     0.082 C 
HETATM    2  C14 UNL     1       9.510  13.382  24.445  1.00  0.00     0.027 C 
HETATM    3  C15 UNL     1      10.948  12.951  24.255  1.00  0.00     0.034 C 
HETATM    4  C16 UNL     1      11.179  11.505  24.653  1.00  0.00     0.122 C 
HETATM    5  C31 UNL     1       9.832  10.816  24.625  1.00  0.00     0.034 C 
HETATM    6  C32 UNL     1       8.970  11.317  25.751  1.00  0.00     0.027 C 
ENDROOT
BRANCH   4   7
HETATM    7  O1  UNL     1      11.764  11.513  25.884  1.00  0.00    -0.381 OA
BRANCH   7   8
HETATM    8  C17 UNL     1      13.089  11.129  25.899  1.00  0.00     0.214 C 
BRANCH   8   9
HETATM    9  C18 UNL     1      13.230  10.009  26.900  1.00  0.00     0.009 A 
HETATM   10  C19 UNL     1      12.589   9.864  28.102  1.00  0.00     0.033 A 
HETATM   11  C20 UNL     1      12.876   8.770  28.830  1.00  0.00     0.025 A 
HETATM   12  C21 UNL     1      12.351   8.409  30.080  1.00  0.00     0.044 A 
HETATM   13  C30 UNL     1      13.784   7.894  28.311  1.00  0.00     0.086 A 
HETATM   14  C28 UNL     1      12.769   7.242  30.679  1.00  0.00     0.047 A 
HETATM   15  C29 UNL     1      13.688   6.371  30.136  1.00  0.00     0.091 A 
HETATM   16  N5  UNL     1      14.178   6.740  28.933  1.00  0.00    -0.359 N 
ATOM     17  H5  UNL     1      14.863   6.140  28.474  1.00  0.00     0.166 HD
HETATM   18  S1  UNL     1      14.212   8.616  26.824  1.00  0.00    -0.074 SA
BRANCH  12  19
HETATM   19  N3  UNL     1      11.382   9.228  30.770  1.00  0.00    -0.380 N 
HETATM   20  C22 UNL     1      11.702  10.481  31.388  1.00  0.00     0.123 C 
HETATM   21  C23 UNL     1      10.615  11.487  31.245  1.00  0.00     0.020 C 
HETATM   22  C24 UNL     1       9.378  11.018  30.558  1.00  0.00     0.009 C 
HETATM   23  C25 UNL     1       8.982   9.691  31.173  1.00  0.00     0.029 C 
HETATM   24  C27 UNL     1      10.042   8.708  30.833  1.00  0.00     0.129 C 
BRANCH  23  25
HETATM   25  C26 UNL     1       7.652   9.191  30.681  1.00  0.00     0.235 C 
BRANCH  25  26
HETATM   26  N4  UNL     1       7.348   7.980  31.425  1.00  0.00    -0.079 N 
ATOM     27  H43 UNL     1       6.689   7.369  30.943  1.00  0.00     0.274 HD
ATOM     28  H42 UNL     1       8.130   7.327  31.462  1.00  0.00     0.274 HD
ATOM     29  H41 UNL     1       7.024   8.269  32.348  1.00  0.00     0.274 HD
ENDBRANCH  25  26
ENDBRANCH  23  25
ENDBRANCH  12  19
ENDBRANCH   8   9
ENDBRANCH   7   8
ENDBRANCH   4   7
BRANCH   1  30
HETATM   30  N2  UNL     1       7.670  13.404  26.035  1.00  0.00    -0.384 N 
ATOM     31  H2  UNL     1       6.939  12.734  26.276  1.00  0.00     0.160 HD
BRANCH  30  32
HETATM   32  C12 UNL     1       7.279  14.759  26.064  1.00  0.00     0.043 A 
HETATM   33  C11 UNL     1       8.039  15.607  26.902  1.00  0.00     0.047 A 
HETATM   34  C10 UNL     1       7.607  16.880  27.202  1.00  0.00     0.090 A 
HETATM   35  N1  UNL     1       6.469  17.348  26.717  1.00  0.00    -0.365 N 
HETATM   36  C9  UNL     1       5.723  16.580  25.917  1.00  0.00     0.047 A 
ATOM     37  H1  UNL     1       6.162  18.292  26.952  1.00  0.00     0.165 HD
HETATM   38  C8  UNL     1       4.551  17.106  25.383  1.00  0.00     0.056 A 
HETATM   39  C33 UNL     1       6.112  15.274  25.566  1.00  0.00     0.037 A 
HETATM   40  C7  UNL     1       3.769  16.390  24.525  1.00  0.00     0.059 A 
HETATM   41  C6  UNL     1       4.185  15.123  24.203  1.00  0.00     0.075 A 
HETATM   42 CL2  UNL     1       2.308  17.095  23.890  1.00  0.00    -0.082 Cl
HETATM   43  C5  UNL     1       5.353  14.538  24.703  1.00  0.00     0.056 A 
HETATM   44 CL1  UNL     1       3.211  14.153  23.105  1.00  0.00    -0.081 Cl
BRANCH  43  45
HETATM   45  C4  UNL     1       5.774  13.287  24.138  1.00  0.00    -0.064 C 
BRANCH  45  46
HETATM   46  C3  UNL     1       6.089  12.222  23.592  1.00  0.00    -0.101 C 
BRANCH  46  47
HETATM   47  C2  UNL     1       6.458  10.974  22.926  1.00  0.00     0.090 C 
HETATM   48  C1  UNL     1       5.552  10.823  21.722  1.00  0.00     0.018 C 
ENDBRANCH  46  47
ENDBRANCH  45  46
ENDBRANCH  43  45
ENDBRANCH  30  32
ENDBRANCH   1  30
TORSDOF 11
ENDMDL
