MODEL 1
REMARK VINA RESULT: -6.326802588      0.000      0.000
REMARK  9 active torsions:
REMARK  status: ('A' for Active; 'I' for Inactive)
REMARK    1  A    between atoms: N1_2  and  C2_4 
REMARK    2  A    between atoms: C3_5  and  O1_6 
REMARK    3  A    between atoms: O1_6  and  C4_7 
REMARK    4  A    between atoms: C11_20  and  N4_21 
REMARK    5  A    between atoms: C12_22  and  N5_23 
REMARK    6  A    between atoms: C22_33  and  C24_35 
REMARK    7  A    between atoms: C26_37  and  C27_38 
REMARK    8  A    between atoms: C30_41  and  O2_42 
REMARK    9  A    between atoms: C31_44  and  C32_45 
ROOT
HETATM    1  N4  UNL     1       6.355  13.447  25.958  1.00  0.00    -0.310 N 
HETATM    2  C12 UNL     1       5.702  14.405  26.890  1.00  0.00     0.071 C 
HETATM    3  C18 UNL     1       6.433  14.408  28.138  1.00  0.00     0.009 C 
HETATM    4  C19 UNL     1       7.053  15.618  28.720  1.00  0.00     0.022 C 
HETATM    5  C20 UNL     1       5.627  13.784  29.314  1.00  0.00     0.022 C 
HETATM    6  C21 UNL     1       7.602  13.446  27.858  1.00  0.00     0.052 C 
HETATM    7  C22 UNL     1       7.677  13.170  26.393  1.00  0.00     0.064 C 
HETATM    8  C23 UNL     1       7.932  11.613  26.344  1.00  0.00     0.044 C 
ENDROOT
BRANCH   1   9
HETATM    9  C11 UNL     1       5.633  12.831  24.902  1.00  0.00     0.141 A 
HETATM   10  C2  UNL     1       4.732  11.823  24.926  1.00  0.00     0.124 A 
HETATM   11  C3  UNL     1       4.162  11.387  23.730  1.00  0.00     0.179 A 
HETATM   12  N2  UNL     1       4.523  11.986  22.572  1.00  0.00    -0.331 N 
HETATM   13  C10 UNL     1       5.404  12.977  22.528  1.00  0.00     0.184 A 
ATOM     14  H2  UNL     1       4.102  11.664  21.700  1.00  0.00     0.168 HD
HETATM   15  N3  UNL     1       5.936  13.378  23.665  1.00  0.00    -0.336 N 
ATOM     16  H3  UNL     1       6.615  14.138  23.632  1.00  0.00     0.168 HD
BRANCH  10  17
HETATM   17  N1  UNL     1       4.411  11.233  26.167  1.00  0.00    -0.388 N 
HETATM   18  C1  UNL     1       3.312  11.695  26.963  1.00  0.00     0.146 C 
ATOM     19  H1  UNL     1       4.977  10.457  26.507  1.00  0.00     0.159 HD
ENDBRANCH  10  17
BRANCH  11  20
HETATM   20  O1  UNL     1       3.271  10.384  23.732  1.00  0.00    -0.291 OA
BRANCH  20  21
HETATM   21  C4  UNL     1       3.346   9.049  23.563  1.00  0.00     0.083 A 
HETATM   22  C5  UNL     1       4.564   8.441  23.962  1.00  0.00     0.079 A 
HETATM   23  C6  UNL     1       4.790   7.101  23.855  1.00  0.00     0.121 A 
HETATM   24  F1  UNL     1       5.985   6.558  24.254  1.00  0.00    -0.206 F 
HETATM   25  C7  UNL     1       3.781   6.292  23.329  1.00  0.00     0.084 A 
HETATM   26  C8  UNL     1       2.601   6.876  22.942  1.00  0.00     0.121 A 
HETATM   27  F2  UNL     1       1.594   6.107  22.422  1.00  0.00    -0.206 F 
HETATM   28  C9  UNL     1       2.366   8.239  23.048  1.00  0.00     0.079 A 
ENDBRANCH  20  21
ENDBRANCH  11  20
ENDBRANCH   1   9
BRANCH   2  29
HETATM   29  N5  UNL     1       4.954  15.429  26.337  1.00  0.00    -0.272 NA
HETATM   30  C13 UNL     1       3.508  15.429  26.669  1.00  0.00     0.096 C 
HETATM   31  C14 UNL     1       3.174  16.127  27.949  1.00  0.00     0.015 C 
HETATM   32  C15 UNL     1       3.154  17.623  27.611  1.00  0.00     0.002 C 
HETATM   33  C16 UNL     1       4.160  17.759  26.503  1.00  0.00     0.015 C 
HETATM   34  C17 UNL     1       5.321  16.787  26.717  1.00  0.00     0.096 C 
ENDBRANCH   2  29
BRANCH   7  35
HETATM   35  C24 UNL     1       8.856  13.680  25.706  1.00  0.00    -0.029 A 
HETATM   36  C25 UNL     1       9.786  12.897  25.025  1.00  0.00     0.020 A 
HETATM   37  C26 UNL     1      10.855  13.437  24.384  1.00  0.00    -0.020 A 
HETATM   38  C30 UNL     1      11.045  14.812  24.388  1.00  0.00     0.079 A 
HETATM   39  C31 UNL     1      10.177  15.635  25.027  1.00  0.00    -0.016 A 
HETATM   40  C36 UNL     1       9.097  15.041  25.673  1.00  0.00     0.020 A 
BRANCH  37  41
HETATM   41  C27 UNL     1      11.793  12.520  23.729  1.00  0.00     0.013 C 
HETATM   42  C28 UNL     1      12.846  12.008  24.685  1.00  0.00     0.015 C 
HETATM   43  C29 UNL     1      11.265  11.430  22.904  1.00  0.00     0.015 C 
ENDBRANCH  37  41
BRANCH  38  44
HETATM   44  O2  UNL     1      12.136  15.267  23.728  1.00  0.00    -0.360 OA
ATOM     45  H2  UNL     1      12.454  16.124  23.984  1.00  0.00     0.217 HD
ENDBRANCH  38  44
BRANCH  39  46
HETATM   46  C32 UNL     1      10.362  17.101  25.057  1.00  0.00    -0.021 C 
HETATM   47  C33 UNL     1      10.607  17.749  23.743  1.00  0.00     0.019 C 
HETATM   48  C34 UNL     1      11.611  17.439  25.923  1.00  0.00     0.019 C 
HETATM   49  C35 UNL     1       9.217  17.722  25.806  1.00  0.00     0.019 C 
ENDBRANCH  39  46
ENDBRANCH   7  35
TORSDOF 9
ENDMDL
MODEL 2
REMARK VINA RESULT: -6.320747733      1.406      2.036
REMARK  9 active torsions:
REMARK  status: ('A' for Active; 'I' for Inactive)
REMARK    1  A    between atoms: N1_2  and  C2_4 
REMARK    2  A    between atoms: C3_5  and  O1_6 
REMARK    3  A    between atoms: O1_6  and  C4_7 
REMARK    4  A    between atoms: C11_20  and  N4_21 
REMARK    5  A    between atoms: C12_22  and  N5_23 
REMARK    6  A    between atoms: C22_33  and  C24_35 
REMARK    7  A    between atoms: C26_37  and  C27_38 
REMARK    8  A    between atoms: C30_41  and  O2_42 
REMARK    9  A    between atoms: C31_44  and  C32_45 
ROOT
HETATM    1  N4  UNL     1       6.340  13.152  25.559  1.00  0.00    -0.310 N 
HETATM    2  C12 UNL     1       5.363  14.249  25.792  1.00  0.00     0.071 C 
HETATM    3  C18 UNL     1       5.762  14.981  26.973  1.00  0.00     0.009 C 
HETATM    4  C19 UNL     1       6.062  16.430  26.976  1.00  0.00     0.022 C 
HETATM    5  C20 UNL     1       4.781  14.789  28.166  1.00  0.00     0.022 C 
HETATM    6  C21 UNL     1       7.077  14.293  27.381  1.00  0.00     0.052 C 
HETATM    7  C22 UNL     1       7.541  13.411  26.269  1.00  0.00     0.064 C 
HETATM    8  C23 UNL     1       7.996  12.104  27.027  1.00  0.00     0.044 C 
ENDROOT
BRANCH   1   9
HETATM    9  C11 UNL     1       5.981  11.979  24.843  1.00  0.00     0.141 A 
HETATM   10  C2  UNL     1       5.292  10.885  25.240  1.00  0.00     0.124 A 
HETATM   11  C3  UNL     1       5.076   9.847  24.334  1.00  0.00     0.179 A 
HETATM   12  N2  UNL     1       5.560   9.961  23.075  1.00  0.00    -0.331 N 
HETATM   13  C10 UNL     1       6.237  11.027  22.667  1.00  0.00     0.184 A 
ATOM     14  H2  UNL     1       5.399   9.200  22.416  1.00  0.00     0.168 HD
HETATM   15  N3  UNL     1       6.436  12.000  23.534  1.00  0.00    -0.336 N 
ATOM     16  H3  UNL     1       6.957  12.819  23.222  1.00  0.00     0.168 HD
BRANCH  10  17
HETATM   17  N1  UNL     1       4.828  10.826  26.571  1.00  0.00    -0.388 N 
HETATM   18  C1  UNL     1       3.586  11.422  26.967  1.00  0.00     0.146 C 
ATOM     19  H1  UNL     1       5.392  10.344  27.271  1.00  0.00     0.159 HD
ENDBRANCH  10  17
BRANCH  11  20
HETATM   20  O1  UNL     1       4.401   8.751  24.710  1.00  0.00    -0.291 OA
BRANCH  20  21
HETATM   21  C4  UNL     1       3.678   7.816  24.064  1.00  0.00     0.083 A 
HETATM   22  C5  UNL     1       2.318   8.140  23.822  1.00  0.00     0.079 A 
HETATM   23  C6  UNL     1       1.461   7.298  23.178  1.00  0.00     0.121 A 
HETATM   24  F1  UNL     1       0.154   7.655  22.968  1.00  0.00    -0.206 F 
HETATM   25  C7  UNL     1       1.941   6.063  22.738  1.00  0.00     0.084 A 
HETATM   26  C8  UNL     1       3.256   5.746  22.969  1.00  0.00     0.121 A 
HETATM   27  F2  UNL     1       3.754   4.541  22.549  1.00  0.00    -0.206 F 
HETATM   28  C9  UNL     1       4.132   6.598  23.624  1.00  0.00     0.079 A 
ENDBRANCH  20  21
ENDBRANCH  11  20
ENDBRANCH   1   9
BRANCH   2  29
HETATM   29  N5  UNL     1       4.648  14.712  24.702  1.00  0.00    -0.272 NA
HETATM   30  C13 UNL     1       3.347  14.044  24.447  1.00  0.00     0.096 C 
HETATM   31  C14 UNL     1       2.200  14.624  25.212  1.00  0.00     0.015 C 
HETATM   32  C15 UNL     1       1.774  15.875  24.432  1.00  0.00     0.002 C 
HETATM   33  C16 UNL     1       3.049  16.363  23.803  1.00  0.00     0.015 C 
HETATM   34  C17 UNL     1       4.233  16.109  24.736  1.00  0.00     0.096 C 
ENDBRANCH   2  29
BRANCH   7  35
HETATM   35  C24 UNL     1       8.776  13.811  25.609  1.00  0.00    -0.029 A 
HETATM   36  C25 UNL     1       9.617  12.956  24.899  1.00  0.00     0.020 A 
HETATM   37  C26 UNL     1      10.746  13.396  24.286  1.00  0.00    -0.020 A 
HETATM   38  C30 UNL     1      11.092  14.739  24.349  1.00  0.00     0.079 A 
HETATM   39  C31 UNL     1      10.317  15.629  25.017  1.00  0.00    -0.016 A 
HETATM   40  C36 UNL     1       9.171  15.136  25.634  1.00  0.00     0.020 A 
BRANCH  37  41
HETATM   41  C27 UNL     1      11.580  12.406  23.598  1.00  0.00     0.013 C 
HETATM   42  C28 UNL     1      11.246  10.993  24.019  1.00  0.00     0.015 C 
HETATM   43  C29 UNL     1      11.734  12.493  22.143  1.00  0.00     0.015 C 
ENDBRANCH  37  41
BRANCH  38  44
HETATM   44  O2  UNL     1      12.233  15.093  23.712  1.00  0.00    -0.360 OA
ATOM     45  H2  UNL     1      12.347  16.021  23.542  1.00  0.00     0.217 HD
ENDBRANCH  38  44
BRANCH  39  46
HETATM   46  C32 UNL     1      10.668  17.062  25.110  1.00  0.00    -0.021 C 
HETATM   47  C33 UNL     1      11.912  17.376  25.858  1.00  0.00     0.019 C 
HETATM   48  C34 UNL     1       9.533  17.817  25.860  1.00  0.00     0.019 C 
HETATM   49  C35 UNL     1      10.654  17.657  23.730  1.00  0.00     0.019 C 
ENDBRANCH  39  46
ENDBRANCH   7  35
TORSDOF 9
ENDMDL
MODEL 3
REMARK VINA RESULT: -6.301253338      0.396      2.547
REMARK  9 active torsions:
REMARK  status: ('A' for Active; 'I' for Inactive)
REMARK    1  A    between atoms: N1_2  and  C2_4 
REMARK    2  A    between atoms: C3_5  and  O1_6 
REMARK    3  A    between atoms: O1_6  and  C4_7 
REMARK    4  A    between atoms: C11_20  and  N4_21 
REMARK    5  A    between atoms: C12_22  and  N5_23 
REMARK    6  A    between atoms: C22_33  and  C24_35 
REMARK    7  A    between atoms: C26_37  and  C27_38 
REMARK    8  A    between atoms: C30_41  and  O2_42 
REMARK    9  A    between atoms: C31_44  and  C32_45 
ROOT
HETATM    1  N4  UNL     1       6.453  13.583  26.017  1.00  0.00    -0.310 N 
HETATM    2  C12 UNL     1       5.801  14.575  26.914  1.00  0.00     0.071 C 
HETATM    3  C18 UNL     1       6.541  14.633  28.155  1.00  0.00     0.009 C 
HETATM    4  C19 UNL     1       7.159  15.869  28.683  1.00  0.00     0.022 C 
HETATM    5  C20 UNL     1       5.747  14.053  29.362  1.00  0.00     0.022 C 
HETATM    6  C21 UNL     1       7.713  13.667  27.906  1.00  0.00     0.052 C 
HETATM    7  C22 UNL     1       7.779  13.331  26.453  1.00  0.00     0.064 C 
HETATM    8  C23 UNL     1       8.042  11.775  26.466  1.00  0.00     0.044 C 
ENDROOT
BRANCH   1   9
HETATM    9  C11 UNL     1       5.726  12.921  24.992  1.00  0.00     0.141 A 
HETATM   10  C2  UNL     1       4.852  11.892  25.061  1.00  0.00     0.124 A 
HETATM   11  C3  UNL     1       4.270  11.409  23.889  1.00  0.00     0.179 A 
HETATM   12  N2  UNL     1       4.594  11.985  22.708  1.00  0.00    -0.331 N 
HETATM   13  C10 UNL     1       5.448  12.997  22.620  1.00  0.00     0.184 A 
ATOM     14  H2  UNL     1       4.165  11.629  21.854  1.00  0.00     0.168 HD
HETATM   15  N3  UNL     1       5.992  13.442  23.735  1.00  0.00    -0.336 N 
ATOM     16  H3  UNL     1       6.650  14.218  23.669  1.00  0.00     0.168 HD
BRANCH  10  17
HETATM   17  N1  UNL     1       4.571  11.328  26.323  1.00  0.00    -0.388 N 
HETATM   18  C1  UNL     1       3.442  11.744  27.103  1.00  0.00     0.146 C 
ATOM     19  H1  UNL     1       5.188  10.605  26.691  1.00  0.00     0.159 HD
ENDBRANCH  10  17
BRANCH  11  20
HETATM   20  O1  UNL     1       3.406  10.385  23.936  1.00  0.00    -0.291 OA
BRANCH  20  21
HETATM   21  C4  UNL     1       3.491   9.062  23.696  1.00  0.00     0.083 A 
HETATM   22  C5  UNL     1       4.702   8.437  24.089  1.00  0.00     0.079 A 
HETATM   23  C6  UNL     1       4.937   7.105  23.915  1.00  0.00     0.121 A 
HETATM   24  F1  UNL     1       6.125   6.545  24.311  1.00  0.00    -0.206 F 
HETATM   25  C7  UNL     1       3.943   6.322  23.325  1.00  0.00     0.084 A 
HETATM   26  C8  UNL     1       2.769   6.922  22.944  1.00  0.00     0.121 A 
HETATM   27  F2  UNL     1       1.777   6.179  22.361  1.00  0.00    -0.206 F 
HETATM   28  C9  UNL     1       2.526   8.277  23.118  1.00  0.00     0.079 A 
ENDBRANCH  20  21
ENDBRANCH  11  20
ENDBRANCH   1   9
BRANCH   2  29
HETATM   29  N5  UNL     1       5.044  15.571  26.325  1.00  0.00    -0.272 NA
HETATM   30  C13 UNL     1       3.572  15.435  26.462  1.00  0.00     0.096 C 
HETATM   31  C14 UNL     1       3.018  16.015  27.723  1.00  0.00     0.015 C 
HETATM   32  C15 UNL     1       2.910  17.525  27.471  1.00  0.00     0.002 C 
HETATM   33  C16 UNL     1       4.034  17.815  26.516  1.00  0.00     0.015 C 
HETATM   34  C17 UNL     1       5.238  16.926  26.827  1.00  0.00     0.096 C 
ENDBRANCH   2  29
BRANCH   7  35
HETATM   35  C24 UNL     1       8.950  13.819  25.737  1.00  0.00    -0.029 A 
HETATM   36  C25 UNL     1       9.392  15.142  25.734  1.00  0.00     0.020 A 
HETATM   37  C26 UNL     1      10.507  15.530  25.062  1.00  0.00    -0.020 A 
HETATM   38  C30 UNL     1      11.251  14.595  24.354  1.00  0.00     0.079 A 
HETATM   39  C31 UNL     1      10.883  13.291  24.317  1.00  0.00    -0.016 A 
HETATM   40  C36 UNL     1       9.733  12.937  25.016  1.00  0.00     0.020 A 
BRANCH  37  41
HETATM   41  C27 UNL     1      10.864  16.951  25.094  1.00  0.00     0.013 C 
HETATM   42  C28 UNL     1      10.490  17.658  23.811  1.00  0.00     0.015 C 
HETATM   43  C29 UNL     1      10.485  17.754  26.260  1.00  0.00     0.015 C 
ENDBRANCH  37  41
BRANCH  38  44
HETATM   44  O2  UNL     1      12.346  15.066  23.712  1.00  0.00    -0.360 OA
ATOM     45  H2  UNL     1      12.256  15.209  22.777  1.00  0.00     0.217 HD
ENDBRANCH  38  44
BRANCH  39  46
HETATM   46  C32 UNL     1      11.650  12.279  23.561  1.00  0.00    -0.021 C 
HETATM   47  C33 UNL     1      11.976  12.632  22.156  1.00  0.00     0.019 C 
HETATM   48  C34 UNL     1      10.816  10.968  23.474  1.00  0.00     0.019 C 
HETATM   49  C35 UNL     1      12.862  11.890  24.358  1.00  0.00     0.019 C 
ENDBRANCH  39  46
ENDBRANCH   7  35
TORSDOF 9
ENDMDL
MODEL 4
REMARK VINA RESULT: -6.153981381      4.236      7.771
REMARK  9 active torsions:
REMARK  status: ('A' for Active; 'I' for Inactive)
REMARK    1  A    between atoms: N1_2  and  C2_4 
REMARK    2  A    between atoms: C3_5  and  O1_6 
REMARK    3  A    between atoms: O1_6  and  C4_7 
REMARK    4  A    between atoms: C11_20  and  N4_21 
REMARK    5  A    between atoms: C12_22  and  N5_23 
REMARK    6  A    between atoms: C22_33  and  C24_35 
REMARK    7  A    between atoms: C26_37  and  C27_38 
REMARK    8  A    between atoms: C30_41  and  O2_42 
REMARK    9  A    between atoms: C31_44  and  C32_45 
ROOT
HETATM    1  N4  UNL     1      10.054  12.247  26.286  1.00  0.00    -0.310 N 
HETATM    2  C12 UNL     1      11.346  12.241  25.550  1.00  0.00     0.071 C 
HETATM    3  C18 UNL     1      12.363  12.826  26.394  1.00  0.00     0.009 C 
HETATM    4  C19 UNL     1      13.596  12.117  26.802  1.00  0.00     0.022 C 
HETATM    5  C20 UNL     1      12.866  14.203  25.873  1.00  0.00     0.022 C 
HETATM    6  C21 UNL     1      11.607  13.111  27.704  1.00  0.00     0.052 C 
HETATM    7  C22 UNL     1      10.288  12.411  27.676  1.00  0.00     0.064 C 
HETATM    8  C23 UNL     1       9.302  13.502  28.250  1.00  0.00     0.044 C 
ENDROOT
BRANCH   1   9
HETATM    9  C11 UNL     1       8.810  12.242  25.601  1.00  0.00     0.141 A 
HETATM   10  C2  UNL     1       8.109  13.256  25.046  1.00  0.00     0.124 A 
HETATM   11  C3  UNL     1       6.888  12.986  24.429  1.00  0.00     0.179 A 
HETATM   12  N2  UNL     1       6.433  11.712  24.399  1.00  0.00    -0.331 N 
HETATM   13  C10 UNL     1       7.106  10.703  24.937  1.00  0.00     0.184 A 
ATOM     14  H2  UNL     1       5.540  11.520  23.945  1.00  0.00     0.168 HD
HETATM   15  N3  UNL     1       8.258  10.973  25.519  1.00  0.00    -0.336 N 
ATOM     16  H3  UNL     1       8.776  10.199  25.934  1.00  0.00     0.168 HD
BRANCH  10  17
HETATM   17  N1  UNL     1       8.635  14.563  25.126  1.00  0.00    -0.388 N 
HETATM   18  C1  UNL     1       9.672  15.017  24.247  1.00  0.00     0.146 C 
ATOM     19  H1  UNL     1       8.267  15.202  25.830  1.00  0.00     0.159 HD
ENDBRANCH  10  17
BRANCH  11  20
HETATM   20  O1  UNL     1       6.175  13.980  23.878  1.00  0.00    -0.291 OA
BRANCH  20  21
HETATM   21  C4  UNL     1       4.993  14.565  24.156  1.00  0.00     0.083 A 
HETATM   22  C5  UNL     1       5.062  15.815  24.823  1.00  0.00     0.079 A 
HETATM   23  C6  UNL     1       3.953  16.530  25.168  1.00  0.00     0.121 A 
HETATM   24  F1  UNL     1       4.069  17.735  25.813  1.00  0.00    -0.206 F 
HETATM   25  C7  UNL     1       2.696  16.009  24.853  1.00  0.00     0.084 A 
HETATM   26  C8  UNL     1       2.626  14.800  24.208  1.00  0.00     0.121 A 
HETATM   27  F2  UNL     1       1.407  14.264  23.888  1.00  0.00    -0.206 F 
HETATM   28  C9  UNL     1       3.751  14.069  23.854  1.00  0.00     0.079 A 
ENDBRANCH  20  21
ENDBRANCH  11  20
ENDBRANCH   1   9
BRANCH   2  29
HETATM   29  N5  UNL     1      11.506  11.304  24.545  1.00  0.00    -0.272 NA
HETATM   30  C13 UNL     1      12.060  11.812  23.265  1.00  0.00     0.096 C 
HETATM   31  C14 UNL     1      13.555  11.848  23.216  1.00  0.00     0.015 C 
HETATM   32  C15 UNL     1      13.991  10.411  22.899  1.00  0.00     0.002 C 
HETATM   33  C16 UNL     1      12.922   9.559  23.523  1.00  0.00     0.015 C 
HETATM   34  C17 UNL     1      12.419  10.201  24.817  1.00  0.00     0.096 C 
ENDBRANCH   2  29
BRANCH   7  35
HETATM   35  C24 UNL     1      10.117  11.330  28.637  1.00  0.00    -0.029 A 
HETATM   36  C25 UNL     1      11.129  10.470  29.061  1.00  0.00     0.020 A 
HETATM   37  C26 UNL     1      10.911   9.493  29.979  1.00  0.00    -0.020 A 
HETATM   38  C30 UNL     1       9.647   9.330  30.532  1.00  0.00     0.079 A 
HETATM   39  C31 UNL     1       8.617  10.133  30.169  1.00  0.00    -0.016 A 
HETATM   40  C36 UNL     1       8.883  11.119  29.224  1.00  0.00     0.020 A 
BRANCH  37  41
HETATM   41  C27 UNL     1      12.035   8.620  30.328  1.00  0.00     0.013 C 
HETATM   42  C28 UNL     1      12.800   8.165  29.107  1.00  0.00     0.015 C 
HETATM   43  C29 UNL     1      12.954   9.033  31.394  1.00  0.00     0.015 C 
ENDBRANCH  37  41
BRANCH  38  44
HETATM   44  O2  UNL     1       9.515   8.332  31.437  1.00  0.00    -0.360 OA
ATOM     45  H2  UNL     1       9.880   7.490  31.189  1.00  0.00     0.217 HD
ENDBRANCH  38  44
BRANCH  39  46
HETATM   46  C32 UNL     1       7.260   9.973  30.733  1.00  0.00    -0.021 C 
HETATM   47  C33 UNL     1       6.776   8.575  30.865  1.00  0.00     0.019 C 
HETATM   48  C34 UNL     1       6.234  10.678  29.799  1.00  0.00     0.019 C 
HETATM   49  C35 UNL     1       7.173  10.743  32.020  1.00  0.00     0.019 C 
ENDBRANCH  39  46
ENDBRANCH   7  35
TORSDOF 9
ENDMDL
MODEL 5
REMARK VINA RESULT: -6.047542783      7.545     12.042
REMARK  9 active torsions:
REMARK  status: ('A' for Active; 'I' for Inactive)
REMARK    1  A    between atoms: N1_2  and  C2_4 
REMARK    2  A    between atoms: C3_5  and  O1_6 
REMARK    3  A    between atoms: O1_6  and  C4_7 
REMARK    4  A    between atoms: C11_20  and  N4_21 
REMARK    5  A    between atoms: C12_22  and  N5_23 
REMARK    6  A    between atoms: C22_33  and  C24_35 
REMARK    7  A    between atoms: C26_37  and  C27_38 
REMARK    8  A    between atoms: C30_41  and  O2_42 
REMARK    9  A    between atoms: C31_44  and  C32_45 
ROOT
HETATM    1  N4  UNL     1      -0.395   4.560  22.099  1.00  0.00    -0.310 N 
HETATM    2  C12 UNL     1      -0.993   3.639  23.102  1.00  0.00     0.071 C 
HETATM    3  C18 UNL     1       0.051   3.184  23.993  1.00  0.00     0.009 C 
HETATM    4  C19 UNL     1       0.024   3.389  25.458  1.00  0.00     0.022 C 
HETATM    5  C20 UNL     1       0.378   1.672  23.822  1.00  0.00     0.022 C 
HETATM    6  C21 UNL     1       1.290   3.951  23.498  1.00  0.00     0.052 C 
HETATM    7  C22 UNL     1       0.861   5.031  22.560  1.00  0.00     0.064 C 
HETATM    8  C23 UNL     1       1.922   4.924  21.397  1.00  0.00     0.044 C 
ENDROOT
BRANCH   1   9
HETATM    9  C11 UNL     1      -0.992   4.757  20.825  1.00  0.00     0.141 A 
HETATM   10  C2  UNL     1      -2.026   5.545  20.454  1.00  0.00     0.124 A 
HETATM   11  C3  UNL     1      -2.434   5.554  19.120  1.00  0.00     0.179 A 
HETATM   12  N2  UNL     1      -1.781   4.775  18.227  1.00  0.00    -0.331 N 
HETATM   13  C10 UNL     1      -0.764   3.996  18.572  1.00  0.00     0.184 A 
ATOM     14  H2  UNL     1      -2.083   4.786  17.252  1.00  0.00     0.168 HD
HETATM   15  N3  UNL     1      -0.390   3.995  19.836  1.00  0.00    -0.336 N 
ATOM     16  H3  UNL     1       0.391   3.397  20.103  1.00  0.00     0.168 HD
BRANCH  10  17
HETATM   17  N1  UNL     1      -2.671   6.322  21.439  1.00  0.00    -0.388 N 
HETATM   18  C1  UNL     1      -4.070   6.179  21.721  1.00  0.00     0.146 C 
ATOM     19  H1  UNL     1      -2.127   7.004  21.966  1.00  0.00     0.159 HD
ENDBRANCH  10  17
BRANCH  11  20
HETATM   20  O1  UNL     1      -3.462   6.324  18.733  1.00  0.00    -0.291 OA
BRANCH  20  21
HETATM   21  C4  UNL     1      -3.617   7.315  17.834  1.00  0.00     0.083 A 
HETATM   22  C5  UNL     1      -3.230   8.610  18.265  1.00  0.00     0.079 A 
HETATM   23  C6  UNL     1      -3.324   9.713  17.469  1.00  0.00     0.121 A 
HETATM   24  F1  UNL     1      -2.937  10.945  17.930  1.00  0.00    -0.206 F 
HETATM   25  C7  UNL     1      -3.825   9.562  16.174  1.00  0.00     0.084 A 
HETATM   26  C8  UNL     1      -4.201   8.312  15.753  1.00  0.00     0.121 A 
HETATM   27  F2  UNL     1      -4.696   8.134  14.489  1.00  0.00    -0.206 F 
HETATM   28  C9  UNL     1      -4.107   7.187  16.559  1.00  0.00     0.079 A 
ENDBRANCH  20  21
ENDBRANCH  11  20
ENDBRANCH   1   9
BRANCH   2  29
HETATM   29  N5  UNL     1      -2.344   3.771  23.368  1.00  0.00    -0.272 NA
HETATM   30  C13 UNL     1      -3.162   2.544  23.200  1.00  0.00     0.096 C 
HETATM   31  C14 UNL     1      -3.200   1.663  24.407  1.00  0.00     0.015 C 
HETATM   32  C15 UNL     1      -4.237   2.293  25.347  1.00  0.00     0.002 C 
HETATM   33  C16 UNL     1      -4.152   3.763  25.049  1.00  0.00     0.015 C 
HETATM   34  C17 UNL     1      -2.710   4.157  24.725  1.00  0.00     0.096 C 
ENDBRANCH   2  29
BRANCH   7  35
HETATM   35  C24 UNL     1       1.070   6.398  23.020  1.00  0.00    -0.029 A 
HETATM   36  C25 UNL     1       0.071   7.239  23.506  1.00  0.00     0.020 A 
HETATM   37  C26 UNL     1       0.335   8.499  23.941  1.00  0.00    -0.020 A 
HETATM   38  C30 UNL     1       1.636   8.983  23.917  1.00  0.00     0.079 A 
HETATM   39  C31 UNL     1       2.658   8.218  23.462  1.00  0.00    -0.016 A 
HETATM   40  C36 UNL     1       2.344   6.935  23.023  1.00  0.00     0.020 A 
BRANCH  37  41
HETATM   41  C27 UNL     1      -0.794   9.314  24.398  1.00  0.00     0.013 C 
HETATM   42  C28 UNL     1      -1.655   9.786  23.248  1.00  0.00     0.015 C 
HETATM   43  C29 UNL     1      -1.625   8.825  25.503  1.00  0.00     0.015 C 
ENDBRANCH  37  41
BRANCH  38  44
HETATM   44  O2  UNL     1       1.811  10.248  24.367  1.00  0.00    -0.360 OA
ATOM     45  H2  UNL     1       1.030  10.698  24.669  1.00  0.00     0.217 HD
ENDBRANCH  38  44
BRANCH  39  46
HETATM   46  C32 UNL     1       4.049   8.713  23.415  1.00  0.00    -0.021 C 
HETATM   47  C33 UNL     1       4.305   9.833  22.474  1.00  0.00     0.019 C 
HETATM   48  C34 UNL     1       4.986   7.560  22.948  1.00  0.00     0.019 C 
HETATM   49  C35 UNL     1       4.508   9.014  24.814  1.00  0.00     0.019 C 
ENDBRANCH  39  46
ENDBRANCH   7  35
TORSDOF 9
ENDMDL
