MODEL 1
REMARK VINA RESULT: -6.128594808      0.000      0.000
REMARK  8 active torsions:
REMARK  status: ('A' for Active; 'I' for Inactive)
REMARK    1  A    between atoms: C2_2  and  C3_3 
REMARK    2  A    between atoms: C3_3  and  N1_4 
REMARK       I    between atoms: N1_4  and  C4_6 
REMARK       I    between atoms: C4_6  and  N2_8 
REMARK    3  A    between atoms: N2_8  and  C5_10 
REMARK    4  A    between atoms: C10_17  and  C11_18 
REMARK    5  A    between atoms: N3_19  and  N4_21 
REMARK    6  A    between atoms: C12_22  and  C13_23 
REMARK    7  A    between atoms: C13_23  and  O2_24 
REMARK    8  A    between atoms: O2_24  and  C14_25 
ROOT
HETATM    1  C5  UNL     1       2.571  10.817  -1.548  1.00  0.00     0.086 A 
HETATM    2  C6  UNL     1       3.476  10.082  -0.830  1.00  0.00     0.145 A 
HETATM    3  F1  UNL     1       3.050   9.211   0.148  1.00  0.00    -0.204 F 
HETATM    4  C7  UNL     1       4.824  10.170  -1.042  1.00  0.00     0.063 A 
HETATM    5  C8  UNL     1       5.314  11.028  -2.011  1.00  0.00     0.014 A 
HETATM    6 BR1  UNL     1       7.182  11.186  -2.367  1.00  0.00    -0.051 Br
HETATM    7  C9  UNL     1       4.426  11.772  -2.738  1.00  0.00     0.034 A 
HETATM    8  C10 UNL     1       3.072  11.682  -2.524  1.00  0.00     0.012 A 
ENDROOT
BRANCH   8   9
HETATM    9  C11 UNL     1       2.153  12.535  -3.311  1.00  0.00     0.121 C 
HETATM   10  N3  UNL     1       1.423  11.987  -4.207  1.00  0.00    -0.301 N 
ATOM     11  H3  UNL     1       1.519  10.978  -4.320  1.00  0.00     0.186 HD
BRANCH  10  12
HETATM   12  N4  UNL     1       0.520  12.618  -5.036  1.00  0.00    -0.213 N 
HETATM   13  C12 UNL     1       0.739  13.001  -6.291  1.00  0.00     0.145 A 
HETATM   14  N5  UNL     1      -0.387  13.594  -6.729  1.00  0.00    -0.283 N 
HETATM   15  N6  UNL     1      -1.301  13.588  -5.771  1.00  0.00    -0.273 N 
ATOM     16  H5  UNL     1      -0.517  13.989  -7.660  1.00  0.00     0.188 HD
HETATM   17  C20 UNL     1      -0.730  12.973  -4.708  1.00  0.00     0.213 A 
ATOM     18  H6  UNL     1      -2.245  13.970  -5.823  1.00  0.00     0.189 HD
HETATM   19  S1  UNL     1      -1.569  12.779  -3.311  1.00  0.00    -0.037 SA
BRANCH  13  20
HETATM   20  C13 UNL     1       1.975  12.827  -7.106  1.00  0.00     0.255 C 
BRANCH  20  21
HETATM   21  O2  UNL     1       2.379  11.495  -7.176  1.00  0.00    -0.344 OA
BRANCH  21  22
HETATM   22  C14 UNL     1       3.461  10.893  -6.642  1.00  0.00     0.069 A 
HETATM   23  C15 UNL     1       4.656  11.557  -6.511  1.00  0.00     0.037 A 
HETATM   24  C16 UNL     1       5.769  10.929  -5.957  1.00  0.00     0.003 A 
HETATM   25  C17 UNL     1       5.689   9.626  -5.529  1.00  0.00     0.000 A 
HETATM   26  C18 UNL     1       4.482   8.952  -5.660  1.00  0.00     0.003 A 
HETATM   27  C19 UNL     1       3.382   9.585  -6.212  1.00  0.00     0.037 A 
ENDBRANCH  21  22
ENDBRANCH  20  21
ENDBRANCH  13  20
ENDBRANCH  10  12
ENDBRANCH   8   9
BRANCH   1  28
HETATM   28  N2  UNL     1       1.174  10.753  -1.323  1.00  0.00    -0.305 N 
HETATM   29  C4  UNL     1       0.582  11.358  -0.135  1.00  0.00     0.324 C 
HETATM   30  N1  UNL     1      -0.775  11.229   0.083  1.00  0.00    -0.322 N 
HETATM   31  O1  UNL     1       1.390  11.953   0.588  1.00  0.00    -0.247 OA
ATOM     32  H1  UNL     1      -1.244  10.678  -0.636  1.00  0.00     0.169 HD
ATOM     33  H2  UNL     1       0.576  10.278  -1.998  1.00  0.00     0.171 HD
BRANCH  30  34
HETATM   34  C3  UNL     1      -1.639  11.684   1.064  1.00  0.00     0.075 C 
BRANCH  34  35
HETATM   35  C2  UNL     1      -2.799  10.903   1.567  1.00  0.00    -0.012 C 
HETATM   36  C1  UNL     1      -3.828  10.873   0.454  1.00  0.00     0.021 C 
HETATM   37  C21 UNL     1      -3.376  11.954   2.621  1.00  0.00     0.014 C 
HETATM   38  C22 UNL     1      -4.624  11.466   3.247  1.00  0.00     0.001 C 
HETATM   39  C23 UNL     1      -4.368  10.922   4.633  1.00  0.00     0.000 C 
HETATM   40  C24 UNL     1      -4.208   9.450   4.694  1.00  0.00     0.000 C 
HETATM   41  C25 UNL     1      -4.542   8.682   3.475  1.00  0.00     0.000 C 
HETATM   42  C26 UNL     1      -3.585   8.645   2.361  1.00  0.00     0.001 C 
HETATM   43  C27 UNL     1      -2.507   9.689   2.294  1.00  0.00     0.014 C 
ENDBRANCH  34  35
ENDBRANCH  30  34
ENDBRANCH   1  28
TORSDOF 8
ENDMDL
MODEL 2
REMARK VINA RESULT: -6.099319887      3.346      5.881
REMARK  8 active torsions:
REMARK  status: ('A' for Active; 'I' for Inactive)
REMARK    1  A    between atoms: C2_2  and  C3_3 
REMARK    2  A    between atoms: C3_3  and  N1_4 
REMARK       I    between atoms: N1_4  and  C4_6 
REMARK       I    between atoms: C4_6  and  N2_8 
REMARK    3  A    between atoms: N2_8  and  C5_10 
REMARK    4  A    between atoms: C10_17  and  C11_18 
REMARK    5  A    between atoms: N3_19  and  N4_21 
REMARK    6  A    between atoms: C12_22  and  C13_23 
REMARK    7  A    between atoms: C13_23  and  O2_24 
REMARK    8  A    between atoms: O2_24  and  C14_25 
ROOT
HETATM    1  C5  UNL     1       0.608  11.025  -2.808  1.00  0.00     0.086 A 
HETATM    2  C6  UNL     1       0.364  11.653  -4.001  1.00  0.00     0.145 A 
HETATM    3  F1  UNL     1      -0.925  11.795  -4.464  1.00  0.00    -0.204 F 
HETATM    4  C7  UNL     1       1.366  12.163  -4.778  1.00  0.00     0.063 A 
HETATM    5  C8  UNL     1       2.682  12.051  -4.366  1.00  0.00     0.014 A 
HETATM    6 BR1  UNL     1       4.125  12.755  -5.397  1.00  0.00    -0.051 Br
HETATM    7  C9  UNL     1       2.947  11.427  -3.178  1.00  0.00     0.034 A 
HETATM    8  C10 UNL     1       1.939  10.914  -2.399  1.00  0.00     0.012 A 
ENDROOT
BRANCH   8   9
HETATM    9  C11 UNL     1       2.278  10.214  -1.138  1.00  0.00     0.121 C 
HETATM   10  N3  UNL     1       2.550  10.913  -0.102  1.00  0.00    -0.301 N 
ATOM     11  H3  UNL     1       2.510  11.926  -0.211  1.00  0.00     0.186 HD
BRANCH  10  12
HETATM   12  N4  UNL     1       2.892  10.439   1.147  1.00  0.00    -0.213 N 
HETATM   13  C12 UNL     1       4.017   9.805   1.465  1.00  0.00     0.145 A 
HETATM   14  N5  UNL     1       3.943   9.496   2.773  1.00  0.00    -0.283 N 
HETATM   15  N6  UNL     1       2.794   9.924   3.273  1.00  0.00    -0.273 N 
ATOM     16  H5  UNL     1       4.664   9.005   3.301  1.00  0.00     0.188 HD
HETATM   17  C20 UNL     1       2.135  10.517   2.249  1.00  0.00     0.213 A 
ATOM     18  H6  UNL     1       2.470   9.827   4.235  1.00  0.00     0.189 HD
HETATM   19  S1  UNL     1       0.650  11.176   2.488  1.00  0.00    -0.037 SA
BRANCH  13  20
HETATM   20  C13 UNL     1       5.174   9.476   0.584  1.00  0.00     0.255 C 
BRANCH  20  21
HETATM   21  O2  UNL     1       5.444   8.110   0.555  1.00  0.00    -0.344 OA
BRANCH  21  22
HETATM   22  C14 UNL     1       6.498   7.429   1.050  1.00  0.00     0.069 A 
HETATM   23  C15 UNL     1       7.026   7.727   2.282  1.00  0.00     0.037 A 
HETATM   24  C16 UNL     1       8.113   7.017   2.787  1.00  0.00     0.003 A 
HETATM   25  C17 UNL     1       8.678   6.000   2.057  1.00  0.00     0.000 A 
HETATM   26  C18 UNL     1       8.146   5.696   0.810  1.00  0.00     0.003 A 
HETATM   27  C19 UNL     1       7.066   6.407   0.317  1.00  0.00     0.037 A 
ENDBRANCH  21  22
ENDBRANCH  20  21
ENDBRANCH  13  20
ENDBRANCH  10  12
ENDBRANCH   8   9
BRANCH   1  28
HETATM   28  N2  UNL     1      -0.418  10.471  -2.004  1.00  0.00    -0.305 N 
HETATM   29  C4  UNL     1      -1.046  11.259  -0.949  1.00  0.00     0.324 C 
HETATM   30  N1  UNL     1      -2.005  10.671  -0.148  1.00  0.00    -0.322 N 
HETATM   31  O1  UNL     1      -0.640  12.424  -0.877  1.00  0.00    -0.247 OA
ATOM     32  H1  UNL     1      -2.168   9.690  -0.376  1.00  0.00     0.169 HD
ATOM     33  H2  UNL     1      -0.722   9.511  -2.166  1.00  0.00     0.171 HD
BRANCH  30  34
HETATM   34  C3  UNL     1      -2.793  11.121   0.897  1.00  0.00     0.075 C 
BRANCH  34  35
HETATM   35  C2  UNL     1      -3.660  10.235   1.717  1.00  0.00    -0.012 C 
HETATM   36  C1  UNL     1      -4.824   9.820   0.839  1.00  0.00     0.021 C 
HETATM   37  C21 UNL     1      -4.271  11.325   2.710  1.00  0.00     0.014 C 
HETATM   38  C22 UNL     1      -5.267  10.727   3.626  1.00  0.00     0.001 C 
HETATM   39  C23 UNL     1      -4.678  10.488   4.996  1.00  0.00     0.000 C 
HETATM   40  C24 UNL     1      -4.196   9.106   5.225  1.00  0.00     0.000 C 
HETATM   41  C25 UNL     1      -4.549   8.090   4.210  1.00  0.00     0.000 C 
HETATM   42  C26 UNL     1      -3.801   8.042   2.947  1.00  0.00     0.001 C 
HETATM   43  C27 UNL     1      -2.999   9.242   2.531  1.00  0.00     0.014 C 
ENDBRANCH  34  35
ENDBRANCH  30  34
ENDBRANCH   1  28
TORSDOF 8
ENDMDL
MODEL 3
REMARK VINA RESULT: -6.099081476      3.432      5.585
REMARK  8 active torsions:
REMARK  status: ('A' for Active; 'I' for Inactive)
REMARK    1  A    between atoms: C2_2  and  C3_3 
REMARK    2  A    between atoms: C3_3  and  N1_4 
REMARK       I    between atoms: N1_4  and  C4_6 
REMARK       I    between atoms: C4_6  and  N2_8 
REMARK    3  A    between atoms: N2_8  and  C5_10 
REMARK    4  A    between atoms: C10_17  and  C11_18 
REMARK    5  A    between atoms: N3_19  and  N4_21 
REMARK    6  A    between atoms: C12_22  and  C13_23 
REMARK    7  A    between atoms: C13_23  and  O2_24 
REMARK    8  A    between atoms: O2_24  and  C14_25 
ROOT
HETATM    1  C5  UNL     1       0.341  11.443  -2.473  1.00  0.00     0.086 A 
HETATM    2  C6  UNL     1       0.350  10.417  -3.381  1.00  0.00     0.145 A 
HETATM    3  F1  UNL     1      -0.117   9.170  -3.031  1.00  0.00    -0.204 F 
HETATM    4  C7  UNL     1       0.811  10.574  -4.658  1.00  0.00     0.063 A 
HETATM    5  C8  UNL     1       1.293  11.804  -5.070  1.00  0.00     0.014 A 
HETATM    6 BR1  UNL     1       1.937  12.093  -6.843  1.00  0.00    -0.051 Br
HETATM    7  C9  UNL     1       1.295  12.840  -4.178  1.00  0.00     0.034 A 
HETATM    8  C10 UNL     1       0.831  12.681  -2.895  1.00  0.00     0.012 A 
ENDROOT
BRANCH   8   9
HETATM    9  C11 UNL     1       0.887  13.823  -1.954  1.00  0.00     0.121 C 
HETATM   10  N3  UNL     1       1.831  13.863  -1.091  1.00  0.00    -0.301 N 
ATOM     11  H3  UNL     1       2.500  13.093  -1.111  1.00  0.00     0.186 HD
BRANCH  10  12
HETATM   12  N4  UNL     1       2.038  14.837  -0.138  1.00  0.00    -0.213 N 
HETATM   13  C12 UNL     1       1.532  14.853   1.092  1.00  0.00     0.145 A 
HETATM   14  N5  UNL     1       1.960  15.983   1.683  1.00  0.00    -0.283 N 
HETATM   15  N6  UNL     1       2.720  16.671   0.845  1.00  0.00    -0.273 N 
ATOM     16  H5  UNL     1       1.733  16.269   2.636  1.00  0.00     0.188 HD
HETATM   17  C20 UNL     1       2.768  15.948  -0.299  1.00  0.00     0.213 A 
ATOM     18  H6  UNL     1       3.177  17.566   1.024  1.00  0.00     0.189 HD
HETATM   19  S1  UNL     1       3.627  16.491  -1.589  1.00  0.00    -0.037 SA
BRANCH  13  20
HETATM   20  C13 UNL     1       0.658  13.837   1.744  1.00  0.00     0.255 C 
BRANCH  20  21
HETATM   21  O2  UNL     1       0.975  12.538   1.352  1.00  0.00    -0.344 OA
BRANCH  21  22
HETATM   22  C14 UNL     1       1.849  11.663   1.891  1.00  0.00     0.069 A 
HETATM   23  C15 UNL     1       1.455  10.754   2.842  1.00  0.00     0.037 A 
HETATM   24  C16 UNL     1       2.362   9.853   3.393  1.00  0.00     0.003 A 
HETATM   25  C17 UNL     1       3.676   9.857   2.990  1.00  0.00     0.000 A 
HETATM   26  C18 UNL     1       4.077  10.775   2.028  1.00  0.00     0.003 A 
HETATM   27  C19 UNL     1       3.168  11.666   1.487  1.00  0.00     0.037 A 
ENDBRANCH  21  22
ENDBRANCH  20  21
ENDBRANCH  13  20
ENDBRANCH  10  12
ENDBRANCH   8   9
BRANCH   1  28
HETATM   28  N2  UNL     1      -0.112  11.288  -1.140  1.00  0.00    -0.305 N 
HETATM   29  C4  UNL     1      -1.508  11.530  -0.794  1.00  0.00     0.324 C 
HETATM   30  N1  UNL     1      -1.904  11.423   0.524  1.00  0.00    -0.322 N 
HETATM   31  O1  UNL     1      -2.227  11.817  -1.758  1.00  0.00    -0.247 OA
ATOM     32  H1  UNL     1      -1.136  11.195   1.155  1.00  0.00     0.169 HD
ATOM     33  H2  UNL     1       0.546  11.003  -0.414  1.00  0.00     0.171 HD
BRANCH  30  34
HETATM   34  C3  UNL     1      -3.117  11.559   1.178  1.00  0.00     0.075 C 
BRANCH  34  35
HETATM   35  C2  UNL     1      -3.830  10.434   1.835  1.00  0.00    -0.012 C 
HETATM   36  C1  UNL     1      -4.798   9.869   0.813  1.00  0.00     0.021 C 
HETATM   37  C21 UNL     1      -4.747  11.265   2.842  1.00  0.00     0.014 C 
HETATM   38  C22 UNL     1      -5.657  10.382   3.603  1.00  0.00     0.001 C 
HETATM   39  C23 UNL     1      -5.146  10.141   5.003  1.00  0.00     0.000 C 
HETATM   40  C24 UNL     1      -4.391   8.876   5.171  1.00  0.00     0.000 C 
HETATM   41  C25 UNL     1      -4.426   7.914   4.049  1.00  0.00     0.000 C 
HETATM   42  C26 UNL     1      -3.584   8.150   2.869  1.00  0.00     0.001 C 
HETATM   43  C27 UNL     1      -3.036   9.528   2.632  1.00  0.00     0.014 C 
ENDBRANCH  34  35
ENDBRANCH  30  34
ENDBRANCH   1  28
TORSDOF 8
ENDMDL
MODEL 4
REMARK VINA RESULT: -6.046601831      3.182      5.569
REMARK  8 active torsions:
REMARK  status: ('A' for Active; 'I' for Inactive)
REMARK    1  A    between atoms: C2_2  and  C3_3 
REMARK    2  A    between atoms: C3_3  and  N1_4 
REMARK       I    between atoms: N1_4  and  C4_6 
REMARK       I    between atoms: C4_6  and  N2_8 
REMARK    3  A    between atoms: N2_8  and  C5_10 
REMARK    4  A    between atoms: C10_17  and  C11_18 
REMARK    5  A    between atoms: N3_19  and  N4_21 
REMARK    6  A    between atoms: C12_22  and  C13_23 
REMARK    7  A    between atoms: C13_23  and  O2_24 
REMARK    8  A    between atoms: O2_24  and  C14_25 
ROOT
HETATM    1  C5  UNL     1      -0.366  11.143  -3.269  1.00  0.00     0.086 A 
HETATM    2  C6  UNL     1       0.214   9.941  -3.580  1.00  0.00     0.145 A 
HETATM    3  F1  UNL     1      -0.280   8.770  -3.053  1.00  0.00    -0.204 F 
HETATM    4  C7  UNL     1       1.293   9.843  -4.415  1.00  0.00     0.063 A 
HETATM    5  C8  UNL     1       1.835  10.986  -4.977  1.00  0.00     0.014 A 
HETATM    6 BR1  UNL     1       3.329  10.916  -6.161  1.00  0.00    -0.051 Br
HETATM    7  C9  UNL     1       1.271  12.195  -4.678  1.00  0.00     0.034 A 
HETATM    8  C10 UNL     1       0.188  12.292  -3.838  1.00  0.00     0.012 A 
ENDROOT
BRANCH   8   9
HETATM    9  C11 UNL     1      -0.365  13.628  -3.516  1.00  0.00     0.121 C 
HETATM   10  N3  UNL     1      -1.447  13.999  -4.090  1.00  0.00    -0.301 N 
ATOM     11  H3  UNL     1      -1.869  13.337  -4.741  1.00  0.00     0.186 HD
BRANCH  10  12
HETATM   12  N4  UNL     1      -2.101  15.201  -3.920  1.00  0.00    -0.213 N 
HETATM   13  C12 UNL     1      -3.075  15.448  -3.048  1.00  0.00     0.145 A 
HETATM   14  N5  UNL     1      -3.448  16.730  -3.222  1.00  0.00    -0.283 N 
HETATM   15  N6  UNL     1      -2.726  17.283  -4.184  1.00  0.00    -0.273 N 
ATOM     16  H5  UNL     1      -4.178  17.205  -2.692  1.00  0.00     0.188 HD
HETATM   17  C20 UNL     1      -1.879  16.321  -4.620  1.00  0.00     0.213 A 
ATOM     18  H6  UNL     1      -2.794  18.241  -4.528  1.00  0.00     0.189 HD
HETATM   19  S1  UNL     1      -0.814  16.637  -5.829  1.00  0.00    -0.037 SA
BRANCH  13  20
HETATM   20  C13 UNL     1      -3.674  14.522  -2.045  1.00  0.00     0.255 C 
BRANCH  20  21
HETATM   21  O2  UNL     1      -3.679  13.200  -2.485  1.00  0.00    -0.344 OA
BRANCH  21  22
HETATM   22  C14 UNL     1      -4.696  12.455  -2.965  1.00  0.00     0.069 A 
HETATM   23  C15 UNL     1      -5.335  11.528  -2.178  1.00  0.00     0.037 A 
HETATM   24  C16 UNL     1      -6.385  10.764  -2.679  1.00  0.00     0.003 A 
HETATM   25  C17 UNL     1      -6.804  10.925  -3.978  1.00  0.00     0.000 A 
HETATM   26  C18 UNL     1      -6.160  11.861  -4.776  1.00  0.00     0.003 A 
HETATM   27  C19 UNL     1      -5.117  12.616  -4.269  1.00  0.00     0.037 A 
ENDBRANCH  21  22
ENDBRANCH  20  21
ENDBRANCH  13  20
ENDBRANCH  10  12
ENDBRANCH   8   9
BRANCH   1  28
HETATM   28  N2  UNL     1      -1.468  11.261  -2.388  1.00  0.00    -0.305 N 
HETATM   29  C4  UNL     1      -1.279  11.181  -0.944  1.00  0.00     0.324 C 
HETATM   30  N1  UNL     1      -2.382  11.244  -0.115  1.00  0.00    -0.322 N 
HETATM   31  O1  UNL     1      -0.100  11.062  -0.592  1.00  0.00    -0.247 OA
ATOM     32  H1  UNL     1      -3.261  11.324  -0.626  1.00  0.00     0.169 HD
ATOM     33  H2  UNL     1      -2.404  11.403  -2.767  1.00  0.00     0.171 HD
BRANCH  30  34
HETATM   34  C3  UNL     1      -2.555  11.223   1.258  1.00  0.00     0.075 C 
BRANCH  34  35
HETATM   35  C2  UNL     1      -3.485  10.300   1.958  1.00  0.00    -0.012 C 
HETATM   36  C1  UNL     1      -4.577   9.940   0.969  1.00  0.00     0.021 C 
HETATM   37  C21 UNL     1      -4.171  11.337   2.958  1.00  0.00     0.014 C 
HETATM   38  C22 UNL     1      -5.237  10.696   3.758  1.00  0.00     0.001 C 
HETATM   39  C23 UNL     1      -4.759  10.379   5.156  1.00  0.00     0.000 C 
HETATM   40  C24 UNL     1      -4.299   8.983   5.346  1.00  0.00     0.000 C 
HETATM   41  C25 UNL     1      -4.572   8.027   4.252  1.00  0.00     0.000 C 
HETATM   42  C26 UNL     1      -3.726   8.043   3.051  1.00  0.00     0.001 C 
HETATM   43  C27 UNL     1      -2.892   9.259   2.766  1.00  0.00     0.014 C 
ENDBRANCH  34  35
ENDBRANCH  30  34
ENDBRANCH   1  28
TORSDOF 8
ENDMDL
MODEL 5
REMARK VINA RESULT: -6.042726524      4.707      9.188
REMARK  8 active torsions:
REMARK  status: ('A' for Active; 'I' for Inactive)
REMARK    1  A    between atoms: C2_2  and  C3_3 
REMARK    2  A    between atoms: C3_3  and  N1_4 
REMARK       I    between atoms: N1_4  and  C4_6 
REMARK       I    between atoms: C4_6  and  N2_8 
REMARK    3  A    between atoms: N2_8  and  C5_10 
REMARK    4  A    between atoms: C10_17  and  C11_18 
REMARK    5  A    between atoms: N3_19  and  N4_21 
REMARK    6  A    between atoms: C12_22  and  C13_23 
REMARK    7  A    between atoms: C13_23  and  O2_24 
REMARK    8  A    between atoms: O2_24  and  C14_25 
ROOT
HETATM    1  C5  UNL     1      -4.220   9.930   2.086  1.00  0.00     0.086 A 
HETATM    2  C6  UNL     1      -3.809   9.032   3.034  1.00  0.00     0.145 A 
HETATM    3  F1  UNL     1      -2.715   8.227   2.808  1.00  0.00    -0.204 F 
HETATM    4  C7  UNL     1      -4.449   8.890   4.235  1.00  0.00     0.063 A 
HETATM    5  C8  UNL     1      -5.555   9.671   4.521  1.00  0.00     0.014 A 
HETATM    6 BR1  UNL     1      -6.484   9.532   6.182  1.00  0.00    -0.051 Br
HETATM    7  C9  UNL     1      -5.982  10.573   3.586  1.00  0.00     0.034 A 
HETATM    8  C10 UNL     1      -5.338  10.713   2.381  1.00  0.00     0.012 A 
ENDROOT
BRANCH   8   9
HETATM    9  C11 UNL     1      -5.860  11.678   1.386  1.00  0.00     0.121 C 
HETATM   10  N3  UNL     1      -5.540  12.911   1.500  1.00  0.00    -0.301 N 
ATOM     11  H3  UNL     1      -4.931  13.155   2.281  1.00  0.00     0.186 HD
BRANCH  10  12
HETATM   12  N4  UNL     1      -5.934  13.946   0.677  1.00  0.00    -0.213 N 
HETATM   13  C12 UNL     1      -5.337  14.322  -0.451  1.00  0.00     0.145 A 
HETATM   14  N5  UNL     1      -6.022  15.377  -0.929  1.00  0.00    -0.283 N 
HETATM   15  N6  UNL     1      -7.031  15.664  -0.121  1.00  0.00    -0.273 N 
ATOM     16  H5  UNL     1      -5.798  15.881  -1.787  1.00  0.00     0.188 HD
HETATM   17  C20 UNL     1      -6.974  14.762   0.887  1.00  0.00     0.213 A 
ATOM     18  H6  UNL     1      -7.713  16.414  -0.236  1.00  0.00     0.189 HD
HETATM   19  S1  UNL     1      -8.079  14.804   2.101  1.00  0.00    -0.037 SA
BRANCH  13  20
HETATM   20  C13 UNL     1      -4.140  13.723  -1.106  1.00  0.00     0.255 C 
BRANCH  20  21
HETATM   21  O2  UNL     1      -4.336  12.386  -1.443  1.00  0.00    -0.344 OA
BRANCH  21  22
HETATM   22  C14 UNL     1      -5.128  11.841  -2.389  1.00  0.00     0.069 A 
HETATM   23  C15 UNL     1      -5.890  10.729  -2.128  1.00  0.00     0.037 A 
HETATM   24  C16 UNL     1      -6.707  10.173  -3.110  1.00  0.00     0.003 A 
HETATM   25  C17 UNL     1      -6.767  10.734  -4.363  1.00  0.00     0.000 A 
HETATM   26  C18 UNL     1      -5.997  11.859  -4.629  1.00  0.00     0.003 A 
HETATM   27  C19 UNL     1      -5.188  12.403  -3.647  1.00  0.00     0.037 A 
ENDBRANCH  21  22
ENDBRANCH  20  21
ENDBRANCH  13  20
ENDBRANCH  10  12
ENDBRANCH   8   9
BRANCH   1  28
HETATM   28  N2  UNL     1      -3.580  10.070   0.830  1.00  0.00    -0.305 N 
HETATM   29  C4  UNL     1      -2.286  10.735   0.722  1.00  0.00     0.324 C 
HETATM   30  N1  UNL     1      -1.716  10.904  -0.524  1.00  0.00    -0.322 N 
HETATM   31  O1  UNL     1      -1.809  11.093   1.805  1.00  0.00    -0.247 OA
ATOM     32  H1  UNL     1      -2.299  10.547  -1.281  1.00  0.00     0.169 HD
ATOM     33  H2  UNL     1      -4.030   9.703  -0.008  1.00  0.00     0.171 HD
BRANCH  30  34
HETATM   34  C3  UNL     1      -0.527  11.452  -0.971  1.00  0.00     0.075 C 
BRANCH  34  35
HETATM   35  C2  UNL     1      -0.192  11.636  -2.407  1.00  0.00    -0.012 C 
HETATM   36  C1  UNL     1      -1.461  12.093  -3.102  1.00  0.00     0.021 C 
HETATM   37  C21 UNL     1      -0.030  10.105  -2.829  1.00  0.00     0.014 C 
HETATM   38  C22 UNL     1       0.237   9.967  -4.278  1.00  0.00     0.001 C 
HETATM   39  C23 UNL     1       1.702   9.712  -4.544  1.00  0.00     0.000 C 
HETATM   40  C24 UNL     1       2.481  10.921  -4.900  1.00  0.00     0.000 C 
HETATM   41  C25 UNL     1       1.720  12.158  -5.179  1.00  0.00     0.000 C 
HETATM   42  C26 UNL     1       1.187  12.946  -4.059  1.00  0.00     0.001 C 
HETATM   43  C27 UNL     1       1.057  12.296  -2.711  1.00  0.00     0.014 C 
ENDBRANCH  34  35
ENDBRANCH  30  34
ENDBRANCH   1  28
TORSDOF 8
ENDMDL
