MODEL 1
REMARK VINA RESULT: -5.908524363      0.000      0.000
REMARK  12 active torsions:
REMARK  status: ('A' for Active; 'I' for Inactive)
REMARK    1  A    between atoms: C2_2  and  O2_4 
REMARK    2  A    between atoms: O2_4  and  C3_5 
REMARK    3  A    between atoms: C22_26  and  C24_28 
REMARK    4  A    between atoms: C24_28  and  C25_29 
REMARK    5  A    between atoms: C25_29  and  C27_31 
REMARK    6  A    between atoms: C27_31  and  O3_32 
REMARK    7  A    between atoms: C28_34  and  C29_35 
REMARK    8  A    between atoms: C29_35  and  C30_36 
REMARK    9  A    between atoms: C30_36  and  O4_37 
REMARK   10  A    between atoms: C30_36  and  C31_39 
REMARK   11  A    between atoms: C31_39  and  C33_41 
REMARK   12  A    between atoms: C33_41  and  O5_42 
ROOT
HETATM    1  C3  UNL     1       2.465  12.207   1.869  1.00  0.00     0.142 C 
HETATM    2  C4  UNL     1       2.837  13.648   2.389  1.00  0.00     0.038 C 
HETATM    3  C5  UNL     1       1.672  14.529   2.531  1.00  0.00     0.039 C 
HETATM    4  C6  UNL     1       0.602  14.224   1.574  1.00  0.00    -0.053 C 
HETATM    5  C7  UNL     1      -0.408  15.104   1.709  1.00  0.00    -0.079 C 
HETATM    6  C8  UNL     1      -0.230  16.148   2.744  1.00  0.00     0.043 C 
HETATM    7  C9  UNL     1      -1.717  15.158   0.970  1.00  0.00     0.034 C 
HETATM    8  C10 UNL     1      -2.474  13.866   1.292  1.00  0.00     0.010 C 
HETATM    9  C11 UNL     1      -1.569  12.844   1.886  1.00  0.00     0.004 C 
HETATM   10  C12 UNL     1      -2.373  11.682   2.462  1.00  0.00     0.021 C 
HETATM   11  C13 UNL     1      -1.466  10.932   3.399  1.00  0.00     0.015 C 
HETATM   12  C14 UNL     1      -2.872  10.809   1.334  1.00  0.00    -0.031 C 
HETATM   13  C15 UNL     1      -3.628   9.784   1.646  1.00  0.00    -0.079 C 
HETATM   14  C16 UNL     1      -3.974   9.510   3.073  1.00  0.00     0.043 C 
HETATM   15  C17 UNL     1      -4.173   8.823   0.656  1.00  0.00     0.043 C 
HETATM   16  C18 UNL     1      -2.508  11.179  -0.027  1.00  0.00     0.037 C 
HETATM   17 CL1  UNL     1      -3.522  10.730  -1.363  1.00  0.00    -0.084 Cl
HETATM   18  C19 UNL     1      -1.408  11.885  -0.292  1.00  0.00     0.005 C 
HETATM   19  C20 UNL     1      -0.587  12.261   0.887  1.00  0.00     0.043 C 
HETATM   20  C21 UNL     1       0.584  13.132   0.587  1.00  0.00     0.077 C 
HETATM   21 CL2  UNL     1       0.444  13.878  -1.022  1.00  0.00    -0.113 Cl
HETATM   22  C22 UNL     1       1.928  12.351   0.553  1.00  0.00     0.009 C 
HETATM   23  C23 UNL     1       2.854  13.377  -0.213  1.00  0.00     0.020 C 
ENDROOT
BRANCH  22  24
HETATM   24  C24 UNL     1       1.716  11.314  -0.461  1.00  0.00     0.025 C 
BRANCH  24  25
HETATM   25  C25 UNL     1       2.743  10.461  -1.028  1.00  0.00     0.039 C 
HETATM   26  C26 UNL     1       2.914   9.092  -0.465  1.00  0.00     0.017 C 
BRANCH  25  27
HETATM   27  C27 UNL     1       2.655  10.251  -2.526  1.00  0.00     0.043 C 
HETATM   28  C28 UNL     1       1.603  10.457  -3.245  1.00  0.00     0.008 C 
BRANCH  27  29
HETATM   29  O3  UNL     1       3.835   9.807  -3.087  1.00  0.00    -0.365 OA
ATOM     30  H3  UNL     1       3.707   9.279  -3.866  1.00  0.00     0.217 HD
ENDBRANCH  27  29
BRANCH  28  31
HETATM   31  C29 UNL     1       1.414  10.285  -4.672  1.00  0.00     0.061 C 
BRANCH  31  32
HETATM   32  C30 UNL     1       0.967  11.453  -5.482  1.00  0.00     0.127 C 
BRANCH  32  33
HETATM   33  O4  UNL     1      -0.391  11.681  -5.241  1.00  0.00    -0.395 OA
ATOM     34  H4  UNL     1      -0.499  12.000  -4.352  1.00  0.00     0.210 HD
ENDBRANCH  32  33
BRANCH  32  35
HETATM   35  C31 UNL     1       1.678  12.725  -5.068  1.00  0.00     0.034 C 
HETATM   36  C32 UNL     1       0.738  13.840  -4.719  1.00  0.00     0.015 C 
BRANCH  35  37
HETATM   37  C33 UNL     1       2.721  13.174  -6.068  1.00  0.00     0.170 C 
BRANCH  37  38
HETATM   38  O5  UNL     1       2.539  12.431  -7.259  1.00  0.00    -0.400 OA
ATOM     39  H5  UNL     1       3.365  12.018  -7.480  1.00  0.00     0.209 HD
ENDBRANCH  37  38
ENDBRANCH  35  37
ENDBRANCH  32  35
ENDBRANCH  31  32
ENDBRANCH  28  31
ENDBRANCH  25  27
ENDBRANCH  24  25
ENDBRANCH  22  24
BRANCH   1  40
HETATM   40  O2  UNL     1       3.680  11.565   2.105  1.00  0.00    -0.315 OA
BRANCH  40  41
HETATM   41  C2  UNL     1       3.756  10.498   3.022  1.00  0.00     0.255 C 
HETATM   42  C1  UNL     1       2.526   9.806   3.400  1.00  0.00     0.126 C 
HETATM   43  O1  UNL     1       4.858  10.182   3.475  1.00  0.00    -0.266 OA
ENDBRANCH  40  41
ENDBRANCH   1  40
TORSDOF 12
ENDMDL
MODEL 2
REMARK VINA RESULT: -5.833072881      1.002      1.455
REMARK  12 active torsions:
REMARK  status: ('A' for Active; 'I' for Inactive)
REMARK    1  A    between atoms: C2_2  and  O2_4 
REMARK    2  A    between atoms: O2_4  and  C3_5 
REMARK    3  A    between atoms: C22_26  and  C24_28 
REMARK    4  A    between atoms: C24_28  and  C25_29 
REMARK    5  A    between atoms: C25_29  and  C27_31 
REMARK    6  A    between atoms: C27_31  and  O3_32 
REMARK    7  A    between atoms: C28_34  and  C29_35 
REMARK    8  A    between atoms: C29_35  and  C30_36 
REMARK    9  A    between atoms: C30_36  and  O4_37 
REMARK   10  A    between atoms: C30_36  and  C31_39 
REMARK   11  A    between atoms: C31_39  and  C33_41 
REMARK   12  A    between atoms: C33_41  and  O5_42 
ROOT
HETATM    1  C3  UNL     1       2.092  12.417   1.955  1.00  0.00     0.142 C 
HETATM    2  C4  UNL     1       2.395  13.874   2.473  1.00  0.00     0.038 C 
HETATM    3  C5  UNL     1       1.198  14.719   2.558  1.00  0.00     0.039 C 
HETATM    4  C6  UNL     1       0.178  14.370   1.562  1.00  0.00    -0.053 C 
HETATM    5  C7  UNL     1      -0.864  15.217   1.647  1.00  0.00    -0.079 C 
HETATM    6  C8  UNL     1      -0.762  16.277   2.676  1.00  0.00     0.043 C 
HETATM    7  C9  UNL     1      -2.143  15.221   0.855  1.00  0.00     0.034 C 
HETATM    8  C10 UNL     1      -2.871  13.909   1.161  1.00  0.00     0.010 C 
HETATM    9  C11 UNL     1      -1.958  12.923   1.802  1.00  0.00     0.004 C 
HETATM   10  C12 UNL     1      -2.746  11.741   2.359  1.00  0.00     0.021 C 
HETATM   11  C13 UNL     1      -1.854  11.029   3.340  1.00  0.00     0.015 C 
HETATM   12  C14 UNL     1      -3.171  10.840   1.222  1.00  0.00    -0.031 C 
HETATM   13  C15 UNL     1      -3.906   9.794   1.515  1.00  0.00    -0.079 C 
HETATM   14  C16 UNL     1      -4.301   9.523   2.929  1.00  0.00     0.043 C 
HETATM   15  C17 UNL     1      -4.378   8.806   0.514  1.00  0.00     0.043 C 
HETATM   16  C18 UNL     1      -2.764  11.209  -0.128  1.00  0.00     0.037 C 
HETATM   17 CL1  UNL     1      -3.708  10.713  -1.498  1.00  0.00    -0.084 Cl
HETATM   18  C19 UNL     1      -1.677  11.947  -0.356  1.00  0.00     0.005 C 
HETATM   19  C20 UNL     1      -0.918  12.362   0.850  1.00  0.00     0.043 C 
HETATM   20  C21 UNL     1       0.235  13.267   0.588  1.00  0.00     0.077 C 
HETATM   21 CL2  UNL     1       0.137  13.993  -1.034  1.00  0.00    -0.113 Cl
HETATM   22  C22 UNL     1       1.604  12.531   0.617  1.00  0.00     0.009 C 
HETATM   23  C23 UNL     1       2.527  13.578  -0.123  1.00  0.00     0.020 C 
ENDROOT
BRANCH  22  24
HETATM   24  C24 UNL     1       1.468  11.477  -0.394  1.00  0.00     0.025 C 
BRANCH  24  25
HETATM   25  C25 UNL     1       2.486  11.079  -1.346  1.00  0.00     0.039 C 
HETATM   26  C26 UNL     1       3.398   9.960  -0.978  1.00  0.00     0.017 C 
BRANCH  25  27
HETATM   27  C27 UNL     1       1.975  10.720  -2.726  1.00  0.00     0.043 C 
HETATM   28  C28 UNL     1       1.697  11.567  -3.660  1.00  0.00     0.008 C 
BRANCH  27  29
HETATM   29  O3  UNL     1       1.825   9.361  -2.918  1.00  0.00    -0.365 OA
ATOM     30  H3  UNL     1       1.670   9.124  -3.824  1.00  0.00     0.217 HD
ENDBRANCH  27  29
BRANCH  28  31
HETATM   31  C29 UNL     1       1.203  11.329  -5.002  1.00  0.00     0.061 C 
BRANCH  31  32
HETATM   32  C30 UNL     1       2.167  10.913  -6.058  1.00  0.00     0.127 C 
BRANCH  32  33
HETATM   33  O4  UNL     1       2.066  11.793  -7.140  1.00  0.00    -0.395 OA
ATOM     34  H4  UNL     1       2.541  12.591  -6.936  1.00  0.00     0.210 HD
ENDBRANCH  32  33
BRANCH  32  35
HETATM   35  C31 UNL     1       3.601  11.015  -5.578  1.00  0.00     0.034 C 
HETATM   36  C32 UNL     1       4.352  12.154  -6.199  1.00  0.00     0.015 C 
BRANCH  35  37
HETATM   37  C33 UNL     1       4.363   9.714  -5.707  1.00  0.00     0.170 C 
BRANCH  37  38
HETATM   38  O5  UNL     1       3.547   8.672  -5.206  1.00  0.00    -0.400 OA
ATOM     39  H5  UNL     1       2.653   8.840  -5.476  1.00  0.00     0.209 HD
ENDBRANCH  37  38
ENDBRANCH  35  37
ENDBRANCH  32  35
ENDBRANCH  31  32
ENDBRANCH  28  31
ENDBRANCH  25  27
ENDBRANCH  24  25
ENDBRANCH  22  24
BRANCH   1  40
HETATM   40  O2  UNL     1       3.316  11.818   2.247  1.00  0.00    -0.315 OA
BRANCH  40  41
HETATM   41  C2  UNL     1       3.369  10.650   3.034  1.00  0.00     0.255 C 
HETATM   42  C1  UNL     1       2.118   9.985   3.389  1.00  0.00     0.126 C 
HETATM   43  O1  UNL     1       4.469  10.228   3.397  1.00  0.00    -0.266 OA
ENDBRANCH  40  41
ENDBRANCH   1  40
TORSDOF 12
ENDMDL
MODEL 3
REMARK VINA RESULT: -5.617185319      3.123      6.619
REMARK  12 active torsions:
REMARK  status: ('A' for Active; 'I' for Inactive)
REMARK    1  A    between atoms: C2_2  and  O2_4 
REMARK    2  A    between atoms: O2_4  and  C3_5 
REMARK    3  A    between atoms: C22_26  and  C24_28 
REMARK    4  A    between atoms: C24_28  and  C25_29 
REMARK    5  A    between atoms: C25_29  and  C27_31 
REMARK    6  A    between atoms: C27_31  and  O3_32 
REMARK    7  A    between atoms: C28_34  and  C29_35 
REMARK    8  A    between atoms: C29_35  and  C30_36 
REMARK    9  A    between atoms: C30_36  and  O4_37 
REMARK   10  A    between atoms: C30_36  and  C31_39 
REMARK   11  A    between atoms: C31_39  and  C33_41 
REMARK   12  A    between atoms: C33_41  and  O5_42 
ROOT
HETATM    1  C3  UNL     1      -5.820  12.674  -0.553  1.00  0.00     0.142 C 
HETATM    2  C4  UNL     1      -6.881  11.901   0.318  1.00  0.00     0.038 C 
HETATM    3  C5  UNL     1      -6.308  11.298   1.527  1.00  0.00     0.039 C 
HETATM    4  C6  UNL     1      -4.903  10.910   1.364  1.00  0.00    -0.053 C 
HETATM    5  C7  UNL     1      -4.453  10.306   2.480  1.00  0.00    -0.079 C 
HETATM    6  C8  UNL     1      -5.430  10.164   3.584  1.00  0.00     0.043 C 
HETATM    7  C9  UNL     1      -3.077   9.777   2.777  1.00  0.00     0.034 C 
HETATM    8  C10 UNL     1      -2.115  10.968   2.740  1.00  0.00     0.010 C 
HETATM    9  C11 UNL     1      -2.739  12.145   2.075  1.00  0.00     0.004 C 
HETATM   10  C12 UNL     1      -1.896  13.398   2.294  1.00  0.00     0.021 C 
HETATM   11  C13 UNL     1      -2.769  14.585   1.989  1.00  0.00     0.015 C 
HETATM   12  C14 UNL     1      -0.676  13.345   1.402  1.00  0.00    -0.031 C 
HETATM   13  C15 UNL     1       0.191  14.324   1.497  1.00  0.00    -0.079 C 
HETATM   14  C16 UNL     1      -0.037  15.441   2.462  1.00  0.00     0.043 C 
HETATM   15  C17 UNL     1       1.419  14.426   0.673  1.00  0.00     0.043 C 
HETATM   16  C18 UNL     1      -0.528  12.196   0.518  1.00  0.00     0.037 C 
HETATM   17 CL1  UNL     1       1.048  11.678   0.006  1.00  0.00    -0.084 Cl
HETATM   18  C19 UNL     1      -1.581  11.497   0.093  1.00  0.00     0.005 C 
HETATM   19  C20 UNL     1      -2.903  11.969   0.577  1.00  0.00     0.043 C 
HETATM   20  C21 UNL     1      -4.060  11.121   0.175  1.00  0.00     0.077 C 
HETATM   21 CL2  UNL     1      -3.528   9.519  -0.386  1.00  0.00    -0.113 Cl
HETATM   22  C22 UNL     1      -4.865  11.717  -1.014  1.00  0.00     0.009 C 
HETATM   23  C23 UNL     1      -5.677  10.450  -1.495  1.00  0.00     0.020 C 
ENDROOT
BRANCH  22  24
HETATM   24  C24 UNL     1      -3.871  11.867  -2.083  1.00  0.00     0.025 C 
BRANCH  24  25
HETATM   25  C25 UNL     1      -3.495  13.113  -2.721  1.00  0.00     0.039 C 
HETATM   26  C26 UNL     1      -3.291  14.313  -1.862  1.00  0.00     0.017 C 
BRANCH  25  27
HETATM   27  C27 UNL     1      -2.253  13.046  -3.587  1.00  0.00     0.043 C 
HETATM   28  C28 UNL     1      -1.126  12.527  -3.231  1.00  0.00     0.008 C 
BRANCH  27  29
HETATM   29  O3  UNL     1      -2.428  13.603  -4.838  1.00  0.00    -0.365 OA
ATOM     30  H3  UNL     1      -1.611  13.811  -5.275  1.00  0.00     0.217 HD
ENDBRANCH  27  29
BRANCH  28  31
HETATM   31  C29 UNL     1       0.113  12.417  -3.976  1.00  0.00     0.061 C 
BRANCH  31  32
HETATM   32  C30 UNL     1       0.112  11.662  -5.261  1.00  0.00     0.127 C 
BRANCH  32  33
HETATM   33  O4  UNL     1      -0.081  12.559  -6.316  1.00  0.00    -0.395 OA
ATOM     34  H4  UNL     1       0.760  12.761  -6.709  1.00  0.00     0.210 HD
ENDBRANCH  32  33
BRANCH  32  35
HETATM   35  C31 UNL     1       1.451  11.002  -5.523  1.00  0.00     0.034 C 
HETATM   36  C32 UNL     1       1.826   9.993  -4.480  1.00  0.00     0.015 C 
BRANCH  35  37
HETATM   37  C33 UNL     1       2.567  11.997  -5.756  1.00  0.00     0.170 C 
BRANCH  37  38
HETATM   38  O5  UNL     1       2.539  12.381  -7.118  1.00  0.00    -0.400 OA
ATOM     39  H5  UNL     1       3.282  11.980  -7.553  1.00  0.00     0.209 HD
ENDBRANCH  37  38
ENDBRANCH  35  37
ENDBRANCH  32  35
ENDBRANCH  31  32
ENDBRANCH  28  31
ENDBRANCH  25  27
ENDBRANCH  24  25
ENDBRANCH  22  24
BRANCH   1  40
HETATM   40  O2  UNL     1      -6.686  13.334  -1.424  1.00  0.00    -0.315 OA
BRANCH  40  41
HETATM   41  C2  UNL     1      -7.116  14.646  -1.143  1.00  0.00     0.255 C 
HETATM   42  C1  UNL     1      -6.350  15.450  -0.194  1.00  0.00     0.126 C 
HETATM   43  O1  UNL     1      -8.126  15.073  -1.707  1.00  0.00    -0.266 OA
ENDBRANCH  40  41
ENDBRANCH   1  40
TORSDOF 12
ENDMDL
MODEL 4
REMARK VINA RESULT: -5.552576691      2.879      6.409
REMARK  12 active torsions:
REMARK  status: ('A' for Active; 'I' for Inactive)
REMARK    1  A    between atoms: C2_2  and  O2_4 
REMARK    2  A    between atoms: O2_4  and  C3_5 
REMARK    3  A    between atoms: C22_26  and  C24_28 
REMARK    4  A    between atoms: C24_28  and  C25_29 
REMARK    5  A    between atoms: C25_29  and  C27_31 
REMARK    6  A    between atoms: C27_31  and  O3_32 
REMARK    7  A    between atoms: C28_34  and  C29_35 
REMARK    8  A    between atoms: C29_35  and  C30_36 
REMARK    9  A    between atoms: C30_36  and  O4_37 
REMARK   10  A    between atoms: C30_36  and  C31_39 
REMARK   11  A    between atoms: C31_39  and  C33_41 
REMARK   12  A    between atoms: C33_41  and  O5_42 
ROOT
HETATM    1  C3  UNL     1      -5.216  13.084  -0.956  1.00  0.00     0.142 C 
HETATM    2  C4  UNL     1      -6.411  12.437  -0.156  1.00  0.00     0.038 C 
HETATM    3  C5  UNL     1      -5.992  11.814   1.104  1.00  0.00     0.039 C 
HETATM    4  C6  UNL     1      -4.622  11.290   1.058  1.00  0.00    -0.053 C 
HETATM    5  C7  UNL     1      -4.320  10.675   2.217  1.00  0.00    -0.079 C 
HETATM    6  C8  UNL     1      -5.387  10.655   3.244  1.00  0.00     0.043 C 
HETATM    7  C9  UNL     1      -3.028  10.025   2.630  1.00  0.00     0.034 C 
HETATM    8  C10 UNL     1      -1.954  11.117   2.647  1.00  0.00     0.010 C 
HETATM    9  C11 UNL     1      -2.409  12.331   1.914  1.00  0.00     0.004 C 
HETATM   10  C12 UNL     1      -1.468  13.503   2.175  1.00  0.00     0.021 C 
HETATM   11  C13 UNL     1      -2.196  14.760   1.781  1.00  0.00     0.015 C 
HETATM   12  C14 UNL     1      -0.195  13.312   1.382  1.00  0.00    -0.031 C 
HETATM   13  C15 UNL     1       0.753  14.207   1.527  1.00  0.00    -0.079 C 
HETATM   14  C16 UNL     1       0.562  15.364   2.451  1.00  0.00     0.043 C 
HETATM   15  C17 UNL     1       2.045  14.170   0.799  1.00  0.00     0.043 C 
HETATM   16  C18 UNL     1      -0.092  12.132   0.534  1.00  0.00     0.037 C 
HETATM   17 CL1  UNL     1       1.460  11.453   0.156  1.00  0.00    -0.084 Cl
HETATM   18  C19 UNL     1      -1.173  11.526   0.040  1.00  0.00     0.005 C 
HETATM   19  C20 UNL     1      -2.475  12.134   0.411  1.00  0.00     0.043 C 
HETATM   20  C21 UNL     1      -3.675  11.390  -0.065  1.00  0.00     0.077 C 
HETATM   21 CL2  UNL     1      -3.260   9.730  -0.553  1.00  0.00    -0.113 Cl
HETATM   22  C22 UNL     1      -4.326  12.029  -1.324  1.00  0.00     0.009 C 
HETATM   23  C23 UNL     1      -5.218  10.833  -1.844  1.00  0.00     0.020 C 
ENDROOT
BRANCH  22  24
HETATM   24  C24 UNL     1      -3.244  12.056  -2.314  1.00  0.00     0.025 C 
BRANCH  24  25
HETATM   25  C25 UNL     1      -2.717  13.242  -2.961  1.00  0.00     0.039 C 
HETATM   26  C26 UNL     1      -2.368  14.414  -2.110  1.00  0.00     0.017 C 
BRANCH  25  27
HETATM   27  C27 UNL     1      -1.493  13.016  -3.824  1.00  0.00     0.043 C 
HETATM   28  C28 UNL     1      -0.389  12.481  -3.424  1.00  0.00     0.008 C 
BRANCH  27  29
HETATM   29  O3  UNL     1      -1.657  13.442  -5.127  1.00  0.00    -0.365 OA
ATOM     30  H3  UNL     1      -1.931  12.751  -5.718  1.00  0.00     0.217 HD
ENDBRANCH  27  29
BRANCH  28  31
HETATM   31  C29 UNL     1       0.832  12.226  -4.164  1.00  0.00     0.061 C 
BRANCH  31  32
HETATM   32  C30 UNL     1       0.840  11.137  -5.181  1.00  0.00     0.127 C 
BRANCH  32  33
HETATM   33  O4  UNL     1       1.306  11.651  -6.395  1.00  0.00    -0.395 OA
ATOM     34  H4  UNL     1       2.257  11.650  -6.387  1.00  0.00     0.210 HD
ENDBRANCH  32  33
BRANCH  32  35
HETATM   35  C31 UNL     1       1.804  10.029  -4.807  1.00  0.00     0.034 C 
HETATM   36  C32 UNL     1       2.098   9.973  -3.338  1.00  0.00     0.015 C 
BRANCH  35  37
HETATM   37  C33 UNL     1       3.076  10.049  -5.625  1.00  0.00     0.170 C 
BRANCH  37  38
HETATM   38  O5  UNL     1       2.940   9.112  -6.676  1.00  0.00    -0.400 OA
ATOM     39  H5  UNL     1       2.174   8.579  -6.501  1.00  0.00     0.209 HD
ENDBRANCH  37  38
ENDBRANCH  35  37
ENDBRANCH  32  35
ENDBRANCH  31  32
ENDBRANCH  28  31
ENDBRANCH  25  27
ENDBRANCH  24  25
ENDBRANCH  22  24
BRANCH   1  40
HETATM   40  O2  UNL     1      -5.945  13.800  -1.904  1.00  0.00    -0.315 OA
BRANCH  40  41
HETATM   41  C2  UNL     1      -5.974  15.209  -1.866  1.00  0.00     0.255 C 
HETATM   42  C1  UNL     1      -5.423  15.892  -0.698  1.00  0.00     0.126 C 
HETATM   43  O1  UNL     1      -6.462  15.819  -2.819  1.00  0.00    -0.266 OA
ENDBRANCH  40  41
ENDBRANCH   1  40
TORSDOF 12
ENDMDL
MODEL 5
REMARK VINA RESULT: -5.545757035      5.240      8.469
REMARK  12 active torsions:
REMARK  status: ('A' for Active; 'I' for Inactive)
REMARK    1  A    between atoms: C2_2  and  O2_4 
REMARK    2  A    between atoms: O2_4  and  C3_5 
REMARK    3  A    between atoms: C22_26  and  C24_28 
REMARK    4  A    between atoms: C24_28  and  C25_29 
REMARK    5  A    between atoms: C25_29  and  C27_31 
REMARK    6  A    between atoms: C27_31  and  O3_32 
REMARK    7  A    between atoms: C28_34  and  C29_35 
REMARK    8  A    between atoms: C29_35  and  C30_36 
REMARK    9  A    between atoms: C30_36  and  O4_37 
REMARK   10  A    between atoms: C30_36  and  C31_39 
REMARK   11  A    between atoms: C31_39  and  C33_41 
REMARK   12  A    between atoms: C33_41  and  O5_42 
ROOT
HETATM    1  C3  UNL     1       8.838   6.881  -0.167  1.00  0.00     0.142 C 
HETATM    2  C4  UNL     1       9.193   5.721   0.838  1.00  0.00     0.038 C 
HETATM    3  C5  UNL     1       8.579   5.892   2.160  1.00  0.00     0.039 C 
HETATM    4  C6  UNL     1       8.390   7.301   2.526  1.00  0.00    -0.053 C 
HETATM    5  C7  UNL     1       7.885   7.395   3.770  1.00  0.00    -0.079 C 
HETATM    6  C8  UNL     1       7.644   6.115   4.475  1.00  0.00     0.043 C 
HETATM    7  C9  UNL     1       7.501   8.628   4.541  1.00  0.00     0.034 C 
HETATM    8  C10 UNL     1       6.371   9.314   3.768  1.00  0.00     0.010 C 
HETATM    9  C11 UNL     1       6.277   8.793   2.376  1.00  0.00     0.004 C 
HETATM   10  C12 UNL     1       4.987   9.263   1.710  1.00  0.00     0.021 C 
HETATM   11  C13 UNL     1       4.750   8.378   0.516  1.00  0.00     0.015 C 
HETATM   12  C14 UNL     1       5.123  10.717   1.321  1.00  0.00    -0.031 C 
HETATM   13  C15 UNL     1       4.084  11.304   0.778  1.00  0.00    -0.079 C 
HETATM   14  C16 UNL     1       2.817  10.542   0.564  1.00  0.00     0.043 C 
HETATM   15  C17 UNL     1       4.072  12.714   0.322  1.00  0.00     0.043 C 
HETATM   16  C18 UNL     1       6.390  11.382   1.603  1.00  0.00     0.037 C 
HETATM   17 CL1  UNL     1       6.445  13.098   1.856  1.00  0.00    -0.084 Cl
HETATM   18  C19 UNL     1       7.533  10.702   1.695  1.00  0.00     0.005 C 
HETATM   19  C20 UNL     1       7.427   9.236   1.491  1.00  0.00     0.043 C 
HETATM   20  C21 UNL     1       8.693   8.478   1.695  1.00  0.00     0.077 C 
HETATM   21 CL2  UNL     1       9.897   9.449   2.576  1.00  0.00    -0.113 Cl
HETATM   22  C22 UNL     1       9.390   8.089   0.360  1.00  0.00     0.009 C 
HETATM   23  C23 UNL     1      10.846   7.748   0.867  1.00  0.00     0.020 C 
ENDROOT
BRANCH  22  24
HETATM   24  C24 UNL     1       9.597   9.369  -0.325  1.00  0.00     0.025 C 
BRANCH  24  25
HETATM   25  C25 UNL     1       9.440   9.604  -1.747  1.00  0.00     0.039 C 
HETATM   26  C26 UNL     1      10.237   8.774  -2.692  1.00  0.00     0.017 C 
BRANCH  25  27
HETATM   27  C27 UNL     1       8.018   9.516  -2.263  1.00  0.00     0.043 C 
HETATM   28  C28 UNL     1       7.091  10.387  -2.044  1.00  0.00     0.008 C 
BRANCH  27  29
HETATM   29  O3  UNL     1       7.780   8.386  -3.019  1.00  0.00    -0.365 OA
ATOM     30  H3  UNL     1       8.256   7.622  -2.716  1.00  0.00     0.217 HD
ENDBRANCH  27  29
BRANCH  28  31
HETATM   31  C29 UNL     1       5.711  10.394  -2.485  1.00  0.00     0.061 C 
BRANCH  31  32
HETATM   32  C30 UNL     1       5.411  10.765  -3.897  1.00  0.00     0.127 C 
BRANCH  32  33
HETATM   33  O4  UNL     1       5.935   9.786  -4.747  1.00  0.00    -0.395 OA
ATOM     34  H4  UNL     1       5.457   8.975  -4.616  1.00  0.00     0.210 HD
ENDBRANCH  32  33
BRANCH  32  35
HETATM   35  C31 UNL     1       3.919  10.786  -4.165  1.00  0.00     0.034 C 
HETATM   36  C32 UNL     1       3.102  10.342  -2.989  1.00  0.00     0.015 C 
BRANCH  35  37
HETATM   37  C33 UNL     1       3.532  10.038  -5.422  1.00  0.00     0.170 C 
BRANCH  37  38
HETATM   38  O5  UNL     1       3.368   8.673  -5.090  1.00  0.00    -0.400 OA
ATOM     39  H5  UNL     1       3.294   8.178  -5.897  1.00  0.00     0.209 HD
ENDBRANCH  37  38
ENDBRANCH  35  37
ENDBRANCH  32  35
ENDBRANCH  31  32
ENDBRANCH  28  31
ENDBRANCH  25  27
ENDBRANCH  24  25
ENDBRANCH  22  24
BRANCH   1  40
HETATM   40  O2  UNL     1       9.310   6.306  -1.346  1.00  0.00    -0.315 OA
BRANCH  40  41
HETATM   41  C2  UNL     1       8.651   5.196  -1.912  1.00  0.00     0.255 C 
HETATM   42  C1  UNL     1       9.349   3.914  -1.961  1.00  0.00     0.126 C 
HETATM   43  O1  UNL     1       7.506   5.343  -2.346  1.00  0.00    -0.266 OA
ENDBRANCH  40  41
ENDBRANCH   1  40
TORSDOF 12
ENDMDL
