MODEL 1
REMARK VINA RESULT: -5.169566642      0.000      0.000
REMARK  12 active torsions:
REMARK  status: ('A' for Active; 'I' for Inactive)
REMARK    1  A    between atoms: C2_2  and  C3_3 
REMARK    2  A    between atoms: C7_8  and  O2_9 
REMARK    3  A    between atoms: C11_14  and  O3_15 
REMARK    4  A    between atoms: O3_15  and  C12_16 
REMARK    5  A    between atoms: C12_16  and  C13_18 
REMARK    6  A    between atoms: C13_18  and  C14_19 
REMARK    7  A    between atoms: C14_19  and  C15_20 
REMARK    8  A    between atoms: C15_20  and  C16_21 
REMARK    9  A    between atoms: C16_21  and  C17_22 
REMARK   10  A    between atoms: C17_22  and  C18_23 
REMARK   11  A    between atoms: C21_26  and  O5_28 
REMARK   12  A    between atoms: C23_30  and  O6_31 
ROOT
HETATM    1  C3  UNL     1       2.990  11.273  -3.780  1.00  0.00     0.017 C 
HETATM    2  C4  UNL     1       1.482  11.247  -3.697  1.00  0.00     0.047 C 
HETATM    3  C5  UNL     1       1.494  11.071  -2.185  1.00  0.00     0.066 C 
HETATM    4  C6  UNL     1       1.150   9.636  -1.875  1.00  0.00     0.046 C 
HETATM    5  O1  UNL     1       1.038  12.033  -1.409  1.00  0.00    -0.343 OA
HETATM    6  C7  UNL     1      -0.160  12.290  -0.944  1.00  0.00     0.175 C 
HETATM    7  C8  UNL     1      -1.317  12.031  -1.906  1.00  0.00     0.047 C 
HETATM    8  C9  UNL     1      -1.972  13.302  -2.398  1.00  0.00     0.015 C 
HETATM    9  C10 UNL     1      -2.346  11.249  -1.158  1.00  0.00     0.043 C 
HETATM   10  C11 UNL     1      -2.096  11.696   0.280  1.00  0.00     0.144 C 
HETATM   11  C20 UNL     1      -0.618  11.717   0.348  1.00  0.00     0.114 C 
HETATM   12  C21 UNL     1      -0.049  12.205   1.621  1.00  0.00     0.091 C 
HETATM   13  C22 UNL     1      -0.587  13.463   2.196  1.00  0.00     0.049 C 
HETATM   14  C23 UNL     1       1.455  12.232   1.682  1.00  0.00     0.153 C 
HETATM   15  C24 UNL     1       2.005  11.615   2.934  1.00  0.00     0.039 C 
HETATM   16  C25 UNL     1       3.403  11.030   2.778  1.00  0.00    -0.015 C 
HETATM   17  C26 UNL     1       4.404  12.162   2.769  1.00  0.00     0.010 C 
HETATM   18  C27 UNL     1       3.560  10.018   1.715  1.00  0.00     0.026 C 
HETATM   19  C28 UNL     1       4.732  10.141   0.801  1.00  0.00     0.101 C 
HETATM   20 CL1  UNL     1       5.325   8.510   0.312  1.00  0.00    -0.123 Cl
HETATM   21  C29 UNL     1       4.605  10.939  -0.423  1.00  0.00     0.101 C 
HETATM   22 CL2  UNL     1       6.274  11.314  -0.997  1.00  0.00    -0.123 Cl
HETATM   23  C30 UNL     1       3.834  10.307  -1.558  1.00  0.00     0.030 C 
HETATM   24  C31 UNL     1       3.013  11.293  -2.302  1.00  0.00     0.029 C 
ENDROOT
BRANCH  10  25
HETATM   25  O3  UNL     1      -2.798  12.862   0.460  1.00  0.00    -0.315 OA
BRANCH  25  26
HETATM   26  C12 UNL     1      -4.190  12.749   0.703  1.00  0.00     0.259 C 
HETATM   27  O4  UNL     1      -4.976  13.561   0.156  1.00  0.00    -0.265 OA
BRANCH  26  28
HETATM   28  C13 UNL     1      -4.735  11.715   1.573  1.00  0.00     0.111 C 
BRANCH  28  29
HETATM   29  C14 UNL     1      -4.436  12.002   3.007  1.00  0.00     0.010 C 
BRANCH  29  30
HETATM   30  C15 UNL     1      -3.696  10.960   3.766  1.00  0.00     0.000 C 
BRANCH  30  31
HETATM   31  C16 UNL     1      -4.614  10.184   4.694  1.00  0.00     0.000 C 
BRANCH  31  32
HETATM   32  C17 UNL     1      -4.497   8.705   4.572  1.00  0.00    -0.000 C 
BRANCH  32  33
HETATM   33  C18 UNL     1      -4.111   8.304   3.189  1.00  0.00    -0.005 C 
HETATM   34  C19 UNL     1      -3.380   6.970   3.285  1.00  0.00     0.005 C 
ENDBRANCH  32  33
ENDBRANCH  31  32
ENDBRANCH  30  31
ENDBRANCH  29  30
ENDBRANCH  28  29
ENDBRANCH  26  28
ENDBRANCH  25  26
ENDBRANCH  10  25
BRANCH   6  35
HETATM   35  O2  UNL     1      -0.198  13.702  -0.745  1.00  0.00    -0.364 OA
ATOM     36  H2  UNL     1      -0.334  13.824   0.187  1.00  0.00     0.213 HD
ENDBRANCH   6  35
BRANCH  12  37
HETATM   37  O5  UNL     1      -0.413  11.202   2.572  1.00  0.00    -0.387 OA
ATOM     38  H5  UNL     1       0.236  11.289   3.260  1.00  0.00     0.210 HD
ENDBRANCH  12  37
BRANCH  14  39
HETATM   39  O6  UNL     1       1.977  13.511   1.551  1.00  0.00    -0.393 OA
ATOM     40  H6  UNL     1       2.852  13.517   1.181  1.00  0.00     0.210 HD
ENDBRANCH  14  39
BRANCH   1  41
HETATM   41  C2  UNL     1       3.625  10.158  -4.482  1.00  0.00    -0.032 C 
HETATM   42  C1  UNL     1       2.961   9.377  -5.297  1.00  0.00     0.007 C 
ENDBRANCH   1  41
TORSDOF 12
ENDMDL
MODEL 2
REMARK VINA RESULT: -4.989725422      3.526      8.114
REMARK  12 active torsions:
REMARK  status: ('A' for Active; 'I' for Inactive)
REMARK    1  A    between atoms: C2_2  and  C3_3 
REMARK    2  A    between atoms: C7_8  and  O2_9 
REMARK    3  A    between atoms: C11_14  and  O3_15 
REMARK    4  A    between atoms: O3_15  and  C12_16 
REMARK    5  A    between atoms: C12_16  and  C13_18 
REMARK    6  A    between atoms: C13_18  and  C14_19 
REMARK    7  A    between atoms: C14_19  and  C15_20 
REMARK    8  A    between atoms: C15_20  and  C16_21 
REMARK    9  A    between atoms: C16_21  and  C17_22 
REMARK   10  A    between atoms: C17_22  and  C18_23 
REMARK   11  A    between atoms: C21_26  and  O5_28 
REMARK   12  A    between atoms: C23_30  and  O6_31 
ROOT
HETATM    1  C3  UNL     1      -0.471  12.461   2.247  1.00  0.00     0.017 C 
HETATM    2  C4  UNL     1       0.227  12.799   0.950  1.00  0.00     0.047 C 
HETATM    3  C5  UNL     1      -0.923  12.263   0.107  1.00  0.00     0.066 C 
HETATM    4  C6  UNL     1      -0.507  10.931  -0.465  1.00  0.00     0.046 C 
HETATM    5  O1  UNL     1      -1.642  13.092  -0.623  1.00  0.00    -0.343 OA
HETATM    6  C7  UNL     1      -1.500  13.523  -1.853  1.00  0.00     0.175 C 
HETATM    7  C8  UNL     1      -0.068  13.807  -2.299  1.00  0.00     0.047 C 
HETATM    8  C9  UNL     1       0.216  15.284  -2.466  1.00  0.00     0.015 C 
HETATM    9  C10 UNL     1       0.118  13.154  -3.629  1.00  0.00     0.043 C 
HETATM   10  C11 UNL     1      -1.303  13.160  -4.183  1.00  0.00     0.144 C 
HETATM   11  C20 UNL     1      -2.104  12.788  -2.995  1.00  0.00     0.114 C 
HETATM   12  C21 UNL     1      -3.568  12.792  -3.190  1.00  0.00     0.091 C 
HETATM   13  C22 UNL     1      -4.186  13.967  -3.854  1.00  0.00     0.049 C 
HETATM   14  C23 UNL     1      -4.378  12.421  -1.977  1.00  0.00     0.153 C 
HETATM   15  C24 UNL     1      -5.438  11.399  -2.265  1.00  0.00     0.039 C 
HETATM   16  C25 UNL     1      -5.812  10.535  -1.068  1.00  0.00    -0.015 C 
HETATM   17  C26 UNL     1      -6.693  11.344  -0.143  1.00  0.00     0.010 C 
HETATM   18  C27 UNL     1      -4.699   9.807  -0.430  1.00  0.00     0.026 C 
HETATM   19  C28 UNL     1      -4.600   9.847   1.058  1.00  0.00     0.101 C 
HETATM   20 CL1  UNL     1      -3.950   8.287   1.689  1.00  0.00    -0.123 Cl
HETATM   21  C29 UNL     1      -3.835  10.923   1.695  1.00  0.00     0.101 C 
HETATM   22 CL2  UNL     1      -4.342  10.990   3.426  1.00  0.00    -0.123 Cl
HETATM   23  C30 UNL     1      -2.331  10.803   1.636  1.00  0.00     0.030 C 
HETATM   24  C31 UNL     1      -1.666  12.115   1.448  1.00  0.00     0.029 C 
ENDROOT
BRANCH  10  25
HETATM   25  O3  UNL     1      -1.495  14.387  -4.770  1.00  0.00    -0.315 OA
BRANCH  25  26
HETATM   26  C12 UNL     1      -0.862  14.612  -6.019  1.00  0.00     0.259 C 
HETATM   27  O4  UNL     1      -1.211  13.932  -7.015  1.00  0.00    -0.265 OA
BRANCH  26  28
HETATM   28  C13 UNL     1       0.184  15.613  -6.178  1.00  0.00     0.111 C 
BRANCH  28  29
HETATM   29  C14 UNL     1       1.357  15.057  -6.916  1.00  0.00     0.010 C 
BRANCH  29  30
HETATM   30  C15 UNL     1       2.425  14.416  -6.105  1.00  0.00     0.000 C 
BRANCH  30  31
HETATM   31  C16 UNL     1       2.895  13.112  -6.725  1.00  0.00     0.000 C 
BRANCH  31  32
HETATM   32  C17 UNL     1       2.944  11.967  -5.775  1.00  0.00    -0.000 C 
BRANCH  32  33
HETATM   33  C18 UNL     1       1.789  11.046  -5.976  1.00  0.00    -0.005 C 
HETATM   34  C19 UNL     1       1.805  10.035  -4.835  1.00  0.00     0.005 C 
ENDBRANCH  32  33
ENDBRANCH  31  32
ENDBRANCH  30  31
ENDBRANCH  29  30
ENDBRANCH  28  29
ENDBRANCH  26  28
ENDBRANCH  25  26
ENDBRANCH  10  25
BRANCH   6  35
HETATM   35  O2  UNL     1      -2.123  14.806  -1.882  1.00  0.00    -0.364 OA
ATOM     36  H2  UNL     1      -2.140  15.060  -2.797  1.00  0.00     0.213 HD
ENDBRANCH   6  35
BRANCH  12  37
HETATM   37  O5  UNL     1      -3.800  11.714  -4.100  1.00  0.00    -0.387 OA
ATOM     38  H5  UNL     1      -4.570  11.984  -4.587  1.00  0.00     0.210 HD
ENDBRANCH  12  37
BRANCH  14  39
HETATM   39  O6  UNL     1      -4.972  13.519  -1.369  1.00  0.00    -0.393 OA
ATOM     40  H6  UNL     1      -4.383  13.978  -0.781  1.00  0.00     0.210 HD
ENDBRANCH  14  39
BRANCH   1  41
HETATM   41  C2  UNL     1       0.151  11.427   3.073  1.00  0.00    -0.032 C 
HETATM   42  C1  UNL     1       1.414  11.101   2.950  1.00  0.00     0.007 C 
ENDBRANCH   1  41
TORSDOF 12
ENDMDL
MODEL 3
REMARK VINA RESULT: -4.960083670      2.921      5.868
REMARK  12 active torsions:
REMARK  status: ('A' for Active; 'I' for Inactive)
REMARK    1  A    between atoms: C2_2  and  C3_3 
REMARK    2  A    between atoms: C7_8  and  O2_9 
REMARK    3  A    between atoms: C11_14  and  O3_15 
REMARK    4  A    between atoms: O3_15  and  C12_16 
REMARK    5  A    between atoms: C12_16  and  C13_18 
REMARK    6  A    between atoms: C13_18  and  C14_19 
REMARK    7  A    between atoms: C14_19  and  C15_20 
REMARK    8  A    between atoms: C15_20  and  C16_21 
REMARK    9  A    between atoms: C16_21  and  C17_22 
REMARK   10  A    between atoms: C17_22  and  C18_23 
REMARK   11  A    between atoms: C21_26  and  O5_28 
REMARK   12  A    between atoms: C23_30  and  O6_31 
ROOT
HETATM    1  C3  UNL     1       8.172   9.621  -2.953  1.00  0.00     0.017 C 
HETATM    2  C4  UNL     1       7.769   9.941  -1.533  1.00  0.00     0.047 C 
HETATM    3  C5  UNL     1       6.471  10.607  -1.974  1.00  0.00     0.066 C 
HETATM    4  C6  UNL     1       6.643  12.100  -1.852  1.00  0.00     0.046 C 
HETATM    5  O1  UNL     1       5.315  10.055  -1.667  1.00  0.00    -0.343 OA
HETATM    6  C7  UNL     1       4.532  10.186  -0.624  1.00  0.00     0.175 C 
HETATM    7  C8  UNL     1       5.235  10.311   0.726  1.00  0.00     0.047 C 
HETATM    8  C9  UNL     1       5.063   9.086   1.596  1.00  0.00     0.015 C 
HETATM    9  C10 UNL     1       4.617  11.468   1.440  1.00  0.00     0.043 C 
HETATM   10  C11 UNL     1       3.211  11.489   0.845  1.00  0.00     0.144 C 
HETATM   11  C20 UNL     1       3.474  11.229  -0.588  1.00  0.00     0.114 C 
HETATM   12  C21 UNL     1       2.274  11.101  -1.440  1.00  0.00     0.091 C 
HETATM   13  C22 UNL     1       1.171  10.224  -0.974  1.00  0.00     0.049 C 
HETATM   14  C23 UNL     1       2.547  10.828  -2.895  1.00  0.00     0.153 C 
HETATM   15  C24 UNL     1       1.769  11.720  -3.817  1.00  0.00     0.039 C 
HETATM   16  C25 UNL     1       2.439  11.960  -5.164  1.00  0.00    -0.015 C 
HETATM   17  C26 UNL     1       2.254  10.730  -6.023  1.00  0.00     0.010 C 
HETATM   18  C27 UNL     1       3.805  12.514  -5.110  1.00  0.00     0.026 C 
HETATM   19  C28 UNL     1       4.848  11.886  -5.972  1.00  0.00     0.101 C 
HETATM   20 CL1  UNL     1       6.023  13.128  -6.547  1.00  0.00    -0.123 Cl
HETATM   21  C29 UNL     1       5.630  10.762  -5.447  1.00  0.00     0.101 C 
HETATM   22 CL2  UNL     1       6.384   9.927  -6.858  1.00  0.00    -0.123 Cl
HETATM   23  C30 UNL     1       6.713  11.106  -4.452  1.00  0.00     0.030 C 
HETATM   24  C31 UNL     1       6.836  10.091  -3.378  1.00  0.00     0.029 C 
ENDROOT
BRANCH  10  25
HETATM   25  O3  UNL     1       2.462  10.594   1.568  1.00  0.00    -0.315 OA
BRANCH  25  26
HETATM   26  C12 UNL     1       1.624  11.123   2.583  1.00  0.00     0.259 C 
HETATM   27  O4  UNL     1       1.902  10.897   3.786  1.00  0.00    -0.265 OA
BRANCH  26  28
HETATM   28  C13 UNL     1       0.447  11.921   2.266  1.00  0.00     0.111 C 
BRANCH  28  29
HETATM   29  C14 UNL     1      -0.794  11.294   2.811  1.00  0.00     0.010 C 
BRANCH  29  30
HETATM   30  C15 UNL     1      -2.087  11.736   2.226  1.00  0.00     0.000 C 
BRANCH  30  31
HETATM   31  C16 UNL     1      -2.957  10.554   1.834  1.00  0.00     0.000 C 
BRANCH  31  32
HETATM   32  C17 UNL     1      -3.114   9.530   2.903  1.00  0.00    -0.000 C 
BRANCH  32  33
HETATM   33  C18 UNL     1      -3.861   8.339   2.408  1.00  0.00    -0.005 C 
HETATM   34  C19 UNL     1      -3.494   7.162   3.305  1.00  0.00     0.005 C 
ENDBRANCH  32  33
ENDBRANCH  31  32
ENDBRANCH  30  31
ENDBRANCH  29  30
ENDBRANCH  28  29
ENDBRANCH  26  28
ENDBRANCH  25  26
ENDBRANCH  10  25
BRANCH   6  35
HETATM   35  O2  UNL     1       3.823   8.952  -0.521  1.00  0.00    -0.364 OA
ATOM     36  H2  UNL     1       2.910   9.171  -0.665  1.00  0.00     0.213 HD
ENDBRANCH   6  35
BRANCH  12  37
HETATM   37  O5  UNL     1       1.704  12.411  -1.436  1.00  0.00    -0.387 OA
ATOM     38  H5  UNL     1       0.826  12.280  -1.099  1.00  0.00     0.210 HD
ENDBRANCH  12  37
BRANCH  14  39
HETATM   39  O6  UNL     1       2.311   9.507  -3.249  1.00  0.00    -0.393 OA
ATOM     40  H6  UNL     1       1.515   9.158  -2.865  1.00  0.00     0.210 HD
ENDBRANCH  14  39
BRANCH   1  41
HETATM   41  C2  UNL     1       9.359  10.305  -3.465  1.00  0.00    -0.032 C 
HETATM   42  C1  UNL     1      10.203   9.723  -4.281  1.00  0.00     0.007 C 
ENDBRANCH   1  41
TORSDOF 12
ENDMDL
MODEL 4
REMARK VINA RESULT: -4.924469076      3.909      8.276
REMARK  12 active torsions:
REMARK  status: ('A' for Active; 'I' for Inactive)
REMARK    1  A    between atoms: C2_2  and  C3_3 
REMARK    2  A    between atoms: C7_8  and  O2_9 
REMARK    3  A    between atoms: C11_14  and  O3_15 
REMARK    4  A    between atoms: O3_15  and  C12_16 
REMARK    5  A    between atoms: C12_16  and  C13_18 
REMARK    6  A    between atoms: C13_18  and  C14_19 
REMARK    7  A    between atoms: C14_19  and  C15_20 
REMARK    8  A    between atoms: C15_20  and  C16_21 
REMARK    9  A    between atoms: C16_21  and  C17_22 
REMARK   10  A    between atoms: C17_22  and  C18_23 
REMARK   11  A    between atoms: C21_26  and  O5_28 
REMARK   12  A    between atoms: C23_30  and  O6_31 
ROOT
HETATM    1  C3  UNL     1       0.722  15.510   1.968  1.00  0.00     0.017 C 
HETATM    2  C4  UNL     1       1.478  14.384   2.635  1.00  0.00     0.047 C 
HETATM    3  C5  UNL     1       1.280  13.451   1.447  1.00  0.00     0.066 C 
HETATM    4  C6  UNL     1       0.222  12.441   1.813  1.00  0.00     0.046 C 
HETATM    5  O1  UNL     1       2.318  13.077   0.727  1.00  0.00    -0.343 OA
HETATM    6  C7  UNL     1       3.145  12.067   0.842  1.00  0.00     0.175 C 
HETATM    7  C8  UNL     1       3.547  11.693   2.267  1.00  0.00     0.047 C 
HETATM    8  C9  UNL     1       4.987  12.034   2.581  1.00  0.00     0.015 C 
HETATM    9  C10 UNL     1       3.390  10.214   2.397  1.00  0.00     0.043 C 
HETATM   10  C11 UNL     1       3.604   9.748   0.960  1.00  0.00     0.144 C 
HETATM   11  C20 UNL     1       2.856  10.765   0.187  1.00  0.00     0.114 C 
HETATM   12  C21 UNL     1       2.945  10.636  -1.282  1.00  0.00     0.091 C 
HETATM   13  C22 UNL     1       4.284  10.440  -1.892  1.00  0.00     0.049 C 
HETATM   14  C23 UNL     1       2.189  11.677  -2.064  1.00  0.00     0.153 C 
HETATM   15  C24 UNL     1       1.342  11.094  -3.156  1.00  0.00     0.039 C 
HETATM   16  C25 UNL     1       0.124  11.934  -3.516  1.00  0.00    -0.015 C 
HETATM   17  C26 UNL     1       0.575  13.112  -4.348  1.00  0.00     0.010 C 
HETATM   18  C27 UNL     1      -0.794  12.241  -2.402  1.00  0.00     0.026 C 
HETATM   19  C28 UNL     1      -1.270  13.647  -2.257  1.00  0.00     0.101 C 
HETATM   20 CL1  UNL     1      -2.960  13.680  -1.626  1.00  0.00    -0.123 Cl
HETATM   21  C29 UNL     1      -0.489  14.587  -1.447  1.00  0.00     0.101 C 
HETATM   22 CL2  UNL     1      -1.016  16.253  -1.899  1.00  0.00    -0.123 Cl
HETATM   23  C30 UNL     1      -0.600  14.435   0.051  1.00  0.00     0.030 C 
HETATM   24  C31 UNL     1       0.688  14.686   0.742  1.00  0.00     0.029 C 
ENDROOT
BRANCH  10  25
HETATM   25  O3  UNL     1       4.960   9.626   0.780  1.00  0.00    -0.315 OA
BRANCH  25  26
HETATM   26  C12 UNL     1       5.488   8.312   0.711  1.00  0.00     0.259 C 
HETATM   27  O4  UNL     1       4.730   7.362   0.394  1.00  0.00    -0.265 OA
BRANCH  26  28
HETATM   28  C13 UNL     1       6.889   8.032   0.997  1.00  0.00     0.111 C 
BRANCH  28  29
HETATM   29  C14 UNL     1       7.084   6.609   1.403  1.00  0.00     0.010 C 
BRANCH  29  30
HETATM   30  C15 UNL     1       8.242   6.309   2.285  1.00  0.00     0.000 C 
BRANCH  30  31
HETATM   31  C16 UNL     1       7.836   6.267   3.748  1.00  0.00     0.000 C 
BRANCH  31  32
HETATM   32  C17 UNL     1       8.119   7.523   4.495  1.00  0.00    -0.000 C 
BRANCH  32  33
HETATM   33  C18 UNL     1       6.915   7.995   5.237  1.00  0.00    -0.005 C 
HETATM   34  C19 UNL     1       6.272   9.102   4.410  1.00  0.00     0.005 C 
ENDBRANCH  32  33
ENDBRANCH  31  32
ENDBRANCH  30  31
ENDBRANCH  29  30
ENDBRANCH  28  29
ENDBRANCH  26  28
ENDBRANCH  25  26
ENDBRANCH  10  25
BRANCH   6  35
HETATM   35  O2  UNL     1       4.367  12.504   0.250  1.00  0.00    -0.364 OA
ATOM     36  H2  UNL     1       4.625  11.809  -0.344  1.00  0.00     0.213 HD
ENDBRANCH   6  35
BRANCH  12  37
HETATM   37  O5  UNL     1       2.250   9.420  -1.568  1.00  0.00    -0.387 OA
ATOM     38  H5  UNL     1       2.942   8.786  -1.707  1.00  0.00     0.210 HD
ENDBRANCH  12  37
BRANCH  14  39
HETATM   39  O6  UNL     1       3.017  12.647  -2.612  1.00  0.00    -0.393 OA
ATOM     40  H6  UNL     1       2.990  13.468  -2.135  1.00  0.00     0.210 HD
ENDBRANCH  14  39
BRANCH   1  41
HETATM   41  C2  UNL     1      -0.541  15.907   2.590  1.00  0.00    -0.032 C 
HETATM   42  C1  UNL     1      -0.586  16.573   3.718  1.00  0.00     0.007 C 
ENDBRANCH   1  41
TORSDOF 12
ENDMDL
MODEL 5
REMARK VINA RESULT: -4.856045926      5.004      7.671
REMARK  12 active torsions:
REMARK  status: ('A' for Active; 'I' for Inactive)
REMARK    1  A    between atoms: C2_2  and  C3_3 
REMARK    2  A    between atoms: C7_8  and  O2_9 
REMARK    3  A    between atoms: C11_14  and  O3_15 
REMARK    4  A    between atoms: O3_15  and  C12_16 
REMARK    5  A    between atoms: C12_16  and  C13_18 
REMARK    6  A    between atoms: C13_18  and  C14_19 
REMARK    7  A    between atoms: C14_19  and  C15_20 
REMARK    8  A    between atoms: C15_20  and  C16_21 
REMARK    9  A    between atoms: C16_21  and  C17_22 
REMARK   10  A    between atoms: C17_22  and  C18_23 
REMARK   11  A    between atoms: C21_26  and  O5_28 
REMARK   12  A    between atoms: C23_30  and  O6_31 
ROOT
HETATM    1  C3  UNL     1      -1.758  15.855  -0.279  1.00  0.00     0.017 C 
HETATM    2  C4  UNL     1      -1.754  15.050   0.999  1.00  0.00     0.047 C 
HETATM    3  C5  UNL     1      -2.953  14.217   0.565  1.00  0.00     0.066 C 
HETATM    4  C6  UNL     1      -4.161  14.698   1.327  1.00  0.00     0.046 C 
HETATM    5  O1  UNL     1      -2.804  12.931   0.321  1.00  0.00    -0.343 OA
HETATM    6  C7  UNL     1      -2.889  11.878   1.096  1.00  0.00     0.175 C 
HETATM    7  C8  UNL     1      -2.325  12.040   2.506  1.00  0.00     0.047 C 
HETATM    8  C9  UNL     1      -1.048  11.259   2.725  1.00  0.00     0.015 C 
HETATM    9  C10 UNL     1      -3.350  11.512   3.455  1.00  0.00     0.043 C 
HETATM   10  C11 UNL     1      -4.071  10.478   2.595  1.00  0.00     0.144 C 
HETATM   11  C20 UNL     1      -4.185  11.178   1.295  1.00  0.00     0.114 C 
HETATM   12  C21 UNL     1      -4.778  10.385   0.198  1.00  0.00     0.091 C 
HETATM   13  C22 UNL     1      -4.274   9.007  -0.026  1.00  0.00     0.049 C 
HETATM   14  C23 UNL     1      -4.883  11.098  -1.123  1.00  0.00     0.153 C 
HETATM   15  C24 UNL     1      -6.235  10.964  -1.759  1.00  0.00     0.039 C 
HETATM   16  C25 UNL     1      -6.610  12.121  -2.676  1.00  0.00    -0.015 C 
HETATM   17  C26 UNL     1      -5.863  11.967  -3.981  1.00  0.00     0.010 C 
HETATM   18  C27 UNL     1      -6.573  13.463  -2.063  1.00  0.00     0.026 C 
HETATM   19  C28 UNL     1      -5.901  14.558  -2.820  1.00  0.00     0.101 C 
HETATM   20 CL1  UNL     1      -6.730  16.133  -2.523  1.00  0.00    -0.123 Cl
HETATM   21  C29 UNL     1      -4.465  14.784  -2.627  1.00  0.00     0.101 C 
HETATM   22 CL2  UNL     1      -3.884  15.772  -4.022  1.00  0.00    -0.123 Cl
HETATM   23  C30 UNL     1      -4.060  15.472  -1.346  1.00  0.00     0.030 C 
HETATM   24  C31 UNL     1      -2.795  14.934  -0.790  1.00  0.00     0.029 C 
ENDROOT
BRANCH  10  25
HETATM   25  O3  UNL     1      -3.343   9.317   2.676  1.00  0.00    -0.315 OA
BRANCH  25  26
HETATM   26  C12 UNL     1      -3.880   8.270   3.467  1.00  0.00     0.259 C 
HETATM   27  O4  UNL     1      -3.439   7.103   3.322  1.00  0.00    -0.265 OA
BRANCH  26  28
HETATM   28  C13 UNL     1      -4.933   8.511   4.445  1.00  0.00     0.111 C 
BRANCH  28  29
HETATM   29  C14 UNL     1      -4.360   8.859   5.779  1.00  0.00     0.010 C 
BRANCH  29  30
HETATM   30  C15 UNL     1      -5.181   9.732   6.661  1.00  0.00     0.000 C 
BRANCH  30  31
HETATM   31  C16 UNL     1      -6.660   9.629   6.330  1.00  0.00     0.000 C 
BRANCH  31  32
HETATM   32  C17 UNL     1      -7.531   9.368   7.509  1.00  0.00    -0.000 C 
BRANCH  32  33
HETATM   33  C18 UNL     1      -8.695   8.510   7.144  1.00  0.00    -0.005 C 
HETATM   34  C19 UNL     1      -9.085   7.714   8.383  1.00  0.00     0.005 C 
ENDBRANCH  32  33
ENDBRANCH  31  32
ENDBRANCH  30  31
ENDBRANCH  29  30
ENDBRANCH  28  29
ENDBRANCH  26  28
ENDBRANCH  25  26
ENDBRANCH  10  25
BRANCH   6  35
HETATM   35  O2  UNL     1      -2.038  10.897   0.505  1.00  0.00    -0.364 OA
ATOM     36  H2  UNL     1      -2.619  10.223   0.174  1.00  0.00     0.213 HD
ENDBRANCH   6  35
BRANCH  12  37
HETATM   37  O5  UNL     1      -6.137  10.200   0.599  1.00  0.00    -0.387 OA
ATOM     38  H5  UNL     1      -6.641  10.519  -0.140  1.00  0.00     0.210 HD
ENDBRANCH  12  37
BRANCH  14  39
HETATM   39  O6  UNL     1      -3.920  10.689  -2.035  1.00  0.00    -0.393 OA
ATOM     40  H6  UNL     1      -3.366  11.402  -2.332  1.00  0.00     0.210 HD
ENDBRANCH  14  39
BRANCH   1  41
HETATM   41  C2  UNL     1      -2.076  17.277  -0.154  1.00  0.00    -0.032 C 
HETATM   42  C1  UNL     1      -2.174  17.871   1.010  1.00  0.00     0.007 C 
ENDBRANCH   1  41
TORSDOF 12
ENDMDL
