MODEL 1
REMARK VINA RESULT: -7.235339306      0.000      0.000
REMARK  11 active torsions:
REMARK  status: ('A' for Active; 'I' for Inactive)
REMARK    1  A    between atoms: C5_5  and  C6_6 
REMARK    2  A    between atoms: C6_6  and  C7_7 
REMARK    3  A    between atoms: C10_10  and  N1_11 
REMARK    4  A    between atoms: N1_11  and  C11_13 
REMARK    5  A    between atoms: C12_14  and  O1_15 
REMARK    6  A    between atoms: C12_14  and  C13_17 
REMARK    7  A    between atoms: C13_17  and  N2_18 
REMARK    8  A    between atoms: C14_19  and  N3_20 
REMARK    9  A    between atoms: N3_20  and  C15_21 
REMARK   10  A    between atoms: C22_29  and  C23_30 
REMARK   11  A    between atoms: C25_32  and  O2_33 
ROOT
HETATM    1  N2  UNL     1      -1.852  12.142  -1.530  1.00  0.00    -0.296 N 
HETATM    2  C14 UNL     1      -2.242  12.463  -2.802  1.00  0.00     0.260 A 
HETATM    3  N4  UNL     1      -3.508  11.924  -2.921  1.00  0.00    -0.309 N 
HETATM    4  C18 UNL     1      -4.341  12.020  -4.122  1.00  0.00     0.161 C 
HETATM    5  C19 UNL     1      -3.867  11.309  -1.806  1.00  0.00     0.068 A 
HETATM    6  C20 UNL     1      -5.003  10.586  -1.446  1.00  0.00     0.033 A 
HETATM    7  C21 UNL     1      -5.085   9.993  -0.207  1.00  0.00     0.018 A 
HETATM    8  C22 UNL     1      -4.057  10.096   0.699  1.00  0.00     0.017 A 
HETATM    9  C29 UNL     1      -2.945  10.818   0.319  1.00  0.00     0.156 A 
HETATM   10  F1  UNL     1      -1.937  10.844   1.205  1.00  0.00    -0.203 F 
HETATM   11  C30 UNL     1      -2.825  11.443  -0.932  1.00  0.00     0.105 A 
ENDROOT
BRANCH   1  12
HETATM   12  C13 UNL     1      -0.590  12.499  -0.972  1.00  0.00     0.199 C 
BRANCH  12  13
HETATM   13  C12 UNL     1       0.589  11.663  -1.142  1.00  0.00     0.076 C 
HETATM   14  C11 UNL     1       1.700  11.457  -0.252  1.00  0.00     0.117 C 
BRANCH  14  15
HETATM   15  N1  UNL     1       1.580  11.344   1.157  1.00  0.00    -0.392 N 
ATOM     16  H1  UNL     1       0.839  11.777   1.708  1.00  0.00     0.159 HD
BRANCH  15  17
HETATM   17  C10 UNL     1       2.663  10.522   1.720  1.00  0.00     0.081 C 
HETATM   18  C9  UNL     1       4.010  11.133   1.402  1.00  0.00     0.025 C 
HETATM   19  C8  UNL     1       4.931  11.097   2.587  1.00  0.00     0.006 C 
HETATM   20  C7  UNL     1       4.916   9.738   3.269  1.00  0.00    -0.014 C 
HETATM   21  C32 UNL     1       3.512   9.378   3.707  1.00  0.00     0.006 C 
HETATM   22  C31 UNL     1       2.561  10.451   3.217  1.00  0.00     0.025 C 
BRANCH  20  23
HETATM   23  C6  UNL     1       5.484   8.681   2.353  1.00  0.00     0.009 C 
BRANCH  23  24
HETATM   24  C5  UNL     1       6.931   8.404   2.636  1.00  0.00    -0.014 C 
HETATM   25  C4  UNL     1       7.618   7.562   1.602  1.00  0.00     0.005 C 
HETATM   26  C3  UNL     1       7.863   6.146   2.102  1.00  0.00     0.004 C 
HETATM   27  C2  UNL     1       8.820   6.092   3.263  1.00  0.00    -0.019 C 
HETATM   28  C1  UNL     1      10.269   6.049   2.806  1.00  0.00     0.010 C 
HETATM   29  C34 UNL     1       8.535   7.296   4.146  1.00  0.00     0.004 C 
HETATM   30  C33 UNL     1       7.077   7.719   3.991  1.00  0.00     0.005 C 
ENDBRANCH  23  24
ENDBRANCH  20  23
ENDBRANCH  15  17
ENDBRANCH  14  15
BRANCH  13  31
HETATM   31  O1  UNL     1       1.129  11.716  -2.481  1.00  0.00    -0.362 OA
ATOM     32  H1  UNL     1       0.390  11.691  -3.077  1.00  0.00     0.217 HD
ENDBRANCH  13  31
ENDBRANCH  12  13
ENDBRANCH   1  12
BRANCH   2  33
HETATM   33  N3  UNL     1      -1.670  13.010  -3.713  1.00  0.00    -0.410 NA
BRANCH  33  34
HETATM   34  C15 UNL     1      -1.039  13.608  -4.704  1.00  0.00     0.158 C 
HETATM   35  C16 UNL     1      -0.160  14.820  -4.287  1.00  0.00     0.047 C 
HETATM   36  C17 UNL     1      -0.063  12.758  -5.531  1.00  0.00     0.047 C 
ENDBRANCH  33  34
ENDBRANCH   2  33
BRANCH   8  37
HETATM   37  C23 UNL     1      -4.117   9.440   2.015  1.00  0.00     0.002 A 
HETATM   38  C24 UNL     1      -3.907   8.075   2.099  1.00  0.00     0.050 A 
HETATM   39  C25 UNL     1      -3.965   7.392   3.293  1.00  0.00     0.066 A 
HETATM   40  C26 UNL     1      -4.237   8.052   4.462  1.00  0.00     0.038 A 
HETATM   41  C27 UNL     1      -4.451   9.426   4.394  1.00  0.00     0.027 A 
HETATM   42  C28 UNL     1      -4.389  10.101   3.176  1.00  0.00     0.045 A 
HETATM   43 CL1  UNL     1      -4.655  11.839   3.129  1.00  0.00    -0.083 Cl
BRANCH  39  44
HETATM   44  O2  UNL     1      -3.740   6.026   3.276  1.00  0.00    -0.361 OA
ATOM     45  H2  UNL     1      -4.249   5.480   3.864  1.00  0.00     0.217 HD
ENDBRANCH  39  44
ENDBRANCH   8  37
TORSDOF 11
ENDMDL
MODEL 2
REMARK VINA RESULT: -7.179766954      4.775      8.216
REMARK  11 active torsions:
REMARK  status: ('A' for Active; 'I' for Inactive)
REMARK    1  A    between atoms: C5_5  and  C6_6 
REMARK    2  A    between atoms: C6_6  and  C7_7 
REMARK    3  A    between atoms: C10_10  and  N1_11 
REMARK    4  A    between atoms: N1_11  and  C11_13 
REMARK    5  A    between atoms: C12_14  and  O1_15 
REMARK    6  A    between atoms: C12_14  and  C13_17 
REMARK    7  A    between atoms: C13_17  and  N2_18 
REMARK    8  A    between atoms: C14_19  and  N3_20 
REMARK    9  A    between atoms: N3_20  and  C15_21 
REMARK   10  A    between atoms: C22_29  and  C23_30 
REMARK   11  A    between atoms: C25_32  and  O2_33 
ROOT
HETATM    1  N2  UNL     1      -0.554  13.372  -2.154  1.00  0.00    -0.296 N 
HETATM    2  C14 UNL     1       0.056  12.224  -2.583  1.00  0.00     0.260 A 
HETATM    3  N4  UNL     1       0.445  11.584  -1.423  1.00  0.00    -0.309 N 
HETATM    4  C18 UNL     1       1.140  10.297  -1.378  1.00  0.00     0.161 C 
HETATM    5  C19 UNL     1       0.106  12.291  -0.357  1.00  0.00     0.068 A 
HETATM    6  C20 UNL     1       0.309  12.103   1.009  1.00  0.00     0.033 A 
HETATM    7  C21 UNL     1      -0.112  13.052   1.911  1.00  0.00     0.018 A 
HETATM    8  C22 UNL     1      -0.738  14.202   1.492  1.00  0.00     0.017 A 
HETATM    9  C29 UNL     1      -0.929  14.363   0.136  1.00  0.00     0.156 A 
HETATM   10  F1  UNL     1      -1.486  15.525  -0.239  1.00  0.00    -0.203 F 
HETATM   11  C30 UNL     1      -0.520  13.416  -0.816  1.00  0.00     0.105 A 
ENDROOT
BRANCH   1  12
HETATM   12  C13 UNL     1      -1.112  14.350  -3.027  1.00  0.00     0.199 C 
BRANCH  12  13
HETATM   13  C12 UNL     1      -2.336  14.103  -3.774  1.00  0.00     0.076 C 
HETATM   14  C11 UNL     1      -3.575  13.520  -3.334  1.00  0.00     0.117 C 
BRANCH  14  15
HETATM   15  N1  UNL     1      -4.164  13.769  -2.067  1.00  0.00    -0.392 N 
ATOM     16  H1  UNL     1      -4.677  14.617  -1.827  1.00  0.00     0.159 HD
BRANCH  15  17
HETATM   17  C10 UNL     1      -3.937  12.645  -1.144  1.00  0.00     0.081 C 
HETATM   18  C9  UNL     1      -5.189  12.355  -0.347  1.00  0.00     0.025 C 
HETATM   19  C8  UNL     1      -5.453  10.880  -0.242  1.00  0.00     0.006 C 
HETATM   20  C7  UNL     1      -4.193  10.109   0.117  1.00  0.00    -0.014 C 
HETATM   21  C32 UNL     1      -3.106  10.358  -0.907  1.00  0.00     0.006 C 
HETATM   22  C31 UNL     1      -3.602  11.390  -1.899  1.00  0.00     0.025 C 
BRANCH  20  23
HETATM   23  C6  UNL     1      -3.724  10.479   1.503  1.00  0.00     0.009 C 
BRANCH  23  24
HETATM   24  C5  UNL     1      -4.586   9.876   2.574  1.00  0.00    -0.014 C 
HETATM   25  C4  UNL     1      -5.180  10.869   3.528  1.00  0.00     0.005 C 
HETATM   26  C3  UNL     1      -4.494  10.824   4.886  1.00  0.00     0.004 C 
HETATM   27  C2  UNL     1      -4.695   9.514   5.601  1.00  0.00    -0.019 C 
HETATM   28  C1  UNL     1      -5.991   9.491   6.393  1.00  0.00     0.010 C 
HETATM   29  C34 UNL     1      -4.645   8.411   4.556  1.00  0.00     0.004 C 
HETATM   30  C33 UNL     1      -3.786   8.855   3.376  1.00  0.00     0.005 C 
ENDBRANCH  23  24
ENDBRANCH  20  23
ENDBRANCH  15  17
ENDBRANCH  14  15
BRANCH  13  31
HETATM   31  O1  UNL     1      -2.090  13.605  -5.109  1.00  0.00    -0.362 OA
ATOM     32  H1  UNL     1      -2.893  13.729  -5.601  1.00  0.00     0.217 HD
ENDBRANCH  13  31
ENDBRANCH  12  13
ENDBRANCH   1  12
BRANCH   2  33
HETATM   33  N3  UNL     1       0.319  11.809  -3.685  1.00  0.00    -0.410 NA
BRANCH  33  34
HETATM   34  C15 UNL     1       0.604  11.348  -4.887  1.00  0.00     0.158 C 
HETATM   35  C16 UNL     1       1.125  12.413  -5.893  1.00  0.00     0.047 C 
HETATM   36  C17 UNL     1       1.674  10.249  -4.983  1.00  0.00     0.047 C 
ENDBRANCH  33  34
ENDBRANCH   2  33
BRANCH   8  37
HETATM   37  C23 UNL     1      -1.164  15.241   2.443  1.00  0.00     0.002 A 
HETATM   38  C24 UNL     1      -0.210  16.052   3.030  1.00  0.00     0.050 A 
HETATM   39  C25 UNL     1      -0.534  17.033   3.940  1.00  0.00     0.066 A 
HETATM   40  C26 UNL     1      -1.838  17.245   4.304  1.00  0.00     0.038 A 
HETATM   41  C27 UNL     1      -2.810  16.436   3.723  1.00  0.00     0.027 A 
HETATM   42  C28 UNL     1      -2.464  15.446   2.803  1.00  0.00     0.045 A 
HETATM   43 CL1  UNL     1      -3.720  14.450   2.081  1.00  0.00    -0.083 Cl
BRANCH  39  44
HETATM   44  O2  UNL     1       0.492  17.795   4.473  1.00  0.00    -0.361 OA
ATOM     45  H2  UNL     1       0.263  18.545   5.009  1.00  0.00     0.217 HD
ENDBRANCH  39  44
ENDBRANCH   8  37
TORSDOF 11
ENDMDL
MODEL 3
REMARK VINA RESULT: -7.147100297      0.742      1.152
REMARK  11 active torsions:
REMARK  status: ('A' for Active; 'I' for Inactive)
REMARK    1  A    between atoms: C5_5  and  C6_6 
REMARK    2  A    between atoms: C6_6  and  C7_7 
REMARK    3  A    between atoms: C10_10  and  N1_11 
REMARK    4  A    between atoms: N1_11  and  C11_13 
REMARK    5  A    between atoms: C12_14  and  O1_15 
REMARK    6  A    between atoms: C12_14  and  C13_17 
REMARK    7  A    between atoms: C13_17  and  N2_18 
REMARK    8  A    between atoms: C14_19  and  N3_20 
REMARK    9  A    between atoms: N3_20  and  C15_21 
REMARK   10  A    between atoms: C22_29  and  C23_30 
REMARK   11  A    between atoms: C25_32  and  O2_33 
ROOT
HETATM    1  N2  UNL     1      -2.198  12.273  -1.643  1.00  0.00    -0.296 N 
HETATM    2  C14 UNL     1      -2.650  12.577  -2.899  1.00  0.00     0.260 A 
HETATM    3  N4  UNL     1      -3.888  11.970  -2.978  1.00  0.00    -0.309 N 
HETATM    4  C18 UNL     1      -4.766  12.025  -4.148  1.00  0.00     0.161 C 
HETATM    5  C19 UNL     1      -4.173  11.332  -1.854  1.00  0.00     0.068 A 
HETATM    6  C20 UNL     1      -5.255  10.548  -1.459  1.00  0.00     0.033 A 
HETATM    7  C21 UNL     1      -5.262   9.946  -0.222  1.00  0.00     0.018 A 
HETATM    8  C22 UNL     1      -4.209  10.102   0.649  1.00  0.00     0.017 A 
HETATM    9  C29 UNL     1      -3.153  10.885   0.235  1.00  0.00     0.156 A 
HETATM   10  F1  UNL     1      -2.117  10.962   1.085  1.00  0.00    -0.203 F 
HETATM   11  C30 UNL     1      -3.110  11.519  -1.016  1.00  0.00     0.105 A 
ENDROOT
BRANCH   1  12
HETATM   12  C13 UNL     1      -0.940  12.697  -1.127  1.00  0.00     0.199 C 
BRANCH  12  13
HETATM   13  C12 UNL     1       0.272  11.915  -1.322  1.00  0.00     0.076 C 
HETATM   14  C11 UNL     1       1.519  11.966  -0.607  1.00  0.00     0.117 C 
BRANCH  14  15
HETATM   15  N1  UNL     1       1.623  12.145   0.797  1.00  0.00    -0.392 N 
ATOM     16  H1  UNL     1       0.978  12.704   1.356  1.00  0.00     0.159 HD
BRANCH  15  17
HETATM   17  C10 UNL     1       2.783  11.420   1.342  1.00  0.00     0.081 C 
HETATM   18  C9  UNL     1       2.624  11.214   2.832  1.00  0.00     0.025 C 
HETATM   19  C8  UNL     1       3.024   9.828   3.247  1.00  0.00     0.006 C 
HETATM   20  C7  UNL     1       4.341   9.409   2.613  1.00  0.00    -0.014 C 
HETATM   21  C32 UNL     1       4.250   9.479   1.103  1.00  0.00     0.006 C 
HETATM   22  C31 UNL     1       2.901  10.055   0.725  1.00  0.00     0.025 C 
BRANCH  20  23
HETATM   23  C6  UNL     1       5.471  10.267   3.127  1.00  0.00     0.009 C 
BRANCH  23  24
HETATM   24  C5  UNL     1       6.680   9.455   3.488  1.00  0.00    -0.014 C 
HETATM   25  C4  UNL     1       7.375   8.819   2.319  1.00  0.00     0.005 C 
HETATM   26  C3  UNL     1       7.120   7.320   2.262  1.00  0.00     0.004 C 
HETATM   27  C2  UNL     1       7.703   6.581   3.437  1.00  0.00    -0.019 C 
HETATM   28  C1  UNL     1       9.162   6.217   3.215  1.00  0.00     0.010 C 
HETATM   29  C34 UNL     1       7.514   7.455   4.666  1.00  0.00     0.004 C 
HETATM   30  C33 UNL     1       6.298   8.358   4.476  1.00  0.00     0.005 C 
ENDBRANCH  23  24
ENDBRANCH  20  23
ENDBRANCH  15  17
ENDBRANCH  14  15
BRANCH  13  31
HETATM   31  O1  UNL     1       0.598  11.718  -2.717  1.00  0.00    -0.362 OA
ATOM     32  H1  UNL     1       0.495  10.790  -2.894  1.00  0.00     0.217 HD
ENDBRANCH  13  31
ENDBRANCH  12  13
ENDBRANCH   1  12
BRANCH   2  33
HETATM   33  N3  UNL     1      -2.141  13.158  -3.827  1.00  0.00    -0.410 NA
BRANCH  33  34
HETATM   34  C15 UNL     1      -1.590  13.797  -4.839  1.00  0.00     0.158 C 
HETATM   35  C16 UNL     1      -2.521  14.809  -5.563  1.00  0.00     0.047 C 
HETATM   36  C17 UNL     1      -0.344  14.646  -4.542  1.00  0.00     0.047 C 
ENDBRANCH  33  34
ENDBRANCH   2  33
BRANCH   8  37
HETATM   37  C23 UNL     1      -4.187   9.438   1.963  1.00  0.00     0.002 A 
HETATM   38  C24 UNL     1      -3.816   8.108   2.041  1.00  0.00     0.050 A 
HETATM   39  C25 UNL     1      -3.789   7.419   3.232  1.00  0.00     0.066 A 
HETATM   40  C26 UNL     1      -4.135   8.037   4.405  1.00  0.00     0.038 A 
HETATM   41  C27 UNL     1      -4.512   9.375   4.343  1.00  0.00     0.027 A 
HETATM   42  C28 UNL     1      -4.534  10.058   3.126  1.00  0.00     0.045 A 
HETATM   43 CL1  UNL     1      -5.005  11.752   3.088  1.00  0.00    -0.083 Cl
BRANCH  39  44
HETATM   44  O2  UNL     1      -3.403   6.089   3.210  1.00  0.00    -0.361 OA
ATOM     45  H2  UNL     1      -3.790   5.498   3.845  1.00  0.00     0.217 HD
ENDBRANCH  39  44
ENDBRANCH   8  37
TORSDOF 11
ENDMDL
MODEL 4
REMARK VINA RESULT: -7.135468930      4.776      8.062
REMARK  11 active torsions:
REMARK  status: ('A' for Active; 'I' for Inactive)
REMARK    1  A    between atoms: C5_5  and  C6_6 
REMARK    2  A    between atoms: C6_6  and  C7_7 
REMARK    3  A    between atoms: C10_10  and  N1_11 
REMARK    4  A    between atoms: N1_11  and  C11_13 
REMARK    5  A    between atoms: C12_14  and  O1_15 
REMARK    6  A    between atoms: C12_14  and  C13_17 
REMARK    7  A    between atoms: C13_17  and  N2_18 
REMARK    8  A    between atoms: C14_19  and  N3_20 
REMARK    9  A    between atoms: N3_20  and  C15_21 
REMARK   10  A    between atoms: C22_29  and  C23_30 
REMARK   11  A    between atoms: C25_32  and  O2_33 
ROOT
HETATM    1  N2  UNL     1       0.222  13.048  -2.492  1.00  0.00    -0.296 N 
HETATM    2  C14 UNL     1       0.683  11.818  -2.878  1.00  0.00     0.260 A 
HETATM    3  N4  UNL     1       0.839  11.121  -1.696  1.00  0.00    -0.309 N 
HETATM    4  C18 UNL     1       1.311   9.738  -1.605  1.00  0.00     0.161 C 
HETATM    5  C19 UNL     1       0.506  11.870  -0.658  1.00  0.00     0.068 A 
HETATM    6  C20 UNL     1       0.529  11.648   0.718  1.00  0.00     0.033 A 
HETATM    7  C21 UNL     1       0.172  12.650   1.590  1.00  0.00     0.018 A 
HETATM    8  C22 UNL     1      -0.214  13.887   1.130  1.00  0.00     0.017 A 
HETATM    9  C29 UNL     1      -0.231  14.080  -0.235  1.00  0.00     0.156 A 
HETATM   10  F1  UNL     1      -0.552  15.318  -0.644  1.00  0.00    -0.203 F 
HETATM   11  C30 UNL     1       0.120  13.082  -1.157  1.00  0.00     0.105 A 
ENDROOT
BRANCH   1  12
HETATM   12  C13 UNL     1      -0.076  14.105  -3.399  1.00  0.00     0.199 C 
BRANCH  12  13
HETATM   13  C12 UNL     1      -1.254  14.073  -4.254  1.00  0.00     0.076 C 
HETATM   14  C11 UNL     1      -2.645  14.012  -3.894  1.00  0.00     0.117 C 
BRANCH  14  15
HETATM   15  N1  UNL     1      -3.214  14.714  -2.799  1.00  0.00    -0.392 N 
ATOM     16  H1  UNL     1      -3.514  15.688  -2.833  1.00  0.00     0.159 HD
BRANCH  15  17
HETATM   17  C10 UNL     1      -3.313  13.854  -1.609  1.00  0.00     0.081 C 
HETATM   18  C9  UNL     1      -4.530  14.224  -0.790  1.00  0.00     0.025 C 
HETATM   19  C8  UNL     1      -5.266  13.008  -0.307  1.00  0.00     0.006 C 
HETATM   20  C7  UNL     1      -4.316  11.970   0.270  1.00  0.00    -0.014 C 
HETATM   21  C32 UNL     1      -3.284  11.562  -0.760  1.00  0.00     0.006 C 
HETATM   22  C31 UNL     1      -3.474  12.413  -2.000  1.00  0.00     0.025 C 
BRANCH  20  23
HETATM   23  C6  UNL     1      -3.652  12.496   1.519  1.00  0.00     0.009 C 
BRANCH  23  24
HETATM   24  C5  UNL     1      -3.786  11.548   2.675  1.00  0.00    -0.014 C 
HETATM   25  C4  UNL     1      -2.772  10.442   2.693  1.00  0.00     0.005 C 
HETATM   26  C3  UNL     1      -3.388   9.108   2.297  1.00  0.00     0.004 C 
HETATM   27  C2  UNL     1      -4.424   8.626   3.278  1.00  0.00    -0.019 C 
HETATM   28  C1  UNL     1      -3.802   7.856   4.431  1.00  0.00     0.010 C 
HETATM   29  C34 UNL     1      -5.200   9.841   3.756  1.00  0.00     0.004 C 
HETATM   30  C33 UNL     1      -5.178  10.925   2.682  1.00  0.00     0.005 C 
ENDBRANCH  23  24
ENDBRANCH  20  23
ENDBRANCH  15  17
ENDBRANCH  14  15
BRANCH  13  31
HETATM   31  O1  UNL     1      -1.085  13.229  -5.415  1.00  0.00    -0.362 OA
ATOM     32  H1  UNL     1      -0.268  12.760  -5.297  1.00  0.00     0.217 HD
ENDBRANCH  13  31
ENDBRANCH  12  13
ENDBRANCH   1  12
BRANCH   2  33
HETATM   33  N3  UNL     1       0.992  11.368  -3.954  1.00  0.00    -0.410 NA
BRANCH  33  34
HETATM   34  C15 UNL     1       1.329  10.883  -5.132  1.00  0.00     0.158 C 
HETATM   35  C16 UNL     1       2.103  11.869  -6.052  1.00  0.00     0.047 C 
HETATM   36  C17 UNL     1       2.229   9.638  -5.149  1.00  0.00     0.047 C 
ENDBRANCH  33  34
ENDBRANCH   2  33
BRANCH   8  37
HETATM   37  C23 UNL     1      -0.567  14.979   2.052  1.00  0.00     0.002 A 
HETATM   38  C24 UNL     1      -1.896  15.190   2.369  1.00  0.00     0.050 A 
HETATM   39  C25 UNL     1      -2.302  16.202   3.211  1.00  0.00     0.066 A 
HETATM   40  C26 UNL     1      -1.386  17.051   3.774  1.00  0.00     0.038 A 
HETATM   41  C27 UNL     1      -0.044  16.852   3.463  1.00  0.00     0.027 A 
HETATM   42  C28 UNL     1       0.349  15.822   2.608  1.00  0.00     0.045 A 
HETATM   43 CL1  UNL     1       2.054  15.594   2.246  1.00  0.00    -0.083 Cl
BRANCH  39  44
HETATM   44  O2  UNL     1      -3.656  16.334   3.470  1.00  0.00    -0.361 OA
ATOM     45  H2  UNL     1      -3.927  16.951   4.140  1.00  0.00     0.217 HD
ENDBRANCH  39  44
ENDBRANCH   8  37
TORSDOF 11
ENDMDL
MODEL 5
REMARK VINA RESULT: -6.989776682      1.098      1.395
REMARK  11 active torsions:
REMARK  status: ('A' for Active; 'I' for Inactive)
REMARK    1  A    between atoms: C5_5  and  C6_6 
REMARK    2  A    between atoms: C6_6  and  C7_7 
REMARK    3  A    between atoms: C10_10  and  N1_11 
REMARK    4  A    between atoms: N1_11  and  C11_13 
REMARK    5  A    between atoms: C12_14  and  O1_15 
REMARK    6  A    between atoms: C12_14  and  C13_17 
REMARK    7  A    between atoms: C13_17  and  N2_18 
REMARK    8  A    between atoms: C14_19  and  N3_20 
REMARK    9  A    between atoms: N3_20  and  C15_21 
REMARK   10  A    between atoms: C22_29  and  C23_30 
REMARK   11  A    between atoms: C25_32  and  O2_33 
ROOT
HETATM    1  N2  UNL     1      -1.379  11.870  -1.486  1.00  0.00    -0.296 N 
HETATM    2  C14 UNL     1      -1.769  12.380  -2.695  1.00  0.00     0.260 A 
HETATM    3  N4  UNL     1      -3.138  12.202  -2.720  1.00  0.00    -0.309 N 
HETATM    4  C18 UNL     1      -4.008  12.604  -3.827  1.00  0.00     0.161 C 
HETATM    5  C19 UNL     1      -3.559  11.617  -1.610  1.00  0.00     0.068 A 
HETATM    6  C20 UNL     1      -4.815  11.191  -1.181  1.00  0.00     0.033 A 
HETATM    7  C21 UNL     1      -4.955  10.546   0.026  1.00  0.00     0.018 A 
HETATM    8  C22 UNL     1      -3.867  10.306   0.833  1.00  0.00     0.017 A 
HETATM    9  C29 UNL     1      -2.637  10.739   0.387  1.00  0.00     0.156 A 
HETATM   10  F1  UNL     1      -1.592  10.432   1.170  1.00  0.00    -0.203 F 
HETATM   11  C30 UNL     1      -2.454  11.406  -0.835  1.00  0.00     0.105 A 
ENDROOT
BRANCH   1  12
HETATM   12  C13 UNL     1      -0.028  11.842  -1.034  1.00  0.00     0.199 C 
BRANCH  12  13
HETATM   13  C12 UNL     1       0.601  13.003  -0.423  1.00  0.00     0.076 C 
HETATM   14  C11 UNL     1       0.488  13.504   0.921  1.00  0.00     0.117 C 
BRANCH  14  15
HETATM   15  N1  UNL     1       0.432  12.679   2.074  1.00  0.00    -0.392 N 
ATOM     16  H1  UNL     1      -0.275  12.757   2.805  1.00  0.00     0.159 HD
BRANCH  15  17
HETATM   17  C10 UNL     1       1.528  11.697   2.080  1.00  0.00     0.081 C 
HETATM   18  C9  UNL     1       2.862  12.393   1.921  1.00  0.00     0.025 C 
HETATM   19  C8  UNL     1       3.898  11.829   2.850  1.00  0.00     0.006 C 
HETATM   20  C7  UNL     1       3.890  10.308   2.844  1.00  0.00    -0.014 C 
HETATM   21  C32 UNL     1       2.524   9.781   3.228  1.00  0.00     0.006 C 
HETATM   22  C31 UNL     1       1.578  10.955   3.385  1.00  0.00     0.025 C 
BRANCH  20  23
HETATM   23  C6  UNL     1       4.311   9.784   1.492  1.00  0.00     0.009 C 
BRANCH  23  24
HETATM   24  C5  UNL     1       5.724   9.278   1.495  1.00  0.00    -0.014 C 
HETATM   25  C4  UNL     1       6.020   8.252   0.442  1.00  0.00     0.005 C 
HETATM   26  C3  UNL     1       6.149   6.857   1.036  1.00  0.00     0.004 C 
HETATM   27  C2  UNL     1       7.323   6.724   1.970  1.00  0.00    -0.019 C 
HETATM   28  C1  UNL     1       8.606   6.391   1.227  1.00  0.00     0.010 C 
HETATM   29  C34 UNL     1       7.435   8.023   2.750  1.00  0.00     0.004 C 
HETATM   30  C33 UNL     1       6.063   8.683   2.857  1.00  0.00     0.005 C 
ENDBRANCH  23  24
ENDBRANCH  20  23
ENDBRANCH  15  17
ENDBRANCH  14  15
BRANCH  13  31
HETATM   31  O1  UNL     1       0.631  14.153  -1.297  1.00  0.00    -0.362 OA
ATOM     32  H1  UNL     1       0.968  14.879  -0.786  1.00  0.00     0.217 HD
ENDBRANCH  13  31
ENDBRANCH  12  13
ENDBRANCH   1  12
BRANCH   2  33
HETATM   33  N3  UNL     1      -1.146  12.827  -3.627  1.00  0.00    -0.410 NA
BRANCH  33  34
HETATM   34  C15 UNL     1      -0.459  13.314  -4.640  1.00  0.00     0.158 C 
HETATM   35  C16 UNL     1       0.184  12.248  -5.571  1.00  0.00     0.047 C 
HETATM   36  C17 UNL     1      -1.212  14.212  -5.634  1.00  0.00     0.047 C 
ENDBRANCH  33  34
ENDBRANCH   2  33
BRANCH   8  37
HETATM   37  C23 UNL     1      -3.997   9.588   2.111  1.00  0.00     0.002 A 
HETATM   38  C24 UNL     1      -3.857   8.212   2.130  1.00  0.00     0.050 A 
HETATM   39  C25 UNL     1      -3.981   7.474   3.285  1.00  0.00     0.066 A 
HETATM   40  C26 UNL     1      -4.252   8.087   4.480  1.00  0.00     0.038 A 
HETATM   41  C27 UNL     1      -4.397   9.471   4.478  1.00  0.00     0.027 A 
HETATM   42  C28 UNL     1      -4.268  10.204   3.298  1.00  0.00     0.045 A 
HETATM   43 CL1  UNL     1      -4.446  11.953   3.334  1.00  0.00    -0.083 Cl
BRANCH  39  44
HETATM   44  O2  UNL     1      -3.824   6.100   3.204  1.00  0.00    -0.361 OA
ATOM     45  H2  UNL     1      -3.041   5.715   3.579  1.00  0.00     0.217 HD
ENDBRANCH  39  44
ENDBRANCH   8  37
TORSDOF 11
ENDMDL
