MODEL 1
REMARK VINA RESULT: -6.053529743      0.000      0.000
REMARK  10 active torsions:
REMARK  status: ('A' for Active; 'I' for Inactive)
REMARK    1  A    between atoms: O1_2  and  C2_3 
REMARK    2  A    between atoms: C4_5  and  C5_6 
REMARK    3  A    between atoms: C6_7  and  C7_8 
REMARK    4  A    between atoms: C8_13  and  C9_14 
REMARK    5  A    between atoms: C9_14  and  C10_15 
REMARK    6  A    between atoms: C13_19  and  O2_20 
REMARK    7  A    between atoms: N3_25  and  C16_26 
REMARK    8  A    between atoms: C16_26  and  C17_27 
REMARK    9  A    between atoms: C17_27  and  C18_28 
REMARK   10  A    between atoms: C26_36  and  O3_37 
ROOT
HETATM    1  C7  UNL     1      -0.585  12.169   1.688  1.00  0.00     0.123 A 
HETATM    2  N1  UNL     1       0.207  13.102   2.208  1.00  0.00    -0.284 N 
ATOM      3  H1  UNL     1       0.337  13.291   3.202  1.00  0.00     0.188 HD
HETATM    4  N2  UNL     1       0.795  13.742   1.210  1.00  0.00    -0.287 N 
ATOM      5  H2  UNL     1       1.459  14.511   1.305  1.00  0.00     0.188 HD
HETATM    6  C8  UNL     1       0.366  13.198   0.034  1.00  0.00     0.103 A 
HETATM    7  N3  UNL     1      -0.485  12.230   0.347  1.00  0.00    -0.320 N 
ENDROOT
BRANCH   1   8
HETATM    8  C6  UNL     1      -1.410  11.234   2.483  1.00  0.00     0.051 C 
HETATM    9  C5  UNL     1      -2.664  11.541   2.722  1.00  0.00     0.015 C 
BRANCH   9  10
HETATM   10  C4  UNL     1      -3.547  10.679   3.492  1.00  0.00    -0.033 A 
HETATM   11  C3  UNL     1      -3.637   9.320   3.293  1.00  0.00     0.051 A 
HETATM   12  C2  UNL     1      -4.477   8.492   4.045  1.00  0.00     0.102 A 
HETATM   13  C26 UNL     1      -5.235   9.097   5.018  1.00  0.00     0.099 A 
HETATM   14  C25 UNL     1      -5.169  10.452   5.244  1.00  0.00     0.040 A 
HETATM   15  C24 UNL     1      -4.338  11.260   4.499  1.00  0.00     0.014 A 
BRANCH  12  16
HETATM   16  O1  UNL     1      -4.503   7.161   3.780  1.00  0.00    -0.353 OA
HETATM   17  C1  UNL     1      -3.474   6.444   3.125  1.00  0.00     0.210 C 
ENDBRANCH  12  16
BRANCH  13  18
HETATM   18  O3  UNL     1      -6.086   8.294   5.788  1.00  0.00    -0.358 OA
ATOM     19  H3  UNL     1      -7.020   8.457   5.742  1.00  0.00     0.217 HD
ENDBRANCH  13  18
ENDBRANCH   9  10
ENDBRANCH   1   8
BRANCH   7  20
HETATM   20  C16 UNL     1      -1.188  11.385  -0.563  1.00  0.00     0.132 C 
BRANCH  20  21
HETATM   21  C17 UNL     1      -2.519  11.859  -0.981  1.00  0.00     0.025 C 
BRANCH  21  22
HETATM   22  C18 UNL     1      -3.408  10.774  -1.504  1.00  0.00    -0.013 C 
HETATM   23  C19 UNL     1      -4.442  11.256  -2.448  1.00  0.00     0.005 C 
HETATM   24  C20 UNL     1      -5.538  12.027  -1.728  1.00  0.00     0.000 C 
HETATM   25  C21 UNL     1      -6.239  10.974  -0.861  1.00  0.00     0.000 C 
HETATM   26  C22 UNL     1      -5.247  10.534   0.182  1.00  0.00     0.000 C 
HETATM   27  C23 UNL     1      -3.989   9.931  -0.381  1.00  0.00     0.005 C 
ENDBRANCH  21  22
ENDBRANCH  20  21
ENDBRANCH   7  20
BRANCH   6  28
HETATM   28  C9  UNL     1       0.779  13.651  -1.274  1.00  0.00     0.116 C 
BRANCH  28  29
HETATM   29  C10 UNL     1       1.632  12.626  -1.919  1.00  0.00    -0.048 A 
HETATM   30  C11 UNL     1       1.419  12.280  -3.249  1.00  0.00     0.029 A 
HETATM   31  C12 UNL     1       2.216  11.320  -3.851  1.00  0.00     0.046 A 
HETATM   32 BR1  UNL     1       1.928  10.833  -5.689  1.00  0.00    -0.048 Br
HETATM   33  C13 UNL     1       3.223  10.705  -3.131  1.00  0.00     0.100 A 
HETATM   34  C14 UNL     1       3.444  11.031  -1.831  1.00  0.00     0.046 A 
HETATM   35 BR2  UNL     1       4.820  10.213  -0.783  1.00  0.00    -0.048 Br
HETATM   36  C15 UNL     1       2.642  11.991  -1.243  1.00  0.00     0.029 A 
BRANCH  33  37
HETATM   37  O2  UNL     1       4.008   9.740  -3.768  1.00  0.00    -0.358 OA
ATOM     38  H2  UNL     1       4.779   9.411  -3.320  1.00  0.00     0.217 HD
ENDBRANCH  33  37
ENDBRANCH  28  29
ENDBRANCH   6  28
TORSDOF 10
ENDMDL
MODEL 2
REMARK VINA RESULT: -6.033109613      0.057      1.611
REMARK  10 active torsions:
REMARK  status: ('A' for Active; 'I' for Inactive)
REMARK    1  A    between atoms: O1_2  and  C2_3 
REMARK    2  A    between atoms: C4_5  and  C5_6 
REMARK    3  A    between atoms: C6_7  and  C7_8 
REMARK    4  A    between atoms: C8_13  and  C9_14 
REMARK    5  A    between atoms: C9_14  and  C10_15 
REMARK    6  A    between atoms: C13_19  and  O2_20 
REMARK    7  A    between atoms: N3_25  and  C16_26 
REMARK    8  A    between atoms: C16_26  and  C17_27 
REMARK    9  A    between atoms: C17_27  and  C18_28 
REMARK   10  A    between atoms: C26_36  and  O3_37 
ROOT
HETATM    1  C7  UNL     1      -0.637  12.188   1.655  1.00  0.00     0.123 A 
HETATM    2  N1  UNL     1       0.145  13.134   2.166  1.00  0.00    -0.284 N 
ATOM      3  H1  UNL     1       0.275  13.333   3.158  1.00  0.00     0.188 HD
HETATM    4  N2  UNL     1       0.724  13.773   1.162  1.00  0.00    -0.287 N 
ATOM      5  H2  UNL     1       1.378  14.552   1.249  1.00  0.00     0.188 HD
HETATM    6  C8  UNL     1       0.299  13.216  -0.010  1.00  0.00     0.103 A 
HETATM    7  N3  UNL     1      -0.540  12.240   0.314  1.00  0.00    -0.320 N 
ENDROOT
BRANCH   1   8
HETATM    8  C6  UNL     1      -1.449  11.249   2.459  1.00  0.00     0.051 C 
HETATM    9  C5  UNL     1      -2.704  11.546   2.704  1.00  0.00     0.015 C 
BRANCH   9  10
HETATM   10  C4  UNL     1      -3.574  10.679   3.484  1.00  0.00    -0.033 A 
HETATM   11  C3  UNL     1      -3.648   9.318   3.296  1.00  0.00     0.051 A 
HETATM   12  C2  UNL     1      -4.476   8.486   4.056  1.00  0.00     0.102 A 
HETATM   13  C26 UNL     1      -5.239   9.090   5.026  1.00  0.00     0.099 A 
HETATM   14  C25 UNL     1      -5.189  10.448   5.241  1.00  0.00     0.040 A 
HETATM   15  C24 UNL     1      -4.370  11.259   4.487  1.00  0.00     0.014 A 
BRANCH  12  16
HETATM   16  O1  UNL     1      -4.486   7.153   3.803  1.00  0.00    -0.353 OA
HETATM   17  C1  UNL     1      -3.464   6.449   3.125  1.00  0.00     0.210 C 
ENDBRANCH  12  16
BRANCH  13  18
HETATM   18  O3  UNL     1      -6.079   8.283   5.805  1.00  0.00    -0.358 OA
ATOM     19  H3  UNL     1      -6.853   8.678   6.186  1.00  0.00     0.217 HD
ENDBRANCH  13  18
ENDBRANCH   9  10
ENDBRANCH   1   8
BRANCH   7  20
HETATM   20  C16 UNL     1      -1.234  11.379  -0.588  1.00  0.00     0.132 C 
BRANCH  20  21
HETATM   21  C17 UNL     1      -2.568  11.838  -1.015  1.00  0.00     0.025 C 
BRANCH  21  22
HETATM   22  C18 UNL     1      -3.449  10.740  -1.523  1.00  0.00    -0.013 C 
HETATM   23  C19 UNL     1      -4.492  11.203  -2.468  1.00  0.00     0.005 C 
HETATM   24  C20 UNL     1      -5.591  11.972  -1.752  1.00  0.00     0.000 C 
HETATM   25  C21 UNL     1      -6.280  10.923  -0.871  1.00  0.00     0.000 C 
HETATM   26  C22 UNL     1      -5.281  10.503   0.173  1.00  0.00     0.000 C 
HETATM   27  C23 UNL     1      -4.019   9.905  -0.389  1.00  0.00     0.005 C 
ENDBRANCH  21  22
ENDBRANCH  20  21
ENDBRANCH   7  20
BRANCH   6  28
HETATM   28  C9  UNL     1       0.703  13.663  -1.321  1.00  0.00     0.116 C 
BRANCH  28  29
HETATM   29  C10 UNL     1       1.566  12.642  -1.961  1.00  0.00    -0.048 A 
HETATM   30  C11 UNL     1       2.586  12.038  -1.232  1.00  0.00     0.029 A 
HETATM   31  C12 UNL     1       3.393  11.084  -1.830  1.00  0.00     0.046 A 
HETATM   32 BR1  UNL     1       4.806  10.244  -0.833  1.00  0.00    -0.048 Br
HETATM   33  C13 UNL     1       3.186  10.733  -3.151  1.00  0.00     0.100 A 
HETATM   34  C14 UNL     1       2.196  11.314  -3.877  1.00  0.00     0.046 A 
HETATM   35 BR2  UNL     1       1.864  10.871  -5.708  1.00  0.00    -0.048 Br
HETATM   36  C15 UNL     1       1.398  12.263  -3.266  1.00  0.00     0.029 A 
BRANCH  33  37
HETATM   37  O2  UNL     1       4.019   9.768  -3.725  1.00  0.00    -0.358 OA
ATOM     38  H2  UNL     1       3.629   9.096  -4.272  1.00  0.00     0.217 HD
ENDBRANCH  33  37
ENDBRANCH  28  29
ENDBRANCH   6  28
TORSDOF 10
ENDMDL
MODEL 3
REMARK VINA RESULT: -5.942450915      3.911      6.086
REMARK  10 active torsions:
REMARK  status: ('A' for Active; 'I' for Inactive)
REMARK    1  A    between atoms: O1_2  and  C2_3 
REMARK    2  A    between atoms: C4_5  and  C5_6 
REMARK    3  A    between atoms: C6_7  and  C7_8 
REMARK    4  A    between atoms: C8_13  and  C9_14 
REMARK    5  A    between atoms: C9_14  and  C10_15 
REMARK    6  A    between atoms: C13_19  and  O2_20 
REMARK    7  A    between atoms: N3_25  and  C16_26 
REMARK    8  A    between atoms: C16_26  and  C17_27 
REMARK    9  A    between atoms: C17_27  and  C18_28 
REMARK   10  A    between atoms: C26_36  and  O3_37 
ROOT
HETATM    1  C7  UNL     1      -2.465  11.658  -0.652  1.00  0.00     0.123 A 
HETATM    2  N1  UNL     1      -1.401  11.990  -1.376  1.00  0.00    -0.284 N 
ATOM      3  H1  UNL     1      -1.197  11.671  -2.323  1.00  0.00     0.188 HD
HETATM    4  N2  UNL     1      -0.651  12.806  -0.652  1.00  0.00    -0.287 N 
ATOM      5  H2  UNL     1       0.232  13.224  -0.947  1.00  0.00     0.188 HD
HETATM    6  C8  UNL     1      -1.258  12.994   0.557  1.00  0.00     0.103 A 
HETATM    7  N3  UNL     1      -2.376  12.279   0.539  1.00  0.00    -0.320 N 
ENDROOT
BRANCH   1   8
HETATM    8  C6  UNL     1      -3.548  10.765  -1.117  1.00  0.00     0.051 C 
HETATM    9  C5  UNL     1      -4.619  11.297  -1.659  1.00  0.00     0.015 C 
BRANCH   9  10
HETATM   10  C4  UNL     1      -5.730  10.494  -2.145  1.00  0.00    -0.033 A 
HETATM   11  C3  UNL     1      -6.293  10.659  -3.391  1.00  0.00     0.051 A 
HETATM   12  C2  UNL     1      -7.352   9.877  -3.860  1.00  0.00     0.102 A 
HETATM   13  C26 UNL     1      -7.831   8.908  -3.011  1.00  0.00     0.099 A 
HETATM   14  C25 UNL     1      -7.292   8.716  -1.760  1.00  0.00     0.040 A 
HETATM   15  C24 UNL     1      -6.248   9.491  -1.307  1.00  0.00     0.014 A 
BRANCH  12  16
HETATM   16  O1  UNL     1      -7.846  10.109  -5.102  1.00  0.00    -0.353 OA
HETATM   17  C1  UNL     1      -8.953  10.939  -5.394  1.00  0.00     0.210 C 
ENDBRANCH  12  16
BRANCH  13  18
HETATM   18  O3  UNL     1      -8.892   8.107  -3.453  1.00  0.00    -0.358 OA
ATOM     19  H3  UNL     1      -9.740   8.218  -3.040  1.00  0.00     0.217 HD
ENDBRANCH  13  18
ENDBRANCH   9  10
ENDBRANCH   1   8
BRANCH   7  20
HETATM   20  C16 UNL     1      -3.334  12.169   1.590  1.00  0.00     0.132 C 
BRANCH  20  21
HETATM   21  C17 UNL     1      -3.217  10.973   2.443  1.00  0.00     0.025 C 
BRANCH  21  22
HETATM   22  C18 UNL     1      -4.404  10.064   2.372  1.00  0.00    -0.013 C 
HETATM   23  C19 UNL     1      -5.184  10.006   3.630  1.00  0.00     0.005 C 
HETATM   24  C20 UNL     1      -4.449   9.224   4.707  1.00  0.00     0.000 C 
HETATM   25  C21 UNL     1      -4.420   7.784   4.182  1.00  0.00     0.000 C 
HETATM   26  C22 UNL     1      -3.546   7.782   2.957  1.00  0.00     0.000 C 
HETATM   27  C23 UNL     1      -4.029   8.685   1.854  1.00  0.00     0.005 C 
ENDBRANCH  21  22
ENDBRANCH  20  21
ENDBRANCH   7  20
BRANCH   6  28
HETATM   28  C9  UNL     1      -0.724  13.812   1.620  1.00  0.00     0.116 C 
BRANCH  28  29
HETATM   29  C10 UNL     1       0.654  13.378   1.948  1.00  0.00    -0.048 A 
HETATM   30  C11 UNL     1       0.888  12.081   2.394  1.00  0.00     0.029 A 
HETATM   31  C12 UNL     1       2.177  11.677   2.702  1.00  0.00     0.046 A 
HETATM   32 BR1  UNL     1       2.511   9.887   3.321  1.00  0.00    -0.048 Br
HETATM   33  C13 UNL     1       3.231  12.561   2.565  1.00  0.00     0.100 A 
HETATM   34  C14 UNL     1       3.020  13.831   2.132  1.00  0.00     0.046 A 
HETATM   35 BR2  UNL     1       4.437  15.100   1.926  1.00  0.00    -0.048 Br
HETATM   36  C15 UNL     1       1.728  14.221   1.828  1.00  0.00     0.029 A 
BRANCH  33  37
HETATM   37  O2  UNL     1       4.519  12.121   2.885  1.00  0.00    -0.358 OA
ATOM     38  H2  UNL     1       5.209  12.767   2.986  1.00  0.00     0.217 HD
ENDBRANCH  33  37
ENDBRANCH  28  29
ENDBRANCH   6  28
TORSDOF 10
ENDMDL
MODEL 4
REMARK VINA RESULT: -5.857412499      3.914      6.053
REMARK  10 active torsions:
REMARK  status: ('A' for Active; 'I' for Inactive)
REMARK    1  A    between atoms: O1_2  and  C2_3 
REMARK    2  A    between atoms: C4_5  and  C5_6 
REMARK    3  A    between atoms: C6_7  and  C7_8 
REMARK    4  A    between atoms: C8_13  and  C9_14 
REMARK    5  A    between atoms: C9_14  and  C10_15 
REMARK    6  A    between atoms: C13_19  and  O2_20 
REMARK    7  A    between atoms: N3_25  and  C16_26 
REMARK    8  A    between atoms: C16_26  and  C17_27 
REMARK    9  A    between atoms: C17_27  and  C18_28 
REMARK   10  A    between atoms: C26_36  and  O3_37 
ROOT
HETATM    1  C7  UNL     1      -2.489  11.902  -0.717  1.00  0.00     0.123 A 
HETATM    2  N1  UNL     1      -1.473  12.326  -1.463  1.00  0.00    -0.284 N 
ATOM      3  H1  UNL     1      -1.284  12.054  -2.428  1.00  0.00     0.188 HD
HETATM    4  N2  UNL     1      -0.751  13.162  -0.734  1.00  0.00    -0.287 N 
ATOM      5  H2  UNL     1       0.093  13.645  -1.042  1.00  0.00     0.188 HD
HETATM    6  C8  UNL     1      -1.325  13.268   0.500  1.00  0.00     0.103 A 
HETATM    7  N3  UNL     1      -2.395  12.484   0.493  1.00  0.00    -0.320 N 
ENDROOT
BRANCH   1   8
HETATM    8  C6  UNL     1      -3.530  10.959  -1.179  1.00  0.00     0.051 C 
HETATM    9  C5  UNL     1      -4.653  11.440  -1.660  1.00  0.00     0.015 C 
BRANCH   9  10
HETATM   10  C4  UNL     1      -5.728  10.586  -2.138  1.00  0.00    -0.033 A 
HETATM   11  C3  UNL     1      -6.283  10.701  -3.392  1.00  0.00     0.051 A 
HETATM   12  C2  UNL     1      -7.308   9.870  -3.854  1.00  0.00     0.102 A 
HETATM   13  C26 UNL     1      -7.760   8.904  -2.988  1.00  0.00     0.099 A 
HETATM   14  C25 UNL     1      -7.228   8.761  -1.727  1.00  0.00     0.040 A 
HETATM   15  C24 UNL     1      -6.218   9.585  -1.281  1.00  0.00     0.014 A 
BRANCH  12  16
HETATM   16  O1  UNL     1      -7.796  10.055  -5.106  1.00  0.00    -0.353 OA
HETATM   17  C1  UNL     1      -9.042  10.650  -5.412  1.00  0.00     0.210 C 
ENDBRANCH  12  16
BRANCH  13  18
HETATM   18  O3  UNL     1      -8.787   8.055  -3.421  1.00  0.00    -0.358 OA
ATOM     19  H3  UNL     1      -9.198   7.486  -2.782  1.00  0.00     0.217 HD
ENDBRANCH  13  18
ENDBRANCH   9  10
ENDBRANCH   1   8
BRANCH   7  20
HETATM   20  C16 UNL     1      -3.307  12.276   1.571  1.00  0.00     0.132 C 
BRANCH  20  21
HETATM   21  C17 UNL     1      -3.157  11.005   2.302  1.00  0.00     0.025 C 
BRANCH  21  22
HETATM   22  C18 UNL     1      -4.373  10.134   2.252  1.00  0.00    -0.013 C 
HETATM   23  C19 UNL     1      -5.164  10.145   3.504  1.00  0.00     0.005 C 
HETATM   24  C20 UNL     1      -4.463   9.377   4.613  1.00  0.00     0.000 C 
HETATM   25  C21 UNL     1      -4.479   7.919   4.137  1.00  0.00     0.000 C 
HETATM   26  C22 UNL     1      -3.596   7.846   2.920  1.00  0.00     0.000 C 
HETATM   27  C23 UNL     1      -4.040   8.727   1.784  1.00  0.00     0.005 C 
ENDBRANCH  21  22
ENDBRANCH  20  21
ENDBRANCH   7  20
BRANCH   6  28
HETATM   28  C9  UNL     1      -0.805  14.080   1.575  1.00  0.00     0.116 C 
BRANCH  28  29
HETATM   29  C10 UNL     1       0.562  13.633   1.931  1.00  0.00    -0.048 A 
HETATM   30  C11 UNL     1       1.627  14.525   1.858  1.00  0.00     0.029 A 
HETATM   31  C12 UNL     1       2.905  14.106   2.190  1.00  0.00     0.046 A 
HETATM   32 BR1  UNL     1       4.385  15.330   2.090  1.00  0.00    -0.048 Br
HETATM   33  C13 UNL     1       3.123  12.802   2.595  1.00  0.00     0.100 A 
HETATM   34  C14 UNL     1       2.094  11.918   2.671  1.00  0.00     0.046 A 
HETATM   35 BR2  UNL     1       2.334  10.101   3.221  1.00  0.00    -0.048 Br
HETATM   36  C15 UNL     1       0.824  12.350   2.337  1.00  0.00     0.029 A 
BRANCH  33  37
HETATM   37  O2  UNL     1       4.425  12.412   2.921  1.00  0.00    -0.358 OA
ATOM     38  H2  UNL     1       4.598  11.491   3.077  1.00  0.00     0.217 HD
ENDBRANCH  33  37
ENDBRANCH  28  29
ENDBRANCH   6  28
TORSDOF 10
ENDMDL
MODEL 5
REMARK VINA RESULT: -5.816025856      3.920      5.561
REMARK  10 active torsions:
REMARK  status: ('A' for Active; 'I' for Inactive)
REMARK    1  A    between atoms: O1_2  and  C2_3 
REMARK    2  A    between atoms: C4_5  and  C5_6 
REMARK    3  A    between atoms: C6_7  and  C7_8 
REMARK    4  A    between atoms: C8_13  and  C9_14 
REMARK    5  A    between atoms: C9_14  and  C10_15 
REMARK    6  A    between atoms: C13_19  and  O2_20 
REMARK    7  A    between atoms: N3_25  and  C16_26 
REMARK    8  A    between atoms: C16_26  and  C17_27 
REMARK    9  A    between atoms: C17_27  and  C18_28 
REMARK   10  A    between atoms: C26_36  and  O3_37 
ROOT
HETATM    1  C7  UNL     1       0.195  13.820   0.248  1.00  0.00     0.123 A 
HETATM    2  N1  UNL     1       1.505  13.845   0.022  1.00  0.00    -0.284 N 
ATOM      3  H1  UNL     1       2.151  14.575   0.322  1.00  0.00     0.188 HD
HETATM    4  N2  UNL     1       1.823  12.757  -0.662  1.00  0.00    -0.287 N 
ATOM      5  H2  UNL     1       2.759  12.506  -0.981  1.00  0.00     0.188 HD
HETATM    6  C8  UNL     1       0.688  12.028  -0.870  1.00  0.00     0.103 A 
HETATM    7  N3  UNL     1      -0.307  12.699  -0.302  1.00  0.00    -0.320 N 
ENDROOT
BRANCH   1   8
HETATM    8  C6  UNL     1      -0.545  14.860   0.995  1.00  0.00     0.051 C 
HETATM    9  C5  UNL     1      -0.367  14.957   2.292  1.00  0.00     0.015 C 
BRANCH   9  10
HETATM   10  C4  UNL     1      -1.053  15.951   3.102  1.00  0.00    -0.033 A 
HETATM   11  C3  UNL     1      -2.412  16.161   3.050  1.00  0.00     0.051 A 
HETATM   12  C2  UNL     1      -3.070  17.109   3.840  1.00  0.00     0.102 A 
HETATM   13  C26 UNL     1      -2.292  17.849   4.697  1.00  0.00     0.099 A 
HETATM   14  C25 UNL     1      -0.931  17.665   4.775  1.00  0.00     0.040 A 
HETATM   15  C24 UNL     1      -0.292  16.729   3.993  1.00  0.00     0.014 A 
BRANCH  12  16
HETATM   16  O1  UNL     1      -4.415  17.249   3.723  1.00  0.00    -0.353 OA
HETATM   17  C1  UNL     1      -5.079  17.790   2.598  1.00  0.00     0.210 C 
ENDBRANCH  12  16
BRANCH  13  18
HETATM   18  O3  UNL     1      -2.922  18.806   5.503  1.00  0.00    -0.358 OA
ATOM     19  H3  UNL     1      -2.397  19.521   5.844  1.00  0.00     0.217 HD
ENDBRANCH  13  18
ENDBRANCH   9  10
ENDBRANCH   1   8
BRANCH   7  20
HETATM   20  C16 UNL     1      -1.681  12.318  -0.268  1.00  0.00     0.132 C 
BRANCH  20  21
HETATM   21  C17 UNL     1      -2.027  11.249   0.685  1.00  0.00     0.025 C 
BRANCH  21  22
HETATM   22  C18 UNL     1      -2.108  11.711   2.107  1.00  0.00    -0.013 C 
HETATM   23  C19 UNL     1      -2.081  10.607   3.093  1.00  0.00     0.005 C 
HETATM   24  C20 UNL     1      -3.392   9.835   3.102  1.00  0.00     0.000 C 
HETATM   25  C21 UNL     1      -4.421  10.835   3.642  1.00  0.00     0.000 C 
HETATM   26  C22 UNL     1      -4.554  11.925   2.612  1.00  0.00     0.000 C 
HETATM   27  C23 UNL     1      -3.274  12.661   2.325  1.00  0.00     0.005 C 
ENDBRANCH  21  22
ENDBRANCH  20  21
ENDBRANCH   7  20
BRANCH   6  28
HETATM   28  C9  UNL     1       0.639  10.783  -1.598  1.00  0.00     0.116 C 
BRANCH  28  29
HETATM   29  C10 UNL     1       0.985  11.014  -3.020  1.00  0.00    -0.048 A 
HETATM   30  C11 UNL     1       1.878  10.164  -3.666  1.00  0.00     0.029 A 
HETATM   31  C12 UNL     1       2.201  10.382  -4.995  1.00  0.00     0.046 A 
HETATM   32 BR1  UNL     1       3.436   9.215  -5.897  1.00  0.00    -0.048 Br
HETATM   33  C13 UNL     1       1.639  11.442  -5.681  1.00  0.00     0.100 A 
HETATM   34  C14 UNL     1       0.766  12.281  -5.065  1.00  0.00     0.046 A 
HETATM   35 BR2  UNL     1      -0.043  13.766  -5.960  1.00  0.00    -0.048 Br
HETATM   36  C15 UNL     1       0.451  12.052  -3.738  1.00  0.00     0.029 A 
BRANCH  33  37
HETATM   37  O2  UNL     1       1.988  11.633  -7.021  1.00  0.00    -0.358 OA
ATOM     38  H2  UNL     1       2.908  11.613  -7.259  1.00  0.00     0.217 HD
ENDBRANCH  33  37
ENDBRANCH  28  29
ENDBRANCH   6  28
TORSDOF 10
ENDMDL
