MODEL 1
REMARK VINA RESULT: -6.507147154      0.000      0.000
REMARK  9 active torsions:
REMARK  status: ('A' for Active; 'I' for Inactive)
REMARK    1  A    between atoms: C3_3  and  C4_4 
REMARK    2  A    between atoms: C3_3  and  C26_36 
REMARK    3  A    between atoms: C5_5  and  O1_6 
REMARK    4  A    between atoms: C14_21  and  C15_22 
REMARK    5  A    between atoms: C19_28  and  O3_29 
REMARK    6  A    between atoms: O3_29  and  C20_30 
REMARK    7  A    between atoms: C20_30  and  C21_31 
REMARK    8  A    between atoms: C21_31  and  C22_32 
REMARK    9  A    between atoms: C26_36  and  C27_37 
ROOT
HETATM    1  C4  UNL     1       3.634  10.163   1.283  1.00  0.00     0.039 A 
HETATM    2  C5  UNL     1       3.416   9.131   0.356  1.00  0.00     0.079 A 
HETATM    3  C6  UNL     1       2.616   9.390  -0.751  1.00  0.00     0.044 A 
HETATM    4  C7  UNL     1       2.020  10.623  -0.983  1.00  0.00    -0.050 A 
HETATM    5  C8  UNL     1       1.170  10.802  -2.215  1.00  0.00     0.049 C 
HETATM    6  C9  UNL     1       2.245  11.617  -0.066  1.00  0.00    -0.007 A 
HETATM    7  C10 UNL     1       3.061  11.348   1.058  1.00  0.00     0.098 A 
HETATM    8  O2  UNL     1       3.259  12.384   1.937  1.00  0.00    -0.295 OA
HETATM    9  C11 UNL     1       2.721  13.634   1.785  1.00  0.00     0.136 C 
HETATM   10  N1  UNL     1       2.599  14.415   2.811  1.00  0.00    -0.382 N 
ATOM     11  H11 UNL     1       2.198  15.346   2.697  1.00  0.00     0.158 HD
ATOM     12  H12 UNL     1       2.897  14.114   3.738  1.00  0.00     0.158 HD
HETATM   13  C12 UNL     1       2.286  14.073   0.430  1.00  0.00     0.180 C 
HETATM   14  C13 UNL     1       3.483  14.507  -0.282  1.00  0.00     0.073 C 
HETATM   15  N2  UNL     1       4.456  14.847  -0.836  1.00  0.00    -0.196 NA
HETATM   16  C14 UNL     1       1.604  12.930  -0.299  1.00  0.00     0.080 C 
ENDROOT
BRANCH  16  17
HETATM   17  C15 UNL     1       0.179  12.997   0.028  1.00  0.00    -0.042 A 
HETATM   18  C16 UNL     1      -0.745  13.719  -0.694  1.00  0.00     0.053 A 
HETATM   19  C17 UNL     1      -2.081  13.740  -0.370  1.00  0.00     0.158 A 
HETATM   20  F1  UNL     1      -2.996  14.451  -1.081  1.00  0.00    -0.203 F 
HETATM   21  C18 UNL     1      -2.517  13.017   0.714  1.00  0.00     0.188 A 
HETATM   22  F2  UNL     1      -3.826  13.029   1.039  1.00  0.00    -0.200 F 
HETATM   23  C19 UNL     1      -1.617  12.262   1.488  1.00  0.00     0.111 A 
HETATM   24  C25 UNL     1      -0.309  12.286   1.110  1.00  0.00     0.048 A 
BRANCH  23  25
HETATM   25  O3  UNL     1      -2.122  11.580   2.537  1.00  0.00    -0.348 OA
BRANCH  25  26
HETATM   26  C20 UNL     1      -2.431  10.287   2.811  1.00  0.00     0.176 C 
BRANCH  26  27
HETATM   27  C21 UNL     1      -3.413   9.580   1.935  1.00  0.00     0.031 C 
BRANCH  27  28
HETATM   28  C22 UNL     1      -4.088   8.404   2.572  1.00  0.00    -0.013 A 
HETATM   29  C23 UNL     1      -4.241   8.318   4.048  1.00  0.00     0.005 A 
HETATM   30  C24 UNL     1      -3.417   7.309   3.259  1.00  0.00     0.005 A 
ENDBRANCH  27  28
ENDBRANCH  26  27
ENDBRANCH  25  26
ENDBRANCH  23  25
ENDBRANCH  16  17
BRANCH   1  31
HETATM   31  C3  UNL     1       4.571   9.839   2.354  1.00  0.00    -0.028 C 
HETATM   32  C2  UNL     1       3.977   9.551   3.514  1.00  0.00    -0.021 C 
HETATM   33  C1  UNL     1       2.501   9.545   3.707  1.00  0.00     0.036 C 
BRANCH  31  34
HETATM   34  C26 UNL     1       6.036   9.855   2.258  1.00  0.00     0.046 C 
HETATM   35  C33 UNL     1       6.547  10.884   3.293  1.00  0.00     0.026 C 
HETATM   36  C34 UNL     1       8.035  11.050   3.160  1.00  0.00     0.021 C 
HETATM   37  C35 UNL     1       8.316  11.628   1.793  1.00  0.00     0.119 C 
HETATM   38  N3  UNL     1       7.836  10.728   0.818  1.00  0.00    -0.401 N 
HETATM   39  C36 UNL     1       6.526  10.246   0.915  1.00  0.00     0.075 C 
ATOM     40  H3  UNL     1       8.439  10.432   0.049  1.00  0.00     0.158 HD
BRANCH  34  41
HETATM   41  C27 UNL     1       6.710   8.601   2.760  1.00  0.00    -0.040 A 
HETATM   42  C28 UNL     1       7.086   7.608   1.886  1.00  0.00     0.009 A 
HETATM   43  C29 UNL     1       7.687   6.434   2.355  1.00  0.00     0.001 A 
HETATM   44  C30 UNL     1       7.918   6.236   3.684  1.00  0.00     0.000 A 
HETATM   45  C31 UNL     1       7.540   7.239   4.570  1.00  0.00     0.001 A 
HETATM   46  C32 UNL     1       6.955   8.382   4.107  1.00  0.00     0.009 A 
ENDBRANCH  34  41
ENDBRANCH  31  34
ENDBRANCH   1  31
BRANCH   2  47
HETATM   47  O1  UNL     1       3.930   7.854   0.458  1.00  0.00    -0.360 OA
ATOM     48  H1  UNL     1       4.780   7.637   0.824  1.00  0.00     0.217 HD
ENDBRANCH   2  47
TORSDOF 9
ENDMDL
MODEL 2
REMARK VINA RESULT: -6.498574097      5.442      7.656
REMARK  9 active torsions:
REMARK  status: ('A' for Active; 'I' for Inactive)
REMARK    1  A    between atoms: C3_3  and  C4_4 
REMARK    2  A    between atoms: C3_3  and  C26_36 
REMARK    3  A    between atoms: C5_5  and  O1_6 
REMARK    4  A    between atoms: C14_21  and  C15_22 
REMARK    5  A    between atoms: C19_28  and  O3_29 
REMARK    6  A    between atoms: O3_29  and  C20_30 
REMARK    7  A    between atoms: C20_30  and  C21_31 
REMARK    8  A    between atoms: C21_31  and  C22_32 
REMARK    9  A    between atoms: C26_36  and  C27_37 
ROOT
HETATM    1  C4  UNL     1      -1.099  13.662   0.208  1.00  0.00     0.039 A 
HETATM    2  C5  UNL     1      -0.195  13.165  -0.745  1.00  0.00     0.079 A 
HETATM    3  C6  UNL     1      -0.687  12.765  -1.983  1.00  0.00     0.044 A 
HETATM    4  C7  UNL     1      -2.032  12.832  -2.320  1.00  0.00    -0.050 A 
HETATM    5  C8  UNL     1      -2.465  12.373  -3.690  1.00  0.00     0.049 C 
HETATM    6  C9  UNL     1      -2.898  13.319  -1.376  1.00  0.00    -0.007 A 
HETATM    7  C10 UNL     1      -2.392  13.726  -0.119  1.00  0.00     0.098 A 
HETATM    8  O2  UNL     1      -3.304  14.214   0.784  1.00  0.00    -0.295 OA
HETATM    9  C11 UNL     1      -4.645  14.327   0.536  1.00  0.00     0.136 C 
HETATM   10  N1  UNL     1      -5.483  14.395   1.522  1.00  0.00    -0.382 N 
ATOM     11  H11 UNL     1      -6.483  14.479   1.336  1.00  0.00     0.158 HD
ATOM     12  H12 UNL     1      -5.159  14.366   2.488  1.00  0.00     0.158 HD
HETATM   13  C12 UNL     1      -5.118  14.369  -0.876  1.00  0.00     0.180 C 
HETATM   14  C13 UNL     1      -4.921  15.736  -1.349  1.00  0.00     0.073 C 
HETATM   15  N2  UNL     1      -4.752  16.836  -1.711  1.00  0.00    -0.196 NA
HETATM   16  C14 UNL     1      -4.336  13.382  -1.722  1.00  0.00     0.080 C 
ENDROOT
BRANCH  16  17
HETATM   17  C15 UNL     1      -5.049  12.105  -1.669  1.00  0.00    -0.042 A 
HETATM   18  C16 UNL     1      -5.972  11.697  -2.606  1.00  0.00     0.053 A 
HETATM   19  C17 UNL     1      -6.605  10.480  -2.535  1.00  0.00     0.158 A 
HETATM   20  F1  UNL     1      -7.516  10.073  -3.459  1.00  0.00    -0.203 F 
HETATM   21  C18 UNL     1      -6.313   9.634  -1.493  1.00  0.00     0.188 A 
HETATM   22  F2  UNL     1      -6.928   8.435  -1.415  1.00  0.00    -0.200 F 
HETATM   23  C19 UNL     1      -5.379   9.999  -0.506  1.00  0.00     0.111 A 
HETATM   24  C25 UNL     1      -4.789  11.219  -0.639  1.00  0.00     0.048 A 
BRANCH  23  25
HETATM   25  O3  UNL     1      -5.147   9.115   0.486  1.00  0.00    -0.348 OA
BRANCH  25  26
HETATM   26  C20 UNL     1      -4.171   8.904   1.405  1.00  0.00     0.176 C 
BRANCH  26  27
HETATM   27  C21 UNL     1      -4.508   9.026   2.856  1.00  0.00     0.031 C 
BRANCH  27  28
HETATM   28  C22 UNL     1      -3.886  10.200   3.546  1.00  0.00    -0.013 A 
HETATM   29  C23 UNL     1      -4.520  10.805   4.747  1.00  0.00     0.005 A 
HETATM   30  C24 UNL     1      -4.339  11.582   3.449  1.00  0.00     0.005 A 
ENDBRANCH  27  28
ENDBRANCH  26  27
ENDBRANCH  25  26
ENDBRANCH  23  25
ENDBRANCH  16  17
BRANCH   1  31
HETATM   31  C3  UNL     1      -0.486  14.158   1.436  1.00  0.00    -0.028 C 
HETATM   32  C2  UNL     1      -0.392  13.238   2.397  1.00  0.00    -0.021 C 
HETATM   33  C1  UNL     1      -0.854  11.831   2.241  1.00  0.00     0.036 C 
BRANCH  31  34
HETATM   34  C26 UNL     1      -0.035  15.533   1.684  1.00  0.00     0.046 C 
HETATM   35  C33 UNL     1      -0.570  16.402   0.521  1.00  0.00     0.026 C 
HETATM   36  C34 UNL     1      -0.035  17.802   0.639  1.00  0.00     0.021 C 
HETATM   37  C35 UNL     1       1.466  17.739   0.483  1.00  0.00     0.119 C 
HETATM   38  N3  UNL     1       1.990  16.929   1.512  1.00  0.00    -0.401 N 
HETATM   39  C36 UNL     1       1.442  15.661   1.734  1.00  0.00     0.075 C 
ATOM     40  H3  UNL     1       2.763  17.264   2.088  1.00  0.00     0.158 HD
BRANCH  34  41
HETATM   41  C27 UNL     1      -0.698  16.208   2.859  1.00  0.00    -0.040 A 
HETATM   42  C28 UNL     1      -2.069  16.296   2.938  1.00  0.00     0.009 A 
HETATM   43  C29 UNL     1      -2.682  16.946   4.016  1.00  0.00     0.001 A 
HETATM   44  C30 UNL     1      -1.948  17.509   5.016  1.00  0.00     0.000 A 
HETATM   45  C31 UNL     1      -0.562  17.421   4.941  1.00  0.00     0.001 A 
HETATM   46  C32 UNL     1       0.031  16.786   3.888  1.00  0.00     0.009 A 
ENDBRANCH  34  41
ENDBRANCH  31  34
ENDBRANCH   1  31
BRANCH   2  47
HETATM   47  O1  UNL     1       1.165  13.028  -0.551  1.00  0.00    -0.360 OA
ATOM     48  H1  UNL     1       1.640  12.206  -0.579  1.00  0.00     0.217 HD
ENDBRANCH   2  47
TORSDOF 9
ENDMDL
MODEL 3
REMARK VINA RESULT: -6.372773802      2.397      3.517
REMARK  9 active torsions:
REMARK  status: ('A' for Active; 'I' for Inactive)
REMARK    1  A    between atoms: C3_3  and  C4_4 
REMARK    2  A    between atoms: C3_3  and  C26_36 
REMARK    3  A    between atoms: C5_5  and  O1_6 
REMARK    4  A    between atoms: C14_21  and  C15_22 
REMARK    5  A    between atoms: C19_28  and  O3_29 
REMARK    6  A    between atoms: O3_29  and  C20_30 
REMARK    7  A    between atoms: C20_30  and  C21_31 
REMARK    8  A    between atoms: C21_31  and  C22_32 
REMARK    9  A    between atoms: C26_36  and  C27_37 
ROOT
HETATM    1  C4  UNL     1       3.778  10.601   1.779  1.00  0.00     0.039 A 
HETATM    2  C5  UNL     1       3.409   9.799   0.687  1.00  0.00     0.079 A 
HETATM    3  C6  UNL     1       2.603  10.353  -0.301  1.00  0.00     0.044 A 
HETATM    4  C7  UNL     1       2.142  11.662  -0.257  1.00  0.00    -0.050 A 
HETATM    5  C8  UNL     1       1.272  12.168  -1.380  1.00  0.00     0.049 C 
HETATM    6  C9  UNL     1       2.513  12.428   0.818  1.00  0.00    -0.007 A 
HETATM    7  C10 UNL     1       3.335  11.860   1.819  1.00  0.00     0.098 A 
HETATM    8  O2  UNL     1       3.682  12.677   2.868  1.00  0.00    -0.295 OA
HETATM    9  C11 UNL     1       3.284  13.981   2.989  1.00  0.00     0.136 C 
HETATM   10  N1  UNL     1       3.290  14.553   4.151  1.00  0.00    -0.382 N 
ATOM     11  H11 UNL     1       2.993  15.525   4.241  1.00  0.00     0.158 HD
ATOM     12  H12 UNL     1       3.587  14.047   4.984  1.00  0.00     0.158 HD
HETATM   13  C12 UNL     1       2.850  14.721   1.772  1.00  0.00     0.180 C 
HETATM   14  C13 UNL     1       4.062  15.160   1.086  1.00  0.00     0.073 C 
HETATM   15  N2  UNL     1       5.045  15.499   0.550  1.00  0.00    -0.196 NA
HETATM   16  C14 UNL     1       2.016  13.820   0.879  1.00  0.00     0.080 C 
ENDROOT
BRANCH  16  17
HETATM   17  C15 UNL     1       0.621  13.969   1.297  1.00  0.00    -0.042 A 
HETATM   18  C16 UNL     1      -0.123  12.964   1.874  1.00  0.00     0.053 A 
HETATM   19  C17 UNL     1      -1.424  13.148   2.275  1.00  0.00     0.158 A 
HETATM   20  F1  UNL     1      -2.162  12.158   2.846  1.00  0.00    -0.203 F 
HETATM   21  C18 UNL     1      -2.012  14.376   2.094  1.00  0.00     0.188 A 
HETATM   22  F2  UNL     1      -3.289  14.568   2.486  1.00  0.00    -0.200 F 
HETATM   23  C19 UNL     1      -1.300  15.440   1.509  1.00  0.00     0.111 A 
HETATM   24  C25 UNL     1      -0.015  15.187   1.137  1.00  0.00     0.048 A 
BRANCH  23  25
HETATM   25  O3  UNL     1      -1.946  16.615   1.366  1.00  0.00    -0.348 OA
BRANCH  25  26
HETATM   26  C20 UNL     1      -2.060  17.767   2.074  1.00  0.00     0.176 C 
BRANCH  26  27
HETATM   27  C21 UNL     1      -2.952  17.790   3.273  1.00  0.00     0.031 C 
BRANCH  27  28
HETATM   28  C22 UNL     1      -2.340  17.233   4.520  1.00  0.00    -0.013 A 
HETATM   29  C23 UNL     1      -1.960  18.122   5.649  1.00  0.00     0.005 A 
HETATM   30  C24 UNL     1      -0.930  17.305   4.881  1.00  0.00     0.005 A 
ENDBRANCH  27  28
ENDBRANCH  26  27
ENDBRANCH  25  26
ENDBRANCH  23  25
ENDBRANCH  16  17
BRANCH   1  31
HETATM   31  C3  UNL     1       4.712   9.977   2.712  1.00  0.00    -0.028 C 
HETATM   32  C2  UNL     1       4.120   9.430   3.775  1.00  0.00    -0.021 C 
HETATM   33  C1  UNL     1       2.648   9.438   3.996  1.00  0.00     0.036 C 
BRANCH  31  34
HETATM   34  C26 UNL     1       6.174   9.954   2.587  1.00  0.00     0.046 C 
HETATM   35  C33 UNL     1       6.742  10.794   3.756  1.00  0.00     0.026 C 
HETATM   36  C34 UNL     1       8.233  10.925   3.617  1.00  0.00     0.021 C 
HETATM   37  C35 UNL     1       8.514  11.695   2.349  1.00  0.00     0.119 C 
HETATM   38  N3  UNL     1       7.984  10.973   1.258  1.00  0.00    -0.401 N 
HETATM   39  C36 UNL     1       6.658  10.529   1.309  1.00  0.00     0.075 C 
ATOM     40  H3  UNL     1       8.563  10.777   0.441  1.00  0.00     0.158 HD
BRANCH  34  41
HETATM   41  C27 UNL     1       6.807   8.615   2.877  1.00  0.00    -0.040 A 
HETATM   42  C28 UNL     1       6.999   7.697   1.872  1.00  0.00     0.009 A 
HETATM   43  C29 UNL     1       7.561   6.445   2.147  1.00  0.00     0.001 A 
HETATM   44  C30 UNL     1       7.935   6.095   3.410  1.00  0.00     0.000 A 
HETATM   45  C31 UNL     1       7.744   7.023   4.429  1.00  0.00     0.001 A 
HETATM   46  C32 UNL     1       7.195   8.242   4.155  1.00  0.00     0.009 A 
ENDBRANCH  34  41
ENDBRANCH  31  34
ENDBRANCH   1  31
BRANCH   2  47
HETATM   47  O1  UNL     1       3.779   8.481   0.512  1.00  0.00    -0.360 OA
ATOM     48  H1  UNL     1       3.477   7.919  -0.192  1.00  0.00     0.217 HD
ENDBRANCH   2  47
TORSDOF 9
ENDMDL
MODEL 4
REMARK VINA RESULT: -6.350699972      4.177      7.230
REMARK  9 active torsions:
REMARK  status: ('A' for Active; 'I' for Inactive)
REMARK    1  A    between atoms: C3_3  and  C4_4 
REMARK    2  A    between atoms: C3_3  and  C26_36 
REMARK    3  A    between atoms: C5_5  and  O1_6 
REMARK    4  A    between atoms: C14_21  and  C15_22 
REMARK    5  A    between atoms: C19_28  and  O3_29 
REMARK    6  A    between atoms: O3_29  and  C20_30 
REMARK    7  A    between atoms: C20_30  and  C21_31 
REMARK    8  A    between atoms: C21_31  and  C22_32 
REMARK    9  A    between atoms: C26_36  and  C27_37 
ROOT
HETATM    1  C4  UNL     1       0.363  14.370  -1.421  1.00  0.00     0.039 A 
HETATM    2  C5  UNL     1      -0.529  15.445  -1.275  1.00  0.00     0.079 A 
HETATM    3  C6  UNL     1      -1.325  15.497  -0.136  1.00  0.00     0.044 A 
HETATM    4  C7  UNL     1      -1.281  14.534   0.863  1.00  0.00    -0.050 A 
HETATM    5  C8  UNL     1      -2.187  14.683   2.060  1.00  0.00     0.049 C 
HETATM    6  C9  UNL     1      -0.405  13.493   0.701  1.00  0.00    -0.007 A 
HETATM    7  C10 UNL     1       0.404  13.445  -0.459  1.00  0.00     0.098 A 
HETATM    8  O2  UNL     1       1.269  12.384  -0.562  1.00  0.00    -0.295 OA
HETATM    9  C11 UNL     1       1.388  11.395   0.376  1.00  0.00     0.136 C 
HETATM   10  N1  UNL     1       1.891  10.248   0.048  1.00  0.00    -0.382 N 
ATOM     11  H11 UNL     1       1.980   9.511   0.748  1.00  0.00     0.158 HD
ATOM     12  H12 UNL     1       2.204  10.065  -0.905  1.00  0.00     0.158 HD
HETATM   13  C12 UNL     1       0.932  11.662   1.769  1.00  0.00     0.180 C 
HETATM   14  C13 UNL     1       1.998  12.410   2.429  1.00  0.00     0.073 C 
HETATM   15  N2  UNL     1       2.862  13.012   2.939  1.00  0.00    -0.196 NA
HETATM   16  C14 UNL     1      -0.361  12.456   1.755  1.00  0.00     0.080 C 
ENDROOT
BRANCH  16  17
HETATM   17  C15 UNL     1      -1.461  11.490   1.729  1.00  0.00    -0.042 A 
HETATM   18  C16 UNL     1      -1.938  10.833   2.842  1.00  0.00     0.053 A 
HETATM   19  C17 UNL     1      -2.989   9.950   2.783  1.00  0.00     0.158 A 
HETATM   20  F1  UNL     1      -3.463   9.301   3.880  1.00  0.00    -0.203 F 
HETATM   21  C18 UNL     1      -3.589   9.706   1.572  1.00  0.00     0.188 A 
HETATM   22  F2  UNL     1      -4.623   8.842   1.503  1.00  0.00    -0.200 F 
HETATM   23  C19 UNL     1      -3.143  10.348   0.402  1.00  0.00     0.111 A 
HETATM   24  C25 UNL     1      -2.098  11.211   0.534  1.00  0.00     0.048 A 
BRANCH  23  25
HETATM   25  O3  UNL     1      -3.784  10.056  -0.749  1.00  0.00    -0.348 OA
BRANCH  25  26
HETATM   26  C20 UNL     1      -4.516  10.737  -1.666  1.00  0.00     0.176 C 
BRANCH  26  27
HETATM   27  C21 UNL     1      -3.805  11.585  -2.670  1.00  0.00     0.031 C 
BRANCH  27  28
HETATM   28  C22 UNL     1      -3.383  12.930  -2.167  1.00  0.00    -0.013 A 
HETATM   29  C23 UNL     1      -4.277  13.736  -1.296  1.00  0.00     0.005 A 
HETATM   30  C24 UNL     1      -3.848  14.213  -2.678  1.00  0.00     0.005 A 
ENDBRANCH  27  28
ENDBRANCH  26  27
ENDBRANCH  25  26
ENDBRANCH  23  25
ENDBRANCH  16  17
BRANCH   1  31
HETATM   31  C3  UNL     1       1.235  14.449  -2.588  1.00  0.00    -0.028 C 
HETATM   32  C2  UNL     1       2.301  15.231  -2.407  1.00  0.00    -0.021 C 
HETATM   33  C1  UNL     1       2.590  15.951  -1.137  1.00  0.00     0.036 C 
BRANCH  31  34
HETATM   34  C26 UNL     1       1.007  13.801  -3.886  1.00  0.00     0.046 C 
HETATM   35  C33 UNL     1       1.691  14.681  -4.958  1.00  0.00     0.026 C 
HETATM   36  C34 UNL     1       1.386  14.148  -6.330  1.00  0.00     0.021 C 
HETATM   37  C35 UNL     1      -0.103  14.267  -6.553  1.00  0.00     0.119 C 
HETATM   38  N3  UNL     1      -0.766  13.499  -5.573  1.00  0.00    -0.401 N 
HETATM   39  C36 UNL     1      -0.431  13.669  -4.225  1.00  0.00     0.075 C 
ATOM     40  H3  UNL     1      -1.483  12.826  -5.844  1.00  0.00     0.158 HD
BRANCH  34  41
HETATM   41  C27 UNL     1       1.751  12.503  -4.078  1.00  0.00    -0.040 A 
HETATM   42  C28 UNL     1       1.111  11.296  -3.921  1.00  0.00     0.009 A 
HETATM   43  C29 UNL     1       1.809  10.092  -4.073  1.00  0.00     0.001 A 
HETATM   44  C30 UNL     1       3.137  10.074  -4.379  1.00  0.00     0.000 A 
HETATM   45  C31 UNL     1       3.787  11.293  -4.540  1.00  0.00     0.001 A 
HETATM   46  C32 UNL     1       3.102  12.464  -4.391  1.00  0.00     0.009 A 
ENDBRANCH  34  41
ENDBRANCH  31  34
ENDBRANCH   1  31
BRANCH   2  47
HETATM   47  O1  UNL     1      -0.691  16.468  -2.187  1.00  0.00    -0.360 OA
ATOM     48  H1  UNL     1      -1.387  16.517  -2.832  1.00  0.00     0.217 HD
ENDBRANCH   2  47
TORSDOF 9
ENDMDL
MODEL 5
REMARK VINA RESULT: -6.322887051      5.032      8.839
REMARK  9 active torsions:
REMARK  status: ('A' for Active; 'I' for Inactive)
REMARK    1  A    between atoms: C3_3  and  C4_4 
REMARK    2  A    between atoms: C3_3  and  C26_36 
REMARK    3  A    between atoms: C5_5  and  O1_6 
REMARK    4  A    between atoms: C14_21  and  C15_22 
REMARK    5  A    between atoms: C19_28  and  O3_29 
REMARK    6  A    between atoms: O3_29  and  C20_30 
REMARK    7  A    between atoms: C20_30  and  C21_31 
REMARK    8  A    between atoms: C21_31  and  C22_32 
REMARK    9  A    between atoms: C26_36  and  C27_37 
ROOT
HETATM    1  C4  UNL     1      -2.560  13.749  -0.963  1.00  0.00     0.039 A 
HETATM    2  C5  UNL     1      -2.916  14.861  -1.744  1.00  0.00     0.079 A 
HETATM    3  C6  UNL     1      -2.252  16.063  -1.529  1.00  0.00     0.044 A 
HETATM    4  C7  UNL     1      -1.253  16.217  -0.576  1.00  0.00    -0.050 A 
HETATM    5  C8  UNL     1      -0.594  17.564  -0.421  1.00  0.00     0.049 C 
HETATM    6  C9  UNL     1      -0.922  15.120   0.176  1.00  0.00    -0.007 A 
HETATM    7  C10 UNL     1      -1.600  13.899  -0.048  1.00  0.00     0.098 A 
HETATM    8  O2  UNL     1      -1.219  12.832   0.729  1.00  0.00    -0.295 OA
HETATM    9  C11 UNL     1      -0.240  12.887   1.683  1.00  0.00     0.136 C 
HETATM   10  N1  UNL     1      -0.211  12.007   2.633  1.00  0.00    -0.382 N 
ATOM     11  H11 UNL     1       0.519  12.049   3.345  1.00  0.00     0.158 HD
ATOM     12  H12 UNL     1      -0.911  11.267   2.684  1.00  0.00     0.158 HD
HETATM   13  C12 UNL     1       0.782  13.968   1.609  1.00  0.00     0.180 C 
HETATM   14  C13 UNL     1       1.774  13.549   0.624  1.00  0.00     0.073 C 
HETATM   15  N2  UNL     1       2.555  13.196  -0.172  1.00  0.00    -0.196 NA
HETATM   16  C14 UNL     1       0.132  15.279   1.203  1.00  0.00     0.080 C 
ENDROOT
BRANCH  16  17
HETATM   17  C15 UNL     1      -0.288  15.952   2.432  1.00  0.00    -0.042 A 
HETATM   18  C16 UNL     1       0.583  16.469   3.366  1.00  0.00     0.053 A 
HETATM   19  C17 UNL     1       0.151  17.116   4.498  1.00  0.00     0.158 A 
HETATM   20  F1  UNL     1       1.008  17.629   5.421  1.00  0.00    -0.203 F 
HETATM   21  C18 UNL     1      -1.198  17.256   4.715  1.00  0.00     0.188 A 
HETATM   22  F2  UNL     1      -1.633  17.891   5.823  1.00  0.00    -0.200 F 
HETATM   23  C19 UNL     1      -2.134  16.746   3.796  1.00  0.00     0.111 A 
HETATM   24  C25 UNL     1      -1.636  16.117   2.696  1.00  0.00     0.048 A 
BRANCH  23  25
HETATM   25  O3  UNL     1      -3.441  16.922   4.080  1.00  0.00    -0.348 OA
BRANCH  25  26
HETATM   26  C20 UNL     1      -4.400  17.830   3.770  1.00  0.00     0.176 C 
BRANCH  26  27
HETATM   27  C21 UNL     1      -4.695  18.105   2.331  1.00  0.00     0.031 C 
BRANCH  27  28
HETATM   28  C22 UNL     1      -5.509  17.051   1.646  1.00  0.00    -0.013 A 
HETATM   29  C23 UNL     1      -4.897  15.763   1.227  1.00  0.00     0.005 A 
HETATM   30  C24 UNL     1      -5.481  16.747   0.221  1.00  0.00     0.005 A 
ENDBRANCH  27  28
ENDBRANCH  26  27
ENDBRANCH  25  26
ENDBRANCH  23  25
ENDBRANCH  16  17
BRANCH   1  31
HETATM   31  C3  UNL     1      -3.228  12.504  -1.327  1.00  0.00    -0.028 C 
HETATM   32  C2  UNL     1      -2.703  11.909  -2.399  1.00  0.00    -0.021 C 
HETATM   33  C1  UNL     1      -1.539  12.447  -3.155  1.00  0.00     0.036 C 
BRANCH  31  34
HETATM   34  C26 UNL     1      -4.399  11.922  -0.659  1.00  0.00     0.046 C 
HETATM   35  C33 UNL     1      -4.702  10.579  -1.364  1.00  0.00     0.026 C 
HETATM   36  C34 UNL     1      -5.971   9.987  -0.818  1.00  0.00     0.021 C 
HETATM   37  C35 UNL     1      -7.104  10.925  -1.160  1.00  0.00     0.119 C 
HETATM   38  N3  UNL     1      -6.850  12.175  -0.558  1.00  0.00    -0.401 N 
HETATM   39  C36 UNL     1      -5.603  12.784  -0.740  1.00  0.00     0.075 C 
ATOM     40  H3  UNL     1      -7.568  12.631   0.006  1.00  0.00     0.158 HD
BRANCH  34  41
HETATM   41  C27 UNL     1      -4.144  11.443   0.749  1.00  0.00    -0.040 A 
HETATM   42  C28 UNL     1      -4.574  12.178   1.829  1.00  0.00     0.009 A 
HETATM   43  C29 UNL     1      -4.313  11.746   3.135  1.00  0.00     0.001 A 
HETATM   44  C30 UNL     1      -3.630  10.593   3.380  1.00  0.00     0.000 A 
HETATM   45  C31 UNL     1      -3.195   9.847   2.289  1.00  0.00     0.001 A 
HETATM   46  C32 UNL     1      -3.452  10.272   1.018  1.00  0.00     0.009 A 
ENDBRANCH  34  41
ENDBRANCH  31  34
ENDBRANCH   1  31
BRANCH   2  47
HETATM   47  O1  UNL     1      -3.893  14.864  -2.718  1.00  0.00    -0.360 OA
ATOM     48  H1  UNL     1      -4.426  14.114  -2.957  1.00  0.00     0.217 HD
ENDBRANCH   2  47
TORSDOF 9
ENDMDL
