MODEL 1
REMARK VINA RESULT: -7.804653852      0.000      0.000
REMARK  6 active torsions:
REMARK  status: ('A' for Active; 'I' for Inactive)
REMARK    1  A    between atoms: N2_5  and  C3_6 
REMARK    2  A    between atoms: C3_6  and  C4_7 
REMARK    3  A    between atoms: C4_7  and  N4_10 
REMARK       I    between atoms: N4_10  and  C6_12 
REMARK    4  A    between atoms: C6_12  and  C7_14 
REMARK    5  A    between atoms: C7_14  and  C8_15 
REMARK    6  A    between atoms: C11_21  and  N6_22 
ROOT
HETATM    1  C4  UNL     1       0.081   6.227  83.058  1.00  0.00     0.210 C 
HETATM    2  C5  UNL     1      -0.082   7.525  83.617  1.00  0.00     0.086 C 
HETATM    3  N3  UNL     1      -0.236   8.571  84.063  1.00  0.00    -0.195 NA
ENDROOT
BRANCH   1   4
HETATM    4  C3  UNL     1      -1.148   5.326  83.004  1.00  0.00     0.175 C 
BRANCH   4   5
HETATM    5  N2  UNL     1      -0.950   3.973  83.404  1.00  0.00    -0.279 N 
HETATM    6  C2  UNL     1      -0.494   3.027  82.547  1.00  0.00     0.331 A 
HETATM    7  N1  UNL     1      -0.397   1.861  83.167  1.00  0.00    -0.286 N 
HETATM    8  O1  UNL     1      -0.179   3.162  81.314  1.00  0.00    -0.246 OA
HETATM    9  C1  UNL     1       0.049   0.579  82.613  1.00  0.00     0.163 C 
HETATM   10  C13 UNL     1      -0.790   2.056  84.439  1.00  0.00     0.159 A 
HETATM   11  C12 UNL     1      -1.138   3.381  84.605  1.00  0.00     0.162 A 
HETATM   12  N8  UNL     1      -0.850   1.186  85.482  1.00  0.00    -0.301 N 
HETATM   13  N9  UNL     1      -1.539   3.842  85.828  1.00  0.00    -0.297 N 
HETATM   14  C15 UNL     1      -1.586   2.937  86.850  1.00  0.00     0.317 A 
HETATM   15  C16 UNL     1      -1.796   5.221  86.071  1.00  0.00     0.161 C 
HETATM   16  C14 UNL     1      -1.248   1.614  86.688  1.00  0.00     0.315 A 
HETATM   17  O5  UNL     1      -1.959   3.373  87.967  1.00  0.00    -0.262 OA
HETATM   18  O4  UNL     1      -1.331   0.873  87.697  1.00  0.00    -0.262 OA
ATOM     19  H8  UNL     1      -0.594   0.208  85.346  1.00  0.00     0.171 HD
ENDBRANCH   4   5
ENDBRANCH   1   4
BRANCH   1  20
HETATM   20  N4  UNL     1       0.845   6.230  81.826  1.00  0.00    -0.342 N 
HETATM   21  C6  UNL     1       2.067   5.562  81.663  1.00  0.00     0.224 C 
HETATM   22  O2  UNL     1       2.628   4.889  82.567  1.00  0.00    -0.273 OA
ATOM     23  H4  UNL     1       0.472   6.749  81.031  1.00  0.00     0.163 HD
BRANCH  21  24
HETATM   24  C7  UNL     1       2.786   5.619  80.355  1.00  0.00     0.160 C 
BRANCH  24  25
HETATM   25  C8  UNL     1       4.259   5.547  80.518  1.00  0.00     0.040 A 
HETATM   26  C9  UNL     1       5.037   4.724  79.707  1.00  0.00     0.101 A 
HETATM   27  C10 UNL     1       6.394   4.719  79.928  1.00  0.00     0.261 A 
HETATM   28  O3  UNL     1       7.145   4.000  79.232  1.00  0.00    -0.268 OA
HETATM   29  N5  UNL     1       6.936   5.496  80.907  1.00  0.00    -0.156 N 
HETATM   30  C11 UNL     1       6.160   6.279  81.671  1.00  0.00     0.678 A 
ATOM     31  H5  UNL     1       7.945   5.482  81.060  1.00  0.00     0.187 HD
HETATM   32  N7  UNL     1       4.828   6.299  81.473  1.00  0.00    -0.195 N 
ATOM     33  H7  UNL     1       4.242   6.895  82.057  1.00  0.00     0.184 HD
BRANCH  30  34
HETATM   34  N6  UNL     1       6.713   6.990  82.578  1.00  0.00    -0.234 N 
ATOM     35  H62 UNL     1       7.702   6.892  82.806  1.00  0.00     0.174 HD
ATOM     36  H61 UNL     1       6.144   7.672  83.080  1.00  0.00     0.174 HD
ENDBRANCH  30  34
ENDBRANCH  24  25
ENDBRANCH  21  24
ENDBRANCH   1  20
TORSDOF 6
ENDMDL
MODEL 2
REMARK VINA RESULT: -7.770300249      3.321      7.798
REMARK  6 active torsions:
REMARK  status: ('A' for Active; 'I' for Inactive)
REMARK    1  A    between atoms: N2_5  and  C3_6 
REMARK    2  A    between atoms: C3_6  and  C4_7 
REMARK    3  A    between atoms: C4_7  and  N4_10 
REMARK       I    between atoms: N4_10  and  C6_12 
REMARK    4  A    between atoms: C6_12  and  C7_14 
REMARK    5  A    between atoms: C7_14  and  C8_15 
REMARK    6  A    between atoms: C11_21  and  N6_22 
ROOT
HETATM    1  C4  UNL     1       0.017   5.184  80.494  1.00  0.00     0.210 C 
HETATM    2  C5  UNL     1       0.768   4.944  79.311  1.00  0.00     0.086 C 
HETATM    3  N3  UNL     1       1.358   4.757  78.344  1.00  0.00    -0.195 NA
ENDROOT
BRANCH   1   4
HETATM    4  C3  UNL     1      -1.093   6.229  80.422  1.00  0.00     0.175 C 
BRANCH   4   5
HETATM    5  N2  UNL     1      -1.089   7.218  81.446  1.00  0.00    -0.279 N 
HETATM    6  C2  UNL     1      -1.651   7.001  82.661  1.00  0.00     0.331 A 
HETATM    7  N1  UNL     1      -1.508   8.072  83.426  1.00  0.00    -0.286 N 
HETATM    8  O1  UNL     1      -2.243   5.947  83.081  1.00  0.00    -0.246 OA
HETATM    9  C1  UNL     1      -1.970   8.264  84.804  1.00  0.00     0.163 C 
HETATM   10  C13 UNL     1      -0.843   8.989  82.701  1.00  0.00     0.159 A 
HETATM   11  C12 UNL     1      -0.569   8.466  81.454  1.00  0.00     0.162 A 
HETATM   12  N8  UNL     1      -0.429  10.241  83.036  1.00  0.00    -0.301 N 
HETATM   13  N9  UNL     1       0.136   9.196  80.538  1.00  0.00    -0.297 N 
HETATM   14  C15 UNL     1       0.535  10.447  80.913  1.00  0.00     0.317 A 
HETATM   15  C16 UNL     1       0.539   8.654  79.285  1.00  0.00     0.161 C 
HETATM   16  C14 UNL     1       0.257  10.977  82.151  1.00  0.00     0.315 A 
HETATM   17  O5  UNL     1       1.178  11.109  80.061  1.00  0.00    -0.262 OA
HETATM   18  O4  UNL     1       0.671  12.138  82.385  1.00  0.00    -0.262 OA
ATOM     19  H8  UNL     1      -0.641  10.618  83.959  1.00  0.00     0.171 HD
ENDBRANCH   4   5
ENDBRANCH   1   4
BRANCH   1  20
HETATM   20  N4  UNL     1      -0.385   3.966  81.171  1.00  0.00    -0.342 N 
HETATM   21  C6  UNL     1       0.247   3.465  82.317  1.00  0.00     0.224 C 
HETATM   22  O2  UNL     1       1.228   4.019  82.879  1.00  0.00    -0.273 OA
ATOM     23  H4  UNL     1      -1.174   3.444  80.790  1.00  0.00     0.163 HD
BRANCH  21  24
HETATM   24  C7  UNL     1      -0.235   2.200  82.949  1.00  0.00     0.160 C 
BRANCH  24  25
HETATM   25  C8  UNL     1      -0.760   2.419  84.319  1.00  0.00     0.040 A 
HETATM   26  C9  UNL     1      -0.658   1.434  85.299  1.00  0.00     0.101 A 
HETATM   27  C10 UNL     1      -1.172   1.722  86.541  1.00  0.00     0.261 A 
HETATM   28  O3  UNL     1      -1.110   0.878  87.461  1.00  0.00    -0.268 OA
HETATM   29  N5  UNL     1      -1.753   2.930  86.783  1.00  0.00    -0.156 N 
HETATM   30  C11 UNL     1      -1.835   3.859  85.819  1.00  0.00     0.678 A 
ATOM     31  H5  UNL     1      -2.130   3.131  87.710  1.00  0.00     0.187 HD
HETATM   32  N7  UNL     1      -1.340   3.598  84.594  1.00  0.00    -0.195 N 
ATOM     33  H7  UNL     1      -1.405   4.307  83.864  1.00  0.00     0.184 HD
BRANCH  30  34
HETATM   34  N6  UNL     1      -2.390   4.978  86.093  1.00  0.00    -0.234 N 
ATOM     35  H62 UNL     1      -2.488   5.305  87.053  1.00  0.00     0.174 HD
ATOM     36  H61 UNL     1      -2.738   5.552  85.324  1.00  0.00     0.174 HD
ENDBRANCH  30  34
ENDBRANCH  24  25
ENDBRANCH  21  24
ENDBRANCH   1  20
TORSDOF 6
ENDMDL
MODEL 3
REMARK VINA RESULT: -7.698081526      2.286      7.724
REMARK  6 active torsions:
REMARK  status: ('A' for Active; 'I' for Inactive)
REMARK    1  A    between atoms: N2_5  and  C3_6 
REMARK    2  A    between atoms: C3_6  and  C4_7 
REMARK    3  A    between atoms: C4_7  and  N4_10 
REMARK       I    between atoms: N4_10  and  C6_12 
REMARK    4  A    between atoms: C6_12  and  C7_14 
REMARK    5  A    between atoms: C7_14  and  C8_15 
REMARK    6  A    between atoms: C11_21  and  N6_22 
ROOT
HETATM    1  C4  UNL     1      -0.634   6.936  82.334  1.00  0.00     0.210 C 
HETATM    2  C5  UNL     1       0.154   8.120  82.286  1.00  0.00     0.086 C 
HETATM    3  N3  UNL     1       0.806   9.064  82.236  1.00  0.00    -0.195 NA
ENDROOT
BRANCH   1   4
HETATM    4  C3  UNL     1      -0.395   5.890  81.250  1.00  0.00     0.175 C 
BRANCH   4   5
HETATM    5  N2  UNL     1       0.966   5.616  80.934  1.00  0.00    -0.279 N 
HETATM    6  C2  UNL     1       1.727   4.783  81.686  1.00  0.00     0.331 A 
HETATM    7  N1  UNL     1       2.947   4.699  81.177  1.00  0.00    -0.286 N 
HETATM    8  O1  UNL     1       1.390   4.137  82.737  1.00  0.00    -0.246 OA
HETATM    9  C1  UNL     1       4.080   3.915  81.677  1.00  0.00     0.163 C 
HETATM   10  C13 UNL     1       2.973   5.480  80.083  1.00  0.00     0.159 A 
HETATM   11  C12 UNL     1       1.734   6.062  79.914  1.00  0.00     0.162 A 
HETATM   12  N8  UNL     1       3.978   5.716  79.197  1.00  0.00    -0.301 N 
HETATM   13  N9  UNL     1       1.493   6.878  78.843  1.00  0.00    -0.297 N 
HETATM   14  C15 UNL     1       2.527   7.090  77.977  1.00  0.00     0.317 A 
HETATM   15  C16 UNL     1       0.199   7.406  78.569  1.00  0.00     0.161 C 
HETATM   16  C14 UNL     1       3.766   6.519  78.145  1.00  0.00     0.315 A 
HETATM   17  O5  UNL     1       2.294   7.844  77.001  1.00  0.00    -0.262 OA
HETATM   18  O4  UNL     1       4.642   6.786  77.286  1.00  0.00    -0.262 OA
ATOM     19  H8  UNL     1       4.891   5.284  79.334  1.00  0.00     0.171 HD
ENDBRANCH   4   5
ENDBRANCH   1   4
BRANCH   1  20
HETATM   20  N4  UNL     1      -0.732   6.372  83.665  1.00  0.00    -0.342 N 
HETATM   21  C6  UNL     1      -1.837   5.641  84.123  1.00  0.00     0.224 C 
HETATM   22  O2  UNL     1      -2.859   5.398  83.428  1.00  0.00    -0.273 OA
ATOM     23  H4  UNL     1       0.049   6.514  84.306  1.00  0.00     0.163 HD
BRANCH  21  24
HETATM   24  C7  UNL     1      -1.853   5.095  85.514  1.00  0.00     0.160 C 
BRANCH  24  25
HETATM   25  C8  UNL     1      -1.434   3.672  85.565  1.00  0.00     0.040 A 
HETATM   26  C9  UNL     1      -1.583   2.916  86.725  1.00  0.00     0.101 A 
HETATM   27  C10 UNL     1      -1.168   1.606  86.684  1.00  0.00     0.261 A 
HETATM   28  O3  UNL     1      -1.277   0.876  87.694  1.00  0.00    -0.268 OA
HETATM   29  N5  UNL     1      -0.635   1.088  85.542  1.00  0.00    -0.156 N 
HETATM   30  C11 UNL     1      -0.505   1.842  84.441  1.00  0.00     0.678 A 
ATOM     31  H5  UNL     1      -0.331   0.114  85.526  1.00  0.00     0.187 HD
HETATM   32  N7  UNL     1      -0.904   3.128  84.459  1.00  0.00    -0.195 N 
ATOM     33  H7  UNL     1      -0.802   3.698  83.619  1.00  0.00     0.184 HD
BRANCH  30  34
HETATM   34  N6  UNL     1       0.002   1.313  83.393  1.00  0.00    -0.234 N 
ATOM     35  H62 UNL     1      -0.547   1.175  82.544  1.00  0.00     0.174 HD
ATOM     36  H61 UNL     1       0.981   1.026  83.415  1.00  0.00     0.174 HD
ENDBRANCH  30  34
ENDBRANCH  24  25
ENDBRANCH  21  24
ENDBRANCH   1  20
TORSDOF 6
ENDMDL
MODEL 4
REMARK VINA RESULT: -7.640965706      2.307      7.964
REMARK  6 active torsions:
REMARK  status: ('A' for Active; 'I' for Inactive)
REMARK    1  A    between atoms: N2_5  and  C3_6 
REMARK    2  A    between atoms: C3_6  and  C4_7 
REMARK    3  A    between atoms: C4_7  and  N4_10 
REMARK       I    between atoms: N4_10  and  C6_12 
REMARK    4  A    between atoms: C6_12  and  C7_14 
REMARK    5  A    between atoms: C7_14  and  C8_15 
REMARK    6  A    between atoms: C11_21  and  N6_22 
ROOT
HETATM    1  C4  UNL     1       0.547   6.245  80.848  1.00  0.00     0.210 C 
HETATM    2  C5  UNL     1      -0.719   6.439  80.230  1.00  0.00     0.086 C 
HETATM    3  N3  UNL     1      -1.734   6.617  79.724  1.00  0.00    -0.195 NA
ENDROOT
BRANCH   1   4
HETATM    4  C3  UNL     1       1.722   7.057  80.312  1.00  0.00     0.175 C 
BRANCH   4   5
HETATM    5  N2  UNL     1       2.558   6.398  79.365  1.00  0.00    -0.279 N 
HETATM    6  C2  UNL     1       2.232   6.313  78.052  1.00  0.00     0.331 A 
HETATM    7  N1  UNL     1       3.174   5.657  77.392  1.00  0.00    -0.286 N 
HETATM    8  O1  UNL     1       1.194   6.774  77.463  1.00  0.00    -0.246 OA
HETATM    9  C1  UNL     1       3.217   5.339  75.961  1.00  0.00     0.163 C 
HETATM   10  C13 UNL     1       4.120   5.319  78.286  1.00  0.00     0.159 A 
HETATM   11  C12 UNL     1       3.749   5.781  79.532  1.00  0.00     0.162 A 
HETATM   12  N8  UNL     1       5.297   4.660  78.111  1.00  0.00    -0.301 N 
HETATM   13  N9  UNL     1       4.568   5.594  80.611  1.00  0.00    -0.297 N 
HETATM   14  C15 UNL     1       5.741   4.929  80.394  1.00  0.00     0.317 A 
HETATM   15  C16 UNL     1       4.279   6.153  81.887  1.00  0.00     0.161 C 
HETATM   16  C14 UNL     1       6.112   4.460  79.156  1.00  0.00     0.315 A 
HETATM   17  O5  UNL     1       6.482   4.761  81.393  1.00  0.00    -0.262 OA
HETATM   18  O4  UNL     1       7.213   3.861  79.075  1.00  0.00    -0.262 OA
ATOM     19  H8  UNL     1       5.560   4.320  77.186  1.00  0.00     0.171 HD
ENDBRANCH   4   5
ENDBRANCH   1   4
BRANCH   1  20
HETATM   20  N4  UNL     1       0.477   6.225  82.296  1.00  0.00    -0.342 N 
HETATM   21  C6  UNL     1       0.864   5.130  83.081  1.00  0.00     0.224 C 
HETATM   22  O2  UNL     1       1.314   4.051  82.612  1.00  0.00    -0.273 OA
ATOM     23  H4  UNL     1       0.124   7.056  82.771  1.00  0.00     0.163 HD
BRANCH  21  24
HETATM   24  C7  UNL     1       0.757   5.197  84.569  1.00  0.00     0.160 C 
BRANCH  24  25
HETATM   25  C8  UNL     1      -0.134   4.145  85.118  1.00  0.00     0.040 A 
HETATM   26  C9  UNL     1      -1.379   4.460  85.655  1.00  0.00     0.101 A 
HETATM   27  C10 UNL     1      -2.140   3.423  86.142  1.00  0.00     0.261 A 
HETATM   28  O3  UNL     1      -3.267   3.643  86.636  1.00  0.00    -0.268 OA
HETATM   29  N5  UNL     1      -1.674   2.144  86.089  1.00  0.00    -0.156 N 
HETATM   30  C11 UNL     1      -0.470   1.872  85.564  1.00  0.00     0.678 A 
ATOM     31  H5  UNL     1      -2.249   1.384  86.453  1.00  0.00     0.187 HD
HETATM   32  N7  UNL     1       0.292   2.873  85.083  1.00  0.00    -0.195 N 
ATOM     33  H7  UNL     1       1.207   2.662  84.686  1.00  0.00     0.184 HD
BRANCH  30  34
HETATM   34  N6  UNL     1      -0.074   0.656  85.537  1.00  0.00    -0.234 N 
ATOM     35  H62 UNL     1      -0.323  -0.004  86.274  1.00  0.00     0.174 HD
ATOM     36  H61 UNL     1       0.503   0.348  84.754  1.00  0.00     0.174 HD
ENDBRANCH  30  34
ENDBRANCH  24  25
ENDBRANCH  21  24
ENDBRANCH   1  20
TORSDOF 6
ENDMDL
MODEL 5
REMARK VINA RESULT: -7.637523533      2.086      7.537
REMARK  6 active torsions:
REMARK  status: ('A' for Active; 'I' for Inactive)
REMARK    1  A    between atoms: N2_5  and  C3_6 
REMARK    2  A    between atoms: C3_6  and  C4_7 
REMARK    3  A    between atoms: C4_7  and  N4_10 
REMARK       I    between atoms: N4_10  and  C6_12 
REMARK    4  A    between atoms: C6_12  and  C7_14 
REMARK    5  A    between atoms: C7_14  and  C8_15 
REMARK    6  A    between atoms: C11_21  and  N6_22 
ROOT
HETATM    1  C4  UNL     1      -0.255   7.495  83.724  1.00  0.00     0.210 C 
HETATM    2  C5  UNL     1      -1.137   8.530  83.305  1.00  0.00     0.086 C 
HETATM    3  N3  UNL     1      -1.834   9.380  82.975  1.00  0.00    -0.195 NA
ENDROOT
BRANCH   1   4
HETATM    4  C3  UNL     1       1.211   7.863  83.931  1.00  0.00     0.175 C 
BRANCH   4   5
HETATM    5  N2  UNL     1       2.040   7.804  82.775  1.00  0.00    -0.279 N 
HETATM    6  C2  UNL     1       2.387   8.915  82.079  1.00  0.00     0.331 A 
HETATM    7  N1  UNL     1       3.161   8.587  81.056  1.00  0.00    -0.286 N 
HETATM    8  O1  UNL     1       2.060  10.130  82.314  1.00  0.00    -0.246 OA
HETATM    9  C1  UNL     1       3.753   9.477  80.052  1.00  0.00     0.163 C 
HETATM   10  C13 UNL     1       3.321   7.253  81.093  1.00  0.00     0.159 A 
HETATM   11  C12 UNL     1       2.624   6.745  82.171  1.00  0.00     0.162 A 
HETATM   12  N8  UNL     1       4.042   6.432  80.283  1.00  0.00    -0.301 N 
HETATM   13  N9  UNL     1       2.659   5.406  82.448  1.00  0.00    -0.297 N 
HETATM   14  C15 UNL     1       3.395   4.616  81.613  1.00  0.00     0.317 A 
HETATM   15  C16 UNL     1       2.051   4.858  83.613  1.00  0.00     0.161 C 
HETATM   16  C14 UNL     1       4.084   5.116  80.532  1.00  0.00     0.315 A 
HETATM   17  O5  UNL     1       3.416   3.389  81.876  1.00  0.00    -0.262 OA
HETATM   18  O4  UNL     1       4.726   4.295  79.832  1.00  0.00    -0.262 OA
ATOM     19  H8  UNL     1       4.550   6.818  79.488  1.00  0.00     0.171 HD
ENDBRANCH   4   5
ENDBRANCH   1   4
BRANCH   1  20
HETATM   20  N4  UNL     1      -0.800   6.682  84.793  1.00  0.00    -0.342 N 
HETATM   21  C6  UNL     1      -1.773   5.691  84.602  1.00  0.00     0.224 C 
HETATM   22  O2  UNL     1      -2.275   5.404  83.483  1.00  0.00    -0.273 OA
ATOM     23  H4  UNL     1      -0.454   6.840  85.740  1.00  0.00     0.163 HD
BRANCH  21  24
HETATM   24  C7  UNL     1      -2.278   4.900  85.764  1.00  0.00     0.160 C 
BRANCH  24  25
HETATM   25  C8  UNL     1      -1.735   3.519  85.783  1.00  0.00     0.040 A 
HETATM   26  C9  UNL     1      -1.920   2.684  86.883  1.00  0.00     0.101 A 
HETATM   27  C10 UNL     1      -1.384   1.421  86.816  1.00  0.00     0.261 A 
HETATM   28  O3  UNL     1      -1.517   0.626  87.772  1.00  0.00    -0.268 OA
HETATM   29  N5  UNL     1      -0.702   1.020  85.707  1.00  0.00    -0.156 N 
HETATM   30  C11 UNL     1      -0.541   1.846  84.662  1.00  0.00     0.678 A 
ATOM     31  H5  UNL     1      -0.309   0.079  85.670  1.00  0.00     0.187 HD
HETATM   32  N7  UNL     1      -1.058   3.090  84.707  1.00  0.00    -0.195 N 
ATOM     33  H7  UNL     1      -0.932   3.715  83.911  1.00  0.00     0.184 HD
BRANCH  30  34
HETATM   34  N6  UNL     1       0.107   1.426  83.643  1.00  0.00    -0.234 N 
ATOM     35  H62 UNL     1       0.097   0.444  83.371  1.00  0.00     0.174 HD
ATOM     36  H61 UNL     1       0.642   2.099  83.094  1.00  0.00     0.174 HD
ENDBRANCH  30  34
ENDBRANCH  24  25
ENDBRANCH  21  24
ENDBRANCH   1  20
TORSDOF 6
ENDMDL
