MODEL 1
REMARK VINA RESULT: -8.287532158      0.000      0.000
REMARK  6 active torsions:
REMARK  status: ('A' for Active; 'I' for Inactive)
REMARK    1  A    between atoms: C1_2  and  C2_4 
REMARK    2  A    between atoms: C2_4  and  N1_5 
REMARK    3  A    between atoms: N1_5  and  N2_6 
REMARK       I    between atoms: N2_6  and  C3_8 
REMARK    4  A    between atoms: C3_8  and  C4_10 
REMARK    5  A    between atoms: C4_10  and  N3_11 
REMARK       I    between atoms: N6_21  and  C9_23 
REMARK    6  A    between atoms: C9_23  and  C10_25 
ROOT
HETATM    1  N3  UNL     1      -0.889   3.947  85.938  1.00  0.00    -0.274 N 
HETATM    2  C5  UNL     1      -2.090   4.575  86.065  1.00  0.00     0.329 A 
HETATM    3  O4  UNL     1      -3.091   4.248  86.781  1.00  0.00    -0.246 OA
HETATM    4  N4  UNL     1      -2.025   5.639  85.253  1.00  0.00    -0.304 N 
ATOM      5  H4  UNL     1      -2.788   6.307  85.143  1.00  0.00     0.171 HD
HETATM    6  C6  UNL     1      -0.868   5.741  84.603  1.00  0.00     0.097 A 
HETATM    7  C7  UNL     1      -0.332   6.596  83.667  1.00  0.00     0.139 A 
HETATM    8  N5  UNL     1       0.897   6.411  83.161  1.00  0.00    -0.199 N 
ATOM      9  H5  UNL     1       1.283   7.053  82.469  1.00  0.00     0.183 HD
HETATM   10  C8  UNL     1       1.608   5.348  83.595  1.00  0.00     0.686 A 
HETATM   11  N6  UNL     1       2.778   5.035  83.132  1.00  0.00    -0.155 N 
ATOM     12  H6  UNL     1       3.253   4.219  83.516  1.00  0.00     0.187 HD
HETATM   13  C9  UNL     1       3.425   5.783  82.113  1.00  0.00     0.275 C 
HETATM   14  O5  UNL     1       3.134   5.440  80.912  1.00  0.00    -0.267 OA
HETATM   15  N8  UNL     1       1.109   4.489  84.517  1.00  0.00    -0.174 N 
ATOM     16  H8  UNL     1       1.681   3.701  84.823  1.00  0.00     0.186 HD
HETATM   17  C14 UNL     1      -0.127   4.648  85.043  1.00  0.00     0.156 A 
ENDROOT
BRANCH  13  18
HETATM   18  C10 UNL     1       4.359   6.869  82.291  1.00  0.00     0.106 A 
HETATM   19  C11 UNL     1       5.658   6.863  82.031  1.00  0.00     0.097 A 
HETATM   20  C12 UNL     1       6.256   8.153  82.343  1.00  0.00     0.249 A 
HETATM   21  O6  UNL     1       7.472   8.484  82.210  1.00  0.00    -0.268 OA
HETATM   22  N7  UNL     1       5.206   8.998  82.833  1.00  0.00    -0.290 N 
HETATM   23  C13 UNL     1       4.049   8.199  82.797  1.00  0.00     0.264 A 
ATOM     24  H7  UNL     1       5.283   9.967  83.141  1.00  0.00     0.172 HD
HETATM   25  O7  UNL     1       2.893   8.611  83.154  1.00  0.00    -0.267 OA
ENDBRANCH  13  18
BRANCH   1  26
HETATM   26  C4  UNL     1      -0.519   2.734  86.568  1.00  0.00     0.239 C 
BRANCH  26  27
HETATM   27  C3  UNL     1      -0.770   1.442  85.875  1.00  0.00     0.251 C 
HETATM   28  N2  UNL     1      -0.260   1.164  84.606  1.00  0.00    -0.272 N 
ATOM     29  H2  UNL     1       0.269   1.922  84.174  1.00  0.00     0.185 HD
HETATM   30  O3  UNL     1      -1.451   0.595  86.486  1.00  0.00    -0.270 OA
BRANCH  28  31
HETATM   31  N1  UNL     1      -0.367   0.012  83.847  1.00  0.00    -0.128 NA
BRANCH  31  32
HETATM   32  C2  UNL     1      -0.223   0.420  82.425  1.00  0.00     0.248 C 
BRANCH  32  33
HETATM   33  C1  UNL     1      -0.271   1.931  82.312  1.00  0.00     0.189 C 
HETATM   34  O1  UNL     1       0.829   2.586  82.394  1.00  0.00    -0.647 OA
HETATM   35  O2  UNL     1      -1.413   2.667  82.119  1.00  0.00    -0.647 OA
ENDBRANCH  32  33
ENDBRANCH  31  32
ENDBRANCH  28  31
ENDBRANCH  26  27
ENDBRANCH   1  26
TORSDOF 6
ENDMDL
MODEL 2
REMARK VINA RESULT: -8.140537624      0.841      1.243
REMARK  6 active torsions:
REMARK  status: ('A' for Active; 'I' for Inactive)
REMARK    1  A    between atoms: C1_2  and  C2_4 
REMARK    2  A    between atoms: C2_4  and  N1_5 
REMARK    3  A    between atoms: N1_5  and  N2_6 
REMARK       I    between atoms: N2_6  and  C3_8 
REMARK    4  A    between atoms: C3_8  and  C4_10 
REMARK    5  A    between atoms: C4_10  and  N3_11 
REMARK       I    between atoms: N6_21  and  C9_23 
REMARK    6  A    between atoms: C9_23  and  C10_25 
ROOT
HETATM    1  N3  UNL     1      -0.870   3.958  85.934  1.00  0.00    -0.274 N 
HETATM    2  C5  UNL     1      -2.068   4.590  86.066  1.00  0.00     0.329 A 
HETATM    3  O4  UNL     1      -3.067   4.266  86.787  1.00  0.00    -0.246 OA
HETATM    4  N4  UNL     1      -2.004   5.655  85.254  1.00  0.00    -0.304 N 
ATOM      5  H4  UNL     1      -2.765   6.324  85.148  1.00  0.00     0.171 HD
HETATM    6  C6  UNL     1      -0.850   5.753  84.599  1.00  0.00     0.097 A 
HETATM    7  C7  UNL     1      -0.315   6.608  83.661  1.00  0.00     0.139 A 
HETATM    8  N5  UNL     1       0.910   6.419  83.149  1.00  0.00    -0.199 N 
ATOM      9  H5  UNL     1       1.295   7.060  82.455  1.00  0.00     0.183 HD
HETATM   10  C8  UNL     1       1.621   5.354  83.580  1.00  0.00     0.686 A 
HETATM   11  N6  UNL     1       2.788   5.038  83.111  1.00  0.00    -0.155 N 
ATOM     12  H6  UNL     1       3.262   4.220  83.493  1.00  0.00     0.187 HD
HETATM   13  C9  UNL     1       3.432   5.784  82.089  1.00  0.00     0.275 C 
HETATM   14  O5  UNL     1       3.134   5.442  80.890  1.00  0.00    -0.267 OA
HETATM   15  N8  UNL     1       1.124   4.496  84.504  1.00  0.00    -0.174 N 
ATOM     16  H8  UNL     1       1.695   3.706  84.806  1.00  0.00     0.186 HD
HETATM   17  C14 UNL     1      -0.110   4.658  85.035  1.00  0.00     0.156 A 
ENDROOT
BRANCH  13  18
HETATM   18  C10 UNL     1       4.370   6.867  82.264  1.00  0.00     0.106 A 
HETATM   19  C11 UNL     1       4.119   8.081  82.732  1.00  0.00     0.097 A 
HETATM   20  C12 UNL     1       5.329   8.889  82.756  1.00  0.00     0.249 A 
HETATM   21  O6  UNL     1       5.438  10.089  83.147  1.00  0.00    -0.268 OA
HETATM   22  N7  UNL     1       6.394   8.070  82.255  1.00  0.00    -0.290 N 
HETATM   23  C13 UNL     1       5.794   6.834  81.957  1.00  0.00     0.264 A 
ATOM     24  H7  UNL     1       7.374   8.329  82.140  1.00  0.00     0.172 HD
HETATM   25  O7  UNL     1       6.433   5.830  81.490  1.00  0.00    -0.267 OA
ENDBRANCH  13  18
BRANCH   1  26
HETATM   26  C4  UNL     1      -0.500   2.744  86.561  1.00  0.00     0.239 C 
BRANCH  26  27
HETATM   27  C3  UNL     1      -0.763   1.453  85.871  1.00  0.00     0.251 C 
HETATM   28  N2  UNL     1      -0.251   1.166  84.605  1.00  0.00    -0.272 N 
ATOM     29  H2  UNL     1       0.288   1.916  84.173  1.00  0.00     0.185 HD
HETATM   30  O3  UNL     1      -1.456   0.616  86.482  1.00  0.00    -0.270 OA
BRANCH  28  31
HETATM   31  N1  UNL     1      -0.369   0.012  83.850  1.00  0.00    -0.128 NA
BRANCH  31  32
HETATM   32  C2  UNL     1      -0.210   0.414  82.427  1.00  0.00     0.248 C 
BRANCH  32  33
HETATM   33  C1  UNL     1      -0.283   1.922  82.303  1.00  0.00     0.189 C 
HETATM   34  O1  UNL     1       0.806   2.596  82.382  1.00  0.00    -0.647 OA
HETATM   35  O2  UNL     1      -1.436   2.638  82.102  1.00  0.00    -0.647 OA
ENDBRANCH  32  33
ENDBRANCH  31  32
ENDBRANCH  28  31
ENDBRANCH  26  27
ENDBRANCH   1  26
TORSDOF 6
ENDMDL
MODEL 3
REMARK VINA RESULT: -8.044160094      1.554      1.751
REMARK  6 active torsions:
REMARK  status: ('A' for Active; 'I' for Inactive)
REMARK    1  A    between atoms: C1_2  and  C2_4 
REMARK    2  A    between atoms: C2_4  and  N1_5 
REMARK    3  A    between atoms: N1_5  and  N2_6 
REMARK       I    between atoms: N2_6  and  C3_8 
REMARK    4  A    between atoms: C3_8  and  C4_10 
REMARK    5  A    between atoms: C4_10  and  N3_11 
REMARK       I    between atoms: N6_21  and  C9_23 
REMARK    6  A    between atoms: C9_23  and  C10_25 
ROOT
HETATM    1  N3  UNL     1      -0.884   3.267  86.122  1.00  0.00    -0.274 N 
HETATM    2  C5  UNL     1      -2.121   3.571  86.600  1.00  0.00     0.329 A 
HETATM    3  O4  UNL     1      -2.936   2.826  87.237  1.00  0.00    -0.246 OA
HETATM    4  N4  UNL     1      -2.336   4.848  86.254  1.00  0.00    -0.304 N 
ATOM      5  H4  UNL     1      -3.190   5.354  86.486  1.00  0.00     0.171 HD
HETATM    6  C6  UNL     1      -1.327   5.391  85.578  1.00  0.00     0.097 A 
HETATM    7  C7  UNL     1      -1.075   6.610  84.989  1.00  0.00     0.139 A 
HETATM    8  N5  UNL     1       0.067   6.852  84.328  1.00  0.00    -0.199 N 
ATOM      9  H5  UNL     1       0.243   7.761  83.897  1.00  0.00     0.183 HD
HETATM   10  C8  UNL     1       0.978   5.859  84.249  1.00  0.00     0.686 A 
HETATM   11  N6  UNL     1       2.087   5.959  83.584  1.00  0.00    -0.155 N 
ATOM     12  H6  UNL     1       2.725   5.164  83.577  1.00  0.00     0.187 HD
HETATM   13  C9  UNL     1       2.449   7.129  82.867  1.00  0.00     0.275 C 
HETATM   14  O5  UNL     1       2.012   7.192  81.663  1.00  0.00    -0.267 OA
HETATM   15  N8  UNL     1       0.760   4.648  84.819  1.00  0.00    -0.174 N 
ATOM     16  H8  UNL     1       1.476   3.926  84.740  1.00  0.00     0.186 HD
HETATM   17  C14 UNL     1      -0.383   4.373  85.489  1.00  0.00     0.156 A 
ENDROOT
BRANCH  13  18
HETATM   18  C10 UNL     1       3.244   8.234  83.349  1.00  0.00     0.106 A 
HETATM   19  C11 UNL     1       4.362   8.710  82.823  1.00  0.00     0.097 A 
HETATM   20  C12 UNL     1       4.865   9.833  83.601  1.00  0.00     0.249 A 
HETATM   21  O6  UNL     1       5.908  10.514  83.372  1.00  0.00    -0.268 OA
HETATM   22  N7  UNL     1       3.952  10.037  84.687  1.00  0.00    -0.290 N 
HETATM   23  C13 UNL     1       2.963   9.051  84.522  1.00  0.00     0.264 A 
ATOM     24  H7  UNL     1       4.008  10.744  85.421  1.00  0.00     0.172 HD
HETATM   25  O7  UNL     1       1.959   8.916  85.302  1.00  0.00    -0.267 OA
ENDBRANCH  13  18
BRANCH   1  26
HETATM   26  C4  UNL     1      -0.253   2.002  86.200  1.00  0.00     0.239 C 
BRANCH  26  27
HETATM   27  C3  UNL     1      -0.335   1.070  85.043  1.00  0.00     0.251 C 
HETATM   28  N2  UNL     1      -0.296   1.515  83.721  1.00  0.00    -0.272 N 
ATOM     29  H2  UNL     1      -0.241   2.527  83.604  1.00  0.00     0.185 HD
HETATM   30  O3  UNL     1      -0.426  -0.146  85.303  1.00  0.00    -0.270 OA
BRANCH  28  31
HETATM   31  N1  UNL     1      -0.322   0.785  82.546  1.00  0.00    -0.128 NA
BRANCH  31  32
HETATM   32  C2  UNL     1      -0.759   1.717  81.473  1.00  0.00     0.248 C 
BRANCH  32  33
HETATM   33  C1  UNL     1      -0.549   3.151  81.914  1.00  0.00     0.189 C 
HETATM   34  O1  UNL     1      -1.515   3.760  82.501  1.00  0.00    -0.647 OA
HETATM   35  O2  UNL     1       0.611   3.864  81.740  1.00  0.00    -0.647 OA
ENDBRANCH  32  33
ENDBRANCH  31  32
ENDBRANCH  28  31
ENDBRANCH  26  27
ENDBRANCH   1  26
TORSDOF 6
ENDMDL
MODEL 4
REMARK VINA RESULT: -7.909852067      2.287      3.586
REMARK  6 active torsions:
REMARK  status: ('A' for Active; 'I' for Inactive)
REMARK    1  A    between atoms: C1_2  and  C2_4 
REMARK    2  A    between atoms: C2_4  and  N1_5 
REMARK    3  A    between atoms: N1_5  and  N2_6 
REMARK       I    between atoms: N2_6  and  C3_8 
REMARK    4  A    between atoms: C3_8  and  C4_10 
REMARK    5  A    between atoms: C4_10  and  N3_11 
REMARK       I    between atoms: N6_21  and  C9_23 
REMARK    6  A    between atoms: C9_23  and  C10_25 
ROOT
HETATM    1  N3  UNL     1      -0.269   4.116  82.647  1.00  0.00    -0.274 N 
HETATM    2  C5  UNL     1      -1.200   5.042  83.002  1.00  0.00     0.329 A 
HETATM    3  O4  UNL     1      -2.390   4.860  83.422  1.00  0.00    -0.246 OA
HETATM    4  N4  UNL     1      -0.614   6.232  82.810  1.00  0.00    -0.304 N 
ATOM      5  H4  UNL     1      -1.076   7.121  83.000  1.00  0.00     0.171 HD
HETATM    6  C6  UNL     1       0.631   6.141  82.349  1.00  0.00     0.097 A 
HETATM    7  C7  UNL     1       1.612   7.030  81.970  1.00  0.00     0.139 A 
HETATM    8  N5  UNL     1       2.797   6.616  81.498  1.00  0.00    -0.199 N 
ATOM      9  H5  UNL     1       3.516   7.285  81.222  1.00  0.00     0.183 HD
HETATM   10  C8  UNL     1       3.011   5.286  81.399  1.00  0.00     0.686 A 
HETATM   11  N6  UNL     1       4.092   4.773  80.900  1.00  0.00    -0.155 N 
ATOM     12  H6  UNL     1       4.180   3.758  80.864  1.00  0.00     0.187 HD
HETATM   13  C9  UNL     1       5.160   5.566  80.402  1.00  0.00     0.275 C 
HETATM   14  O5  UNL     1       5.056   5.915  79.172  1.00  0.00    -0.267 OA
HETATM   15  N8  UNL     1       2.066   4.386  81.765  1.00  0.00    -0.174 N 
ATOM     16  H8  UNL     1       2.270   3.390  81.679  1.00  0.00     0.186 HD
HETATM   17  C14 UNL     1       0.861   4.773  82.241  1.00  0.00     0.156 A 
ENDROOT
BRANCH  13  18
HETATM   18  C10 UNL     1       6.326   6.009  81.128  1.00  0.00     0.106 A 
HETATM   19  C11 UNL     1       6.361   6.826  82.171  1.00  0.00     0.097 A 
HETATM   20  C12 UNL     1       7.729   7.031  82.624  1.00  0.00     0.249 A 
HETATM   21  O6  UNL     1       8.112   7.750  83.594  1.00  0.00    -0.268 OA
HETATM   22  N7  UNL     1       8.578   6.258  81.766  1.00  0.00    -0.290 N 
HETATM   23  C13 UNL     1       7.707   5.637  80.853  1.00  0.00     0.264 A 
ATOM     24  H7  UNL     1       9.595   6.177  81.808  1.00  0.00     0.172 HD
HETATM   25  O7  UNL     1       8.097   4.850  79.925  1.00  0.00    -0.267 OA
ENDBRANCH  13  18
BRANCH   1  26
HETATM   26  C4  UNL     1      -0.462   2.713  82.630  1.00  0.00     0.239 C 
BRANCH  26  27
HETATM   27  C3  UNL     1      -0.298   1.935  83.887  1.00  0.00     0.251 C 
HETATM   28  N2  UNL     1       0.001   2.543  85.107  1.00  0.00    -0.272 N 
ATOM     29  H2  UNL     1       0.130   3.554  85.070  1.00  0.00     0.185 HD
HETATM   30  O3  UNL     1      -0.454   0.701  83.812  1.00  0.00    -0.270 OA
BRANCH  28  31
HETATM   31  N1  UNL     1       0.146   1.975  86.361  1.00  0.00    -0.128 NA
BRANCH  31  32
HETATM   32  C2  UNL     1      -1.052   2.365  87.149  1.00  0.00     0.248 C 
BRANCH  32  33
HETATM   33  C1  UNL     1      -2.103   1.277  87.068  1.00  0.00     0.189 C 
HETATM   34  O1  UNL     1      -1.741   0.060  87.258  1.00  0.00    -0.647 OA
HETATM   35  O2  UNL     1      -3.434   1.489  86.809  1.00  0.00    -0.647 OA
ENDBRANCH  32  33
ENDBRANCH  31  32
ENDBRANCH  28  31
ENDBRANCH  26  27
ENDBRANCH   1  26
TORSDOF 6
ENDMDL
MODEL 5
REMARK VINA RESULT: -7.890453321      2.158      2.244
REMARK  6 active torsions:
REMARK  status: ('A' for Active; 'I' for Inactive)
REMARK    1  A    between atoms: C1_2  and  C2_4 
REMARK    2  A    between atoms: C2_4  and  N1_5 
REMARK    3  A    between atoms: N1_5  and  N2_6 
REMARK       I    between atoms: N2_6  and  C3_8 
REMARK    4  A    between atoms: C3_8  and  C4_10 
REMARK    5  A    between atoms: C4_10  and  N3_11 
REMARK       I    between atoms: N6_21  and  C9_23 
REMARK    6  A    between atoms: C9_23  and  C10_25 
ROOT
HETATM    1  N3  UNL     1      -0.940   3.337  86.209  1.00  0.00    -0.274 N 
HETATM    2  C5  UNL     1      -2.113   3.484  86.883  1.00  0.00     0.329 A 
HETATM    3  O4  UNL     1      -2.691   2.665  87.669  1.00  0.00    -0.246 OA
HETATM    4  N4  UNL     1      -2.572   4.697  86.543  1.00  0.00    -0.304 N 
ATOM      5  H4  UNL     1      -3.443   5.086  86.903  1.00  0.00     0.171 HD
HETATM    6  C6  UNL     1      -1.782   5.343  85.690  1.00  0.00     0.097 A 
HETATM    7  C7  UNL     1      -1.816   6.552  85.032  1.00  0.00     0.139 A 
HETATM    8  N5  UNL     1      -0.848   6.921  84.180  1.00  0.00    -0.199 N 
ATOM      9  H5  UNL     1      -0.885   7.821  83.700  1.00  0.00     0.183 HD
HETATM   10  C8  UNL     1       0.177   6.066  83.974  1.00  0.00     0.686 A 
HETATM   11  N6  UNL     1       1.134   6.289  83.128  1.00  0.00    -0.155 N 
ATOM     12  H6  UNL     1       1.874   5.595  83.034  1.00  0.00     0.187 HD
HETATM   13  C9  UNL     1       1.192   7.460  82.327  1.00  0.00     0.275 C 
HETATM   14  O5  UNL     1       0.559   7.395  81.213  1.00  0.00    -0.267 OA
HETATM   15  N8  UNL     1       0.240   4.869  84.607  1.00  0.00    -0.174 N 
ATOM     16  H8  UNL     1       1.034   4.254  84.428  1.00  0.00     0.186 HD
HETATM   17  C14 UNL     1      -0.722   4.468  85.470  1.00  0.00     0.156 A 
ENDROOT
BRANCH  13  18
HETATM   18  C10 UNL     1       1.879   8.691  82.636  1.00  0.00     0.106 A 
HETATM   19  C11 UNL     1       2.475   9.515  81.786  1.00  0.00     0.097 A 
HETATM   20  C12 UNL     1       3.055  10.652  82.485  1.00  0.00     0.249 A 
HETATM   21  O6  UNL     1       3.691  11.620  81.972  1.00  0.00    -0.268 OA
HETATM   22  N7  UNL     1       2.771  10.480  83.880  1.00  0.00    -0.290 N 
HETATM   23  C13 UNL     1       2.051   9.275  83.959  1.00  0.00     0.264 A 
ATOM     24  H7  UNL     1       3.035  11.098  84.648  1.00  0.00     0.172 HD
HETATM   25  O7  UNL     1       1.608   8.785  85.054  1.00  0.00    -0.267 OA
ENDBRANCH  13  18
BRANCH   1  26
HETATM   26  C4  UNL     1      -0.122   2.181  86.214  1.00  0.00     0.239 C 
BRANCH  26  27
HETATM   27  C3  UNL     1      -0.306   1.149  85.159  1.00  0.00     0.251 C 
HETATM   28  N2  UNL     1      -0.072   1.412  83.809  1.00  0.00    -0.272 N 
ATOM     29  H2  UNL     1       0.203   2.370  83.593  1.00  0.00     0.185 HD
HETATM   30  O3  UNL     1      -0.668   0.016  85.534  1.00  0.00    -0.270 OA
BRANCH  28  31
HETATM   31  N1  UNL     1      -0.158   0.562  82.719  1.00  0.00    -0.128 NA
BRANCH  31  32
HETATM   32  C2  UNL     1      -0.701   1.365  81.592  1.00  0.00     0.248 C 
BRANCH  32  33
HETATM   33  C1  UNL     1      -0.778   2.826  81.986  1.00  0.00     0.189 C 
HETATM   34  O1  UNL     1       0.201   3.596  81.676  1.00  0.00    -0.647 OA
HETATM   35  O2  UNL     1      -1.828   3.405  82.652  1.00  0.00    -0.647 OA
ENDBRANCH  32  33
ENDBRANCH  31  32
ENDBRANCH  28  31
ENDBRANCH  26  27
ENDBRANCH   1  26
TORSDOF 6
ENDMDL
