MODEL 1
REMARK VINA RESULT: -7.792784272      0.000      0.000
REMARK  7 active torsions:
REMARK  status: ('A' for Active; 'I' for Inactive)
REMARK    1  A    between atoms: C1_2  and  C2_4 
REMARK    2  A    between atoms: N4_9  and  C3_10 
REMARK    3  A    between atoms: C3_10  and  C4_11 
REMARK    4  A    between atoms: C4_11  and  C5_12 
REMARK    5  A    between atoms: C11_18  and  C12_19 
REMARK    6  A    between atoms: C17_32  and  N7_33 
REMARK    7  A    between atoms: N8_37  and  N9_38 
ROOT
HETATM    1  C12 UNL     1       0.478   7.038  81.725  1.00  0.00     0.194 C 
HETATM    2  C13 UNL     1       0.226   6.379  80.381  1.00  0.00     0.239 C 
HETATM    3  O2  UNL     1       1.087   5.589  79.909  1.00  0.00    -0.272 OA
HETATM    4  N5  UNL     1      -0.909   6.562  79.578  1.00  0.00    -0.290 N 
ATOM      5  H5  UNL     1      -0.879   6.295  78.594  1.00  0.00     0.172 HD
HETATM    6  C14 UNL     1      -2.106   7.118  80.121  1.00  0.00     0.298 C 
HETATM    7  O3  UNL     1      -3.159   7.304  79.468  1.00  0.00    -0.264 OA
HETATM    8  C15 UNL     1      -2.000   7.454  81.530  1.00  0.00     0.271 C 
HETATM    9  O4  UNL     1      -3.016   7.417  82.257  1.00  0.00    -0.283 OA
HETATM   10  C16 UNL     1      -0.690   7.848  82.135  1.00  0.00     0.291 C 
HETATM   11  N6  UNL     1      -0.486   9.229  81.492  1.00  0.00     0.001 N 
ATOM     12  H61 UNL     1      -0.998   9.465  80.642  1.00  0.00     0.284 HD
ATOM     13  H62 UNL     1       0.399   9.442  81.033  1.00  0.00     0.284 HD
HETATM   14  C17 UNL     1      -0.813   9.878  82.698  1.00  0.00     0.481 C 
HETATM   15  N8  UNL     1      -0.835   8.550  83.306  1.00  0.00    -0.138 NA
ENDROOT
BRANCH   1  16
HETATM   16  C11 UNL     1       1.098   6.063  82.642  1.00  0.00     0.080 A 
HETATM   17  C2  UNL     1       2.405   6.225  83.177  1.00  0.00     0.139 A 
HETATM   18  N2  UNL     1       2.706   5.159  83.957  1.00  0.00    -0.280 N 
HETATM   19  N3  UNL     1       1.706   4.381  83.941  1.00  0.00    -0.240 N 
ATOM     20  H2  UNL     1       3.578   5.011  84.464  1.00  0.00     0.189 HD
HETATM   21  N4  UNL     1       0.702   4.891  83.149  1.00  0.00    -0.278 N 
ATOM     22  H3  UNL     1       1.653   3.496  84.447  1.00  0.00     0.208 HD
BRANCH  17  23
HETATM   23  C1  UNL     1       3.343   7.315  83.034  1.00  0.00     0.284 C 
HETATM   24  N1  UNL     1       3.002   8.626  83.566  1.00  0.00    -0.056 NA
HETATM   25  O1  UNL     1       4.454   7.279  82.490  1.00  0.00    -0.269 OA
ENDBRANCH  17  23
BRANCH  21  26
HETATM   26  C3  UNL     1      -0.427   4.047  82.948  1.00  0.00     0.155 C 
BRANCH  26  27
HETATM   27  C4  UNL     1      -1.595   4.322  83.850  1.00  0.00     0.060 C 
BRANCH  27  28
HETATM   28  C5  UNL     1      -1.651   3.675  85.156  1.00  0.00    -0.057 A 
HETATM   29  C6  UNL     1      -2.341   4.366  86.171  1.00  0.00     0.007 A 
HETATM   30  C7  UNL     1      -2.437   3.779  87.408  1.00  0.00     0.001 A 
HETATM   31  C8  UNL     1      -1.897   2.552  87.711  1.00  0.00     0.000 A 
HETATM   32  C9  UNL     1      -1.216   1.874  86.702  1.00  0.00     0.001 A 
HETATM   33  C10 UNL     1      -1.117   2.463  85.457  1.00  0.00     0.007 A 
ENDBRANCH  27  28
ENDBRANCH  26  27
ENDBRANCH  21  26
ENDBRANCH   1  16
BRANCH  15  34
HETATM   34  N9  UNL     1      -0.043   8.448  84.425  1.00  0.00    -0.357 NA
ATOM     35  H92 UNL     1       0.955   8.466  84.217  1.00  0.00     0.171 HD
ATOM     36  H91 UNL     1      -0.007   7.661  85.074  1.00  0.00     0.171 HD
ENDBRANCH  15  34
BRANCH  14  37
HETATM   37  N7  UNL     1       0.303  10.713  83.158  1.00  0.00    -0.035 N 
ATOM     38  H73 UNL     1       1.118  10.152  83.405  1.00  0.00     0.278 HD
ATOM     39  H72 UNL     1       0.713  11.250  82.394  1.00  0.00     0.278 HD
ATOM     40  H71 UNL     1       0.011  11.315  83.929  1.00  0.00     0.278 HD
ENDBRANCH  14  37
TORSDOF 7
ENDMDL
MODEL 2
REMARK VINA RESULT: -7.743093718      2.299      4.143
REMARK  7 active torsions:
REMARK  status: ('A' for Active; 'I' for Inactive)
REMARK    1  A    between atoms: C1_2  and  C2_4 
REMARK    2  A    between atoms: N4_9  and  C3_10 
REMARK    3  A    between atoms: C3_10  and  C4_11 
REMARK    4  A    between atoms: C4_11  and  C5_12 
REMARK    5  A    between atoms: C11_18  and  C12_19 
REMARK    6  A    between atoms: C17_32  and  N7_33 
REMARK    7  A    between atoms: N8_37  and  N9_38 
ROOT
HETATM    1  C12 UNL     1       0.183   6.086  82.187  1.00  0.00     0.194 C 
HETATM    2  C13 UNL     1       0.893   5.371  83.323  1.00  0.00     0.239 C 
HETATM    3  O2  UNL     1       1.184   6.011  84.369  1.00  0.00    -0.272 OA
HETATM    4  N5  UNL     1       1.272   4.021  83.333  1.00  0.00    -0.290 N 
ATOM      5  H5  UNL     1       1.962   3.696  84.010  1.00  0.00     0.172 HD
HETATM    6  C14 UNL     1       0.703   3.096  82.407  1.00  0.00     0.298 C 
HETATM    7  O3  UNL     1       0.987   1.876  82.362  1.00  0.00    -0.264 OA
HETATM    8  C15 UNL     1      -0.259   3.700  81.503  1.00  0.00     0.271 C 
HETATM    9  O4  UNL     1      -1.201   3.015  81.048  1.00  0.00    -0.283 OA
HETATM   10  C16 UNL     1      -0.147   5.137  81.101  1.00  0.00     0.291 C 
HETATM   11  N6  UNL     1       1.098   5.081  80.203  1.00  0.00     0.001 N 
ATOM     12  H61 UNL     1       1.742   4.295  80.288  1.00  0.00     0.284 HD
ATOM     13  H62 UNL     1       1.861   5.739  80.363  1.00  0.00     0.284 HD
HETATM   14  C17 UNL     1       0.311   5.206  79.042  1.00  0.00     0.481 C 
HETATM   15  N8  UNL     1      -0.823   5.418  79.939  1.00  0.00    -0.138 NA
ENDROOT
BRANCH   1  16
HETATM   16  C11 UNL     1      -0.830   7.004  82.740  1.00  0.00     0.080 A 
HETATM   17  C2  UNL     1      -0.781   8.412  82.557  1.00  0.00     0.139 A 
HETATM   18  N2  UNL     1      -1.824   8.986  83.203  1.00  0.00    -0.280 N 
HETATM   19  N3  UNL     1      -2.491   8.057  83.750  1.00  0.00    -0.240 N 
ATOM     20  H2  UNL     1      -2.035   9.982  83.242  1.00  0.00     0.189 HD
HETATM   21  N4  UNL     1      -1.919   6.830  83.496  1.00  0.00    -0.278 N 
ATOM     22  H3  UNL     1      -3.336   8.199  84.304  1.00  0.00     0.208 HD
BRANCH  17  23
HETATM   23  C1  UNL     1       0.141   9.222  81.793  1.00  0.00     0.284 C 
HETATM   24  N1  UNL     1       0.253   9.017  80.358  1.00  0.00    -0.056 NA
HETATM   25  O1  UNL     1       0.886  10.113  82.223  1.00  0.00    -0.269 OA
ENDBRANCH  17  23
BRANCH  21  26
HETATM   26  C3  UNL     1      -2.503   5.717  84.165  1.00  0.00     0.155 C 
BRANCH  26  27
HETATM   27  C4  UNL     1      -1.969   5.453  85.543  1.00  0.00     0.060 C 
BRANCH  27  28
HETATM   28  C5  UNL     1      -1.844   4.075  86.004  1.00  0.00    -0.057 A 
HETATM   29  C6  UNL     1      -3.022   3.454  86.460  1.00  0.00     0.007 A 
HETATM   30  C7  UNL     1      -2.949   2.149  86.880  1.00  0.00     0.001 A 
HETATM   31  C8  UNL     1      -1.788   1.414  86.880  1.00  0.00     0.000 A 
HETATM   32  C9  UNL     1      -0.626   2.035  86.427  1.00  0.00     0.001 A 
HETATM   33  C10 UNL     1      -0.696   3.347  86.005  1.00  0.00     0.007 A 
ENDBRANCH  27  28
ENDBRANCH  26  27
ENDBRANCH  21  26
ENDBRANCH   1  16
BRANCH  15  34
HETATM   34  N9  UNL     1      -1.533   6.561  79.662  1.00  0.00    -0.357 NA
ATOM     35  H92 UNL     1      -2.163   6.839  80.415  1.00  0.00     0.171 HD
ATOM     36  H91 UNL     1      -2.204   6.690  78.903  1.00  0.00     0.171 HD
ENDBRANCH  15  34
BRANCH  14  37
HETATM   37  N7  UNL     1       0.688   6.405  78.284  1.00  0.00    -0.035 N 
ATOM     38  H73 UNL     1      -0.129   6.886  77.907  1.00  0.00     0.278 HD
ATOM     39  H72 UNL     1       1.033   7.145  78.895  1.00  0.00     0.278 HD
ATOM     40  H71 UNL     1       1.362   6.174  77.553  1.00  0.00     0.278 HD
ENDBRANCH  14  37
TORSDOF 7
ENDMDL
MODEL 3
REMARK VINA RESULT: -7.630366840      2.025      4.724
REMARK  7 active torsions:
REMARK  status: ('A' for Active; 'I' for Inactive)
REMARK    1  A    between atoms: C1_2  and  C2_4 
REMARK    2  A    between atoms: N4_9  and  C3_10 
REMARK    3  A    between atoms: C3_10  and  C4_11 
REMARK    4  A    between atoms: C4_11  and  C5_12 
REMARK    5  A    between atoms: C11_18  and  C12_19 
REMARK    6  A    between atoms: C17_32  and  N7_33 
REMARK    7  A    between atoms: N8_37  and  N9_38 
ROOT
HETATM    1  C12 UNL     1       0.684   7.008  81.564  1.00  0.00     0.194 C 
HETATM    2  C13 UNL     1       1.721   7.792  82.349  1.00  0.00     0.239 C 
HETATM    3  O2  UNL     1       1.358   8.793  83.023  1.00  0.00    -0.272 OA
HETATM    4  N5  UNL     1       3.093   7.509  82.406  1.00  0.00    -0.290 N 
ATOM      5  H5  UNL     1       3.742   8.225  82.733  1.00  0.00     0.172 HD
HETATM    6  C14 UNL     1       3.593   6.232  82.010  1.00  0.00     0.298 C 
HETATM    7  O3  UNL     1       4.802   5.906  82.040  1.00  0.00    -0.264 OA
HETATM    8  C15 UNL     1       2.556   5.319  81.562  1.00  0.00     0.271 C 
HETATM    9  O4  UNL     1       2.706   4.087  81.709  1.00  0.00    -0.283 OA
HETATM   10  C16 UNL     1       1.301   5.826  80.923  1.00  0.00     0.291 C 
HETATM   11  N6  UNL     1       1.851   6.321  79.577  1.00  0.00     0.001 N 
ATOM     12  H61 UNL     1       2.848   6.519  79.485  1.00  0.00     0.284 HD
ATOM     13  H62 UNL     1       1.623   7.263  79.259  1.00  0.00     0.284 HD
HETATM   14  C17 UNL     1       1.301   5.213  78.904  1.00  0.00     0.481 C 
HETATM   15  N8  UNL     1       0.664   4.869  80.173  1.00  0.00    -0.138 NA
ENDROOT
BRANCH   1  16
HETATM   16  C11 UNL     1      -0.552   6.893  82.362  1.00  0.00     0.080 A 
HETATM   17  C2  UNL     1      -1.808   7.385  81.918  1.00  0.00     0.139 A 
HETATM   18  N2  UNL     1      -2.742   7.161  82.873  1.00  0.00    -0.280 N 
HETATM   19  N3  UNL     1      -2.165   6.581  83.841  1.00  0.00    -0.240 N 
ATOM     20  H2  UNL     1      -3.728   7.413  82.823  1.00  0.00     0.189 HD
HETATM   21  N4  UNL     1      -0.826   6.399  83.573  1.00  0.00    -0.278 N 
ATOM     22  H3  UNL     1      -2.629   6.288  84.701  1.00  0.00     0.208 HD
BRANCH  17  23
HETATM   23  C1  UNL     1      -2.180   7.998  80.662  1.00  0.00     0.284 C 
HETATM   24  N1  UNL     1      -2.710   7.169  79.591  1.00  0.00    -0.056 NA
HETATM   25  O1  UNL     1      -2.099   9.197  80.363  1.00  0.00    -0.269 OA
ENDBRANCH  17  23
BRANCH  21  26
HETATM   26  C3  UNL     1      -0.041   5.872  84.639  1.00  0.00     0.155 C 
BRANCH  26  27
HETATM   27  C4  UNL     1       0.104   4.378  84.641  1.00  0.00     0.060 C 
BRANCH  27  28
HETATM   28  C5  UNL     1      -0.804   3.578  85.454  1.00  0.00    -0.057 A 
HETATM   29  C6  UNL     1      -0.414   2.249  85.709  1.00  0.00     0.007 A 
HETATM   30  C7  UNL     1      -1.231   1.470  86.491  1.00  0.00     0.001 A 
HETATM   31  C8  UNL     1      -2.409   1.917  87.040  1.00  0.00     0.000 A 
HETATM   32  C9  UNL     1      -2.788   3.233  86.784  1.00  0.00     0.001 A 
HETATM   33  C10 UNL     1      -1.969   4.018  85.998  1.00  0.00     0.007 A 
ENDBRANCH  27  28
ENDBRANCH  26  27
ENDBRANCH  21  26
ENDBRANCH   1  16
BRANCH  15  34
HETATM   34  N9  UNL     1      -0.694   4.681  80.069  1.00  0.00    -0.357 NA
ATOM     35  H92 UNL     1      -1.048   3.942  80.676  1.00  0.00     0.171 HD
ATOM     36  H91 UNL     1      -1.205   4.393  79.234  1.00  0.00     0.171 HD
ENDBRANCH  15  34
BRANCH  14  37
HETATM   37  N7  UNL     1       0.353   5.649  77.872  1.00  0.00    -0.035 N 
ATOM     38  H73 UNL     1      -0.383   6.238  78.261  1.00  0.00     0.278 HD
ATOM     39  H72 UNL     1       0.773   6.327  77.236  1.00  0.00     0.278 HD
ATOM     40  H71 UNL     1      -0.030   4.847  77.370  1.00  0.00     0.278 HD
ENDBRANCH  14  37
TORSDOF 7
ENDMDL
MODEL 4
REMARK VINA RESULT: -7.581633194      2.138      4.150
REMARK  7 active torsions:
REMARK  status: ('A' for Active; 'I' for Inactive)
REMARK    1  A    between atoms: C1_2  and  C2_4 
REMARK    2  A    between atoms: N4_9  and  C3_10 
REMARK    3  A    between atoms: C3_10  and  C4_11 
REMARK    4  A    between atoms: C4_11  and  C5_12 
REMARK    5  A    between atoms: C11_18  and  C12_19 
REMARK    6  A    between atoms: C17_32  and  N7_33 
REMARK    7  A    between atoms: N8_37  and  N9_38 
ROOT
HETATM    1  C12 UNL     1       0.846   7.019  82.388  1.00  0.00     0.194 C 
HETATM    2  C13 UNL     1       2.124   6.714  83.149  1.00  0.00     0.239 C 
HETATM    3  O2  UNL     1       2.482   7.476  84.086  1.00  0.00    -0.272 OA
HETATM    4  N5  UNL     1       2.981   5.630  82.911  1.00  0.00    -0.290 N 
ATOM      5  H5  UNL     1       3.931   5.647  83.282  1.00  0.00     0.172 HD
HETATM    6  C14 UNL     1       2.541   4.503  82.154  1.00  0.00     0.298 C 
HETATM    7  O3  UNL     1       3.247   3.498  81.907  1.00  0.00    -0.264 OA
HETATM    8  C15 UNL     1       1.172   4.620  81.687  1.00  0.00     0.271 C 
HETATM    9  O4  UNL     1       0.481   3.591  81.518  1.00  0.00    -0.283 OA
HETATM   10  C16 UNL     1       0.563   5.956  81.398  1.00  0.00     0.291 C 
HETATM   11  N6  UNL     1       1.336   6.350  80.130  1.00  0.00     0.001 N 
ATOM     12  H61 UNL     1       2.224   5.893  79.923  1.00  0.00     0.284 HD
ATOM     13  H62 UNL     1       1.783   7.266  80.080  1.00  0.00     0.284 HD
HETATM   14  C17 UNL     1       0.215   6.083  79.321  1.00  0.00     0.481 C 
HETATM   15  N8  UNL     1      -0.524   5.876  80.564  1.00  0.00    -0.138 NA
ENDROOT
BRANCH   1  16
HETATM   16  C11 UNL     1      -0.187   7.487  83.331  1.00  0.00     0.080 A 
HETATM   17  C2  UNL     1      -0.749   8.791  83.279  1.00  0.00     0.139 A 
HETATM   18  N2  UNL     1      -1.644   8.935  84.285  1.00  0.00    -0.280 N 
HETATM   19  N3  UNL     1      -1.673   7.844  84.929  1.00  0.00    -0.240 N 
ATOM     20  H2  UNL     1      -2.195   9.769  84.487  1.00  0.00     0.189 HD
HETATM   21  N4  UNL     1      -0.797   6.932  84.382  1.00  0.00    -0.278 N 
ATOM     22  H3  UNL     1      -2.264   7.666  85.741  1.00  0.00     0.208 HD
BRANCH  17  23
HETATM   23  C1  UNL     1      -0.530   9.865  82.336  1.00  0.00     0.284 C 
HETATM   24  N1  UNL     1      -0.872   9.669  80.936  1.00  0.00    -0.056 NA
HETATM   25  O1  UNL     1      -0.062  10.987  82.576  1.00  0.00    -0.269 OA
ENDBRANCH  17  23
BRANCH  21  26
HETATM   26  C3  UNL     1      -0.643   5.709  85.095  1.00  0.00     0.155 C 
BRANCH  26  27
HETATM   27  C4  UNL     1      -1.911   5.143  85.666  1.00  0.00     0.060 C 
BRANCH  27  28
HETATM   28  C5  UNL     1      -1.928   3.760  86.127  1.00  0.00    -0.057 A 
HETATM   29  C6  UNL     1      -0.692   3.085  86.135  1.00  0.00     0.007 A 
HETATM   30  C7  UNL     1      -0.662   1.788  86.585  1.00  0.00     0.001 A 
HETATM   31  C8  UNL     1      -1.773   1.112  87.028  1.00  0.00     0.000 A 
HETATM   32  C9  UNL     1      -2.993   1.785  87.017  1.00  0.00     0.001 A 
HETATM   33  C10 UNL     1      -3.026   3.089  86.565  1.00  0.00     0.007 A 
ENDBRANCH  27  28
ENDBRANCH  26  27
ENDBRANCH  21  26
ENDBRANCH   1  16
BRANCH  15  34
HETATM   34  N9  UNL     1      -1.675   6.623  80.645  1.00  0.00    -0.357 NA
ATOM     35  H92 UNL     1      -2.227   6.612  79.787  1.00  0.00     0.171 HD
ATOM     36  H91 UNL     1      -1.736   7.629  80.803  1.00  0.00     0.171 HD
ENDBRANCH  15  34
BRANCH  14  37
HETATM   37  N7  UNL     1      -0.196   7.287  78.589  1.00  0.00    -0.035 N 
ATOM     38  H73 UNL     1      -1.092   7.156  78.120  1.00  0.00     0.278 HD
ATOM     39  H72 UNL     1      -0.463   8.041  79.222  1.00  0.00     0.278 HD
ATOM     40  H71 UNL     1       0.532   7.581  77.937  1.00  0.00     0.278 HD
ENDBRANCH  14  37
TORSDOF 7
ENDMDL
MODEL 5
REMARK VINA RESULT: -7.567139278      2.637      5.699
REMARK  7 active torsions:
REMARK  status: ('A' for Active; 'I' for Inactive)
REMARK    1  A    between atoms: C1_2  and  C2_4 
REMARK    2  A    between atoms: N4_9  and  C3_10 
REMARK    3  A    between atoms: C3_10  and  C4_11 
REMARK    4  A    between atoms: C4_11  and  C5_12 
REMARK    5  A    between atoms: C11_18  and  C12_19 
REMARK    6  A    between atoms: C17_32  and  N7_33 
REMARK    7  A    between atoms: N8_37  and  N9_38 
ROOT
HETATM    1  C12 UNL     1       0.580   5.435  81.531  1.00  0.00     0.194 C 
HETATM    2  C13 UNL     1      -0.150   6.154  80.410  1.00  0.00     0.239 C 
HETATM    3  O2  UNL     1      -1.359   5.881  80.185  1.00  0.00    -0.272 OA
HETATM    4  N5  UNL     1       0.401   7.131  79.567  1.00  0.00    -0.290 N 
ATOM      5  H5  UNL     1      -0.069   7.365  78.693  1.00  0.00     0.172 HD
HETATM    6  C14 UNL     1       1.612   7.800  79.918  1.00  0.00     0.298 C 
HETATM    7  O3  UNL     1       2.158   8.685  79.219  1.00  0.00    -0.264 OA
HETATM    8  C15 UNL     1       2.169   7.361  81.185  1.00  0.00     0.271 C 
HETATM    9  O4  UNL     1       2.844   8.154  81.876  1.00  0.00    -0.283 OA
HETATM   10  C16 UNL     1       1.952   5.967  81.685  1.00  0.00     0.291 C 
HETATM   11  N6  UNL     1       2.821   5.174  80.696  1.00  0.00     0.001 N 
ATOM     12  H61 UNL     1       3.078   5.598  79.805  1.00  0.00     0.284 HD
ATOM     13  H62 UNL     1       2.422   4.370  80.213  1.00  0.00     0.284 HD
HETATM   14  C17 UNL     1       3.812   4.970  81.676  1.00  0.00     0.481 C 
HETATM   15  N8  UNL     1       2.882   5.587  82.620  1.00  0.00    -0.138 NA
ENDROOT
BRANCH   1  16
HETATM   16  C11 UNL     1      -0.322   5.285  82.688  1.00  0.00     0.080 A 
HETATM   17  C2  UNL     1      -0.964   4.061  83.017  1.00  0.00     0.139 A 
HETATM   18  N2  UNL     1      -1.747   4.243  84.107  1.00  0.00    -0.280 N 
HETATM   19  N3  UNL     1      -1.631   5.454  84.462  1.00  0.00    -0.240 N 
ATOM     20  H2  UNL     1      -2.324   3.535  84.560  1.00  0.00     0.189 HD
HETATM   21  N4  UNL     1      -0.773   6.129  83.622  1.00  0.00    -0.278 N 
ATOM     22  H3  UNL     1      -2.109   5.872  85.261  1.00  0.00     0.208 HD
BRANCH  17  23
HETATM   23  C1  UNL     1      -0.853   2.756  82.406  1.00  0.00     0.284 C 
HETATM   24  N1  UNL     1       0.028   1.762  82.998  1.00  0.00    -0.056 NA
HETATM   25  O1  UNL     1      -1.438   2.353  81.392  1.00  0.00    -0.269 OA
ENDBRANCH  17  23
BRANCH  21  26
HETATM   26  C3  UNL     1      -0.659   7.532  83.840  1.00  0.00     0.155 C 
BRANCH  26  27
HETATM   27  C4  UNL     1       0.286   7.929  84.937  1.00  0.00     0.060 C 
BRANCH  27  28
HETATM   28  C5  UNL     1       1.230   9.016  84.703  1.00  0.00    -0.057 A 
HETATM   29  C6  UNL     1       0.767  10.093  83.924  1.00  0.00     0.007 A 
HETATM   30  C7  UNL     1       1.618  11.147  83.700  1.00  0.00     0.001 A 
HETATM   31  C8  UNL     1       2.898  11.209  84.198  1.00  0.00     0.000 A 
HETATM   32  C9  UNL     1       3.349  10.140  84.969  1.00  0.00     0.001 A 
HETATM   33  C10 UNL     1       2.495   9.078  85.194  1.00  0.00     0.007 A 
ENDBRANCH  27  28
ENDBRANCH  26  27
ENDBRANCH  21  26
ENDBRANCH   1  16
BRANCH  15  34
HETATM   34  N9  UNL     1       2.653   4.823  83.738  1.00  0.00    -0.357 NA
ATOM     35  H92 UNL     1       1.719   4.947  84.130  1.00  0.00     0.171 HD
ATOM     36  H91 UNL     1       3.154   4.880  84.626  1.00  0.00     0.171 HD
ENDBRANCH  15  34
BRANCH  14  37
HETATM   37  N7  UNL     1       4.022   3.537  81.913  1.00  0.00    -0.035 N 
ATOM     38  H73 UNL     1       3.208   3.104  82.350  1.00  0.00     0.278 HD
ATOM     39  H72 UNL     1       4.028   3.008  81.041  1.00  0.00     0.278 HD
ATOM     40  H71 UNL     1       4.871   3.381  82.456  1.00  0.00     0.278 HD
ENDBRANCH  14  37
TORSDOF 7
ENDMDL
