MODEL 1
REMARK VINA RESULT: -7.301180441      0.000      0.000
REMARK  9 active torsions:
REMARK  status: ('A' for Active; 'I' for Inactive)
REMARK    1  A    between atoms: C2_2  and  S1_3 
REMARK    2  A    between atoms: S1_3  and  C3_4 
REMARK    3  A    between atoms: N2_11  and  N3_12 
REMARK       I    between atoms: N3_12  and  C6_14 
REMARK    4  A    between atoms: C6_14  and  C7_16 
REMARK    5  A    between atoms: C7_16  and  O3_17 
REMARK    6  A    between atoms: C9_23  and  C10_24 
REMARK    7  A    between atoms: C10_24  and  O5_25 
REMARK    8  A    between atoms: C10_24  and  N5_27 
REMARK    9  A    between atoms: N5_27  and  N6_29 
ROOT
HETATM    1  C3  UNL     1       1.730   5.604  81.140  1.00  0.00     0.167 C 
HETATM    2  S2  UNL     1       0.353   4.368  81.311  1.00  0.00    -0.084 SA
HETATM    3  C4  UNL     1       0.728   4.248  83.114  1.00  0.00     0.246 A 
HETATM    4  N1  UNL     1       0.104   5.401  83.711  1.00  0.00    -0.297 N 
ATOM      5  H1  UNL     1       0.240   6.365  83.407  1.00  0.00     0.168 HD
HETATM    6  C5  UNL     1      -0.720   4.995  84.775  1.00  0.00     0.347 A 
HETATM    7  O1  UNL     1      -1.370   5.745  85.557  1.00  0.00    -0.245 OA
HETATM    8  N2  UNL     1      -0.695   3.554  84.808  1.00  0.00    -0.165 N 
HETATM    9  C8  UNL     1       0.145   3.103  83.761  1.00  0.00     0.307 A 
HETATM   10  O4  UNL     1       0.266   1.848  83.541  1.00  0.00    -0.265 OA
HETATM   11  N4  UNL     1       2.138   4.339  83.128  1.00  0.00    -0.345 N 
ATOM     12  H4  UNL     1       2.706   3.943  83.877  1.00  0.00     0.163 HD
HETATM   13  C9  UNL     1       2.706   5.026  82.015  1.00  0.00     0.085 C 
ENDROOT
BRANCH   1  14
HETATM   14  S1  UNL     1       2.075   6.132  79.522  1.00  0.00    -0.147 SA
BRANCH  14  15
HETATM   15  C2  UNL     1       1.465   4.977  78.287  1.00  0.00     0.071 C 
HETATM   16  C1  UNL     1       1.083   5.626  76.980  1.00  0.00     0.016 C 
ENDBRANCH  14  15
ENDBRANCH   1  14
BRANCH   8  17
HETATM   17  N3  UNL     1      -1.407   2.812  85.767  1.00  0.00    -0.255 N 
HETATM   18  C6  UNL     1      -0.788   2.026  86.766  1.00  0.00     0.260 C 
HETATM   19  O2  UNL     1       0.482   1.998  86.776  1.00  0.00    -0.269 OA
ATOM     20  H3  UNL     1      -2.427   2.842  85.740  1.00  0.00     0.191 HD
BRANCH  18  21
HETATM   21  C7  UNL     1      -1.609   1.269  87.757  1.00  0.00     0.268 C 
BRANCH  21  22
HETATM   22  O3  UNL     1      -1.655  -0.062  87.421  1.00  0.00    -0.392 OA
ATOM     23  H3  UNL     1      -2.458  -0.256  86.950  1.00  0.00     0.210 HD
ENDBRANCH  21  22
ENDBRANCH  18  21
ENDBRANCH   8  17
BRANCH  13  24
HETATM   24  C10 UNL     1       3.847   4.255  81.520  1.00  0.00     0.184 C 
BRANCH  24  25
HETATM   25  O5  UNL     1       4.987   4.473  82.111  1.00  0.00    -0.344 OA
ATOM     26  H5  UNL     1       5.743   4.030  81.741  1.00  0.00     0.219 HD
ENDBRANCH  24  25
BRANCH  24  27
HETATM   27  N5  UNL     1       3.856   3.309  80.478  1.00  0.00    -0.218 N 
ATOM     28  H5  UNL     1       4.369   3.507  79.619  1.00  0.00     0.195 HD
BRANCH  27  29
HETATM   29  N6  UNL     1       3.160   2.088  80.613  1.00  0.00    -0.037 N 
HETATM   30  O6  UNL     1       2.909   1.680  81.740  1.00  0.00    -0.516 OA
HETATM   31  O7  UNL     1       2.772   1.356  79.529  1.00  0.00    -0.516 OA
ENDBRANCH  27  29
ENDBRANCH  24  27
ENDBRANCH  13  24
TORSDOF 9
ENDMDL
MODEL 2
REMARK VINA RESULT: -7.261562997      1.405      1.487
REMARK  9 active torsions:
REMARK  status: ('A' for Active; 'I' for Inactive)
REMARK    1  A    between atoms: C2_2  and  S1_3 
REMARK    2  A    between atoms: S1_3  and  C3_4 
REMARK    3  A    between atoms: N2_11  and  N3_12 
REMARK       I    between atoms: N3_12  and  C6_14 
REMARK    4  A    between atoms: C6_14  and  C7_16 
REMARK    5  A    between atoms: C7_16  and  O3_17 
REMARK    6  A    between atoms: C9_23  and  C10_24 
REMARK    7  A    between atoms: C10_24  and  O5_25 
REMARK    8  A    between atoms: C10_24  and  N5_27 
REMARK    9  A    between atoms: N5_27  and  N6_29 
ROOT
HETATM    1  C3  UNL     1       1.403   4.516  80.326  1.00  0.00     0.167 C 
HETATM    2  S2  UNL     1      -0.159   3.647  80.835  1.00  0.00    -0.084 SA
HETATM    3  C4  UNL     1       0.547   3.439  82.528  1.00  0.00     0.246 A 
HETATM    4  N1  UNL     1       0.350   4.708  83.181  1.00  0.00    -0.297 N 
ATOM      5  H1  UNL     1       0.642   5.611  82.809  1.00  0.00     0.168 HD
HETATM    6  C5  UNL     1      -0.305   4.512  84.409  1.00  0.00     0.347 A 
HETATM    7  O1  UNL     1      -0.581   5.395  85.269  1.00  0.00    -0.245 OA
HETATM    8  N2  UNL     1      -0.612   3.106  84.508  1.00  0.00    -0.165 N 
HETATM    9  C8  UNL     1      -0.141   2.468  83.336  1.00  0.00     0.307 A 
HETATM   10  O4  UNL     1      -0.367   1.220  83.158  1.00  0.00    -0.265 OA
HETATM   11  N4  UNL     1       1.910   3.189  82.250  1.00  0.00    -0.345 N 
ATOM     12  H4  UNL     1       2.513   2.668  82.886  1.00  0.00     0.163 HD
HETATM   13  C9  UNL     1       2.377   3.719  81.012  1.00  0.00     0.085 C 
ENDROOT
BRANCH   1  14
HETATM   14  S1  UNL     1       1.517   4.947  78.647  1.00  0.00    -0.147 SA
BRANCH  14  15
HETATM   15  C2  UNL     1       3.135   5.605  78.226  1.00  0.00     0.071 C 
HETATM   16  C1  UNL     1       3.895   4.767  77.228  1.00  0.00     0.016 C 
ENDBRANCH  14  15
ENDBRANCH   1  14
BRANCH   8  17
HETATM   17  N3  UNL     1      -1.262   2.557  85.627  1.00  0.00    -0.255 N 
HETATM   18  C6  UNL     1      -0.582   1.928  86.696  1.00  0.00     0.260 C 
HETATM   19  O2  UNL     1       0.683   1.861  86.617  1.00  0.00    -0.269 OA
ATOM     20  H3  UNL     1      -2.280   2.615  85.670  1.00  0.00     0.191 HD
BRANCH  18  21
HETATM   21  C7  UNL     1      -1.338   1.372  87.857  1.00  0.00     0.268 C 
BRANCH  21  22
HETATM   22  O3  UNL     1      -1.872   0.148  87.538  1.00  0.00    -0.392 OA
ATOM     23  H3  UNL     1      -2.801   0.230  87.354  1.00  0.00     0.210 HD
ENDBRANCH  21  22
ENDBRANCH  18  21
ENDBRANCH   8  17
BRANCH  13  24
HETATM   24  C10 UNL     1       3.175   2.697  80.334  1.00  0.00     0.184 C 
BRANCH  24  25
HETATM   25  O5  UNL     1       4.453   2.935  80.240  1.00  0.00    -0.344 OA
ATOM     26  H5  UNL     1       4.698   3.832  80.042  1.00  0.00     0.219 HD
ENDBRANCH  24  25
BRANCH  24  27
HETATM   27  N5  UNL     1       2.722   1.490  79.770  1.00  0.00    -0.218 N 
ATOM     28  H5  UNL     1       2.901   1.294  78.784  1.00  0.00     0.195 HD
BRANCH  27  29
HETATM   29  N6  UNL     1       2.024   0.549  80.555  1.00  0.00    -0.037 N 
HETATM   30  O6  UNL     1       2.488   0.238  81.646  1.00  0.00    -0.516 OA
HETATM   31  O7  UNL     1       0.860  -0.022  80.132  1.00  0.00    -0.516 OA
ENDBRANCH  27  29
ENDBRANCH  24  27
ENDBRANCH  13  24
TORSDOF 9
ENDMDL
MODEL 3
REMARK VINA RESULT: -6.981302936      3.440      7.558
REMARK  9 active torsions:
REMARK  status: ('A' for Active; 'I' for Inactive)
REMARK    1  A    between atoms: C2_2  and  S1_3 
REMARK    2  A    between atoms: S1_3  and  C3_4 
REMARK    3  A    between atoms: N2_11  and  N3_12 
REMARK       I    between atoms: N3_12  and  C6_14 
REMARK    4  A    between atoms: C6_14  and  C7_16 
REMARK    5  A    between atoms: C7_16  and  O3_17 
REMARK    6  A    between atoms: C9_23  and  C10_24 
REMARK    7  A    between atoms: C10_24  and  O5_25 
REMARK    8  A    between atoms: C10_24  and  N5_27 
REMARK    9  A    between atoms: N5_27  and  N6_29 
ROOT
HETATM    1  C3  UNL     1       0.661   4.139  81.950  1.00  0.00     0.167 C 
HETATM    2  S2  UNL     1       2.404   3.706  81.474  1.00  0.00    -0.084 SA
HETATM    3  C4  UNL     1       1.912   3.815  79.699  1.00  0.00     0.246 A 
HETATM    4  N1  UNL     1       1.912   5.222  79.389  1.00  0.00    -0.297 N 
ATOM      5  H1  UNL     1       1.413   5.939  79.916  1.00  0.00     0.168 HD
HETATM    6  C5  UNL     1       2.702   5.456  78.251  1.00  0.00     0.347 A 
HETATM    7  O1  UNL     1       2.876   6.562  77.664  1.00  0.00    -0.245 OA
HETATM    8  N2  UNL     1       3.291   4.195  77.873  1.00  0.00    -0.165 N 
HETATM    9  C8  UNL     1       2.850   3.210  78.791  1.00  0.00     0.307 A 
HETATM   10  O4  UNL     1       3.302   2.016  78.705  1.00  0.00    -0.265 OA
HETATM   11  N4  UNL     1       0.606   3.274  79.722  1.00  0.00    -0.345 N 
ATOM     12  H4  UNL     1       0.180   2.836  78.905  1.00  0.00     0.163 HD
HETATM   13  C9  UNL     1      -0.069   3.388  80.972  1.00  0.00     0.085 C 
ENDROOT
BRANCH   1  14
HETATM   14  S1  UNL     1       0.311   4.107  83.651  1.00  0.00    -0.147 SA
BRANCH  14  15
HETATM   15  C2  UNL     1      -1.395   4.552  83.999  1.00  0.00     0.071 C 
HETATM   16  C1  UNL     1      -1.821   4.276  85.420  1.00  0.00     0.016 C 
ENDBRANCH  14  15
ENDBRANCH   1  14
BRANCH   8  17
HETATM   17  N3  UNL     1       4.136   4.064  76.758  1.00  0.00    -0.255 N 
HETATM   18  C6  UNL     1       5.545   4.171  76.828  1.00  0.00     0.260 C 
HETATM   19  O2  UNL     1       6.051   4.406  77.968  1.00  0.00    -0.269 OA
ATOM     20  H3  UNL     1       3.711   3.882  75.849  1.00  0.00     0.191 HD
BRANCH  18  21
HETATM   21  C7  UNL     1       6.381   4.015  75.601  1.00  0.00     0.268 C 
BRANCH  21  22
HETATM   22  O3  UNL     1       6.359   2.711  75.171  1.00  0.00    -0.392 OA
ATOM     23  H3  UNL     1       6.689   2.134  75.850  1.00  0.00     0.210 HD
ENDBRANCH  21  22
ENDBRANCH  18  21
ENDBRANCH   8  17
BRANCH  13  24
HETATM   24  C10 UNL     1      -0.706   2.107  81.280  1.00  0.00     0.184 C 
BRANCH  24  25
HETATM   25  O5  UNL     1      -1.906   1.934  80.801  1.00  0.00    -0.344 OA
ATOM     26  H5  UNL     1      -2.614   2.339  81.290  1.00  0.00     0.219 HD
ENDBRANCH  24  25
BRANCH  24  27
HETATM   27  N5  UNL     1      -0.176   1.044  82.033  1.00  0.00    -0.218 N 
ATOM     28  H5  UNL     1      -0.311   1.024  83.045  1.00  0.00     0.195 HD
BRANCH  27  29
HETATM   29  N6  UNL     1       0.541   0.005  81.402  1.00  0.00    -0.037 N 
HETATM   30  O6  UNL     1       0.619  -1.079  81.969  1.00  0.00    -0.516 OA
HETATM   31  O7  UNL     1       1.147   0.178  80.193  1.00  0.00    -0.516 OA
ENDBRANCH  27  29
ENDBRANCH  24  27
ENDBRANCH  13  24
TORSDOF 9
ENDMDL
MODEL 4
REMARK VINA RESULT: -6.977510005      1.444      1.887
REMARK  9 active torsions:
REMARK  status: ('A' for Active; 'I' for Inactive)
REMARK    1  A    between atoms: C2_2  and  S1_3 
REMARK    2  A    between atoms: S1_3  and  C3_4 
REMARK    3  A    between atoms: N2_11  and  N3_12 
REMARK       I    between atoms: N3_12  and  C6_14 
REMARK    4  A    between atoms: C6_14  and  C7_16 
REMARK    5  A    between atoms: C7_16  and  O3_17 
REMARK    6  A    between atoms: C9_23  and  C10_24 
REMARK    7  A    between atoms: C10_24  and  O5_25 
REMARK    8  A    between atoms: C10_24  and  N5_27 
REMARK    9  A    between atoms: N5_27  and  N6_29 
ROOT
HETATM    1  C3  UNL     1       1.287   4.387  80.335  1.00  0.00     0.167 C 
HETATM    2  S2  UNL     1      -0.137   3.300  80.829  1.00  0.00    -0.084 SA
HETATM    3  C4  UNL     1       0.468   3.355  82.572  1.00  0.00     0.246 A 
HETATM    4  N1  UNL     1       0.012   4.616  83.095  1.00  0.00    -0.297 N 
ATOM      5  H1  UNL     1       0.172   5.525  82.660  1.00  0.00     0.168 HD
HETATM    6  C5  UNL     1      -0.689   4.406  84.295  1.00  0.00     0.347 A 
HETATM    7  O1  UNL     1      -1.174   5.292  85.054  1.00  0.00    -0.245 OA
HETATM    8  N2  UNL     1      -0.759   2.981  84.503  1.00  0.00    -0.165 N 
HETATM    9  C8  UNL     1      -0.102   2.344  83.423  1.00  0.00     0.307 A 
HETATM   10  O4  UNL     1      -0.099   1.066  83.346  1.00  0.00    -0.265 OA
HETATM   11  N4  UNL     1       1.870   3.326  82.397  1.00  0.00    -0.345 N 
ATOM     12  H4  UNL     1       2.505   2.971  83.113  1.00  0.00     0.163 HD
HETATM   13  C9  UNL     1       2.330   3.831  81.146  1.00  0.00     0.085 C 
ENDROOT
BRANCH   1  14
HETATM   14  S1  UNL     1       1.449   4.697  78.634  1.00  0.00    -0.147 SA
BRANCH  14  15
HETATM   15  C2  UNL     1       2.538   6.086  78.299  1.00  0.00     0.071 C 
HETATM   16  C1  UNL     1       3.130   6.079  76.912  1.00  0.00     0.016 C 
ENDBRANCH  14  15
ENDBRANCH   1  14
BRANCH   8  17
HETATM   17  N3  UNL     1      -1.386   2.416  85.628  1.00  0.00    -0.255 N 
HETATM   18  C6  UNL     1      -0.681   1.865  86.722  1.00  0.00     0.260 C 
HETATM   19  O2  UNL     1       0.587   1.884  86.662  1.00  0.00    -0.269 OA
ATOM     20  H3  UNL     1      -2.406   2.403  85.655  1.00  0.00     0.191 HD
BRANCH  18  21
HETATM   21  C7  UNL     1      -1.414   1.287  87.887  1.00  0.00     0.268 C 
BRANCH  21  22
HETATM   22  O3  UNL     1      -1.806  -0.001  87.615  1.00  0.00    -0.392 OA
ATOM     23  H3  UNL     1      -1.665  -0.556  88.373  1.00  0.00     0.210 HD
ENDBRANCH  21  22
ENDBRANCH  18  21
ENDBRANCH   8  17
BRANCH  13  24
HETATM   24  C10 UNL     1       3.337   2.914  80.611  1.00  0.00     0.184 C 
BRANCH  24  25
HETATM   25  O5  UNL     1       2.953   1.682  80.429  1.00  0.00    -0.344 OA
ATOM     26  H5  UNL     1       3.299   1.245  79.659  1.00  0.00     0.219 HD
ENDBRANCH  24  25
BRANCH  24  27
HETATM   27  N5  UNL     1       4.672   3.207  80.274  1.00  0.00    -0.218 N 
ATOM     28  H5  UNL     1       5.397   3.156  80.990  1.00  0.00     0.195 HD
BRANCH  27  29
HETATM   29  N6  UNL     1       5.014   3.572  78.955  1.00  0.00    -0.037 N 
HETATM   30  O6  UNL     1       4.493   2.965  78.027  1.00  0.00    -0.516 OA
HETATM   31  O7  UNL     1       5.906   4.569  78.691  1.00  0.00    -0.516 OA
ENDBRANCH  27  29
ENDBRANCH  24  27
ENDBRANCH  13  24
TORSDOF 9
ENDMDL
MODEL 5
REMARK VINA RESULT: -6.963084811      2.797      3.970
REMARK  9 active torsions:
REMARK  status: ('A' for Active; 'I' for Inactive)
REMARK    1  A    between atoms: C2_2  and  S1_3 
REMARK    2  A    between atoms: S1_3  and  C3_4 
REMARK    3  A    between atoms: N2_11  and  N3_12 
REMARK       I    between atoms: N3_12  and  C6_14 
REMARK    4  A    between atoms: C6_14  and  C7_16 
REMARK    5  A    between atoms: C7_16  and  O3_17 
REMARK    6  A    between atoms: C9_23  and  C10_24 
REMARK    7  A    between atoms: C10_24  and  O5_25 
REMARK    8  A    between atoms: C10_24  and  N5_27 
REMARK    9  A    between atoms: N5_27  and  N6_29 
ROOT
HETATM    1  C3  UNL     1       2.303   3.188  80.067  1.00  0.00     0.167 C 
HETATM    2  S2  UNL     1       2.434   3.577  81.879  1.00  0.00    -0.084 SA
HETATM    3  C4  UNL     1       0.671   3.068  82.082  1.00  0.00     0.246 A 
HETATM    4  N1  UNL     1       0.694   1.629  82.134  1.00  0.00    -0.297 N 
ATOM      5  H1  UNL     1       1.136   1.023  81.443  1.00  0.00     0.168 HD
HETATM    6  C5  UNL     1       0.014   1.186  83.281  1.00  0.00     0.347 A 
HETATM    7  O1  UNL     1      -0.214  -0.013  83.611  1.00  0.00    -0.245 OA
HETATM    8  N2  UNL     1      -0.377   2.358  84.025  1.00  0.00    -0.165 N 
HETATM    9  C8  UNL     1       0.074   3.499  83.318  1.00  0.00     0.307 A 
HETATM   10  O4  UNL     1      -0.090   4.664  83.823  1.00  0.00    -0.265 OA
HETATM   11  N4  UNL     1       0.087   3.549  80.889  1.00  0.00    -0.345 N 
ATOM     12  H4  UNL     1      -0.903   3.784  80.819  1.00  0.00     0.163 HD
HETATM   13  C9  UNL     1       0.986   3.682  79.791  1.00  0.00     0.085 C 
ENDROOT
BRANCH   1  14
HETATM   14  S1  UNL     1       3.699   3.573  79.108  1.00  0.00    -0.147 SA
BRANCH  14  15
HETATM   15  C2  UNL     1       5.097   4.077  80.119  1.00  0.00     0.071 C 
HETATM   16  C1  UNL     1       6.362   4.323  79.334  1.00  0.00     0.016 C 
ENDBRANCH  14  15
ENDBRANCH   1  14
BRANCH   8  17
HETATM   17  N3  UNL     1      -1.095   2.278  85.231  1.00  0.00    -0.255 N 
HETATM   18  C6  UNL     1      -0.489   2.046  86.487  1.00  0.00     0.260 C 
HETATM   19  O2  UNL     1       0.772   1.898  86.503  1.00  0.00    -0.269 OA
ATOM     20  H3  UNL     1      -2.108   2.393  85.198  1.00  0.00     0.191 HD
BRANCH  18  21
HETATM   21  C7  UNL     1      -1.314   1.980  87.730  1.00  0.00     0.268 C 
BRANCH  21  22
HETATM   22  O3  UNL     1      -1.454   0.678  88.142  1.00  0.00    -0.392 OA
ATOM     23  H3  UNL     1      -2.373   0.440  88.176  1.00  0.00     0.210 HD
ENDBRANCH  21  22
ENDBRANCH  18  21
ENDBRANCH   8  17
BRANCH  13  24
HETATM   24  C10 UNL     1       0.750   4.972  79.143  1.00  0.00     0.184 C 
BRANCH  24  25
HETATM   25  O5  UNL     1       0.801   4.979  77.841  1.00  0.00    -0.344 OA
ATOM     26  H5  UNL     1       0.764   5.833  77.425  1.00  0.00     0.219 HD
ENDBRANCH  24  25
BRANCH  24  27
HETATM   27  N5  UNL     1       0.478   6.206  79.763  1.00  0.00    -0.218 N 
ATOM     28  H5  UNL     1       1.250   6.813  80.043  1.00  0.00     0.195 HD
BRANCH  27  29
HETATM   29  N6  UNL     1      -0.853   6.612  80.000  1.00  0.00    -0.037 N 
HETATM   30  O6  UNL     1      -1.483   7.116  79.078  1.00  0.00    -0.516 OA
HETATM   31  O7  UNL     1      -1.446   6.463  81.219  1.00  0.00    -0.516 OA
ENDBRANCH  27  29
ENDBRANCH  24  27
ENDBRANCH  13  24
TORSDOF 9
ENDMDL
