MODEL 1
REMARK VINA RESULT: -8.361962799      0.000      0.000
REMARK  7 active torsions:
REMARK  status: ('A' for Active; 'I' for Inactive)
REMARK    1  A    between atoms: N2_5  and  C3_6 
REMARK    2  A    between atoms: C3_6  and  C4_7 
REMARK       I    between atoms: C4_7  and  N3_9 
REMARK    3  A    between atoms: N3_9  and  C5_10 
REMARK    4  A    between atoms: C5_10  and  C6_11 
REMARK    5  A    between atoms: C6_11  and  O3_12 
REMARK    6  A    between atoms: C10_23  and  C11_24 
REMARK       I    between atoms: C11_24  and  N6_26 
REMARK    7  A    between atoms: N6_26  and  C12_28 
ROOT
HETATM    1  C1  UNL     1       1.595   5.078  83.678  1.00  0.00     0.161 C 
HETATM    2  N1  UNL     1       1.741   4.246  82.507  1.00  0.00    -0.299 N 
HETATM    3  C2  UNL     1       2.889   4.437  81.761  1.00  0.00     0.336 A 
HETATM    4  O1  UNL     1       3.453   5.557  81.918  1.00  0.00    -0.246 OA
HETATM    5  N2  UNL     1       3.450   3.550  80.927  1.00  0.00    -0.232 N 
HETATM    6  C7  UNL     1       2.817   2.360  80.806  1.00  0.00     0.285 A 
HETATM    7  O4  UNL     1       3.266   1.461  80.033  1.00  0.00    -0.265 OA
HETATM    8  C8  UNL     1       1.689   2.122  81.500  1.00  0.00     0.135 A 
HETATM    9  N4  UNL     1       1.128   0.880  81.454  1.00  0.00    -0.302 N 
ATOM     10  H4  UNL     1       1.550   0.194  80.828  1.00  0.00     0.171 HD
HETATM   11  C9  UNL     1       0.075   0.498  82.162  1.00  0.00     0.325 A 
HETATM   12  O5  UNL     1      -0.449  -0.614  82.162  1.00  0.00    -0.247 OA
HETATM   13  N5  UNL     1      -0.503   1.477  83.017  1.00  0.00    -0.302 N 
ATOM     14  H5  UNL     1      -1.318   1.287  83.601  1.00  0.00     0.171 HD
HETATM   15  C10 UNL     1       0.081   2.611  82.993  1.00  0.00     0.135 A 
HETATM   16  C13 UNL     1       1.099   3.083  82.381  1.00  0.00     0.103 A 
ENDROOT
BRANCH  15  17
HETATM   17  C11 UNL     1      -0.793   3.800  83.980  1.00  0.00     0.289 C 
HETATM   18  O6  UNL     1      -1.204   4.231  82.945  1.00  0.00    -0.265 OA
HETATM   19  N6  UNL     1      -0.300   3.262  85.042  1.00  0.00    -0.151 N 
ATOM     20  H6  UNL     1       0.626   3.618  85.280  1.00  0.00     0.188 HD
BRANCH  19  21
HETATM   21  C12 UNL     1      -0.723   2.379  85.857  1.00  0.00     0.716 A 
HETATM   22  N7  UNL     1      -1.921   2.465  86.445  1.00  0.00    -0.115 N 
HETATM   23  N8  UNL     1      -1.997   1.385  87.240  1.00  0.00    -0.213 N 
ATOM     24  H7  UNL     1      -2.625   3.192  86.318  1.00  0.00     0.207 HD
HETATM   25  N9  UNL     1      -0.927   0.642  87.170  1.00  0.00    -0.213 N 
ATOM     26  H8  UNL     1      -2.800   1.169  87.831  1.00  0.00     0.210 HD
HETATM   27  N10 UNL     1      -0.155   1.274  86.306  1.00  0.00    -0.115 N 
ATOM     28  H9  UNL     1      -0.731  -0.227  87.667  1.00  0.00     0.210 HD
ATOM     29  H10 UNL     1       0.769   0.948  86.020  1.00  0.00     0.207 HD
ENDBRANCH  19  21
ENDBRANCH  15  17
BRANCH   5  30
HETATM   30  C3  UNL     1       4.623   3.735  80.187  1.00  0.00     0.194 C 
BRANCH  30  31
HETATM   31  C4  UNL     1       4.462   3.941  78.665  1.00  0.00     0.327 C 
HETATM   32  O2  UNL     1       5.301   3.300  78.004  1.00  0.00    -0.251 OA
HETATM   33  N3  UNL     1       3.480   4.764  78.314  1.00  0.00    -0.409 NA
BRANCH  33  34
HETATM   34  C5  UNL     1       2.441   5.637  77.923  1.00  0.00     0.248 C 
BRANCH  34  35
HETATM   35  C6  UNL     1       1.179   5.465  78.731  1.00  0.00     0.197 C 
BRANCH  35  36
HETATM   36  O3  UNL     1       0.787   4.140  78.648  1.00  0.00    -0.398 OA
ATOM     37  H3  UNL     1       0.116   4.068  77.980  1.00  0.00     0.209 HD
ENDBRANCH  35  36
ENDBRANCH  34  35
ENDBRANCH  33  34
ENDBRANCH  30  31
ENDBRANCH   5  30
TORSDOF 7
ENDMDL
MODEL 2
REMARK VINA RESULT: -8.249920682      1.383      1.785
REMARK  7 active torsions:
REMARK  status: ('A' for Active; 'I' for Inactive)
REMARK    1  A    between atoms: N2_5  and  C3_6 
REMARK    2  A    between atoms: C3_6  and  C4_7 
REMARK       I    between atoms: C4_7  and  N3_9 
REMARK    3  A    between atoms: N3_9  and  C5_10 
REMARK    4  A    between atoms: C5_10  and  C6_11 
REMARK    5  A    between atoms: C6_11  and  O3_12 
REMARK    6  A    between atoms: C10_23  and  C11_24 
REMARK       I    between atoms: C11_24  and  N6_26 
REMARK    7  A    between atoms: N6_26  and  C12_28 
ROOT
HETATM    1  C1  UNL     1       0.747   5.603  84.700  1.00  0.00     0.161 C 
HETATM    2  N1  UNL     1       1.169   4.945  83.487  1.00  0.00    -0.299 N 
HETATM    3  C2  UNL     1       2.386   5.346  82.966  1.00  0.00     0.336 A 
HETATM    4  O1  UNL     1       2.779   6.489  83.334  1.00  0.00    -0.246 OA
HETATM    5  N2  UNL     1       3.170   4.633  82.145  1.00  0.00    -0.232 N 
HETATM    6  C7  UNL     1       2.713   3.410  81.793  1.00  0.00     0.285 A 
HETATM    7  O4  UNL     1       3.381   2.666  81.012  1.00  0.00    -0.265 OA
HETATM    8  C8  UNL     1       1.530   2.971  82.261  1.00  0.00     0.135 A 
HETATM    9  N4  UNL     1       1.138   1.693  81.989  1.00  0.00    -0.302 N 
ATOM     10  H4  UNL     1       1.730   1.139  81.371  1.00  0.00     0.171 HD
HETATM   11  C9  UNL     1       0.044   1.119  82.468  1.00  0.00     0.325 A 
HETATM   12  O5  UNL     1      -0.335  -0.032  82.262  1.00  0.00    -0.247 OA
HETATM   13  N5  UNL     1      -0.772   1.917  83.317  1.00  0.00    -0.302 N 
ATOM     14  H5  UNL     1      -1.637   1.573  83.734  1.00  0.00     0.171 HD
HETATM   15  C10 UNL     1      -0.334   3.099  83.512  1.00  0.00     0.135 A 
HETATM   16  C13 UNL     1       0.700   3.748  83.131  1.00  0.00     0.103 A 
ENDROOT
BRANCH  15  17
HETATM   17  C11 UNL     1      -1.486   4.059  84.463  1.00  0.00     0.289 C 
HETATM   18  O6  UNL     1      -1.872   4.479  83.415  1.00  0.00    -0.265 OA
HETATM   19  N6  UNL     1      -1.003   3.544  85.542  1.00  0.00    -0.151 N 
ATOM     20  H6  UNL     1      -0.179   4.035  85.887  1.00  0.00     0.188 HD
BRANCH  19  21
HETATM   21  C12 UNL     1      -1.337   2.552  86.269  1.00  0.00     0.716 A 
HETATM   22  N7  UNL     1      -2.567   2.421  86.777  1.00  0.00    -0.115 N 
HETATM   23  N8  UNL     1      -2.527   1.285  87.494  1.00  0.00    -0.213 N 
ATOM     24  H7  UNL     1      -3.362   3.046  86.649  1.00  0.00     0.207 HD
HETATM   25  N9  UNL     1      -1.356   0.712  87.450  1.00  0.00    -0.213 N 
ATOM     26  H8  UNL     1      -3.322   0.913  88.014  1.00  0.00     0.210 HD
HETATM   27  N10 UNL     1      -0.638   1.511  86.684  1.00  0.00    -0.115 N 
ATOM     28  H9  UNL     1      -1.063  -0.153  87.904  1.00  0.00     0.210 HD
ATOM     29  H10 UNL     1       0.339   1.344  86.442  1.00  0.00     0.207 HD
ENDBRANCH  19  21
ENDBRANCH  15  17
BRANCH   5  30
HETATM   30  C3  UNL     1       4.411   5.030  81.634  1.00  0.00     0.194 C 
BRANCH  30  31
HETATM   31  C4  UNL     1       4.391   5.971  80.408  1.00  0.00     0.327 C 
HETATM   32  O2  UNL     1       4.644   7.153  80.710  1.00  0.00    -0.251 OA
HETATM   33  N3  UNL     1       4.100   5.379  79.256  1.00  0.00    -0.409 NA
BRANCH  33  34
HETATM   34  C5  UNL     1       3.792   4.767  78.021  1.00  0.00     0.248 C 
BRANCH  34  35
HETATM   35  C6  UNL     1       4.541   3.479  77.788  1.00  0.00     0.197 C 
BRANCH  35  36
HETATM   36  O3  UNL     1       3.704   2.425  78.113  1.00  0.00    -0.398 OA
ATOM     37  H3  UNL     1       3.358   2.059  77.308  1.00  0.00     0.209 HD
ENDBRANCH  35  36
ENDBRANCH  34  35
ENDBRANCH  33  34
ENDBRANCH  30  31
ENDBRANCH   5  30
TORSDOF 7
ENDMDL
MODEL 3
REMARK VINA RESULT: -8.159334397      1.720      2.510
REMARK  7 active torsions:
REMARK  status: ('A' for Active; 'I' for Inactive)
REMARK    1  A    between atoms: N2_5  and  C3_6 
REMARK    2  A    between atoms: C3_6  and  C4_7 
REMARK       I    between atoms: C4_7  and  N3_9 
REMARK    3  A    between atoms: N3_9  and  C5_10 
REMARK    4  A    between atoms: C5_10  and  C6_11 
REMARK    5  A    between atoms: C6_11  and  O3_12 
REMARK    6  A    between atoms: C10_23  and  C11_24 
REMARK       I    between atoms: C11_24  and  N6_26 
REMARK    7  A    between atoms: N6_26  and  C12_28 
ROOT
HETATM    1  C1  UNL     1       2.215   4.901  83.619  1.00  0.00     0.161 C 
HETATM    2  N1  UNL     1       2.222   4.339  82.289  1.00  0.00    -0.299 N 
HETATM    3  C2  UNL     1       3.428   4.385  81.613  1.00  0.00     0.336 A 
HETATM    4  O1  UNL     1       4.244   5.256  82.026  1.00  0.00    -0.246 OA
HETATM    5  N2  UNL     1       3.798   3.589  80.600  1.00  0.00    -0.232 N 
HETATM    6  C7  UNL     1       2.895   2.662  80.206  1.00  0.00     0.285 A 
HETATM    7  O4  UNL     1       3.152   1.870  79.249  1.00  0.00    -0.265 OA
HETATM    8  C8  UNL     1       1.702   2.579  80.820  1.00  0.00     0.135 A 
HETATM    9  N4  UNL     1       0.849   1.567  80.487  1.00  0.00    -0.302 N 
ATOM     10  H4  UNL     1       1.124   0.951  79.722  1.00  0.00     0.171 HD
HETATM   11  C9  UNL     1      -0.310   1.326  81.083  1.00  0.00     0.325 A 
HETATM   12  O5  UNL     1      -1.096   0.418  80.825  1.00  0.00    -0.247 OA
HETATM   13  N5  UNL     1      -0.676   2.208  82.137  1.00  0.00    -0.302 N 
ATOM     14  H5  UNL     1      -1.548   2.114  82.658  1.00  0.00     0.171 HD
HETATM   15  C10 UNL     1       0.175   3.127  82.378  1.00  0.00     0.135 A 
HETATM   16  C13 UNL     1       1.317   3.442  81.895  1.00  0.00     0.103 A 
ENDROOT
BRANCH  15  17
HETATM   17  C11 UNL     1      -0.432   4.256  83.607  1.00  0.00     0.289 C 
HETATM   18  O6  UNL     1      -0.908   4.861  82.694  1.00  0.00    -0.265 OA
HETATM   19  N6  UNL     1       0.115   3.532  84.522  1.00  0.00    -0.151 N 
ATOM     20  H6  UNL     1       1.098   3.758  84.678  1.00  0.00     0.188 HD
BRANCH  19  21
HETATM   21  C12 UNL     1      -0.309   2.596  85.273  1.00  0.00     0.716 A 
HETATM   22  N7  UNL     1      -1.425   2.713  86.001  1.00  0.00    -0.115 N 
HETATM   23  N8  UNL     1      -1.529   1.552  86.669  1.00  0.00    -0.213 N 
ATOM     24  H7  UNL     1      -2.059   3.511  86.041  1.00  0.00     0.207 HD
HETATM   25  N9  UNL     1      -0.554   0.732  86.391  1.00  0.00    -0.213 N 
ATOM     26  H8  UNL     1      -2.284   1.336  87.320  1.00  0.00     0.210 HD
HETATM   27  N10 UNL     1       0.185   1.396  85.523  1.00  0.00    -0.115 N 
ATOM     28  H9  UNL     1      -0.399  -0.207  86.759  1.00  0.00     0.210 HD
ATOM     29  H10 UNL     1       1.036   1.028  85.096  1.00  0.00     0.207 HD
ENDBRANCH  19  21
ENDBRANCH  15  17
BRANCH   5  30
HETATM   30  C3  UNL     1       5.026   3.620  79.928  1.00  0.00     0.194 C 
BRANCH  30  31
HETATM   31  C4  UNL     1       5.483   4.989  79.376  1.00  0.00     0.327 C 
HETATM   32  O2  UNL     1       4.736   5.412  78.473  1.00  0.00    -0.251 OA
HETATM   33  N3  UNL     1       6.584   5.476  79.935  1.00  0.00    -0.409 NA
BRANCH  33  34
HETATM   34  C5  UNL     1       7.755   6.010  80.517  1.00  0.00     0.248 C 
BRANCH  34  35
HETATM   35  C6  UNL     1       7.733   5.997  82.025  1.00  0.00     0.197 C 
BRANCH  35  36
HETATM   36  O3  UNL     1       7.138   4.818  82.441  1.00  0.00    -0.398 OA
ATOM     37  H3  UNL     1       7.376   4.668  83.348  1.00  0.00     0.209 HD
ENDBRANCH  35  36
ENDBRANCH  34  35
ENDBRANCH  33  34
ENDBRANCH  30  31
ENDBRANCH   5  30
TORSDOF 7
ENDMDL
MODEL 4
REMARK VINA RESULT: -8.091673972      2.181      5.769
REMARK  7 active torsions:
REMARK  status: ('A' for Active; 'I' for Inactive)
REMARK    1  A    between atoms: N2_5  and  C3_6 
REMARK    2  A    between atoms: C3_6  and  C4_7 
REMARK       I    between atoms: C4_7  and  N3_9 
REMARK    3  A    between atoms: N3_9  and  C5_10 
REMARK    4  A    between atoms: C5_10  and  C6_11 
REMARK    5  A    between atoms: C6_11  and  O3_12 
REMARK    6  A    between atoms: C10_23  and  C11_24 
REMARK       I    between atoms: C11_24  and  N6_26 
REMARK    7  A    between atoms: N6_26  and  C12_28 
ROOT
HETATM    1  C1  UNL     1       0.165   5.599  80.759  1.00  0.00     0.161 C 
HETATM    2  N1  UNL     1       0.928   4.380  80.881  1.00  0.00    -0.299 N 
HETATM    3  C2  UNL     1       0.197   3.217  81.048  1.00  0.00     0.336 A 
HETATM    4  O1  UNL     1      -0.975   3.376  81.493  1.00  0.00    -0.246 OA
HETATM    5  N2  UNL     1       0.611   1.974  80.763  1.00  0.00    -0.232 N 
HETATM    6  C7  UNL     1       1.867   1.858  80.275  1.00  0.00     0.285 A 
HETATM    7  O4  UNL     1       2.350   0.721  79.985  1.00  0.00    -0.265 OA
HETATM    8  C8  UNL     1       2.627   2.954  80.102  1.00  0.00     0.135 A 
HETATM    9  N4  UNL     1       3.847   2.833  79.504  1.00  0.00    -0.302 N 
ATOM     10  H4  UNL     1       4.169   1.892  79.275  1.00  0.00     0.171 HD
HETATM   11  C9  UNL     1       4.644   3.845  79.196  1.00  0.00     0.325 A 
HETATM   12  O5  UNL     1       5.739   3.779  78.642  1.00  0.00    -0.247 OA
HETATM   13  N5  UNL     1       4.178   5.145  79.536  1.00  0.00    -0.302 N 
ATOM     14  H5  UNL     1       4.716   5.991  79.347  1.00  0.00     0.171 HD
HETATM   15  C10 UNL     1       3.032   5.166  80.097  1.00  0.00     0.135 A 
HETATM   16  C13 UNL     1       2.174   4.275  80.419  1.00  0.00     0.103 A 
ENDROOT
BRANCH  15  17
HETATM   17  C11 UNL     1       2.602   6.811  80.608  1.00  0.00     0.289 C 
HETATM   18  O6  UNL     1       2.075   6.914  79.542  1.00  0.00    -0.265 OA
HETATM   19  N6  UNL     1       3.193   6.601  81.734  1.00  0.00    -0.151 N 
ATOM     20  H6  UNL     1       4.196   6.783  81.701  1.00  0.00     0.188 HD
BRANCH  19  21
HETATM   21  C12 UNL     1       2.792   6.215  82.880  1.00  0.00     0.716 A 
HETATM   22  N7  UNL     1       1.901   6.910  83.597  1.00  0.00    -0.115 N 
HETATM   23  N8  UNL     1       1.751   6.212  84.735  1.00  0.00    -0.213 N 
ATOM     24  H7  UNL     1       1.438   7.780  83.336  1.00  0.00     0.207 HD
HETATM   25  N9  UNL     1       2.486   5.134  84.756  1.00  0.00    -0.213 N 
ATOM     26  H8  UNL     1       1.133   6.493  85.496  1.00  0.00     0.210 HD
HETATM   27  N10 UNL     1       3.117   5.154  83.598  1.00  0.00    -0.115 N 
ATOM     28  H9  UNL     1       2.556   4.437  85.497  1.00  0.00     0.210 HD
ATOM     29  H10 UNL     1       3.776   4.438  83.293  1.00  0.00     0.207 HD
ENDBRANCH  19  21
ENDBRANCH  15  17
BRANCH   5  30
HETATM   30  C3  UNL     1      -0.135   0.799  80.912  1.00  0.00     0.194 C 
BRANCH  30  31
HETATM   31  C4  UNL     1      -0.003   0.056  82.260  1.00  0.00     0.327 C 
HETATM   32  O2  UNL     1       0.193  -1.166  82.115  1.00  0.00    -0.251 OA
HETATM   33  N3  UNL     1      -0.130   0.825  83.335  1.00  0.00    -0.409 NA
BRANCH  33  34
HETATM   34  C5  UNL     1      -0.263   1.627  84.490  1.00  0.00     0.248 C 
BRANCH  34  35
HETATM   35  C6  UNL     1      -0.370   0.829  85.765  1.00  0.00     0.197 C 
BRANCH  35  36
HETATM   36  O3  UNL     1       0.614   1.266  86.635  1.00  0.00    -0.398 OA
ATOM     37  H3  UNL     1       0.610   0.700  87.398  1.00  0.00     0.209 HD
ENDBRANCH  35  36
ENDBRANCH  34  35
ENDBRANCH  33  34
ENDBRANCH  30  31
ENDBRANCH   5  30
TORSDOF 7
ENDMDL
MODEL 5
REMARK VINA RESULT: -8.050295974      1.456      2.171
REMARK  7 active torsions:
REMARK  status: ('A' for Active; 'I' for Inactive)
REMARK    1  A    between atoms: N2_5  and  C3_6 
REMARK    2  A    between atoms: C3_6  and  C4_7 
REMARK       I    between atoms: C4_7  and  N3_9 
REMARK    3  A    between atoms: N3_9  and  C5_10 
REMARK    4  A    between atoms: C5_10  and  C6_11 
REMARK    5  A    between atoms: C6_11  and  O3_12 
REMARK    6  A    between atoms: C10_23  and  C11_24 
REMARK       I    between atoms: C11_24  and  N6_26 
REMARK    7  A    between atoms: N6_26  and  C12_28 
ROOT
HETATM    1  C1  UNL     1       1.906   5.211  83.016  1.00  0.00     0.161 C 
HETATM    2  N1  UNL     1       1.885   4.356  81.854  1.00  0.00    -0.299 N 
HETATM    3  C2  UNL     1       2.955   4.478  80.986  1.00  0.00     0.336 A 
HETATM    4  O1  UNL     1       3.586   5.570  81.060  1.00  0.00    -0.246 OA
HETATM    5  N2  UNL     1       3.379   3.551  80.115  1.00  0.00    -0.232 N 
HETATM    6  C7  UNL     1       2.680   2.394  80.086  1.00  0.00     0.285 A 
HETATM    7  O4  UNL     1       3.000   1.461  79.288  1.00  0.00    -0.265 OA
HETATM    8  C8  UNL     1       1.623   2.223  80.900  1.00  0.00     0.135 A 
HETATM    9  N4  UNL     1       1.000   1.010  80.939  1.00  0.00    -0.302 N 
ATOM     10  H4  UNL     1       1.319   0.294  80.286  1.00  0.00     0.171 HD
HETATM   11  C9  UNL     1       0.012   0.692  81.763  1.00  0.00     0.325 A 
HETATM   12  O5  UNL     1      -0.562  -0.392  81.841  1.00  0.00    -0.247 OA
HETATM   13  N5  UNL     1      -0.423   1.711  82.655  1.00  0.00    -0.302 N 
ATOM     14  H5  UNL     1      -1.179   1.571  83.326  1.00  0.00     0.171 HD
HETATM   15  C10 UNL     1       0.210   2.814  82.546  1.00  0.00     0.135 A 
HETATM   16  C13 UNL     1       1.177   3.226  81.819  1.00  0.00     0.103 A 
ENDROOT
BRANCH  15  17
HETATM   17  C11 UNL     1      -0.495   4.060  83.596  1.00  0.00     0.289 C 
HETATM   18  O6  UNL     1      -0.988   4.500  82.601  1.00  0.00    -0.265 OA
HETATM   19  N6  UNL     1       0.076   3.509  84.611  1.00  0.00    -0.151 N 
ATOM     20  H6  UNL     1       1.039   3.818  84.747  1.00  0.00     0.188 HD
BRANCH  19  21
HETATM   21  C12 UNL     1      -0.306   2.660  85.481  1.00  0.00     0.716 A 
HETATM   22  N7  UNL     1      -1.524   2.701  86.033  1.00  0.00    -0.115 N 
HETATM   23  N8  UNL     1      -1.544   1.679  86.904  1.00  0.00    -0.213 N 
ATOM     24  H7  UNL     1      -2.274   3.363  85.834  1.00  0.00     0.207 HD
HETATM   25  N9  UNL     1      -0.422   1.014  86.916  1.00  0.00    -0.213 N 
ATOM     26  H8  UNL     1      -2.346   1.449  87.491  1.00  0.00     0.210 HD
HETATM   27  N10 UNL     1       0.327   1.636  86.025  1.00  0.00    -0.115 N 
ATOM     28  H9  UNL     1      -0.179   0.201  87.482  1.00  0.00     0.210 HD
ATOM     29  H10 UNL     1       1.279   1.359  85.786  1.00  0.00     0.207 HD
ENDBRANCH  19  21
ENDBRANCH  15  17
BRANCH   5  30
HETATM   30  C3  UNL     1       4.474   3.667  79.251  1.00  0.00     0.194 C 
BRANCH  30  31
HETATM   31  C4  UNL     1       4.194   4.234  77.843  1.00  0.00     0.327 C 
HETATM   32  O2  UNL     1       2.996   4.537  77.680  1.00  0.00    -0.251 OA
HETATM   33  N3  UNL     1       5.253   4.295  77.044  1.00  0.00    -0.409 NA
BRANCH  33  34
HETATM   34  C5  UNL     1       6.368   4.367  76.181  1.00  0.00     0.248 C 
BRANCH  34  35
HETATM   35  C6  UNL     1       6.106   3.783  74.815  1.00  0.00     0.197 C 
BRANCH  35  36
HETATM   36  O3  UNL     1       6.607   2.493  74.790  1.00  0.00    -0.398 OA
ATOM     37  H3  UNL     1       6.004   1.929  75.260  1.00  0.00     0.209 HD
ENDBRANCH  35  36
ENDBRANCH  34  35
ENDBRANCH  33  34
ENDBRANCH  30  31
ENDBRANCH   5  30
TORSDOF 7
ENDMDL
