MODEL 1
REMARK VINA RESULT: -8.135457820      0.000      0.000
REMARK  6 active torsions:
REMARK  status: ('A' for Active; 'I' for Inactive)
REMARK    1  A    between atoms: N1_2  and  C3_4 
REMARK    2  A    between atoms: N3_14  and  C8_16 
REMARK    3  A    between atoms: C8_16  and  C9_17 
REMARK    4  A    between atoms: C9_17  and  N4_18 
REMARK    5  A    between atoms: N8_29  and  N9_31 
REMARK       I    between atoms: C14_33  and  N11_35 
REMARK    6  A    between atoms: N11_35  and  N12_37 
ROOT
HETATM    1  C8  UNL     1       0.230   2.987  80.417  1.00  0.00     0.115 C 
HETATM    2  N8  UNL     1       0.813   1.907  80.043  1.00  0.00    -0.285 N 
ATOM      3  H8  UNL     1       1.479   1.935  79.271  1.00  0.00     0.188 HD
ENDROOT
BRANCH   1   4
HETATM    4  N3  UNL     1       0.482   4.222  79.789  1.00  0.00    -0.326 N 
HETATM    5  C7  UNL     1       1.472   4.492  79.044  1.00  0.00     0.160 C 
HETATM    6  C5  UNL     1       1.680   5.838  78.405  1.00  0.00     0.334 C 
HETATM    7  O2  UNL     1       2.568   3.770  78.601  1.00  0.00    -0.301 OA
HETATM    8  C4  UNL     1       2.898   6.455  78.929  1.00  0.00     0.192 C 
HETATM    9  N2  UNL     1       2.172   5.343  77.099  1.00  0.00    -0.027 N 
HETATM   10  C3  UNL     1       4.036   5.709  78.339  1.00  0.00     0.208 C 
HETATM   11  O1  UNL     1       2.966   7.382  79.687  1.00  0.00    -0.293 OA
HETATM   12  C6  UNL     1       3.281   4.552  77.674  1.00  0.00     0.359 C 
ATOM     13  H22 UNL     1       1.509   4.863  76.489  1.00  0.00     0.281 HD
ATOM     14  H21 UNL     1       2.397   6.032  76.381  1.00  0.00     0.281 HD
ATOM     15  H3  UNL     1      -0.194   4.969  79.949  1.00  0.00     0.169 HD
BRANCH  10  16
HETATM   16  N1  UNL     1       5.050   5.314  79.220  1.00  0.00    -0.407 N 
HETATM   17  C1  UNL     1       4.755   5.011  80.558  1.00  0.00     0.143 C 
HETATM   18  C2  UNL     1       6.261   4.802  78.676  1.00  0.00     0.143 C 
ENDBRANCH  10  16
ENDBRANCH   1   4
BRANCH   1  19
HETATM   19  C9  UNL     1      -0.740   2.938  81.540  1.00  0.00     0.199 C 
BRANCH  19  20
HETATM   20  N4  UNL     1      -0.245   3.603  82.714  1.00  0.00    -0.369 N 
HETATM   21  C10 UNL     1      -0.087   3.095  83.868  1.00  0.00     0.105 A 
HETATM   22  C11 UNL     1      -0.396   1.776  84.126  1.00  0.00     0.093 A 
HETATM   23  N7  UNL     1       0.388   3.832  84.885  1.00  0.00    -0.339 N 
HETATM   24  C12 UNL     1      -0.209   1.260  85.403  1.00  0.00     0.120 A 
HETATM   25  N5  UNL     1      -0.521  -0.111  85.708  1.00  0.00    -0.083 NA
HETATM   26  N6  UNL     1       0.272   2.053  86.378  1.00  0.00    -0.341 N 
HETATM   27  C13 UNL     1       0.572   3.350  86.115  1.00  0.00     0.183 A 
ATOM     28  H6  UNL     1       0.411   1.679  87.317  1.00  0.00     0.167 HD
ATOM     29  H7  UNL     1       0.620   4.809  84.708  1.00  0.00     0.168 HD
ATOM     30  H4  UNL     1       0.007   4.586  82.610  1.00  0.00     0.161 HD
ENDBRANCH  19  20
ENDBRANCH   1  19
BRANCH   2  31
HETATM   31  N9  UNL     1       0.548   0.699  80.680  1.00  0.00    -0.271 N 
HETATM   32  C14 UNL     1       1.465  -0.001  81.226  1.00  0.00     0.223 C 
HETATM   33  N10 UNL     1       2.802   0.472  81.183  1.00  0.00    -0.061 NA
HETATM   34  N11 UNL     1       1.139  -1.229  81.862  1.00  0.00    -0.258 N 
ATOM     35  H11 UNL     1       0.343  -1.292  82.495  1.00  0.00     0.191 HD
ATOM     36  H9  UNL     1      -0.414   0.360  80.711  1.00  0.00     0.189 HD
BRANCH  34  37
HETATM   37  N12 UNL     1       1.932  -2.346  81.601  1.00  0.00    -0.247 N 
HETATM   38  N13 UNL     1       1.408  -3.501  81.620  1.00  0.00    -0.331 N 
ATOM     39 2H13 UNL     1       0.413  -3.595  81.826  1.00  0.00     0.178 HD
ATOM     40 1H13 UNL     1       1.987  -4.319  81.430  1.00  0.00     0.178 HD
ATOM     41  H12 UNL     1       2.925  -2.236  81.398  1.00  0.00     0.207 HD
ENDBRANCH  34  37
ENDBRANCH   2  31
TORSDOF 6
ENDMDL
MODEL 2
REMARK VINA RESULT: -8.070686691      2.751      5.017
REMARK  6 active torsions:
REMARK  status: ('A' for Active; 'I' for Inactive)
REMARK    1  A    between atoms: N1_2  and  C3_4 
REMARK    2  A    between atoms: N3_14  and  C8_16 
REMARK    3  A    between atoms: C8_16  and  C9_17 
REMARK    4  A    between atoms: C9_17  and  N4_18 
REMARK    5  A    between atoms: N8_29  and  N9_31 
REMARK       I    between atoms: C14_33  and  N11_35 
REMARK    6  A    between atoms: N11_35  and  N12_37 
ROOT
HETATM    1  C8  UNL     1      -0.094   3.251  83.369  1.00  0.00     0.115 C 
HETATM    2  N8  UNL     1       0.429   2.375  84.146  1.00  0.00    -0.285 N 
ATOM      3  H8  UNL     1       1.094   1.699  83.769  1.00  0.00     0.188 HD
ENDROOT
BRANCH   1   4
HETATM    4  N3  UNL     1       0.224   3.312  81.999  1.00  0.00    -0.326 N 
HETATM    5  C7  UNL     1       1.347   3.033  81.480  1.00  0.00     0.160 C 
HETATM    6  C5  UNL     1       1.618   3.121  80.002  1.00  0.00     0.334 C 
HETATM    7  O2  UNL     1       2.563   2.607  81.990  1.00  0.00    -0.301 OA
HETATM    8  C4  UNL     1       2.627   4.147  79.742  1.00  0.00     0.192 C 
HETATM    9  N2  UNL     1       2.447   1.898  79.898  1.00  0.00    -0.027 N 
HETATM   10  C3  UNL     1       3.921   3.594  80.210  1.00  0.00     0.208 C 
HETATM   11  O1  UNL     1       2.446   5.225  79.247  1.00  0.00    -0.293 OA
HETATM   12  C6  UNL     1       3.430   2.326  80.917  1.00  0.00     0.359 C 
ATOM     13  H22 UNL     1       1.987   0.996  80.027  1.00  0.00     0.281 HD
ATOM     14  H21 UNL     1       2.797   1.636  78.977  1.00  0.00     0.281 HD
ATOM     15  H3  UNL     1      -0.517   3.608  81.364  1.00  0.00     0.169 HD
BRANCH  10  16
HETATM   16  N1  UNL     1       4.711   4.435  81.004  1.00  0.00    -0.407 N 
HETATM   17  C1  UNL     1       6.068   4.630  80.705  1.00  0.00     0.143 C 
HETATM   18  C2  UNL     1       4.064   5.408  81.814  1.00  0.00     0.143 C 
ENDBRANCH  10  16
ENDBRANCH   1   4
BRANCH   1  19
HETATM   19  C9  UNL     1      -1.062   4.230  83.925  1.00  0.00     0.199 C 
BRANCH  19  20
HETATM   20  N4  UNL     1      -0.510   5.554  84.006  1.00  0.00    -0.369 N 
HETATM   21  C10 UNL     1      -0.756   6.531  83.232  1.00  0.00     0.105 A 
HETATM   22  C11 UNL     1      -1.628   6.411  82.171  1.00  0.00     0.093 A 
HETATM   23  N7  UNL     1      -0.168   7.723  83.421  1.00  0.00    -0.339 N 
HETATM   24  C12 UNL     1      -1.868   7.505  81.347  1.00  0.00     0.120 A 
HETATM   25  N5  UNL     1      -2.772   7.416  80.231  1.00  0.00    -0.083 NA
HETATM   26  N6  UNL     1      -1.246   8.673  81.593  1.00  0.00    -0.341 N 
HETATM   27  C13 UNL     1      -0.389   8.781  82.639  1.00  0.00     0.183 A 
ATOM     28  H6  UNL     1      -1.420   9.479  80.992  1.00  0.00     0.167 HD
ATOM     29  H7  UNL     1       0.480   7.826  84.202  1.00  0.00     0.168 HD
ATOM     30  H4  UNL     1       0.148   5.727  84.765  1.00  0.00     0.161 HD
ENDBRANCH  19  20
ENDBRANCH   1  19
BRANCH   2  31
HETATM   31  N9  UNL     1       0.100   2.335  85.497  1.00  0.00    -0.271 N 
HETATM   32  C14 UNL     1      -0.339   1.278  86.062  1.00  0.00     0.223 C 
HETATM   33  N10 UNL     1      -0.495   0.101  85.284  1.00  0.00    -0.061 NA
HETATM   34  N11 UNL     1      -0.661   1.292  87.446  1.00  0.00    -0.258 N 
ATOM     35  H11 UNL     1      -0.026   1.713  88.124  1.00  0.00     0.191 HD
ATOM     36  H9  UNL     1       0.213   3.181  86.056  1.00  0.00     0.189 HD
BRANCH  34  37
HETATM   37  N12 UNL     1      -1.863   0.718  87.857  1.00  0.00    -0.247 N 
HETATM   38  N13 UNL     1      -2.958   1.172  87.406  1.00  0.00    -0.331 N 
ATOM     39 2H13 UNL     1      -2.942   1.951  86.748  1.00  0.00     0.178 HD
ATOM     40 1H13 UNL     1      -3.838   0.752  87.706  1.00  0.00     0.178 HD
ATOM     41  H12 UNL     1      -1.862  -0.061  88.516  1.00  0.00     0.207 HD
ENDBRANCH  34  37
ENDBRANCH   2  31
TORSDOF 6
ENDMDL
MODEL 3
REMARK VINA RESULT: -7.916384552      2.830      4.936
REMARK  6 active torsions:
REMARK  status: ('A' for Active; 'I' for Inactive)
REMARK    1  A    between atoms: N1_2  and  C3_4 
REMARK    2  A    between atoms: N3_14  and  C8_16 
REMARK    3  A    between atoms: C8_16  and  C9_17 
REMARK    4  A    between atoms: C9_17  and  N4_18 
REMARK    5  A    between atoms: N8_29  and  N9_31 
REMARK       I    between atoms: C14_33  and  N11_35 
REMARK    6  A    between atoms: N11_35  and  N12_37 
ROOT
HETATM    1  C8  UNL     1      -0.063   3.364  83.413  1.00  0.00     0.115 C 
HETATM    2  N8  UNL     1       0.366   2.386  84.123  1.00  0.00    -0.285 N 
ATOM      3  H8  UNL     1       0.913   1.646  83.683  1.00  0.00     0.188 HD
ENDROOT
BRANCH   1   4
HETATM    4  N3  UNL     1       0.198   3.450  82.032  1.00  0.00    -0.326 N 
HETATM    5  C7  UNL     1       1.275   3.111  81.454  1.00  0.00     0.160 C 
HETATM    6  C5  UNL     1       1.485   3.231  79.968  1.00  0.00     0.334 C 
HETATM    7  O2  UNL     1       2.479   2.585  81.893  1.00  0.00    -0.301 OA
HETATM    8  C4  UNL     1       2.552   4.192  79.693  1.00  0.00     0.192 C 
HETATM    9  N2  UNL     1       2.220   1.958  79.788  1.00  0.00    -0.027 N 
HETATM   10  C3  UNL     1       3.824   3.535  80.084  1.00  0.00     0.208 C 
HETATM   11  O1  UNL     1       2.427   5.296  79.241  1.00  0.00    -0.293 OA
HETATM   12  C6  UNL     1       3.275   2.281  80.773  1.00  0.00     0.359 C 
ATOM     13  H22 UNL     1       1.704   1.086  79.909  1.00  0.00     0.281 HD
ATOM     14  H21 UNL     1       2.509   1.703  78.844  1.00  0.00     0.281 HD
ATOM     15  H3  UNL     1      -0.547   3.819  81.442  1.00  0.00     0.169 HD
BRANCH  10  16
HETATM   16  N1  UNL     1       4.706   4.291  80.866  1.00  0.00    -0.407 N 
HETATM   17  C1  UNL     1       6.040   4.467  80.469  1.00  0.00     0.143 C 
HETATM   18  C2  UNL     1       4.163   5.221  81.795  1.00  0.00     0.143 C 
ENDBRANCH  10  16
ENDBRANCH   1   4
BRANCH   1  19
HETATM   19  C9  UNL     1      -0.859   4.438  84.060  1.00  0.00     0.199 C 
BRANCH  19  20
HETATM   20  N4  UNL     1      -1.046   5.571  83.196  1.00  0.00    -0.369 N 
HETATM   21  C10 UNL     1      -0.492   6.709  83.301  1.00  0.00     0.105 A 
HETATM   22  C11 UNL     1       0.397   6.990  84.317  1.00  0.00     0.093 A 
HETATM   23  N7  UNL     1      -0.757   7.687  82.419  1.00  0.00    -0.339 N 
HETATM   24  C12 UNL     1       0.980   8.249  84.395  1.00  0.00     0.120 A 
HETATM   25  N5  UNL     1       1.912   8.577  85.442  1.00  0.00    -0.083 NA
HETATM   26  N6  UNL     1       0.672   9.185  83.479  1.00  0.00    -0.341 N 
HETATM   27  C13 UNL     1      -0.205   8.899  82.483  1.00  0.00     0.183 A 
ATOM     28  H6  UNL     1       1.099  10.110  83.532  1.00  0.00     0.167 HD
ATOM     29  H7  UNL     1      -1.413   7.493  81.663  1.00  0.00     0.168 HD
ATOM     30  H4  UNL     1      -1.692   5.447  82.416  1.00  0.00     0.161 HD
ENDBRANCH  19  20
ENDBRANCH   1  19
BRANCH   2  31
HETATM   31  N9  UNL     1       0.096   2.324  85.486  1.00  0.00    -0.271 N 
HETATM   32  C14 UNL     1      -0.346   1.267  86.047  1.00  0.00     0.223 C 
HETATM   33  N10 UNL     1      -0.570   0.113  85.251  1.00  0.00    -0.061 NA
HETATM   34  N11 UNL     1      -0.607   1.258  87.444  1.00  0.00    -0.258 N 
ATOM     35  H11 UNL     1       0.069   1.646  88.102  1.00  0.00     0.191 HD
ATOM     36  H9  UNL     1       0.258   3.154  86.058  1.00  0.00     0.189 HD
BRANCH  34  37
HETATM   37  N12 UNL     1      -1.805   0.707  87.896  1.00  0.00    -0.247 N 
HETATM   38  N13 UNL     1      -2.905   1.150  87.444  1.00  0.00    -0.331 N 
ATOM     39 2H13 UNL     1      -2.895   1.903  86.756  1.00  0.00     0.178 HD
ATOM     40 1H13 UNL     1      -3.782   0.747  87.775  1.00  0.00     0.178 HD
ATOM     41  H12 UNL     1      -1.798  -0.045  88.585  1.00  0.00     0.207 HD
ENDBRANCH  34  37
ENDBRANCH   2  31
TORSDOF 6
ENDMDL
MODEL 4
REMARK VINA RESULT: -7.795472460      1.528      1.683
REMARK  6 active torsions:
REMARK  status: ('A' for Active; 'I' for Inactive)
REMARK    1  A    between atoms: N1_2  and  C3_4 
REMARK    2  A    between atoms: N3_14  and  C8_16 
REMARK    3  A    between atoms: C8_16  and  C9_17 
REMARK    4  A    between atoms: C9_17  and  N4_18 
REMARK    5  A    between atoms: N8_29  and  N9_31 
REMARK       I    between atoms: C14_33  and  N11_35 
REMARK    6  A    between atoms: N11_35  and  N12_37 
ROOT
HETATM    1  C8  UNL     1       0.007   2.759  81.750  1.00  0.00     0.115 C 
HETATM    2  N8  UNL     1      -0.115   1.748  80.970  1.00  0.00    -0.285 N 
ATOM      3  H8  UNL     1      -0.251   1.896  79.969  1.00  0.00     0.188 HD
ENDROOT
BRANCH   1   4
HETATM    4  N3  UNL     1      -0.041   4.080  81.265  1.00  0.00    -0.326 N 
HETATM    5  C7  UNL     1       0.506   4.506  80.203  1.00  0.00     0.160 C 
HETATM    6  C5  UNL     1       0.413   5.937  79.745  1.00  0.00     0.334 C 
HETATM    7  O2  UNL     1       1.275   3.916  79.214  1.00  0.00    -0.301 OA
HETATM    8  C4  UNL     1       1.742   6.547  79.750  1.00  0.00     0.192 C 
HETATM    9  N2  UNL     1       0.255   5.653  78.300  1.00  0.00    -0.027 N 
HETATM   10  C3  UNL     1       2.483   5.956  78.608  1.00  0.00     0.208 C 
HETATM   11  O1  UNL     1       2.156   7.365  80.524  1.00  0.00    -0.293 OA
HETATM   12  C6  UNL     1       1.498   4.858  78.192  1.00  0.00     0.359 C 
ATOM     13  H22 UNL     1      -0.616   5.222  77.990  1.00  0.00     0.281 HD
ATOM     14  H21 UNL     1       0.137   6.444  77.668  1.00  0.00     0.281 HD
ATOM     15  H3  UNL     1      -0.564   4.758  81.820  1.00  0.00     0.169 HD
BRANCH  10  16
HETATM   16  N1  UNL     1       3.782   5.505  78.870  1.00  0.00    -0.407 N 
HETATM   17  C1  UNL     1       4.147   5.088  80.160  1.00  0.00     0.143 C 
HETATM   18  C2  UNL     1       4.579   5.059  77.780  1.00  0.00     0.143 C 
ENDBRANCH  10  16
ENDBRANCH   1   4
BRANCH   1  19
HETATM   19  C9  UNL     1       0.202   2.535  83.204  1.00  0.00     0.199 C 
BRANCH  19  20
HETATM   20  N4  UNL     1      -0.639   3.385  84.002  1.00  0.00    -0.369 N 
HETATM   21  C10 UNL     1      -1.185   3.091  85.111  1.00  0.00     0.105 A 
HETATM   22  C11 UNL     1      -1.018   1.854  85.695  1.00  0.00     0.093 A 
HETATM   23  N7  UNL     1      -1.953   3.984  85.758  1.00  0.00    -0.339 N 
HETATM   24  C12 UNL     1      -1.635   1.574  86.909  1.00  0.00     0.120 A 
HETATM   25  N5  UNL     1      -1.482   0.293  87.547  1.00  0.00    -0.083 NA
HETATM   26  N6  UNL     1      -2.390   2.514  87.505  1.00  0.00    -0.341 N 
HETATM   27  C13 UNL     1      -2.550   3.729  86.922  1.00  0.00     0.183 A 
ATOM     28  H6  UNL     1      -2.844   2.313  88.396  1.00  0.00     0.167 HD
ATOM     29  H7  UNL     1      -2.085   4.904  85.337  1.00  0.00     0.168 HD
ATOM     30  H4  UNL     1      -0.815   4.322  83.640  1.00  0.00     0.161 HD
ENDBRANCH  19  20
ENDBRANCH   1  19
BRANCH   2  31
HETATM   31  N9  UNL     1      -0.063   0.452  81.472  1.00  0.00    -0.271 N 
HETATM   32  C14 UNL     1       1.024  -0.215  81.530  1.00  0.00     0.223 C 
HETATM   33  N10 UNL     1       2.222   0.389  81.068  1.00  0.00    -0.061 NA
HETATM   34  N11 UNL     1       1.020  -1.537  82.052  1.00  0.00    -0.258 N 
ATOM     35  H11 UNL     1       0.527  -1.753  82.918  1.00  0.00     0.191 HD
ATOM     36  H9  UNL     1      -0.925   0.019  81.805  1.00  0.00     0.189 HD
BRANCH  34  37
HETATM   37  N12 UNL     1       1.705  -2.531  81.355  1.00  0.00    -0.247 N 
HETATM   38  N13 UNL     1       1.424  -3.749  81.568  1.00  0.00    -0.331 N 
ATOM     39 2H13 UNL     1       0.700  -3.983  82.248  1.00  0.00     0.178 HD
ATOM     40 1H13 UNL     1       1.925  -4.477  81.058  1.00  0.00     0.178 HD
ATOM     41  H12 UNL     1       2.427  -2.280  80.678  1.00  0.00     0.207 HD
ENDBRANCH  34  37
ENDBRANCH   2  31
TORSDOF 6
ENDMDL
MODEL 5
REMARK VINA RESULT: -7.788738007      1.995      2.583
REMARK  6 active torsions:
REMARK  status: ('A' for Active; 'I' for Inactive)
REMARK    1  A    between atoms: N1_2  and  C3_4 
REMARK    2  A    between atoms: N3_14  and  C8_16 
REMARK    3  A    between atoms: C8_16  and  C9_17 
REMARK    4  A    between atoms: C9_17  and  N4_18 
REMARK    5  A    between atoms: N8_29  and  N9_31 
REMARK       I    between atoms: C14_33  and  N11_35 
REMARK    6  A    between atoms: N11_35  and  N12_37 
ROOT
HETATM    1  C8  UNL     1       0.153   3.038  80.483  1.00  0.00     0.115 C 
HETATM    2  N8  UNL     1       0.709   1.968  80.047  1.00  0.00    -0.285 N 
ATOM      3  H8  UNL     1       1.353   2.019  79.257  1.00  0.00     0.188 HD
ENDROOT
BRANCH   1   4
HETATM    4  N3  UNL     1       0.405   4.295  79.900  1.00  0.00    -0.326 N 
HETATM    5  C7  UNL     1       1.220   5.167  80.331  1.00  0.00     0.160 C 
HETATM    6  C5  UNL     1       1.439   6.494  79.656  1.00  0.00     0.334 C 
HETATM    7  O2  UNL     1       2.083   5.226  81.412  1.00  0.00    -0.301 OA
HETATM    8  C4  UNL     1       1.017   7.578  80.542  1.00  0.00     0.192 C 
HETATM    9  N2  UNL     1       2.907   6.551  79.845  1.00  0.00    -0.027 N 
HETATM   10  C3  UNL     1       2.033   7.664  81.619  1.00  0.00     0.208 C 
HETATM   11  O1  UNL     1       0.040   8.265  80.424  1.00  0.00    -0.293 OA
HETATM   12  C6  UNL     1       2.850   6.402  81.315  1.00  0.00     0.359 C 
ATOM     13  H22 UNL     1       3.482   5.893  79.320  1.00  0.00     0.281 HD
ATOM     14  H21 UNL     1       3.406   7.355  79.464  1.00  0.00     0.281 HD
ATOM     15  H3  UNL     1      -0.116   4.527  79.055  1.00  0.00     0.169 HD
BRANCH  10  16
HETATM   16  N1  UNL     1       1.550   7.743  82.931  1.00  0.00    -0.407 N 
HETATM   17  C1  UNL     1       0.265   7.279  83.248  1.00  0.00     0.143 C 
HETATM   18  C2  UNL     1       2.488   7.875  83.993  1.00  0.00     0.143 C 
ENDBRANCH  10  16
ENDBRANCH   1   4
BRANCH   1  19
HETATM   19  C9  UNL     1      -0.784   2.955  81.631  1.00  0.00     0.199 C 
BRANCH  19  20
HETATM   20  N4  UNL     1      -0.268   3.610  82.801  1.00  0.00    -0.369 N 
HETATM   21  C10 UNL     1      -0.100   3.096  83.951  1.00  0.00     0.105 A 
HETATM   22  C11 UNL     1      -0.417   1.779  84.208  1.00  0.00     0.093 A 
HETATM   23  N7  UNL     1       0.394   3.825  84.965  1.00  0.00    -0.339 N 
HETATM   24  C12 UNL     1      -0.218   1.256  85.480  1.00  0.00     0.120 A 
HETATM   25  N5  UNL     1      -0.537  -0.114  85.784  1.00  0.00    -0.083 NA
HETATM   26  N6  UNL     1       0.282   2.041  86.452  1.00  0.00    -0.341 N 
HETATM   27  C13 UNL     1       0.590   3.336  86.190  1.00  0.00     0.183 A 
ATOM     28  H6  UNL     1       0.430   1.661  87.387  1.00  0.00     0.167 HD
ATOM     29  H7  UNL     1       0.632   4.801  84.789  1.00  0.00     0.168 HD
ATOM     30  H4  UNL     1      -0.010   4.591  82.698  1.00  0.00     0.161 HD
ENDBRANCH  19  20
ENDBRANCH   1  19
BRANCH   2  31
HETATM   31  N9  UNL     1       0.444   0.737  80.639  1.00  0.00    -0.271 N 
HETATM   32  C14 UNL     1       1.342   0.068  81.253  1.00  0.00     0.223 C 
HETATM   33  N10 UNL     1       2.655   0.599  81.335  1.00  0.00    -0.061 NA
HETATM   34  N11 UNL     1       1.018  -1.185  81.840  1.00  0.00    -0.258 N 
ATOM     35  H11 UNL     1       0.173  -1.295  82.400  1.00  0.00     0.191 HD
ATOM     36  H9  UNL     1      -0.500   0.356  80.581  1.00  0.00     0.189 HD
BRANCH  34  37
HETATM   37  N12 UNL     1       1.880  -2.261  81.633  1.00  0.00    -0.247 N 
HETATM   38  N13 UNL     1       1.408  -3.438  81.578  1.00  0.00    -0.331 N 
ATOM     39 2H13 UNL     1       0.403  -3.578  81.687  1.00  0.00     0.178 HD
ATOM     40 1H13 UNL     1       2.039  -4.225  81.427  1.00  0.00     0.178 HD
ATOM     41  H12 UNL     1       2.882  -2.104  81.527  1.00  0.00     0.207 HD
ENDBRANCH  34  37
ENDBRANCH   2  31
TORSDOF 6
ENDMDL
