MODEL 1
REMARK VINA RESULT: -8.336995994      0.000      0.000
REMARK  9 active torsions:
REMARK  status: ('A' for Active; 'I' for Inactive)
REMARK    1  A    between atoms: C8_12  and  N3_13 
REMARK    2  A    between atoms: C11_18  and  N4_19 
REMARK    3  A    between atoms: N4_19  and  O4_20 
REMARK    4  A    between atoms: N4_19  and  C12_22 
REMARK    5  A    between atoms: C12_22  and  O5_23 
REMARK    6  A    between atoms: C13_25  and  C14_27 
REMARK    7  A    between atoms: C14_27  and  C15_29 
REMARK    8  A    between atoms: C15_29  and  O7_30 
REMARK    9  A    between atoms: C15_29  and  O8_32 
ROOT
HETATM    1  C1  UNL     1       0.418   8.940  82.924  1.00  0.00     0.066 C 
HETATM    2  C2  UNL     1       0.897   7.575  83.343  1.00  0.00     0.038 C 
HETATM    3  N1  UNL     1       2.197   7.272  82.902  1.00  0.00    -0.106 NA
HETATM    4  C3  UNL     1       0.141   6.759  84.003  1.00  0.00     0.082 A 
HETATM    5  C4  UNL     1      -1.233   7.183  84.349  1.00  0.00     0.260 A 
HETATM    6  O1  UNL     1      -1.699   8.329  84.066  1.00  0.00    -0.267 OA
HETATM    7  N2  UNL     1      -2.040   6.238  85.028  1.00  0.00    -0.322 N 
ATOM      8  H2  UNL     1      -2.991   6.510  85.277  1.00  0.00     0.169 HD
HETATM    9  C5  UNL     1      -1.645   5.064  85.347  1.00  0.00     0.047 A 
HETATM   10  C6  UNL     1      -2.564   4.250  86.031  1.00  0.00     0.033 A 
HETATM   11  C7  UNL     1      -2.245   2.986  86.444  1.00  0.00     0.038 A 
HETATM   12  C8  UNL     1      -0.963   2.551  86.153  1.00  0.00     0.103 A 
HETATM   13  C9  UNL     1      -0.052   3.316  85.489  1.00  0.00     0.052 A 
HETATM   14  C10 UNL     1      -0.377   4.594  85.064  1.00  0.00     0.023 A 
HETATM   15  C11 UNL     1       0.500   5.386  84.420  1.00  0.00     0.095 A 
ENDROOT
BRANCH  15  16
HETATM   16  N4  UNL     1       1.713   4.791  84.016  1.00  0.00    -0.198 N 
BRANCH  16  17
HETATM   17  O4  UNL     1       2.718   4.827  85.003  1.00  0.00    -0.280 OA
ATOM     18  H4  UNL     1       2.580   4.208  85.710  1.00  0.00     0.245 HD
ENDBRANCH  16  17
BRANCH  16  19
HETATM   19  C12 UNL     1       2.064   4.061  82.884  1.00  0.00     0.196 C 
HETATM   20  C13 UNL     1       1.355   3.325  81.862  1.00  0.00     0.150 C 
HETATM   21  N5  UNL     1       1.994   2.001  81.735  1.00  0.00    -0.094 NA
BRANCH  19  22
HETATM   22  O5  UNL     1       3.358   4.017  82.652  1.00  0.00    -0.343 OA
ATOM     23  H5  UNL     1       3.669   3.174  82.346  1.00  0.00     0.219 HD
ENDBRANCH  19  22
BRANCH  20  24
HETATM   24  C14 UNL     1      -0.075   3.338  81.729  1.00  0.00     0.232 C 
HETATM   25  O6  UNL     1      -0.692   4.368  81.619  1.00  0.00    -0.286 OA
BRANCH  24  26
HETATM   26  C15 UNL     1      -0.823   2.058  81.722  1.00  0.00     0.332 C 
BRANCH  26  27
HETATM   27  O7  UNL     1      -0.513   1.269  80.613  1.00  0.00    -0.365 OA
ATOM     28  H7  UNL     1      -1.256   0.758  80.316  1.00  0.00     0.213 HD
ENDBRANCH  26  27
BRANCH  26  29
HETATM   29  O8  UNL     1      -0.473   1.279  82.850  1.00  0.00    -0.365 OA
ATOM     30  H8  UNL     1      -1.045   0.524  82.918  1.00  0.00     0.213 HD
ENDBRANCH  26  29
ENDBRANCH  24  26
ENDBRANCH  20  24
ENDBRANCH  16  19
ENDBRANCH  15  16
BRANCH  12  31
HETATM   31  N3  UNL     1      -0.599   1.246  86.572  1.00  0.00    -0.116 N 
HETATM   32  O2  UNL     1       0.592   0.855  86.525  1.00  0.00    -0.532 OA
HETATM   33  O3  UNL     1      -1.568   0.401  87.034  1.00  0.00    -0.532 OA
ENDBRANCH  12  31
TORSDOF 9
ENDMDL
MODEL 2
REMARK VINA RESULT: -8.302673021      1.600      2.180
REMARK  9 active torsions:
REMARK  status: ('A' for Active; 'I' for Inactive)
REMARK    1  A    between atoms: C8_12  and  N3_13 
REMARK    2  A    between atoms: C11_18  and  N4_19 
REMARK    3  A    between atoms: N4_19  and  O4_20 
REMARK    4  A    between atoms: N4_19  and  C12_22 
REMARK    5  A    between atoms: C12_22  and  O5_23 
REMARK    6  A    between atoms: C13_25  and  C14_27 
REMARK    7  A    between atoms: C14_27  and  C15_29 
REMARK    8  A    between atoms: C15_29  and  O7_30 
REMARK    9  A    between atoms: C15_29  and  O8_32 
ROOT
HETATM    1  C1  UNL     1      -1.130   9.355  82.789  1.00  0.00     0.066 C 
HETATM    2  C2  UNL     1      -0.505   7.987  82.713  1.00  0.00     0.038 C 
HETATM    3  N1  UNL     1       0.404   7.839  81.651  1.00  0.00    -0.106 NA
HETATM    4  C3  UNL     1      -0.831   7.040  83.531  1.00  0.00     0.082 A 
HETATM    5  C4  UNL     1      -1.852   7.314  84.566  1.00  0.00     0.260 A 
HETATM    6  O1  UNL     1      -2.398   8.448  84.721  1.00  0.00    -0.267 OA
HETATM    7  N2  UNL     1      -2.213   6.234  85.408  1.00  0.00    -0.322 N 
ATOM      8  H2  UNL     1      -2.915   6.401  86.129  1.00  0.00     0.169 HD
HETATM    9  C5  UNL     1      -1.711   5.061  85.314  1.00  0.00     0.047 A 
HETATM   10  C6  UNL     1      -2.167   4.101  86.234  1.00  0.00     0.033 A 
HETATM   11  C7  UNL     1      -1.684   2.822  86.246  1.00  0.00     0.038 A 
HETATM   12  C8  UNL     1      -0.716   2.523  85.301  1.00  0.00     0.103 A 
HETATM   13  C9  UNL     1      -0.257   3.431  84.396  1.00  0.00     0.052 A 
HETATM   14  C10 UNL     1      -0.751   4.726  84.379  1.00  0.00     0.023 A 
HETATM   15  C11 UNL     1      -0.311   5.655  83.511  1.00  0.00     0.095 A 
ENDROOT
BRANCH  15  16
HETATM   16  N4  UNL     1       0.541   5.208  82.480  1.00  0.00    -0.198 N 
BRANCH  16  17
HETATM   17  O4  UNL     1       1.910   5.376  82.764  1.00  0.00    -0.280 OA
ATOM     18  H4  UNL     1       2.470   5.305  82.000  1.00  0.00     0.245 HD
ENDBRANCH  16  17
BRANCH  16  19
HETATM   19  C12 UNL     1       0.293   4.513  81.299  1.00  0.00     0.196 C 
HETATM   20  C13 UNL     1       0.834   3.340  80.652  1.00  0.00     0.150 C 
HETATM   21  N5  UNL     1       1.131   3.695  79.250  1.00  0.00    -0.094 NA
BRANCH  19  22
HETATM   22  O5  UNL     1      -0.676   5.021  80.571  1.00  0.00    -0.343 OA
ATOM     23  H5  UNL     1      -1.274   4.375  80.215  1.00  0.00     0.219 HD
ENDBRANCH  19  22
BRANCH  20  24
HETATM   24  C14 UNL     1       1.776   2.456  81.279  1.00  0.00     0.232 C 
HETATM   25  O6  UNL     1       2.273   2.714  82.347  1.00  0.00    -0.286 OA
BRANCH  24  26
HETATM   26  C15 UNL     1       2.152   1.189  80.608  1.00  0.00     0.332 C 
BRANCH  26  27
HETATM   27  O7  UNL     1       1.044   0.505  80.106  1.00  0.00    -0.365 OA
ATOM     28  H7  UNL     1       0.592   0.999  79.432  1.00  0.00     0.213 HD
ENDBRANCH  26  27
BRANCH  26  29
HETATM   29  O8  UNL     1       2.973   1.453  79.486  1.00  0.00    -0.365 OA
ATOM     30  H8  UNL     1       2.806   0.819  78.799  1.00  0.00     0.213 HD
ENDBRANCH  26  29
ENDBRANCH  24  26
ENDBRANCH  20  24
ENDBRANCH  16  19
ENDBRANCH  15  16
BRANCH  12  31
HETATM   31  N3  UNL     1      -0.191   1.206  85.290  1.00  0.00    -0.116 N 
HETATM   32  O2  UNL     1      -0.328   0.458  84.292  1.00  0.00    -0.532 OA
HETATM   33  O3  UNL     1       0.476   0.746  86.390  1.00  0.00    -0.532 OA
ENDBRANCH  12  31
TORSDOF 9
ENDMDL
MODEL 3
REMARK VINA RESULT: -8.284037236      1.996      4.664
REMARK  9 active torsions:
REMARK  status: ('A' for Active; 'I' for Inactive)
REMARK    1  A    between atoms: C8_12  and  N3_13 
REMARK    2  A    between atoms: C11_18  and  N4_19 
REMARK    3  A    between atoms: N4_19  and  O4_20 
REMARK    4  A    between atoms: N4_19  and  C12_22 
REMARK    5  A    between atoms: C12_22  and  O5_23 
REMARK    6  A    between atoms: C13_25  and  C14_27 
REMARK    7  A    between atoms: C14_27  and  C15_29 
REMARK    8  A    between atoms: C15_29  and  O7_30 
REMARK    9  A    between atoms: C15_29  and  O8_32 
ROOT
HETATM    1  C1  UNL     1       2.859   8.334  82.738  1.00  0.00     0.066 C 
HETATM    2  C2  UNL     1       2.231   7.079  83.285  1.00  0.00     0.038 C 
HETATM    3  N1  UNL     1       1.810   7.194  84.621  1.00  0.00    -0.106 NA
HETATM    4  C3  UNL     1       2.147   5.995  82.584  1.00  0.00     0.082 A 
HETATM    5  C4  UNL     1       2.689   5.994  81.208  1.00  0.00     0.260 A 
HETATM    6  O1  UNL     1       3.199   7.019  80.661  1.00  0.00    -0.267 OA
HETATM    7  N2  UNL     1       2.619   4.772  80.496  1.00  0.00    -0.322 N 
ATOM      8  H2  UNL     1       2.987   4.749  79.544  1.00  0.00     0.169 HD
HETATM    9  C5  UNL     1       2.123   3.696  80.977  1.00  0.00     0.047 A 
HETATM   10  C6  UNL     1       2.117   2.570  80.137  1.00  0.00     0.033 A 
HETATM   11  C7  UNL     1       1.589   1.372  80.534  1.00  0.00     0.038 A 
HETATM   12  C8  UNL     1       1.058   1.330  81.813  1.00  0.00     0.103 A 
HETATM   13  C9  UNL     1       1.052   2.404  82.650  1.00  0.00     0.052 A 
HETATM   14  C10 UNL     1       1.593   3.616  82.250  1.00  0.00     0.023 A 
HETATM   15  C11 UNL     1       1.592   4.703  83.043  1.00  0.00     0.095 A 
ENDROOT
BRANCH  15  16
HETATM   16  N4  UNL     1       1.191   4.513  84.382  1.00  0.00    -0.198 N 
BRANCH  16  17
HETATM   17  O4  UNL     1       2.265   4.467  85.292  1.00  0.00    -0.280 OA
ATOM     18  H4  UNL     1       2.653   5.317  85.468  1.00  0.00     0.245 HD
ENDBRANCH  16  17
BRANCH  16  19
HETATM   19  C12 UNL     1      -0.061   4.496  84.989  1.00  0.00     0.196 C 
HETATM   20  C13 UNL     1      -0.812   3.560  85.793  1.00  0.00     0.150 C 
HETATM   21  N5  UNL     1      -2.162   3.443  85.206  1.00  0.00    -0.094 NA
BRANCH  19  22
HETATM   22  O5  UNL     1      -0.757   5.598  84.814  1.00  0.00    -0.343 OA
ATOM     23  H5  UNL     1      -0.251   6.396  84.913  1.00  0.00     0.219 HD
ENDBRANCH  19  22
BRANCH  20  24
HETATM   24  C14 UNL     1      -0.257   2.342  86.314  1.00  0.00     0.232 C 
HETATM   25  O6  UNL     1       0.926   2.219  86.509  1.00  0.00    -0.286 OA
BRANCH  24  26
HETATM   26  C15 UNL     1      -1.151   1.201  86.624  1.00  0.00     0.332 C 
BRANCH  26  27
HETATM   27  O7  UNL     1      -0.749   0.025  85.989  1.00  0.00    -0.365 OA
ATOM     28  H7  UNL     1      -1.103  -0.049  85.111  1.00  0.00     0.213 HD
ENDBRANCH  26  27
BRANCH  26  29
HETATM   29  O8  UNL     1      -1.117   0.914  88.009  1.00  0.00    -0.365 OA
ATOM     30  H8  UNL     1      -0.809   0.027  88.154  1.00  0.00     0.213 HD
ENDBRANCH  26  29
ENDBRANCH  24  26
ENDBRANCH  20  24
ENDBRANCH  16  19
ENDBRANCH  15  16
BRANCH  12  31
HETATM   31  N3  UNL     1       0.498   0.104  82.253  1.00  0.00    -0.116 N 
HETATM   32  O2  UNL     1       0.769  -0.979  81.682  1.00  0.00    -0.532 OA
HETATM   33  O3  UNL     1      -0.353   0.107  83.322  1.00  0.00    -0.532 OA
ENDBRANCH  12  31
TORSDOF 9
ENDMDL
MODEL 4
REMARK VINA RESULT: -8.158931536      0.853      1.041
REMARK  9 active torsions:
REMARK  status: ('A' for Active; 'I' for Inactive)
REMARK    1  A    between atoms: C8_12  and  N3_13 
REMARK    2  A    between atoms: C11_18  and  N4_19 
REMARK    3  A    between atoms: N4_19  and  O4_20 
REMARK    4  A    between atoms: N4_19  and  C12_22 
REMARK    5  A    between atoms: C12_22  and  O5_23 
REMARK    6  A    between atoms: C13_25  and  C14_27 
REMARK    7  A    between atoms: C14_27  and  C15_29 
REMARK    8  A    between atoms: C15_29  and  O7_30 
REMARK    9  A    between atoms: C15_29  and  O8_32 
ROOT
HETATM    1  C1  UNL     1       0.094   8.480  81.626  1.00  0.00     0.066 C 
HETATM    2  C2  UNL     1       0.686   7.269  82.297  1.00  0.00     0.038 C 
HETATM    3  N1  UNL     1       2.009   6.996  81.905  1.00  0.00    -0.106 NA
HETATM    4  C3  UNL     1       0.001   6.537  83.115  1.00  0.00     0.082 A 
HETATM    5  C4  UNL     1      -1.404   6.904  83.392  1.00  0.00     0.260 A 
HETATM    6  O1  UNL     1      -1.966   7.928  82.897  1.00  0.00    -0.267 OA
HETATM    7  N2  UNL     1      -2.130   6.046  84.254  1.00  0.00    -0.322 N 
ATOM      8  H2  UNL     1      -3.101   6.281  84.459  1.00  0.00     0.169 HD
HETATM    9  C5  UNL     1      -1.637   4.995  84.790  1.00  0.00     0.047 A 
HETATM   10  C6  UNL     1      -2.485   4.256  85.633  1.00  0.00     0.033 A 
HETATM   11  C7  UNL     1      -2.060   3.129  86.281  1.00  0.00     0.038 A 
HETATM   12  C8  UNL     1      -0.745   2.755  86.061  1.00  0.00     0.103 A 
HETATM   13  C9  UNL     1       0.099   3.448  85.248  1.00  0.00     0.052 A 
HETATM   14  C10 UNL     1      -0.333   4.587  84.586  1.00  0.00     0.023 A 
HETATM   15  C11 UNL     1       0.475   5.307  83.787  1.00  0.00     0.095 A 
ENDROOT
BRANCH  15  16
HETATM   16  N4  UNL     1       1.736   4.749  83.489  1.00  0.00    -0.198 N 
BRANCH  16  17
HETATM   17  O4  UNL     1       2.744   5.106  84.407  1.00  0.00    -0.280 OA
ATOM     18  H4  UNL     1       3.544   5.410  83.995  1.00  0.00     0.245 HD
ENDBRANCH  16  17
BRANCH  16  19
HETATM   19  C12 UNL     1       2.142   3.812  82.544  1.00  0.00     0.196 C 
HETATM   20  C13 UNL     1       1.502   3.047  81.499  1.00  0.00     0.150 C 
HETATM   21  N5  UNL     1       1.907   1.637  81.659  1.00  0.00    -0.094 NA
BRANCH  19  22
HETATM   22  O5  UNL     1       3.428   3.537  82.579  1.00  0.00    -0.343 OA
ATOM     23  H5  UNL     1       3.761   3.141  81.783  1.00  0.00     0.219 HD
ENDBRANCH  19  22
BRANCH  20  24
HETATM   24  C14 UNL     1       0.143   3.257  81.085  1.00  0.00     0.232 C 
HETATM   25  O6  UNL     1      -0.219   4.304  80.610  1.00  0.00    -0.286 OA
BRANCH  24  26
HETATM   26  C15 UNL     1      -0.849   2.166  81.240  1.00  0.00     0.332 C 
BRANCH  26  27
HETATM   27  O7  UNL     1      -1.638   2.326  82.379  1.00  0.00    -0.365 OA
ATOM     28  H7  UNL     1      -1.279   1.873  83.133  1.00  0.00     0.213 HD
ENDBRANCH  26  27
BRANCH  26  29
HETATM   29  O8  UNL     1      -1.752   2.166  80.151  1.00  0.00    -0.365 OA
ATOM     30  H8  UNL     1      -1.607   1.404  79.604  1.00  0.00     0.213 HD
ENDBRANCH  26  29
ENDBRANCH  24  26
ENDBRANCH  20  24
ENDBRANCH  16  19
ENDBRANCH  15  16
BRANCH  12  31
HETATM   31  N3  UNL     1      -0.272   1.593  86.722  1.00  0.00    -0.116 N 
HETATM   32  O2  UNL     1       0.762   0.997  86.334  1.00  0.00    -0.532 OA
HETATM   33  O3  UNL     1      -0.958   1.115  87.803  1.00  0.00    -0.532 OA
ENDBRANCH  12  31
TORSDOF 9
ENDMDL
MODEL 5
REMARK VINA RESULT: -8.091087120      2.112      5.205
REMARK  9 active torsions:
REMARK  status: ('A' for Active; 'I' for Inactive)
REMARK    1  A    between atoms: C8_12  and  N3_13 
REMARK    2  A    between atoms: C11_18  and  N4_19 
REMARK    3  A    between atoms: N4_19  and  O4_20 
REMARK    4  A    between atoms: N4_19  and  C12_22 
REMARK    5  A    between atoms: C12_22  and  O5_23 
REMARK    6  A    between atoms: C13_25  and  C14_27 
REMARK    7  A    between atoms: C14_27  and  C15_29 
REMARK    8  A    between atoms: C15_29  and  O7_30 
REMARK    9  A    between atoms: C15_29  and  O8_32 
ROOT
HETATM    1  C1  UNL     1      -2.256   7.181  84.620  1.00  0.00     0.066 C 
HETATM    2  C2  UNL     1      -1.494   5.917  84.317  1.00  0.00     0.038 C 
HETATM    3  N1  UNL     1      -1.528   4.972  85.357  1.00  0.00    -0.106 NA
HETATM    4  C3  UNL     1      -0.837   5.764  83.213  1.00  0.00     0.082 A 
HETATM    5  C4  UNL     1      -0.834   6.867  82.228  1.00  0.00     0.260 A 
HETATM    6  O1  UNL     1      -1.479   7.947  82.391  1.00  0.00    -0.267 OA
HETATM    7  N2  UNL     1      -0.061   6.674  81.057  1.00  0.00    -0.322 N 
ATOM      8  H2  UNL     1      -0.045   7.422  80.363  1.00  0.00     0.169 HD
HETATM    9  C5  UNL     1       0.618   5.617  80.820  1.00  0.00     0.047 A 
HETATM   10  C6  UNL     1       1.323   5.575  79.604  1.00  0.00     0.033 A 
HETATM   11  C7  UNL     1       2.062   4.487  79.232  1.00  0.00     0.038 A 
HETATM   12  C8  UNL     1       2.078   3.423  80.120  1.00  0.00     0.103 A 
HETATM   13  C9  UNL     1       1.408   3.435  81.305  1.00  0.00     0.052 A 
HETATM   14  C10 UNL     1       0.664   4.541  81.686  1.00  0.00     0.023 A 
HETATM   15  C11 UNL     1      -0.024   4.585  82.841  1.00  0.00     0.095 A 
ENDROOT
BRANCH  15  16
HETATM   16  N4  UNL     1       0.197   3.531  83.753  1.00  0.00    -0.198 N 
BRANCH  16  17
HETATM   17  O4  UNL     1       1.140   3.837  84.753  1.00  0.00    -0.280 OA
ATOM     18  H4  UNL     1       1.600   3.077  85.089  1.00  0.00     0.245 HD
ENDBRANCH  16  17
BRANCH  16  19
HETATM   19  C12 UNL     1      -0.434   2.303  83.931  1.00  0.00     0.196 C 
HETATM   20  C13 UNL     1      -0.640   1.393  85.034  1.00  0.00     0.150 C 
HETATM   21  N5  UNL     1      -0.254   0.042  84.582  1.00  0.00    -0.094 NA
BRANCH  19  22
HETATM   22  O5  UNL     1      -1.001   1.828  82.844  1.00  0.00    -0.343 OA
ATOM     23  H5  UNL     1      -0.387   1.563  82.170  1.00  0.00     0.219 HD
ENDBRANCH  19  22
BRANCH  20  24
HETATM   24  C14 UNL     1      -0.304   1.711  86.394  1.00  0.00     0.232 C 
HETATM   25  O6  UNL     1       0.820   2.007  86.715  1.00  0.00    -0.286 OA
BRANCH  24  26
HETATM   26  C15 UNL     1      -1.356   1.678  87.437  1.00  0.00     0.332 C 
BRANCH  26  27
HETATM   27  O7  UNL     1      -2.420   2.532  87.143  1.00  0.00    -0.365 OA
ATOM     28  H7  UNL     1      -3.094   2.513  87.813  1.00  0.00     0.213 HD
ENDBRANCH  26  27
BRANCH  26  29
HETATM   29  O8  UNL     1      -1.922   0.385  87.523  1.00  0.00    -0.365 OA
ATOM     30  H8  UNL     1      -1.768  -0.096  86.719  1.00  0.00     0.213 HD
ENDBRANCH  26  29
ENDBRANCH  24  26
ENDBRANCH  20  24
ENDBRANCH  16  19
ENDBRANCH  15  16
BRANCH  12  31
HETATM   31  N3  UNL     1       2.832   2.277  79.761  1.00  0.00    -0.116 N 
HETATM   32  O2  UNL     1       2.997   1.328  80.565  1.00  0.00    -0.532 OA
HETATM   33  O3  UNL     1       3.387   2.209  78.515  1.00  0.00    -0.532 OA
ENDBRANCH  12  31
TORSDOF 9
ENDMDL
