MODEL 1
REMARK VINA RESULT: -8.521735813      0.000      0.000
REMARK  8 active torsions:
REMARK  status: ('A' for Active; 'I' for Inactive)
REMARK    1  A    between atoms: O1_2  and  C2_3 
REMARK    2  A    between atoms: C2_3  and  C3_5 
REMARK    3  A    between atoms: C3_5  and  N1_6 
REMARK       I    between atoms: N1_6  and  C4_8 
REMARK    4  A    between atoms: C4_8  and  C5_10 
REMARK    5  A    between atoms: C5_10  and  C7_13 
REMARK    6  A    between atoms: C9_19  and  C10_20 
REMARK    7  A    between atoms: C10_20  and  C11_21 
REMARK    8  A    between atoms: N6_24  and  C13_25 
ROOT
HETATM    1  C5  UNL     1       0.628   1.936  81.276  1.00  0.00     0.141 C 
HETATM    2  C6  UNL     1       1.045   0.541  81.278  1.00  0.00     0.107 C 
HETATM    3  N2  UNL     1       1.352  -0.598  81.328  1.00  0.00    -0.191 NA
ENDROOT
BRANCH   1   4
HETATM    4  C4  UNL     1      -0.243   2.292  82.382  1.00  0.00     0.265 C 
HETATM    5  N1  UNL     1       0.255   2.113  83.718  1.00  0.00    -0.347 N 
ATOM      6  H1  UNL     1       1.197   1.742  83.847  1.00  0.00     0.163 HD
HETATM    7  O3  UNL     1      -1.377   2.736  82.272  1.00  0.00    -0.267 OA
BRANCH   5   8
HETATM    8  C3  UNL     1      -0.521   2.437  84.869  1.00  0.00     0.233 C 
BRANCH   8   9
HETATM    9  C2  UNL     1      -0.372   1.488  85.989  1.00  0.00     0.276 C 
HETATM   10  O2  UNL     1       0.697   1.277  86.585  1.00  0.00    -0.263 OA
BRANCH   9  11
HETATM   11  O1  UNL     1      -1.509   0.794  86.388  1.00  0.00    -0.325 OA
HETATM   12  C1  UNL     1      -2.333   1.197  87.451  1.00  0.00     0.213 C 
ENDBRANCH   9  11
ENDBRANCH   8   9
ENDBRANCH   5   8
ENDBRANCH   1   4
BRANCH   1  13
HETATM   13  C7  UNL     1       0.995   2.805  80.368  1.00  0.00     0.086 A 
HETATM   14  N3  UNL     1       0.115   3.553  79.636  1.00  0.00    -0.349 N 
HETATM   15  C8  UNL     1       0.783   4.357  78.781  1.00  0.00     0.181 A 
ATOM     16  H3  UNL     1      -0.900   3.509  79.722  1.00  0.00     0.166 HD
HETATM   17  N4  UNL     1       2.061   4.116  78.978  1.00  0.00    -0.350 N 
HETATM   18  C9  UNL     1       2.252   3.164  79.948  1.00  0.00     0.062 A 
ATOM     19  H4  UNL     1       2.817   4.579  78.472  1.00  0.00     0.166 HD
BRANCH  18  20
HETATM   20  C10 UNL     1       3.437   2.751  80.325  1.00  0.00     0.052 C 
BRANCH  20  21
HETATM   21  C11 UNL     1       4.389   3.835  80.728  1.00  0.00     0.076 A 
HETATM   22  C12 UNL     1       5.369   4.251  79.867  1.00  0.00     0.139 A 
HETATM   23  N5  UNL     1       5.441   3.621  78.598  1.00  0.00    -0.081 NA
HETATM   24  N6  UNL     1       6.228   5.235  80.240  1.00  0.00    -0.273 N 
HETATM   25  C15 UNL     1       6.118   5.801  81.457  1.00  0.00     0.331 A 
HETATM   26  O4  UNL     1       6.949   6.711  81.744  1.00  0.00    -0.246 OA
HETATM   27  N8  UNL     1       5.163   5.400  82.307  1.00  0.00    -0.274 N 
HETATM   28  C16 UNL     1       4.295   4.429  81.966  1.00  0.00     0.263 A 
ATOM     29  H8  UNL     1       5.092   5.838  83.225  1.00  0.00     0.173 HD
HETATM   30  O5  UNL     1       3.384   4.030  82.747  1.00  0.00    -0.267 OA
BRANCH  24  31
HETATM   31  C13 UNL     1       7.255   5.669  79.335  1.00  0.00     0.258 C 
HETATM   32  C14 UNL     1       8.569   5.147  79.743  1.00  0.00     0.079 C 
HETATM   33  N7  UNL     1       9.593   4.725  80.067  1.00  0.00    -0.196 NA
ENDBRANCH  24  31
ENDBRANCH  20  21
ENDBRANCH  18  20
ENDBRANCH   1  13
TORSDOF 8
ENDMDL
MODEL 2
REMARK VINA RESULT: -8.285274977      3.561      5.283
REMARK  8 active torsions:
REMARK  status: ('A' for Active; 'I' for Inactive)
REMARK    1  A    between atoms: O1_2  and  C2_3 
REMARK    2  A    between atoms: C2_3  and  C3_5 
REMARK    3  A    between atoms: C3_5  and  N1_6 
REMARK       I    between atoms: N1_6  and  C4_8 
REMARK    4  A    between atoms: C4_8  and  C5_10 
REMARK    5  A    between atoms: C5_10  and  C7_13 
REMARK    6  A    between atoms: C9_19  and  C10_20 
REMARK    7  A    between atoms: C10_20  and  C11_21 
REMARK    8  A    between atoms: N6_24  and  C13_25 
ROOT
HETATM    1  C5  UNL     1       0.084   1.957  81.821  1.00  0.00     0.141 C 
HETATM    2  C6  UNL     1      -1.025   1.936  80.877  1.00  0.00     0.107 C 
HETATM    3  N2  UNL     1      -1.949   1.879  80.145  1.00  0.00    -0.191 NA
ENDROOT
BRANCH   1   4
HETATM    4  C4  UNL     1      -0.074   1.041  82.936  1.00  0.00     0.265 C 
HETATM    5  N1  UNL     1      -0.155   1.597  84.260  1.00  0.00    -0.347 N 
ATOM      6  H1  UNL     1      -0.096   2.609  84.374  1.00  0.00     0.163 HD
HETATM    7  O3  UNL     1      -0.145  -0.176  82.844  1.00  0.00    -0.267 OA
BRANCH   5   8
HETATM    8  C3  UNL     1      -0.314   0.782  85.418  1.00  0.00     0.233 C 
BRANCH   8   9
HETATM    9  C2  UNL     1      -0.005   1.465  86.689  1.00  0.00     0.276 C 
HETATM   10  O2  UNL     1       0.954   2.238  86.848  1.00  0.00    -0.263 OA
BRANCH   9  11
HETATM   11  O1  UNL     1      -0.850   1.217  87.765  1.00  0.00    -0.325 OA
HETATM   12  C1  UNL     1      -2.247   1.126  87.652  1.00  0.00     0.213 C 
ENDBRANCH   9  11
ENDBRANCH   8   9
ENDBRANCH   5   8
ENDBRANCH   1   4
BRANCH   1  13
HETATM   13  C7  UNL     1       1.136   2.726  81.692  1.00  0.00     0.086 A 
HETATM   14  N3  UNL     1       2.421   2.258  81.685  1.00  0.00    -0.349 N 
HETATM   15  C8  UNL     1       3.290   3.281  81.536  1.00  0.00     0.181 A 
ATOM     16  H3  UNL     1       2.684   1.278  81.779  1.00  0.00     0.166 HD
HETATM   17  N4  UNL     1       2.558   4.371  81.451  1.00  0.00    -0.350 N 
HETATM   18  C9  UNL     1       1.219   4.089  81.541  1.00  0.00     0.062 A 
ATOM     19  H4  UNL     1       2.940   5.310  81.332  1.00  0.00     0.166 HD
BRANCH  18  20
HETATM   20  C10 UNL     1       0.286   5.007  81.483  1.00  0.00     0.052 C 
BRANCH  20  21
HETATM   21  C11 UNL     1       0.056   5.759  82.758  1.00  0.00     0.076 A 
HETATM   22  C12 UNL     1       0.786   6.883  83.041  1.00  0.00     0.139 A 
HETATM   23  N5  UNL     1       1.753   7.296  82.088  1.00  0.00    -0.081 NA
HETATM   24  N6  UNL     1       0.571   7.559  84.199  1.00  0.00    -0.273 N 
HETATM   25  C15 UNL     1      -0.359   7.125  85.070  1.00  0.00     0.331 A 
HETATM   26  O4  UNL     1      -0.510   7.798  86.131  1.00  0.00    -0.246 OA
HETATM   27  N8  UNL     1      -1.078   6.027  84.803  1.00  0.00    -0.274 N 
HETATM   28  C16 UNL     1      -0.890   5.335  83.664  1.00  0.00     0.263 A 
ATOM     29  H8  UNL     1      -1.779   5.710  85.473  1.00  0.00     0.173 HD
HETATM   30  O5  UNL     1      -1.554   4.296  83.384  1.00  0.00    -0.267 OA
BRANCH  24  31
HETATM   31  C13 UNL     1       1.339   8.736  84.493  1.00  0.00     0.258 C 
HETATM   32  C14 UNL     1       0.634   9.947  84.047  1.00  0.00     0.079 C 
HETATM   33  N7  UNL     1       0.067  10.892  83.701  1.00  0.00    -0.196 NA
ENDBRANCH  24  31
ENDBRANCH  20  21
ENDBRANCH  18  20
ENDBRANCH   1  13
TORSDOF 8
ENDMDL
MODEL 3
REMARK VINA RESULT: -8.217154546      3.607      5.802
REMARK  8 active torsions:
REMARK  status: ('A' for Active; 'I' for Inactive)
REMARK    1  A    between atoms: O1_2  and  C2_3 
REMARK    2  A    between atoms: C2_3  and  C3_5 
REMARK    3  A    between atoms: C3_5  and  N1_6 
REMARK       I    between atoms: N1_6  and  C4_8 
REMARK    4  A    between atoms: C4_8  and  C5_10 
REMARK    5  A    between atoms: C5_10  and  C7_13 
REMARK    6  A    between atoms: C9_19  and  C10_20 
REMARK    7  A    between atoms: C10_20  and  C11_21 
REMARK    8  A    between atoms: N6_24  and  C13_25 
ROOT
HETATM    1  C5  UNL     1      -0.412   2.858  84.593  1.00  0.00     0.141 C 
HETATM    2  C6  UNL     1      -0.009   1.930  85.641  1.00  0.00     0.107 C 
HETATM    3  N2  UNL     1       0.313   1.136  86.453  1.00  0.00    -0.191 NA
ENDROOT
BRANCH   1   4
HETATM    4  C4  UNL     1      -0.652   2.226  83.308  1.00  0.00     0.265 C 
HETATM    5  N1  UNL     1       0.005   0.976  83.038  1.00  0.00    -0.347 N 
ATOM      6  H1  UNL     1       0.616   0.577  83.750  1.00  0.00     0.163 HD
HETATM    7  O3  UNL     1      -1.373   2.671  82.427  1.00  0.00    -0.267 OA
BRANCH   5   8
HETATM    8  C3  UNL     1      -0.169   0.276  81.808  1.00  0.00     0.233 C 
BRANCH   8   9
HETATM    9  C2  UNL     1       1.091  -0.070  81.123  1.00  0.00     0.276 C 
HETATM   10  O2  UNL     1       1.545   0.548  80.147  1.00  0.00    -0.263 OA
BRANCH   9  11
HETATM   11  O1  UNL     1       1.802  -1.160  81.614  1.00  0.00    -0.325 OA
HETATM   12  C1  UNL     1       1.317  -2.477  81.599  1.00  0.00     0.213 C 
ENDBRANCH   9  11
ENDBRANCH   8   9
ENDBRANCH   5   8
ENDBRANCH   1   4
BRANCH   1  13
HETATM   13  C7  UNL     1      -0.549   4.147  84.774  1.00  0.00     0.086 A 
HETATM   14  N3  UNL     1      -1.635   4.716  85.380  1.00  0.00    -0.349 N 
HETATM   15  C8  UNL     1      -1.495   6.058  85.425  1.00  0.00     0.181 A 
ATOM     16  H3  UNL     1      -2.435   4.200  85.746  1.00  0.00     0.166 HD
HETATM   17  N4  UNL     1      -0.339   6.323  84.857  1.00  0.00    -0.350 N 
HETATM   18  C9  UNL     1       0.290   5.180  84.435  1.00  0.00     0.062 A 
ATOM     19  H4  UNL     1       0.042   7.263  84.744  1.00  0.00     0.166 HD
BRANCH  18  20
HETATM   20  C10 UNL     1       1.457   5.180  83.838  1.00  0.00     0.052 C 
BRANCH  20  21
HETATM   21  C11 UNL     1       1.410   4.997  82.352  1.00  0.00     0.076 A 
HETATM   22  C12 UNL     1       0.879   5.971  81.550  1.00  0.00     0.139 A 
HETATM   23  N5  UNL     1       0.385   7.143  82.179  1.00  0.00    -0.081 NA
HETATM   24  N6  UNL     1       0.839   5.797  80.204  1.00  0.00    -0.273 N 
HETATM   25  C15 UNL     1       1.322   4.665  79.656  1.00  0.00     0.331 A 
HETATM   26  O4  UNL     1       1.255   4.564  78.396  1.00  0.00    -0.246 OA
HETATM   27  N8  UNL     1       1.842   3.706  80.432  1.00  0.00    -0.274 N 
HETATM   28  C16 UNL     1       1.897   3.848  81.769  1.00  0.00     0.263 A 
ATOM     29  H8  UNL     1       2.204   2.854  80.003  1.00  0.00     0.173 HD
HETATM   30  O5  UNL     1       2.383   2.961  82.527  1.00  0.00    -0.267 OA
BRANCH  24  31
HETATM   31  C13 UNL     1       0.281   6.821  79.366  1.00  0.00     0.258 C 
HETATM   32  C14 UNL     1      -1.173   6.924  79.560  1.00  0.00     0.079 C 
HETATM   33  N7  UNL     1      -2.313   7.002  79.728  1.00  0.00    -0.196 NA
ENDBRANCH  24  31
ENDBRANCH  20  21
ENDBRANCH  18  20
ENDBRANCH   1  13
TORSDOF 8
ENDMDL
MODEL 4
REMARK VINA RESULT: -8.181922602      2.188      3.185
REMARK  8 active torsions:
REMARK  status: ('A' for Active; 'I' for Inactive)
REMARK    1  A    between atoms: O1_2  and  C2_3 
REMARK    2  A    between atoms: C2_3  and  C3_5 
REMARK    3  A    between atoms: C3_5  and  N1_6 
REMARK       I    between atoms: N1_6  and  C4_8 
REMARK    4  A    between atoms: C4_8  and  C5_10 
REMARK    5  A    between atoms: C5_10  and  C7_13 
REMARK    6  A    between atoms: C9_19  and  C10_20 
REMARK    7  A    between atoms: C10_20  and  C11_21 
REMARK    8  A    between atoms: N6_24  and  C13_25 
ROOT
HETATM    1  C5  UNL     1      -0.376   3.442  82.478  1.00  0.00     0.141 C 
HETATM    2  C6  UNL     1      -0.226   4.825  82.046  1.00  0.00     0.107 C 
HETATM    3  N2  UNL     1      -0.116   5.962  81.750  1.00  0.00    -0.191 NA
ENDROOT
BRANCH   1   4
HETATM    4  C4  UNL     1      -0.694   3.297  83.887  1.00  0.00     0.265 C 
HETATM    5  N1  UNL     1       0.224   2.561  84.714  1.00  0.00    -0.347 N 
ATOM      6  H1  UNL     1       1.062   2.165  84.287  1.00  0.00     0.163 HD
HETATM    7  O3  UNL     1      -1.687   3.752  84.437  1.00  0.00    -0.267 OA
BRANCH   5   8
HETATM    8  C3  UNL     1       0.003   2.366  86.109  1.00  0.00     0.233 C 
BRANCH   8   9
HETATM    9  C2  UNL     1      -0.601   1.065  86.452  1.00  0.00     0.276 C 
HETATM   10  O2  UNL     1      -0.648   0.094  85.680  1.00  0.00    -0.263 OA
BRANCH   9  11
HETATM   11  O1  UNL     1      -1.149   0.935  87.724  1.00  0.00    -0.325 OA
HETATM   12  C1  UNL     1      -1.878   1.950  88.364  1.00  0.00     0.213 C 
ENDBRANCH   9  11
ENDBRANCH   8   9
ENDBRANCH   5   8
ENDBRANCH   1   4
BRANCH   1  13
HETATM   13  C7  UNL     1      -0.240   2.411  81.683  1.00  0.00     0.086 A 
HETATM   14  N3  UNL     1      -1.267   1.870  80.961  1.00  0.00    -0.349 N 
HETATM   15  C8  UNL     1      -0.825   0.821  80.234  1.00  0.00     0.181 A 
ATOM     16  H3  UNL     1      -2.228   2.210  80.970  1.00  0.00     0.166 HD
HETATM   17  N4  UNL     1       0.458   0.710  80.497  1.00  0.00    -0.350 N 
HETATM   18  C9  UNL     1       0.876   1.667  81.387  1.00  0.00     0.062 A 
ATOM     19  H4  UNL     1       1.068   0.000  80.090  1.00  0.00     0.166 HD
BRANCH  18  20
HETATM   20  C10 UNL     1       2.113   1.766  81.808  1.00  0.00     0.052 C 
BRANCH  20  21
HETATM   21  C11 UNL     1       2.890   2.911  81.232  1.00  0.00     0.076 A 
HETATM   22  C12 UNL     1       3.329   2.867  79.936  1.00  0.00     0.139 A 
HETATM   23  N5  UNL     1       3.021   1.711  79.175  1.00  0.00    -0.081 NA
HETATM   24  N6  UNL     1       4.032   3.909  79.422  1.00  0.00    -0.273 N 
HETATM   25  C15 UNL     1       4.299   4.985  80.186  1.00  0.00     0.331 A 
HETATM   26  O4  UNL     1       4.959   5.922  79.649  1.00  0.00    -0.246 OA
HETATM   27  N8  UNL     1       3.874   5.037  81.456  1.00  0.00    -0.274 N 
HETATM   28  C16 UNL     1       3.174   4.021  81.994  1.00  0.00     0.263 A 
ATOM     29  H8  UNL     1       4.084   5.859  82.023  1.00  0.00     0.173 HD
HETATM   30  O5  UNL     1       2.760   4.042  83.189  1.00  0.00    -0.267 OA
BRANCH  24  31
HETATM   31  C13 UNL     1       4.492   3.861  78.062  1.00  0.00     0.258 C 
HETATM   32  C14 UNL     1       3.573   4.585  77.172  1.00  0.00     0.079 C 
HETATM   33  N7  UNL     1       2.849   5.165  76.483  1.00  0.00    -0.196 NA
ENDBRANCH  24  31
ENDBRANCH  20  21
ENDBRANCH  18  20
ENDBRANCH   1  13
TORSDOF 8
ENDMDL
MODEL 5
REMARK VINA RESULT: -8.157470558      1.368      1.934
REMARK  8 active torsions:
REMARK  status: ('A' for Active; 'I' for Inactive)
REMARK    1  A    between atoms: O1_2  and  C2_3 
REMARK    2  A    between atoms: C2_3  and  C3_5 
REMARK    3  A    between atoms: C3_5  and  N1_6 
REMARK       I    between atoms: N1_6  and  C4_8 
REMARK    4  A    between atoms: C4_8  and  C5_10 
REMARK    5  A    between atoms: C5_10  and  C7_13 
REMARK    6  A    between atoms: C9_19  and  C10_20 
REMARK    7  A    between atoms: C10_20  and  C11_21 
REMARK    8  A    between atoms: N6_24  and  C13_25 
ROOT
HETATM    1  C5  UNL     1       0.616   1.945  81.275  1.00  0.00     0.141 C 
HETATM    2  C6  UNL     1       1.083   0.565  81.257  1.00  0.00     0.107 C 
HETATM    3  N2  UNL     1       1.431  -0.562  81.291  1.00  0.00    -0.191 NA
ENDROOT
BRANCH   1   4
HETATM    4  C4  UNL     1      -0.276   2.251  82.379  1.00  0.00     0.265 C 
HETATM    5  N1  UNL     1       0.215   2.059  83.716  1.00  0.00    -0.347 N 
ATOM      6  H1  UNL     1       1.166   1.714  83.847  1.00  0.00     0.163 HD
HETATM    7  O3  UNL     1      -1.422   2.662  82.266  1.00  0.00    -0.267 OA
BRANCH   5   8
HETATM    8  C3  UNL     1      -0.582   2.334  84.866  1.00  0.00     0.233 C 
BRANCH   8   9
HETATM    9  C2  UNL     1      -0.333   1.432  86.007  1.00  0.00     0.276 C 
HETATM   10  O2  UNL     1       0.758   1.334  86.591  1.00  0.00    -0.263 OA
BRANCH   9  11
HETATM   11  O1  UNL     1      -1.398   0.650  86.441  1.00  0.00    -0.325 OA
HETATM   12  C1  UNL     1      -2.205   0.977  87.543  1.00  0.00     0.213 C 
ENDBRANCH   9  11
ENDBRANCH   8   9
ENDBRANCH   5   8
ENDBRANCH   1   4
BRANCH   1  13
HETATM   13  C7  UNL     1       0.959   2.841  80.384  1.00  0.00     0.086 A 
HETATM   14  N3  UNL     1       0.062   3.641  79.730  1.00  0.00    -0.349 N 
HETATM   15  C8  UNL     1       0.707   4.464  78.876  1.00  0.00     0.181 A 
ATOM     16  H3  UNL     1      -0.948   3.619  79.869  1.00  0.00     0.166 HD
HETATM   17  N4  UNL     1       1.987   4.183  78.995  1.00  0.00    -0.350 N 
HETATM   18  C9  UNL     1       2.202   3.187  79.914  1.00  0.00     0.062 A 
ATOM     19  H4  UNL     1       2.727   4.648  78.469  1.00  0.00     0.166 HD
BRANCH  18  20
HETATM   20  C10 UNL     1       3.393   2.729  80.211  1.00  0.00     0.052 C 
BRANCH  20  21
HETATM   21  C11 UNL     1       4.518   3.692  79.984  1.00  0.00     0.076 A 
HETATM   22  C12 UNL     1       4.922   4.533  80.987  1.00  0.00     0.139 A 
HETATM   23  N5  UNL     1       4.241   4.452  82.228  1.00  0.00    -0.081 NA
HETATM   24  N6  UNL     1       5.943   5.403  80.773  1.00  0.00    -0.273 N 
HETATM   25  C15 UNL     1       6.558   5.441  79.576  1.00  0.00     0.331 A 
HETATM   26  O4  UNL     1       7.501   6.274  79.441  1.00  0.00    -0.246 OA
HETATM   27  N8  UNL     1       6.170   4.623  78.589  1.00  0.00    -0.274 N 
HETATM   28  C16 UNL     1       5.162   3.748  78.769  1.00  0.00     0.263 A 
ATOM     29  H8  UNL     1       6.645   4.663  77.687  1.00  0.00     0.173 HD
HETATM   30  O5  UNL     1       4.774   2.964  77.857  1.00  0.00    -0.267 OA
BRANCH  24  31
HETATM   31  C13 UNL     1       6.364   6.284  81.827  1.00  0.00     0.258 C 
HETATM   32  C14 UNL     1       7.551   5.751  82.513  1.00  0.00     0.079 C 
HETATM   33  N7  UNL     1       8.488   5.329  83.038  1.00  0.00    -0.196 NA
ENDBRANCH  24  31
ENDBRANCH  20  21
ENDBRANCH  18  20
ENDBRANCH   1  13
TORSDOF 8
ENDMDL
