MODEL 1
REMARK VINA RESULT: -8.393621847      0.000      0.000
REMARK  6 active torsions:
REMARK  status: ('A' for Active; 'I' for Inactive)
REMARK    1  A    between atoms: N3_9  and  C4_10 
REMARK    2  A    between atoms: C4_10  and  C5_11 
REMARK    3  A    between atoms: C5_11  and  N4_12 
REMARK       I    between atoms: N4_12  and  C6_14 
REMARK    4  A    between atoms: C6_14  and  C7_16 
REMARK    5  A    between atoms: C7_16  and  N5_17 
REMARK    6  A    between atoms: N5_17  and  C8_19 
ROOT
HETATM    1  N4  UNL     1       2.060   5.312  81.386  1.00  0.00    -0.358 N 
ATOM      2  H4  UNL     1       1.513   6.173  81.399  1.00  0.00     0.162 HD
HETATM    3  C6  UNL     1       2.518   4.807  82.631  1.00  0.00     0.235 C 
HETATM    4  O3  UNL     1       3.196   3.738  82.612  1.00  0.00    -0.272 OA
ENDROOT
BRANCH   3   5
HETATM    5  C7  UNL     1       2.249   5.452  83.919  1.00  0.00     0.224 C 
BRANCH   5   6
HETATM    6  N5  UNL     1       1.617   4.502  84.807  1.00  0.00    -0.367 N 
ATOM      7  H5  UNL     1       2.212   3.909  85.384  1.00  0.00     0.161 HD
BRANCH   6   8
HETATM    8  C8  UNL     1       0.338   4.367  84.907  1.00  0.00     0.121 A 
HETATM    9  N6  UNL     1      -0.455   5.190  84.220  1.00  0.00    -0.294 N 
HETATM   10  C9  UNL     1      -1.814   5.091  84.290  1.00  0.00     0.327 A 
ATOM     11  H6  UNL     1      -0.037   5.910  83.629  1.00  0.00     0.172 HD
HETATM   12  O4  UNL     1      -2.554   5.862  83.646  1.00  0.00    -0.247 OA
HETATM   13  N7  UNL     1      -2.322   4.126  85.083  1.00  0.00    -0.292 N 
HETATM   14  C10 UNL     1      -1.552   3.280  85.791  1.00  0.00     0.141 A 
ATOM     15  H7  UNL     1      -3.336   4.034  85.150  1.00  0.00     0.172 HD
HETATM   16  C11 UNL     1      -0.166   3.389  85.713  1.00  0.00     0.070 A 
HETATM   17  N9  UNL     1      -1.784   2.261  86.632  1.00  0.00    -0.281 N 
HETATM   18  C12 UNL     1       0.398   2.412  86.524  1.00  0.00     0.126 A 
HETATM   19  N8  UNL     1      -0.636   1.757  87.058  1.00  0.00    -0.307 N 
ATOM     20  H8  UNL     1      -0.553   0.974  87.708  1.00  0.00     0.186 HD
HETATM   21  C13 UNL     1      -3.109   1.801  87.000  1.00  0.00     0.179 C 
ENDBRANCH   6   8
ENDBRANCH   5   6
ENDBRANCH   3   5
BRANCH   1  22
HETATM   22  C5  UNL     1       2.306   4.708  80.124  1.00  0.00     0.143 C 
BRANCH  22  23
HETATM   23  C4  UNL     1       1.313   3.757  79.570  1.00  0.00     0.158 C 
BRANCH  23  24
HETATM   24  N3  UNL     1       0.935   2.653  80.409  1.00  0.00    -0.249 N 
HETATM   25  C3  UNL     1      -0.132   2.854  81.245  1.00  0.00     0.334 A 
HETATM   26  N2  UNL     1      -0.585   1.935  82.104  1.00  0.00    -0.260 N 
HETATM   27  O2  UNL     1      -0.720   3.969  81.201  1.00  0.00    -0.246 OA
HETATM   28  C2  UNL     1       0.043   0.739  82.155  1.00  0.00     0.334 A 
ATOM     29  H2  UNL     1      -1.384   2.132  82.706  1.00  0.00     0.175 HD
HETATM   30  N1  UNL     1       1.081   0.502  81.362  1.00  0.00    -0.255 N 
HETATM   31  O1  UNL     1      -0.387  -0.133  82.969  1.00  0.00    -0.246 OA
HETATM   32  C1  UNL     1       1.749  -0.773  81.417  1.00  0.00     0.166 C 
HETATM   33  C14 UNL     1       1.511   1.462  80.504  1.00  0.00     0.336 A 
HETATM   34  O5  UNL     1       2.488   1.177  79.796  1.00  0.00    -0.246 OA
ENDBRANCH  23  24
ENDBRANCH  22  23
ENDBRANCH   1  22
TORSDOF 6
ENDMDL
MODEL 2
REMARK VINA RESULT: -8.304926951      1.939      5.686
REMARK  6 active torsions:
REMARK  status: ('A' for Active; 'I' for Inactive)
REMARK    1  A    between atoms: N3_9  and  C4_10 
REMARK    2  A    between atoms: C4_10  and  C5_11 
REMARK    3  A    between atoms: C5_11  and  N4_12 
REMARK       I    between atoms: N4_12  and  C6_14 
REMARK    4  A    between atoms: C6_14  and  C7_16 
REMARK    5  A    between atoms: C7_16  and  N5_17 
REMARK    6  A    between atoms: N5_17  and  C8_19 
ROOT
HETATM    1  N4  UNL     1      -1.137   5.386  82.568  1.00  0.00    -0.358 N 
ATOM      2  H4  UNL     1      -1.510   4.528  82.160  1.00  0.00     0.162 HD
HETATM    3  C6  UNL     1      -0.205   6.127  81.796  1.00  0.00     0.235 C 
HETATM    4  O3  UNL     1       0.255   7.191  82.303  1.00  0.00    -0.272 OA
ENDROOT
BRANCH   3   5
HETATM    5  C7  UNL     1       0.245   5.727  80.460  1.00  0.00     0.224 C 
BRANCH   5   6
HETATM    6  N5  UNL     1      -0.131   4.352  80.219  1.00  0.00    -0.367 N 
ATOM      7  H5  UNL     1      -1.113   4.144  80.041  1.00  0.00     0.161 HD
BRANCH   6   8
HETATM    8  C8  UNL     1       0.713   3.377  80.217  1.00  0.00     0.121 A 
HETATM    9  N6  UNL     1       1.903   3.551  79.642  1.00  0.00    -0.294 N 
HETATM   10  C9  UNL     1       2.830   2.551  79.613  1.00  0.00     0.327 A 
ATOM     11  H6  UNL     1       2.125   4.450  79.215  1.00  0.00     0.172 HD
HETATM   12  O4  UNL     1       3.944   2.716  79.074  1.00  0.00    -0.247 OA
HETATM   13  N7  UNL     1       2.494   1.379  80.189  1.00  0.00    -0.292 N 
HETATM   14  C10 UNL     1       1.303   1.169  80.777  1.00  0.00     0.141 A 
ATOM     15  H7  UNL     1       3.174   0.618  80.179  1.00  0.00     0.172 HD
HETATM   16  C11 UNL     1       0.362   2.195  80.802  1.00  0.00     0.070 A 
HETATM   17  N9  UNL     1       0.722   0.136  81.407  1.00  0.00    -0.281 N 
HETATM   18  C12 UNL     1      -0.772   1.735  81.459  1.00  0.00     0.126 A 
HETATM   19  N8  UNL     1      -0.494   0.475  81.804  1.00  0.00    -0.307 N 
ATOM     20  H8  UNL     1      -1.133  -0.143  82.305  1.00  0.00     0.186 HD
HETATM   21  C13 UNL     1       1.361  -1.150  81.608  1.00  0.00     0.179 C 
ENDBRANCH   6   8
ENDBRANCH   5   6
ENDBRANCH   3   5
BRANCH   1  22
HETATM   22  C5  UNL     1      -1.591   5.749  83.864  1.00  0.00     0.143 C 
BRANCH  22  23
HETATM   23  C4  UNL     1      -0.809   5.327  85.050  1.00  0.00     0.158 C 
BRANCH  23  24
HETATM   24  N3  UNL     1      -0.860   3.933  85.398  1.00  0.00    -0.249 N 
HETATM   25  C3  UNL     1       0.069   3.117  84.805  1.00  0.00     0.334 A 
HETATM   26  N2  UNL     1       0.130   1.797  85.005  1.00  0.00    -0.260 N 
HETATM   27  O2  UNL     1       0.911   3.643  84.029  1.00  0.00    -0.246 OA
HETATM   28  C2  UNL     1      -0.772   1.230  85.837  1.00  0.00     0.334 A 
ATOM     29  H2  UNL     1       0.840   1.231  84.541  1.00  0.00     0.175 HD
HETATM   30  N1  UNL     1      -1.689   1.984  86.432  1.00  0.00    -0.255 N 
HETATM   31  O1  UNL     1      -0.713  -0.023  86.026  1.00  0.00    -0.246 OA
HETATM   32  C1  UNL     1      -2.650   1.378  87.318  1.00  0.00     0.166 C 
HETATM   33  C14 UNL     1      -1.719   3.321  86.202  1.00  0.00     0.336 A 
HETATM   34  O5  UNL     1      -2.604   3.966  86.786  1.00  0.00    -0.246 OA
ENDBRANCH  23  24
ENDBRANCH  22  23
ENDBRANCH   1  22
TORSDOF 6
ENDMDL
MODEL 3
REMARK VINA RESULT: -8.229548362      1.298      1.660
REMARK  6 active torsions:
REMARK  status: ('A' for Active; 'I' for Inactive)
REMARK    1  A    between atoms: N3_9  and  C4_10 
REMARK    2  A    between atoms: C4_10  and  C5_11 
REMARK    3  A    between atoms: C5_11  and  N4_12 
REMARK       I    between atoms: N4_12  and  C6_14 
REMARK    4  A    between atoms: C6_14  and  C7_16 
REMARK    5  A    between atoms: C7_16  and  N5_17 
REMARK    6  A    between atoms: N5_17  and  C8_19 
ROOT
HETATM    1  N4  UNL     1       3.694   4.426  82.324  1.00  0.00    -0.358 N 
ATOM      2  H4  UNL     1       4.043   3.785  83.037  1.00  0.00     0.162 HD
HETATM    3  C6  UNL     1       2.737   5.393  82.725  1.00  0.00     0.235 C 
HETATM    4  O3  UNL     1       2.306   6.188  81.839  1.00  0.00    -0.272 OA
ENDROOT
BRANCH   3   5
HETATM    5  C7  UNL     1       2.229   5.518  84.094  1.00  0.00     0.224 C 
BRANCH   5   6
HETATM    6  N5  UNL     1       1.553   4.295  84.467  1.00  0.00    -0.367 N 
ATOM      7  H5  UNL     1       2.108   3.445  84.561  1.00  0.00     0.161 HD
BRANCH   6   8
HETATM    8  C8  UNL     1       0.284   4.225  84.687  1.00  0.00     0.121 A 
HETATM    9  N6  UNL     1      -0.531   5.066  84.048  1.00  0.00    -0.294 N 
HETATM   10  C9  UNL     1      -1.880   5.034  84.245  1.00  0.00     0.327 A 
ATOM     11  H6  UNL     1      -0.137   5.747  83.398  1.00  0.00     0.172 HD
HETATM   12  O4  UNL     1      -2.641   5.821  83.646  1.00  0.00    -0.247 OA
HETATM   13  N7  UNL     1      -2.357   4.118  85.113  1.00  0.00    -0.292 N 
HETATM   14  C10 UNL     1      -1.564   3.256  85.774  1.00  0.00     0.141 A 
ATOM     15  H7  UNL     1      -3.363   4.077  85.274  1.00  0.00     0.172 HD
HETATM   16  C11 UNL     1      -0.187   3.296  85.567  1.00  0.00     0.070 A 
HETATM   17  N9  UNL     1      -1.763   2.274  86.667  1.00  0.00    -0.281 N 
HETATM   18  C12 UNL     1       0.404   2.317  86.356  1.00  0.00     0.126 A 
HETATM   19  N8  UNL     1      -0.605   1.728  87.003  1.00  0.00    -0.307 N 
ATOM     20  H8  UNL     1      -0.498   0.961  87.668  1.00  0.00     0.186 HD
HETATM   21  C13 UNL     1      -3.069   1.890  87.168  1.00  0.00     0.179 C 
ENDBRANCH   6   8
ENDBRANCH   5   6
ENDBRANCH   3   5
BRANCH   1  22
HETATM   22  C5  UNL     1       4.203   4.283  81.006  1.00  0.00     0.143 C 
BRANCH  22  23
HETATM   23  C4  UNL     1       3.530   3.356  80.066  1.00  0.00     0.158 C 
BRANCH  23  24
HETATM   24  N3  UNL     1       2.185   2.967  80.390  1.00  0.00    -0.249 N 
HETATM   25  C3  UNL     1       1.180   3.604  79.711  1.00  0.00     0.334 A 
HETATM   26  N2  UNL     1      -0.119   3.373  79.921  1.00  0.00    -0.260 N 
HETATM   27  O2  UNL     1       1.500   4.456  78.838  1.00  0.00    -0.246 OA
HETATM   28  C2  UNL     1      -0.467   2.461  80.856  1.00  0.00     0.334 A 
ATOM     29  H2  UNL     1      -0.831   3.874  79.389  1.00  0.00     0.175 HD
HETATM   30  N1  UNL     1       0.475   1.819  81.538  1.00  0.00    -0.255 N 
HETATM   31  O1  UNL     1      -1.700   2.242  81.055  1.00  0.00    -0.246 OA
HETATM   32  C1  UNL     1       0.104   0.848  82.534  1.00  0.00     0.166 C 
HETATM   33  C14 UNL     1       1.784   2.083  81.295  1.00  0.00     0.336 A 
HETATM   34  O5  UNL     1       2.612   1.453  81.970  1.00  0.00    -0.246 OA
ENDBRANCH  23  24
ENDBRANCH  22  23
ENDBRANCH   1  22
TORSDOF 6
ENDMDL
MODEL 4
REMARK VINA RESULT: -8.139280975      1.710      4.233
REMARK  6 active torsions:
REMARK  status: ('A' for Active; 'I' for Inactive)
REMARK    1  A    between atoms: N3_9  and  C4_10 
REMARK    2  A    between atoms: C4_10  and  C5_11 
REMARK    3  A    between atoms: C5_11  and  N4_12 
REMARK       I    between atoms: N4_12  and  C6_14 
REMARK    4  A    between atoms: C6_14  and  C7_16 
REMARK    5  A    between atoms: C7_16  and  N5_17 
REMARK    6  A    between atoms: N5_17  and  C8_19 
ROOT
HETATM    1  N4  UNL     1       0.013   1.243  83.847  1.00  0.00    -0.358 N 
ATOM      2  H4  UNL     1       0.154   2.156  83.414  1.00  0.00     0.162 HD
HETATM    3  C6  UNL     1      -0.365   1.217  85.214  1.00  0.00     0.235 C 
HETATM    4  O3  UNL     1      -0.539   0.084  85.749  1.00  0.00    -0.272 OA
ENDROOT
BRANCH   3   5
HETATM    5  C7  UNL     1      -0.562   2.421  86.027  1.00  0.00     0.224 C 
BRANCH   5   6
HETATM    6  N5  UNL     1       0.352   3.452  85.587  1.00  0.00    -0.367 N 
ATOM      7  H5  UNL     1       1.333   3.375  85.854  1.00  0.00     0.161 HD
BRANCH   6   8
HETATM    8  C8  UNL     1      -0.011   4.463  84.873  1.00  0.00     0.121 A 
HETATM    9  N6  UNL     1      -1.308   4.649  84.627  1.00  0.00    -0.294 N 
HETATM   10  C9  UNL     1      -1.744   5.702  83.877  1.00  0.00     0.327 A 
ATOM     11  H6  UNL     1      -1.989   3.991  85.008  1.00  0.00     0.172 HD
HETATM   12  O4  UNL     1      -2.959   5.875  83.648  1.00  0.00    -0.247 OA
HETATM   13  N7  UNL     1      -0.810   6.546  83.394  1.00  0.00    -0.292 N 
HETATM   14  C10 UNL     1       0.506   6.387  83.622  1.00  0.00     0.141 A 
ATOM     15  H7  UNL     1      -1.115   7.340  82.831  1.00  0.00     0.172 HD
HETATM   16  C11 UNL     1       0.943   5.309  84.388  1.00  0.00     0.070 A 
HETATM   17  N9  UNL     1       1.618   7.053  83.275  1.00  0.00    -0.281 N 
HETATM   18  C12 UNL     1       2.327   5.367  84.478  1.00  0.00     0.126 A 
HETATM   19  N8  UNL     1       2.682   6.449  83.780  1.00  0.00    -0.307 N 
ATOM     20  H8  UNL     1       3.643   6.767  83.653  1.00  0.00     0.186 HD
HETATM   21  C13 UNL     1       1.620   8.256  82.465  1.00  0.00     0.179 C 
ENDBRANCH   6   8
ENDBRANCH   5   6
ENDBRANCH   3   5
BRANCH   1  22
HETATM   22  C5  UNL     1       0.211   0.094  83.036  1.00  0.00     0.143 C 
BRANCH  22  23
HETATM   23  C4  UNL     1      -0.006   0.193  81.574  1.00  0.00     0.158 C 
BRANCH  23  24
HETATM   24  N3  UNL     1       0.465   1.387  80.928  1.00  0.00    -0.249 N 
HETATM   25  C3  UNL     1      -0.466   2.365  80.690  1.00  0.00     0.334 A 
HETATM   26  N2  UNL     1      -0.189   3.518  80.073  1.00  0.00    -0.260 N 
HETATM   27  O2  UNL     1      -1.649   2.166  81.077  1.00  0.00    -0.246 OA
HETATM   28  C2  UNL     1       1.079   3.736  79.657  1.00  0.00     0.334 A 
ATOM     29  H2  UNL     1      -0.916   4.216  79.920  1.00  0.00     0.175 HD
HETATM   30  N1  UNL     1       2.012   2.815  79.866  1.00  0.00    -0.255 N 
HETATM   31  O1  UNL     1       1.342   4.830  79.072  1.00  0.00    -0.246 OA
HETATM   32  C1  UNL     1       3.362   3.047  79.422  1.00  0.00     0.166 C 
HETATM   33  C14 UNL     1       1.690   1.656  80.496  1.00  0.00     0.336 A 
HETATM   34  O5  UNL     1       2.608   0.837  80.656  1.00  0.00    -0.246 OA
ENDBRANCH  23  24
ENDBRANCH  22  23
ENDBRANCH   1  22
TORSDOF 6
ENDMDL
MODEL 5
REMARK VINA RESULT: -7.855555605      1.889      4.442
REMARK  6 active torsions:
REMARK  status: ('A' for Active; 'I' for Inactive)
REMARK    1  A    between atoms: N3_9  and  C4_10 
REMARK    2  A    between atoms: C4_10  and  C5_11 
REMARK    3  A    between atoms: C5_11  and  N4_12 
REMARK       I    between atoms: N4_12  and  C6_14 
REMARK    4  A    between atoms: C6_14  and  C7_16 
REMARK    5  A    between atoms: C7_16  and  N5_17 
REMARK    6  A    between atoms: N5_17  and  C8_19 
ROOT
HETATM    1  N4  UNL     1       0.056   1.258  83.783  1.00  0.00    -0.358 N 
ATOM      2  H4  UNL     1       0.321   2.118  83.303  1.00  0.00     0.162 HD
HETATM    3  C6  UNL     1      -0.277   1.351  85.159  1.00  0.00     0.235 C 
HETATM    4  O3  UNL     1      -0.606   0.283  85.753  1.00  0.00    -0.272 OA
ENDROOT
BRANCH   3   5
HETATM    5  C7  UNL     1      -0.260   2.606  85.918  1.00  0.00     0.224 C 
BRANCH   5   6
HETATM    6  N5  UNL     1      -0.696   3.688  85.063  1.00  0.00    -0.367 N 
ATOM      7  H5  UNL     1      -1.679   3.727  84.796  1.00  0.00     0.161 HD
BRANCH   6   8
HETATM    8  C8  UNL     1       0.096   4.606  84.623  1.00  0.00     0.121 A 
HETATM    9  N6  UNL     1       1.171   4.251  83.918  1.00  0.00    -0.294 N 
HETATM   10  C9  UNL     1       2.040   5.182  83.430  1.00  0.00     0.327 A 
ATOM     11  H6  UNL     1       1.347   3.262  83.739  1.00  0.00     0.172 HD
HETATM   12  O4  UNL     1       3.045   4.848  82.770  1.00  0.00    -0.247 OA
HETATM   13  N7  UNL     1       1.768   6.477  83.691  1.00  0.00    -0.292 N 
HETATM   14  C10 UNL     1       0.695   6.870  84.399  1.00  0.00     0.141 A 
ATOM     15  H7  UNL     1       2.405   7.190  83.335  1.00  0.00     0.172 HD
HETATM   16  C11 UNL     1      -0.188   5.913  84.894  1.00  0.00     0.070 A 
HETATM   17  N9  UNL     1       0.198   8.052  84.796  1.00  0.00    -0.281 N 
HETATM   18  C12 UNL     1      -1.203   6.564  85.581  1.00  0.00     0.126 A 
HETATM   19  N8  UNL     1      -0.915   7.865  85.489  1.00  0.00    -0.307 N 
ATOM     20  H8  UNL     1      -1.475   8.614  85.897  1.00  0.00     0.186 HD
HETATM   21  C13 UNL     1       0.813   9.330  84.493  1.00  0.00     0.179 C 
ENDBRANCH   6   8
ENDBRANCH   5   6
ENDBRANCH   3   5
BRANCH   1  22
HETATM   22  C5  UNL     1       0.047   0.057  83.024  1.00  0.00     0.143 C 
BRANCH  22  23
HETATM   23  C4  UNL     1       0.009   0.135  81.545  1.00  0.00     0.158 C 
BRANCH  23  24
HETATM   24  N3  UNL     1       0.494   1.349  80.947  1.00  0.00    -0.249 N 
HETATM   25  C3  UNL     1      -0.436   2.324  80.694  1.00  0.00     0.334 A 
HETATM   26  N2  UNL     1      -0.145   3.493  80.115  1.00  0.00    -0.260 N 
HETATM   27  O2  UNL     1      -1.632   2.104  81.026  1.00  0.00    -0.246 OA
HETATM   28  C2  UNL     1       1.136   3.732  79.757  1.00  0.00     0.334 A 
ATOM     29  H2  UNL     1      -0.873   4.188  79.948  1.00  0.00     0.175 HD
HETATM   30  N1  UNL     1       2.069   2.815  79.984  1.00  0.00    -0.255 N 
HETATM   31  O1  UNL     1       1.412   4.842  79.209  1.00  0.00    -0.246 OA
HETATM   32  C1  UNL     1       3.434   3.070  79.602  1.00  0.00     0.166 C 
HETATM   33  C14 UNL     1       1.733   1.639  80.573  1.00  0.00     0.336 A 
HETATM   34  O5  UNL     1       2.651   0.824  80.751  1.00  0.00    -0.246 OA
ENDBRANCH  23  24
ENDBRANCH  22  23
ENDBRANCH   1  22
TORSDOF 6
ENDMDL
