MODEL 1
REMARK VINA RESULT: -5.812461631      0.000      0.000
REMARK  5 active torsions:
REMARK  status: ('A' for Active; 'I' for Inactive)
REMARK    1  A    between atoms: O1_1  and  C1_3 
REMARK    2  A    between atoms: C1_3  and  C2_4 
REMARK    3  A    between atoms: C3_5  and  N1_6 
REMARK    4  A    between atoms: C12_15  and  C13_16 
REMARK    5  A    between atoms: C13_16  and  O2_17 
ROOT
HETATM    1  C2  UNL     1     135.210  -2.290 -54.536  1.00  0.00     0.083 C 
HETATM    2  C3  UNL     1     136.268  -2.074 -53.505  1.00  0.00     0.262 C 
HETATM    3  C8  UNL     1     137.543  -2.342 -54.214  1.00  0.00     0.220 C 
HETATM    4  C9  UNL     1     138.287  -1.212 -54.812  1.00  0.00     0.035 C 
HETATM    5  C10 UNL     1     137.717  -0.691 -56.092  1.00  0.00     0.005 C 
HETATM    6  C11 UNL     1     136.384  -1.221 -56.471  1.00  0.00     0.042 C 
HETATM    7  C12 UNL     1     135.980  -2.520 -55.814  1.00  0.00     0.154 C 
HETATM    8  N2  UNL     1     137.167  -3.223 -55.341  1.00  0.00    -0.057 N 
ATOM      9  H21 UNL     1     137.042  -4.210 -55.115  1.00  0.00     0.278 HD
ATOM     10  H22 UNL     1     137.893  -3.393 -56.038  1.00  0.00     0.278 HD
ENDROOT
BRANCH   2  11
HETATM   11  N1  UNL     1     136.174  -1.030 -52.591  1.00  0.00     0.095 N 
HETATM   12  C4  UNL     1     135.917  -1.518 -51.223  1.00  0.00     0.273 C 
HETATM   13  C5  UNL     1     135.777  -0.197 -50.459  1.00  0.00     0.032 C 
HETATM   14  C6  UNL     1     134.790   0.472 -51.409  1.00  0.00     0.032 C 
HETATM   15  C7  UNL     1     135.359   0.086 -52.791  1.00  0.00     0.273 C 
ENDBRANCH   2  11
BRANCH   1  16
HETATM   16  C1  UNL     1     134.358  -3.495 -54.231  1.00  0.00     0.173 C 
BRANCH  16  17
HETATM   17  O1  UNL     1     132.990  -3.244 -54.305  1.00  0.00    -0.400 OA
ATOM     18  H1  UNL     1     132.470  -3.806 -53.742  1.00  0.00     0.209 HD
ENDBRANCH  16  17
ENDBRANCH   1  16
BRANCH   7  19
HETATM   19  C13 UNL     1     135.280  -3.342 -56.849  1.00  0.00     0.203 C 
BRANCH  19  20
HETATM   20  O2  UNL     1     135.489  -2.661 -58.082  1.00  0.00    -0.398 OA
ATOM     21  H2  UNL     1     136.389  -2.358 -58.056  1.00  0.00     0.209 HD
ENDBRANCH  19  20
ENDBRANCH   7  19
TORSDOF 5
ENDMDL
MODEL 2
REMARK VINA RESULT: -5.646690680      2.689      4.275
REMARK  5 active torsions:
REMARK  status: ('A' for Active; 'I' for Inactive)
REMARK    1  A    between atoms: O1_1  and  C1_3 
REMARK    2  A    between atoms: C1_3  and  C2_4 
REMARK    3  A    between atoms: C3_5  and  N1_6 
REMARK    4  A    between atoms: C12_15  and  C13_16 
REMARK    5  A    between atoms: C13_16  and  O2_17 
ROOT
HETATM    1  C2  UNL     1     134.812  -3.211 -53.049  1.00  0.00     0.083 C 
HETATM    2  C3  UNL     1     135.134  -4.525 -53.681  1.00  0.00     0.262 C 
HETATM    3  C8  UNL     1     136.005  -4.185 -54.832  1.00  0.00     0.220 C 
HETATM    4  C9  UNL     1     137.474  -4.223 -54.660  1.00  0.00     0.035 C 
HETATM    5  C10 UNL     1     138.050  -3.061 -53.917  1.00  0.00     0.005 C 
HETATM    6  C11 UNL     1     137.070  -2.153 -53.272  1.00  0.00     0.042 C 
HETATM    7  C12 UNL     1     135.659  -2.218 -53.809  1.00  0.00     0.154 C 
HETATM    8  N2  UNL     1     135.670  -2.780 -55.154  1.00  0.00    -0.057 N 
ATOM      9  H21 UNL     1     134.823  -2.639 -55.705  1.00  0.00     0.278 HD
ATOM     10  H22 UNL     1     136.281  -2.318 -55.828  1.00  0.00     0.278 HD
ENDROOT
BRANCH   2  11
HETATM   11  N1  UNL     1     135.398  -5.646 -52.903  1.00  0.00     0.095 N 
HETATM   12  C4  UNL     1     135.275  -6.895 -53.678  1.00  0.00     0.273 C 
HETATM   13  C5  UNL     1     135.525  -7.945 -52.590  1.00  0.00     0.032 C 
HETATM   14  C6  UNL     1     134.549  -7.391 -51.558  1.00  0.00     0.032 C 
HETATM   15  C7  UNL     1     134.797  -5.871 -51.661  1.00  0.00     0.273 C 
ENDBRANCH   2  11
BRANCH   1  16
HETATM   16  C1  UNL     1     133.355  -2.853 -53.196  1.00  0.00     0.173 C 
BRANCH  16  17
HETATM   17  O1  UNL     1     132.750  -3.428 -54.311  1.00  0.00    -0.400 OA
ATOM     18  H1  UNL     1     133.062  -3.075 -55.137  1.00  0.00     0.209 HD
ENDBRANCH  16  17
ENDBRANCH   1  16
BRANCH   7  19
HETATM   19  C13 UNL     1     135.134  -0.818 -53.846  1.00  0.00     0.203 C 
BRANCH  19  20
HETATM   20  O2  UNL     1     135.863  -0.165 -54.880  1.00  0.00    -0.398 OA
ATOM     21  H2  UNL     1     135.329  -0.252 -55.662  1.00  0.00     0.209 HD
ENDBRANCH  19  20
ENDBRANCH   7  19
TORSDOF 5
ENDMDL
MODEL 3
REMARK VINA RESULT: -5.573285708      2.336      3.891
REMARK  5 active torsions:
REMARK  status: ('A' for Active; 'I' for Inactive)
REMARK    1  A    between atoms: O1_1  and  C1_3 
REMARK    2  A    between atoms: C1_3  and  C2_4 
REMARK    3  A    between atoms: C3_5  and  N1_6 
REMARK    4  A    between atoms: C12_15  and  C13_16 
REMARK    5  A    between atoms: C13_16  and  O2_17 
ROOT
HETATM    1  C2  UNL     1     137.865  -1.179 -55.674  1.00  0.00     0.083 C 
HETATM    2  C3  UNL     1     137.623  -1.423 -54.221  1.00  0.00     0.262 C 
HETATM    3  C8  UNL     1     136.181  -1.760 -54.132  1.00  0.00     0.220 C 
HETATM    4  C9  UNL     1     135.770  -3.180 -54.154  1.00  0.00     0.035 C 
HETATM    5  C10 UNL     1     135.808  -3.825 -55.502  1.00  0.00     0.005 C 
HETATM    6  C11 UNL     1     136.451  -3.035 -56.581  1.00  0.00     0.042 C 
HETATM    7  C12 UNL     1     136.558  -1.548 -56.334  1.00  0.00     0.154 C 
HETATM    8  N2  UNL     1     135.577  -1.143 -55.334  1.00  0.00    -0.057 N 
ATOM      9  H21 UNL     1     135.386  -0.143 -55.275  1.00  0.00     0.278 HD
ATOM     10  H22 UNL     1     134.609  -1.398 -55.529  1.00  0.00     0.278 HD
ENDROOT
BRANCH   2  11
HETATM   11  N1  UNL     1     138.555  -2.101 -53.445  1.00  0.00     0.095 N 
HETATM   12  C4  UNL     1     139.034  -1.280 -52.317  1.00  0.00     0.273 C 
HETATM   13  C5  UNL     1     140.083  -2.210 -51.697  1.00  0.00     0.032 C 
HETATM   14  C6  UNL     1     140.827  -2.548 -52.985  1.00  0.00     0.032 C 
HETATM   15  C7  UNL     1     139.669  -2.750 -53.985  1.00  0.00     0.273 C 
ENDBRANCH   2  11
BRANCH   1  16
HETATM   16  C1  UNL     1     138.190   0.265 -55.960  1.00  0.00     0.173 C 
BRANCH  16  17
HETATM   17  O1  UNL     1     138.104   1.088 -54.839  1.00  0.00    -0.400 OA
ATOM     18  H1  UNL     1     138.698   1.829 -54.866  1.00  0.00     0.209 HD
ENDBRANCH  16  17
ENDBRANCH   1  16
BRANCH   7  19
HETATM   19  C13 UNL     1     136.276  -0.862 -57.632  1.00  0.00     0.203 C 
BRANCH  19  20
HETATM   20  O2  UNL     1     134.877  -1.017 -57.849  1.00  0.00    -0.398 OA
ATOM     21  H2  UNL     1     134.631  -1.800 -57.370  1.00  0.00     0.209 HD
ENDBRANCH  19  20
ENDBRANCH   7  19
TORSDOF 5
ENDMDL
MODEL 4
REMARK VINA RESULT: -5.529525674      0.723      1.113
REMARK  5 active torsions:
REMARK  status: ('A' for Active; 'I' for Inactive)
REMARK    1  A    between atoms: O1_1  and  C1_3 
REMARK    2  A    between atoms: C1_3  and  C2_4 
REMARK    3  A    between atoms: C3_5  and  N1_6 
REMARK    4  A    between atoms: C12_15  and  C13_16 
REMARK    5  A    between atoms: C13_16  and  O2_17 
ROOT
HETATM    1  C2  UNL     1     135.214  -2.376 -54.564  1.00  0.00     0.083 C 
HETATM    2  C3  UNL     1     136.274  -2.221 -53.523  1.00  0.00     0.262 C 
HETATM    3  C8  UNL     1     137.543  -2.504 -54.236  1.00  0.00     0.220 C 
HETATM    4  C9  UNL     1     138.321  -1.379 -54.799  1.00  0.00     0.035 C 
HETATM    5  C10 UNL     1     137.771  -0.806 -56.065  1.00  0.00     0.005 C 
HETATM    6  C11 UNL     1     136.426  -1.286 -56.463  1.00  0.00     0.042 C 
HETATM    7  C12 UNL     1     135.982  -2.592 -55.846  1.00  0.00     0.154 C 
HETATM    8  N2  UNL     1     137.146  -3.341 -55.390  1.00  0.00    -0.057 N 
ATOM      9  H21 UNL     1     136.993  -4.331 -55.192  1.00  0.00     0.278 HD
ATOM     10  H22 UNL     1     137.870  -3.512 -56.088  1.00  0.00     0.278 HD
ENDROOT
BRANCH   2  11
HETATM   11  N1  UNL     1     136.206  -1.202 -52.580  1.00  0.00     0.095 N 
HETATM   12  C4  UNL     1     135.550   0.004 -53.120  1.00  0.00     0.273 C 
HETATM   13  C5  UNL     1     135.684   0.969 -51.938  1.00  0.00     0.032 C 
HETATM   14  C6  UNL     1     137.172   0.755 -51.680  1.00  0.00     0.032 C 
HETATM   15  C7  UNL     1     137.311  -0.774 -51.840  1.00  0.00     0.273 C 
ENDBRANCH   2  11
BRANCH   1  16
HETATM   16  C1  UNL     1     134.327  -3.565 -54.296  1.00  0.00     0.173 C 
BRANCH  16  17
HETATM   17  O1  UNL     1     132.967  -3.264 -54.324  1.00  0.00    -0.400 OA
ATOM     18  H1  UNL     1     132.424  -3.917 -53.897  1.00  0.00     0.209 HD
ENDBRANCH  16  17
ENDBRANCH   1  16
BRANCH   7  19
HETATM   19  C13 UNL     1     135.263  -3.363 -56.906  1.00  0.00     0.203 C 
BRANCH  19  20
HETATM   20  O2  UNL     1     135.493  -2.651 -58.117  1.00  0.00    -0.398 OA
ATOM     21  H2  UNL     1     135.775  -3.304 -58.747  1.00  0.00     0.209 HD
ENDBRANCH  19  20
ENDBRANCH   7  19
TORSDOF 5
ENDMDL
MODEL 5
REMARK VINA RESULT: -5.446803917      1.189      1.216
REMARK  5 active torsions:
REMARK  status: ('A' for Active; 'I' for Inactive)
REMARK    1  A    between atoms: O1_1  and  C1_3 
REMARK    2  A    between atoms: C1_3  and  C2_4 
REMARK    3  A    between atoms: C3_5  and  N1_6 
REMARK    4  A    between atoms: C12_15  and  C13_16 
REMARK    5  A    between atoms: C13_16  and  O2_17 
ROOT
HETATM    1  C2  UNL     1     135.849  -2.407 -54.589  1.00  0.00     0.083 C 
HETATM    2  C3  UNL     1     136.805  -1.674 -53.706  1.00  0.00     0.262 C 
HETATM    3  C8  UNL     1     138.002  -1.450 -54.552  1.00  0.00     0.220 C 
HETATM    4  C9  UNL     1     138.136  -0.174 -55.288  1.00  0.00     0.035 C 
HETATM    5  C10 UNL     1     137.285  -0.061 -56.512  1.00  0.00     0.005 C 
HETATM    6  C11 UNL     1     136.276  -1.132 -56.700  1.00  0.00     0.042 C 
HETATM    7  C12 UNL     1     136.524  -2.414 -55.939  1.00  0.00     0.154 C 
HETATM    8  N2  UNL     1     137.935  -2.509 -55.583  1.00  0.00    -0.057 N 
ATOM      9  H21 UNL     1     138.263  -3.432 -55.298  1.00  0.00     0.278 HD
ATOM     10  H22 UNL     1     138.598  -2.424 -56.354  1.00  0.00     0.278 HD
ENDROOT
BRANCH   2  11
HETATM   11  N1  UNL     1     136.359  -0.684 -52.837  1.00  0.00     0.095 N 
HETATM   12  C4  UNL     1     136.490  -1.092 -51.425  1.00  0.00     0.273 C 
HETATM   13  C5  UNL     1     135.866   0.111 -50.710  1.00  0.00     0.032 C 
HETATM   14  C6  UNL     1     134.590   0.190 -51.542  1.00  0.00     0.032 C 
HETATM   15  C7  UNL     1     135.120  -0.054 -52.971  1.00  0.00     0.273 C 
ENDBRANCH   2  11
BRANCH   1  16
HETATM   16  C1  UNL     1     135.623  -3.824 -54.126  1.00  0.00     0.173 C 
BRANCH  16  17
HETATM   17  O1  UNL     1     136.680  -4.342 -53.381  1.00  0.00    -0.400 OA
ATOM     18  H1  UNL     1     137.521  -3.951 -53.590  1.00  0.00     0.209 HD
ENDBRANCH  16  17
ENDBRANCH   1  16
BRANCH   7  19
HETATM   19  C13 UNL     1     136.149  -3.545 -56.842  1.00  0.00     0.203 C 
BRANCH  19  20
HETATM   20  O2  UNL     1     135.500  -2.944 -57.957  1.00  0.00    -0.398 OA
ATOM     21  H2  UNL     1     135.280  -3.661 -58.541  1.00  0.00     0.209 HD
ENDBRANCH  19  20
ENDBRANCH   7  19
TORSDOF 5
ENDMDL
