MODEL 1
REMARK VINA RESULT: -5.862890921      0.000      0.000
REMARK  5 active torsions:
REMARK  status: ('A' for Active; 'I' for Inactive)
REMARK    1  A    between atoms: C2_2  and  C3_3 
REMARK    2  A    between atoms: N1_4  and  N2_6 
REMARK    3  A    between atoms: N2_6  and  C4_8 
REMARK    4  A    between atoms: C4_8  and  N3_10 
REMARK    5  A    between atoms: N3_10  and  C5_12 
ROOT
HETATM    1  N3  UNL     1     135.805  -5.814 -52.771  1.00  0.00    -0.361 N 
ATOM      2  H3  UNL     1     136.338  -5.481 -51.968  1.00  0.00     0.162 HD
ENDROOT
BRANCH   1   3
HETATM    3  C4  UNL     1     135.284  -7.133 -52.731  1.00  0.00     0.186 C 
HETATM    4  S1  UNL     1     136.098  -8.395 -53.406  1.00  0.00    -0.040 SA
BRANCH   3   5
HETATM    5  N2  UNL     1     134.045  -7.354 -52.099  1.00  0.00    -0.277 N 
ATOM      6  H2  UNL     1     133.211  -6.863 -52.424  1.00  0.00     0.189 HD
BRANCH   5   7
HETATM    7  N1  UNL     1     133.961  -8.238 -51.035  1.00  0.00    -0.314 N 
HETATM    8  C3  UNL     1     134.715  -8.019 -50.007  1.00  0.00     0.080 C 
ATOM      9  H1  UNL     1     133.326  -9.036 -51.063  1.00  0.00     0.185 HD
BRANCH   8  10
HETATM   10  C2  UNL     1     134.665  -8.937 -48.840  1.00  0.00     0.041 C 
HETATM   11  C1  UNL     1     134.332  -8.146 -47.615  1.00  0.00     0.010 C 
ENDBRANCH   8  10
ENDBRANCH   5   7
ENDBRANCH   3   5
ENDBRANCH   1   3
BRANCH   1  12
HETATM   12  C5  UNL     1     135.622  -4.921 -53.883  1.00  0.00     0.091 C 
HETATM   13  C6  UNL     1     136.834  -4.621 -54.685  1.00  0.00     0.028 C 
HETATM   14  C7  UNL     1     136.464  -3.300 -55.361  1.00  0.00     0.036 C 
HETATM   15  C8  UNL     1     135.213  -2.804 -54.724  1.00  0.00     0.154 C 
HETATM   16  O1  UNL     1     134.048  -3.289 -55.315  1.00  0.00    -0.281 OA
HETATM   17  C10 UNL     1     135.187  -3.571 -53.420  1.00  0.00     0.056 C 
HETATM   18  N4  UNL     1     133.098  -3.310 -54.358  1.00  0.00    -0.100 NA
HETATM   19  C9  UNL     1     133.721  -3.616 -53.111  1.00  0.00     0.152 C 
ENDBRANCH   1  12
TORSDOF 5
ENDMDL
MODEL 2
REMARK VINA RESULT: -5.334831395      5.322      7.640
REMARK  5 active torsions:
REMARK  status: ('A' for Active; 'I' for Inactive)
REMARK    1  A    between atoms: C2_2  and  C3_3 
REMARK    2  A    between atoms: N1_4  and  N2_6 
REMARK    3  A    between atoms: N2_6  and  C4_8 
REMARK    4  A    between atoms: C4_8  and  N3_10 
REMARK    5  A    between atoms: N3_10  and  C5_12 
ROOT
HETATM    1  N3  UNL     1     136.355  -0.133 -55.082  1.00  0.00    -0.361 N 
ATOM      2  H3  UNL     1     135.991   0.294 -55.933  1.00  0.00     0.162 HD
ENDROOT
BRANCH   1   3
HETATM    3  C4  UNL     1     136.951   0.710 -54.109  1.00  0.00     0.186 C 
HETATM    4  S1  UNL     1     136.119   1.196 -52.773  1.00  0.00    -0.040 SA
BRANCH   3   5
HETATM    5  N2  UNL     1     138.279   1.134 -54.302  1.00  0.00    -0.277 N 
ATOM      6  H2  UNL     1     138.729   1.011 -55.210  1.00  0.00     0.189 HD
BRANCH   5   7
HETATM    7  N1  UNL     1     138.976   1.719 -53.255  1.00  0.00    -0.314 N 
HETATM    8  C3  UNL     1     139.817   0.984 -52.604  1.00  0.00     0.080 C 
ATOM      9  H1  UNL     1     138.829   2.697 -53.007  1.00  0.00     0.185 HD
BRANCH   8  10
HETATM   10  C2  UNL     1     140.589   1.560 -51.473  1.00  0.00     0.041 C 
HETATM   11  C1  UNL     1     141.989   1.824 -51.926  1.00  0.00     0.010 C 
ENDBRANCH   8  10
ENDBRANCH   5   7
ENDBRANCH   3   5
ENDBRANCH   1   3
BRANCH   1  12
HETATM   12  C5  UNL     1     136.236  -1.558 -54.932  1.00  0.00     0.091 C 
HETATM   13  C6  UNL     1     137.048  -2.171 -53.852  1.00  0.00     0.028 C 
HETATM   14  C7  UNL     1     137.149  -3.629 -54.301  1.00  0.00     0.036 C 
HETATM   15  C8  UNL     1     136.633  -3.707 -55.696  1.00  0.00     0.154 C 
HETATM   16  O1  UNL     1     135.257  -3.907 -55.778  1.00  0.00    -0.281 OA
HETATM   17  C10 UNL     1     136.719  -2.267 -56.154  1.00  0.00     0.056 C 
HETATM   18  N4  UNL     1     134.845  -3.356 -56.939  1.00  0.00    -0.100 NA
HETATM   19  C9  UNL     1     135.648  -2.206 -57.201  1.00  0.00     0.152 C 
ENDBRANCH   1  12
TORSDOF 5
ENDMDL
MODEL 3
REMARK VINA RESULT: -5.266222738      3.421      6.687
REMARK  5 active torsions:
REMARK  status: ('A' for Active; 'I' for Inactive)
REMARK    1  A    between atoms: C2_2  and  C3_3 
REMARK    2  A    between atoms: N1_4  and  N2_6 
REMARK    3  A    between atoms: N2_6  and  C4_8 
REMARK    4  A    between atoms: C4_8  and  N3_10 
REMARK    5  A    between atoms: N3_10  and  C5_12 
ROOT
HETATM    1  N3  UNL     1     136.030  -2.674 -54.352  1.00  0.00    -0.361 N 
ATOM      2  H3  UNL     1     136.903  -2.508 -53.851  1.00  0.00     0.162 HD
ENDROOT
BRANCH   1   3
HETATM    3  C4  UNL     1     135.893  -2.136 -55.658  1.00  0.00     0.186 C 
HETATM    4  S1  UNL     1     135.636  -3.111 -56.960  1.00  0.00    -0.040 SA
BRANCH   3   5
HETATM    5  N2  UNL     1     135.983  -0.742 -55.830  1.00  0.00    -0.277 N 
ATOM      6  H2  UNL     1     135.735  -0.321 -56.726  1.00  0.00     0.189 HD
BRANCH   5   7
HETATM    7  N1  UNL     1     136.410   0.057 -54.781  1.00  0.00    -0.314 N 
HETATM    8  C3  UNL     1     137.623   0.504 -54.818  1.00  0.00     0.080 C 
ATOM      9  H1  UNL     1     135.787   0.284 -54.006  1.00  0.00     0.185 HD
BRANCH   8  10
HETATM   10  C2  UNL     1     138.131   1.364 -53.718  1.00  0.00     0.041 C 
HETATM   11  C1  UNL     1     137.043   2.297 -53.289  1.00  0.00     0.010 C 
ENDBRANCH   8  10
ENDBRANCH   5   7
ENDBRANCH   3   5
ENDBRANCH   1   3
BRANCH   1  12
HETATM   12  C5  UNL     1     135.005  -3.438 -53.696  1.00  0.00     0.091 C 
HETATM   13  C6  UNL     1     134.262  -2.744 -52.615  1.00  0.00     0.028 C 
HETATM   14  C7  UNL     1     133.708  -3.908 -51.794  1.00  0.00     0.036 C 
HETATM   15  C8  UNL     1     134.361  -5.154 -52.282  1.00  0.00     0.154 C 
HETATM   16  O1  UNL     1     133.700  -5.756 -53.351  1.00  0.00    -0.281 OA
HETATM   17  C10 UNL     1     135.585  -4.621 -52.994  1.00  0.00     0.056 C 
HETATM   18  N4  UNL     1     134.630  -6.425 -54.065  1.00  0.00    -0.100 NA
HETATM   19  C9  UNL     1     135.855  -5.696 -54.003  1.00  0.00     0.152 C 
ENDBRANCH   1  12
TORSDOF 5
ENDMDL
MODEL 4
REMARK VINA RESULT: -5.252054427      3.681      5.033
REMARK  5 active torsions:
REMARK  status: ('A' for Active; 'I' for Inactive)
REMARK    1  A    between atoms: C2_2  and  C3_3 
REMARK    2  A    between atoms: N1_4  and  N2_6 
REMARK    3  A    between atoms: N2_6  and  C4_8 
REMARK    4  A    between atoms: C4_8  and  N3_10 
REMARK    5  A    between atoms: N3_10  and  C5_12 
ROOT
HETATM    1  N3  UNL     1     134.740  -0.746 -54.443  1.00  0.00    -0.361 N 
ATOM      2  H3  UNL     1     134.126  -0.268 -55.102  1.00  0.00     0.162 HD
ENDROOT
BRANCH   1   3
HETATM    3  C4  UNL     1     134.215  -1.103 -53.174  1.00  0.00     0.186 C 
HETATM    4  S1  UNL     1     134.632  -0.274 -51.813  1.00  0.00    -0.040 SA
BRANCH   3   5
HETATM    5  N2  UNL     1     133.323  -2.188 -53.090  1.00  0.00    -0.277 N 
ATOM      6  H2  UNL     1     132.387  -2.052 -52.707  1.00  0.00     0.189 HD
BRANCH   5   7
HETATM    7  N1  UNL     1     133.719  -3.442 -53.528  1.00  0.00    -0.314 N 
HETATM    8  C3  UNL     1     134.709  -4.010 -52.918  1.00  0.00     0.080 C 
ATOM      9  H1  UNL     1     133.246  -3.902 -54.305  1.00  0.00     0.185 HD
BRANCH   8  10
HETATM   10  C2  UNL     1     135.175  -5.354 -53.348  1.00  0.00     0.041 C 
HETATM   11  C1  UNL     1     134.380  -6.396 -52.628  1.00  0.00     0.010 C 
ENDBRANCH   8  10
ENDBRANCH   5   7
ENDBRANCH   3   5
ENDBRANCH   1   3
BRANCH   1  12
HETATM   12  C5  UNL     1     136.091  -1.022 -54.850  1.00  0.00     0.091 C 
HETATM   13  C6  UNL     1     137.026   0.130 -54.829  1.00  0.00     0.028 C 
HETATM   14  C7  UNL     1     138.122  -0.318 -55.796  1.00  0.00     0.036 C 
HETATM   15  C8  UNL     1     137.637  -1.541 -56.492  1.00  0.00     0.154 C 
HETATM   16  O1  UNL     1     137.922  -2.725 -55.816  1.00  0.00    -0.281 OA
HETATM   17  C10 UNL     1     136.141  -1.466 -56.274  1.00  0.00     0.056 C 
HETATM   18  N4  UNL     1     136.966  -3.615 -56.155  1.00  0.00    -0.100 NA
HETATM   19  C9  UNL     1     135.740  -2.908 -56.343  1.00  0.00     0.152 C 
ENDBRANCH   1  12
TORSDOF 5
ENDMDL
MODEL 5
REMARK VINA RESULT: -5.235903169      5.116      6.537
REMARK  5 active torsions:
REMARK  status: ('A' for Active; 'I' for Inactive)
REMARK    1  A    between atoms: C2_2  and  C3_3 
REMARK    2  A    between atoms: N1_4  and  N2_6 
REMARK    3  A    between atoms: N2_6  and  C4_8 
REMARK    4  A    between atoms: C4_8  and  N3_10 
REMARK    5  A    between atoms: N3_10  and  C5_12 
ROOT
HETATM    1  N3  UNL     1     136.283  -0.057 -55.104  1.00  0.00    -0.361 N 
ATOM      2  H3  UNL     1     136.133   0.392 -56.008  1.00  0.00     0.162 HD
ENDROOT
BRANCH   1   3
HETATM    3  C4  UNL     1     137.149   0.576 -54.176  1.00  0.00     0.186 C 
HETATM    4  S1  UNL     1     136.615   1.791 -53.200  1.00  0.00    -0.040 SA
BRANCH   3   5
HETATM    5  N2  UNL     1     138.488   0.150 -54.098  1.00  0.00    -0.277 N 
ATOM      6  H2  UNL     1     139.173   0.491 -54.773  1.00  0.00     0.189 HD
BRANCH   5   7
HETATM    7  N1  UNL     1     138.874  -0.734 -53.102  1.00  0.00    -0.314 N 
HETATM    8  C3  UNL     1     139.298  -1.901 -53.462  1.00  0.00     0.080 C 
ATOM      9  H1  UNL     1     138.824  -0.472 -52.117  1.00  0.00     0.185 HD
BRANCH   8  10
HETATM   10  C2  UNL     1     139.724  -2.887 -52.435  1.00  0.00     0.041 C 
HETATM   11  C1  UNL     1     141.100  -2.535 -51.966  1.00  0.00     0.010 C 
ENDBRANCH   8  10
ENDBRANCH   5   7
ENDBRANCH   3   5
ENDBRANCH   1   3
BRANCH   1  12
HETATM   12  C5  UNL     1     135.606  -1.297 -54.841  1.00  0.00     0.091 C 
HETATM   13  C6  UNL     1     135.523  -1.706 -53.418  1.00  0.00     0.028 C 
HETATM   14  C7  UNL     1     135.297  -3.215 -53.520  1.00  0.00     0.036 C 
HETATM   15  C8  UNL     1     135.519  -3.609 -54.939  1.00  0.00     0.154 C 
HETATM   16  O1  UNL     1     134.382  -3.509 -55.737  1.00  0.00    -0.281 OA
HETATM   17  C10 UNL     1     136.322  -2.443 -55.476  1.00  0.00     0.056 C 
HETATM   18  N4  UNL     1     134.802  -3.272 -56.997  1.00  0.00    -0.100 NA
HETATM   19  C9  UNL     1     135.984  -2.474 -56.936  1.00  0.00     0.152 C 
ENDBRANCH   1  12
TORSDOF 5
ENDMDL
