MODEL 1
REMARK VINA RESULT: -5.697830663      0.000      0.000
REMARK  3 active torsions:
REMARK  status: ('A' for Active; 'I' for Inactive)
REMARK    1  A    between atoms: C2_2  and  C3_3 
REMARK    2  A    between atoms: C3_3  and  C4_4 
REMARK    3  A    between atoms: N1_9  and  C8_10 
ROOT
HETATM    1  C8  UNL     1     134.996  -5.172 -53.348  1.00  0.00     0.249 C 
HETATM    2  C9  UNL     1     135.484  -6.490 -53.673  1.00  0.00     0.079 C 
HETATM    3  N2  UNL     1     135.886  -7.541 -53.924  1.00  0.00    -0.196 NA
ENDROOT
BRANCH   1   4
HETATM    4  N1  UNL     1     135.865  -4.111 -53.868  1.00  0.00    -0.338 N 
HETATM    5  C7  UNL     1     136.197  -3.078 -53.000  1.00  0.00     0.220 C 
HETATM    6  C6  UNL     1     137.382  -2.170 -53.025  1.00  0.00     0.105 C 
HETATM    7  O1  UNL     1     135.392  -2.845 -52.030  1.00  0.00    -0.273 OA
HETATM    8  C5  UNL     1     136.981  -0.724 -53.287  1.00  0.00     0.042 C 
HETATM    9  C4  UNL     1     137.720  -0.005 -54.338  1.00  0.00     0.186 C 
HETATM   10  N4  UNL     1     136.981   0.197 -55.608  1.00  0.00    -0.069 N 
HETATM   11  C13 UNL     1     136.405  -1.072 -55.898  1.00  0.00     0.251 C 
ATOM     12  H42 UNL     1     136.306   0.962 -55.577  1.00  0.00     0.277 HD
ATOM     13  H41 UNL     1     137.550   0.578 -56.364  1.00  0.00     0.277 HD
HETATM   14  C12 UNL     1     136.041  -1.437 -57.297  1.00  0.00     0.141 C 
HETATM   15  N3  UNL     1     136.035  -2.913 -57.347  1.00  0.00    -0.418 N 
HETATM   16  C11 UNL     1     135.422  -3.568 -56.251  1.00  0.00     0.133 C 
ATOM     17  H3  UNL     1     136.447  -3.429 -58.123  1.00  0.00     0.153 HD
HETATM   18  C10 UNL     1     136.288  -4.271 -55.267  1.00  0.00     0.146 C 
BRANCH   9  19
HETATM   19  C3  UNL     1     138.377   1.287 -53.933  1.00  0.00     0.032 C 
BRANCH  19  20
HETATM   20  C2  UNL     1     138.649   1.258 -52.444  1.00  0.00    -0.002 C 
HETATM   21  C1  UNL     1     140.130   1.203 -52.169  1.00  0.00     0.005 C 
ENDBRANCH  19  20
ENDBRANCH   9  19
ENDBRANCH   1   4
TORSDOF 3
ENDMDL
MODEL 2
REMARK VINA RESULT: -5.673637845      2.701      4.241
REMARK  3 active torsions:
REMARK  status: ('A' for Active; 'I' for Inactive)
REMARK    1  A    between atoms: C2_2  and  C3_3 
REMARK    2  A    between atoms: C3_3  and  C4_4 
REMARK    3  A    between atoms: N1_9  and  C8_10 
ROOT
HETATM    1  C8  UNL     1     137.276  -2.512 -56.563  1.00  0.00     0.249 C 
HETATM    2  C9  UNL     1     135.935  -3.023 -56.713  1.00  0.00     0.079 C 
HETATM    3  N2  UNL     1     134.858  -3.417 -56.830  1.00  0.00    -0.196 NA
ENDROOT
BRANCH   1   4
HETATM    4  N1  UNL     1     137.556  -2.073 -55.192  1.00  0.00    -0.338 N 
HETATM    5  C7  UNL     1     137.473  -0.712 -54.930  1.00  0.00     0.220 C 
HETATM    6  C6  UNL     1     137.210  -0.014 -53.637  1.00  0.00     0.105 C 
HETATM    7  O1  UNL     1     137.644   0.087 -55.918  1.00  0.00    -0.273 OA
HETATM    8  C5  UNL     1     138.411   0.803 -53.180  1.00  0.00     0.042 C 
HETATM    9  C4  UNL     1     138.854   0.618 -51.787  1.00  0.00     0.186 C 
HETATM   10  N4  UNL     1     140.096  -0.175 -51.618  1.00  0.00    -0.069 N 
HETATM   11  C13 UNL     1     139.916  -1.314 -52.453  1.00  0.00     0.251 C 
ATOM     12  H42 UNL     1     140.952   0.348 -51.807  1.00  0.00     0.277 HD
ATOM     13  H41 UNL     1     140.314  -0.402 -50.647  1.00  0.00     0.277 HD
HETATM   14  C12 UNL     1     140.660  -2.577 -52.184  1.00  0.00     0.141 C 
HETATM   15  N3  UNL     1     139.868  -3.658 -52.803  1.00  0.00    -0.418 N 
HETATM   16  C11 UNL     1     139.354  -3.389 -54.095  1.00  0.00     0.133 C 
ATOM     17  H3  UNL     1     139.701  -4.546 -52.329  1.00  0.00     0.153 HD
HETATM   18  C10 UNL     1     137.895  -3.145 -54.243  1.00  0.00     0.146 C 
BRANCH   9  19
HETATM   19  C3  UNL     1     138.936   1.858 -50.938  1.00  0.00     0.032 C 
BRANCH  19  20
HETATM   20  C2  UNL     1     140.014   1.670 -49.892  1.00  0.00    -0.002 C 
HETATM   21  C1  UNL     1     140.876   2.901 -49.782  1.00  0.00     0.005 C 
ENDBRANCH  19  20
ENDBRANCH   9  19
ENDBRANCH   1   4
TORSDOF 3
ENDMDL
MODEL 3
REMARK VINA RESULT: -5.640247360      2.623      4.238
REMARK  3 active torsions:
REMARK  status: ('A' for Active; 'I' for Inactive)
REMARK    1  A    between atoms: C2_2  and  C3_3 
REMARK    2  A    between atoms: C3_3  and  C4_4 
REMARK    3  A    between atoms: N1_9  and  C8_10 
ROOT
HETATM    1  C8  UNL     1     136.839  -1.774 -56.845  1.00  0.00     0.249 C 
HETATM    2  C9  UNL     1     135.709  -2.671 -56.899  1.00  0.00     0.079 C 
HETATM    3  N2  UNL     1     134.799  -3.376 -56.937  1.00  0.00    -0.196 NA
ENDROOT
BRANCH   1   4
HETATM    4  N1  UNL     1     137.212  -1.429 -55.470  1.00  0.00    -0.338 N 
HETATM    5  C7  UNL     1     137.661  -0.135 -55.237  1.00  0.00     0.220 C 
HETATM    6  C6  UNL     1     137.641   0.657 -53.972  1.00  0.00     0.105 C 
HETATM    7  O1  UNL     1     138.172   0.496 -56.230  1.00  0.00    -0.273 OA
HETATM    8  C5  UNL     1     139.047   0.955 -53.468  1.00  0.00     0.042 C 
HETATM    9  C4  UNL     1     139.324   0.663 -52.052  1.00  0.00     0.186 C 
HETATM   10  N4  UNL     1     140.147  -0.547 -51.803  1.00  0.00    -0.069 N 
HETATM   11  C13 UNL     1     139.568  -1.554 -52.626  1.00  0.00     0.251 C 
ATOM     12  H42 UNL     1     141.145  -0.408 -51.957  1.00  0.00     0.277 HD
ATOM     13  H41 UNL     1     140.218  -0.805 -50.819  1.00  0.00     0.277 HD
HETATM   14  C12 UNL     1     139.743  -2.997 -52.296  1.00  0.00     0.141 C 
HETATM   15  N3  UNL     1     138.616  -3.703 -52.935  1.00  0.00    -0.418 N 
HETATM   16  C11 UNL     1     138.302  -3.303 -54.257  1.00  0.00     0.133 C 
ATOM     17  H3  UNL     1     138.094  -4.436 -52.455  1.00  0.00     0.153 HD
HETATM   18  C10 UNL     1     137.064  -2.512 -54.485  1.00  0.00     0.146 C 
BRANCH   9  19
HETATM   19  C3  UNL     1     139.852   1.802 -51.222  1.00  0.00     0.032 C 
BRANCH  19  20
HETATM   20  C2  UNL     1     141.331   1.592 -50.978  1.00  0.00    -0.002 C 
HETATM   21  C1  UNL     1     142.156   2.372 -51.969  1.00  0.00     0.005 C 
ENDBRANCH  19  20
ENDBRANCH   9  19
ENDBRANCH   1   4
TORSDOF 3
ENDMDL
MODEL 4
REMARK VINA RESULT: -5.599099700      2.476      6.071
REMARK  3 active torsions:
REMARK  status: ('A' for Active; 'I' for Inactive)
REMARK    1  A    between atoms: C2_2  and  C3_3 
REMARK    2  A    between atoms: C3_3  and  C4_4 
REMARK    3  A    between atoms: N1_9  and  C8_10 
ROOT
HETATM    1  C8  UNL     1     137.626  -0.667 -56.219  1.00  0.00     0.249 C 
HETATM    2  C9  UNL     1     136.703  -0.568 -57.324  1.00  0.00     0.079 C 
HETATM    3  N2  UNL     1     135.955  -0.480 -58.196  1.00  0.00    -0.196 NA
ENDROOT
BRANCH   1   4
HETATM    4  N1  UNL     1     137.124  -1.533 -55.148  1.00  0.00    -0.338 N 
HETATM    5  C7  UNL     1     137.220  -2.906 -55.341  1.00  0.00     0.220 C 
HETATM    6  C6  UNL     1     137.277  -3.999 -54.326  1.00  0.00     0.105 C 
HETATM    7  O1  UNL     1     137.268  -3.326 -56.551  1.00  0.00    -0.273 OA
HETATM    8  C5  UNL     1     136.052  -4.901 -54.397  1.00  0.00     0.042 C 
HETATM    9  C4  UNL     1     135.356  -5.183 -53.130  1.00  0.00     0.186 C 
HETATM   10  N4  UNL     1     134.069  -4.471 -52.942  1.00  0.00    -0.069 N 
HETATM   11  C13 UNL     1     134.344  -3.122 -53.304  1.00  0.00     0.251 C 
ATOM     12  H42 UNL     1     133.287  -4.886 -53.449  1.00  0.00     0.277 HD
ATOM     13  H41 UNL     1     133.669  -4.577 -52.009  1.00  0.00     0.277 HD
HETATM   14  C12 UNL     1     133.506  -2.009 -52.775  1.00  0.00     0.141 C 
HETATM   15  N3  UNL     1     134.347  -0.797 -52.843  1.00  0.00    -0.418 N 
HETATM   16  C11 UNL     1     135.098  -0.628 -54.032  1.00  0.00     0.133 C 
ATOM     17  H3  UNL     1     134.384  -0.121 -52.080  1.00  0.00     0.153 HD
HETATM   18  C10 UNL     1     136.570  -0.834 -53.978  1.00  0.00     0.146 C 
BRANCH   9  19
HETATM   19  C3  UNL     1     135.180  -6.634 -52.770  1.00  0.00     0.032 C 
BRANCH  19  20
HETATM   20  C2  UNL     1     135.657  -7.491 -53.923  1.00  0.00    -0.002 C 
HETATM   21  C1  UNL     1     136.366  -8.722 -53.421  1.00  0.00     0.005 C 
ENDBRANCH  19  20
ENDBRANCH   9  19
ENDBRANCH   1   4
TORSDOF 3
ENDMDL
MODEL 5
REMARK VINA RESULT: -5.464946851      1.607      5.862
REMARK  3 active torsions:
REMARK  status: ('A' for Active; 'I' for Inactive)
REMARK    1  A    between atoms: C2_2  and  C3_3 
REMARK    2  A    between atoms: C3_3  and  C4_4 
REMARK    3  A    between atoms: N1_9  and  C8_10 
ROOT
HETATM    1  C8  UNL     1     137.786   0.974 -53.257  1.00  0.00     0.249 C 
HETATM    2  C9  UNL     1     137.017   2.193 -53.338  1.00  0.00     0.079 C 
HETATM    3  N2  UNL     1     136.396   3.162 -53.389  1.00  0.00    -0.196 NA
ENDROOT
BRANCH   1   4
HETATM    4  N1  UNL     1     136.977  -0.215 -53.544  1.00  0.00    -0.338 N 
HETATM    5  C7  UNL     1     136.915  -1.194 -52.561  1.00  0.00     0.220 C 
HETATM    6  C6  UNL     1     135.860  -2.221 -52.317  1.00  0.00     0.105 C 
HETATM    7  O1  UNL     1     137.889  -1.252 -51.729  1.00  0.00    -0.273 OA
HETATM    8  C5  UNL     1     136.383  -3.634 -52.540  1.00  0.00     0.042 C 
HETATM    9  C4  UNL     1     135.573  -4.519 -53.395  1.00  0.00     0.186 C 
HETATM   10  N4  UNL     1     136.117  -4.756 -54.755  1.00  0.00    -0.069 N 
HETATM   11  C13 UNL     1     136.482  -3.465 -55.230  1.00  0.00     0.251 C 
ATOM     12  H42 UNL     1     136.874  -5.439 -54.786  1.00  0.00     0.277 HD
ATOM     13  H41 UNL     1     135.482  -5.262 -55.373  1.00  0.00     0.277 HD
HETATM   14  C12 UNL     1     136.569  -3.191 -56.692  1.00  0.00     0.141 C 
HETATM   15  N3  UNL     1     136.390  -1.734 -56.848  1.00  0.00    -0.418 N 
HETATM   16  C11 UNL     1     137.090  -0.921 -55.923  1.00  0.00     0.133 C 
ATOM     17  H3  UNL     1     135.799  -1.336 -57.577  1.00  0.00     0.153 HD
HETATM   18  C10 UNL     1     136.316  -0.228 -54.858  1.00  0.00     0.146 C 
BRANCH   9  19
HETATM   19  C3  UNL     1     135.150  -5.832 -52.793  1.00  0.00     0.032 C 
BRANCH  19  20
HETATM   20  C2  UNL     1     135.298  -6.923 -53.832  1.00  0.00    -0.002 C 
HETATM   21  C1  UNL     1     135.964  -8.140 -53.244  1.00  0.00     0.005 C 
ENDBRANCH  19  20
ENDBRANCH   9  19
ENDBRANCH   1   4
TORSDOF 3
ENDMDL
