MODEL 1
REMARK VINA RESULT: -4.885066907      0.000      0.000
REMARK  7 active torsions:
REMARK  status: ('A' for Active; 'I' for Inactive)
REMARK    1  A    between atoms: S1_2  and  C2_3 
REMARK    2  A    between atoms: C2_3  and  N4_13 
REMARK    3  A    between atoms: N1_4  and  C3_6 
REMARK    4  A    between atoms: C3_6  and  N2_8 
REMARK    5  A    between atoms: N2_8  and  N3_10 
REMARK    6  A    between atoms: N4_13  and  C4_15 
REMARK    7  A    between atoms: C4_15  and  C5_16 
ROOT
HETATM    1  C2  UNL     1     137.188  -0.617 -54.825  1.00  0.00     0.141 C 
HETATM    2  N1  UNL     1     137.479  -1.190 -55.940  1.00  0.00    -0.313 N 
ATOM      3  H1  UNL     1     138.421  -1.546 -56.102  1.00  0.00     0.170 HD
ENDROOT
BRANCH   1   4
HETATM    4  S1  UNL     1     138.406  -0.429 -53.544  1.00  0.00    -0.099 SA
HETATM    5  C1  UNL     1     138.765   1.285 -53.178  1.00  0.00     0.099 C 
ENDBRANCH   1   4
BRANCH   1   6
HETATM    6  N4  UNL     1     135.880  -0.121 -54.595  1.00  0.00    -0.368 N 
ATOM      7  H4  UNL     1     135.400   0.427 -55.308  1.00  0.00     0.161 HD
BRANCH   6   8
HETATM    8  C4  UNL     1     135.237  -0.407 -53.333  1.00  0.00     0.153 C 
BRANCH   8   9
HETATM    9  C5  UNL     1     134.058  -1.335 -53.492  1.00  0.00     0.139 C 
HETATM   10  C6  UNL     1     134.556  -2.759 -53.384  1.00  0.00     0.035 C 
HETATM   11  C7  UNL     1     134.478  -2.954 -51.866  1.00  0.00     0.029 C 
HETATM   12  C8  UNL     1     133.227  -2.148 -51.579  1.00  0.00     0.168 C 
HETATM   13  O1  UNL     1     133.153  -1.131 -52.485  1.00  0.00    -0.384 OA
ENDBRANCH   8   9
ENDBRANCH   6   8
ENDBRANCH   1   6
BRANCH   2  14
HETATM   14  C3  UNL     1     136.479  -1.328 -56.950  1.00  0.00     0.192 C 
HETATM   15  S2  UNL     1     135.611  -2.704 -57.095  1.00  0.00    -0.039 SA
BRANCH  14  16
HETATM   16  N2  UNL     1     136.214  -0.280 -57.846  1.00  0.00    -0.283 N 
ATOM     17  H2  UNL     1     136.851   0.515 -57.897  1.00  0.00     0.188 HD
BRANCH  16  18
HETATM   18  N3  UNL     1     135.068  -0.315 -58.681  1.00  0.00    -0.343 N 
ATOM     19  H32 UNL     1     134.210   0.126 -58.353  1.00  0.00     0.176 HD
ATOM     20  H31 UNL     1     135.103  -0.774 -59.592  1.00  0.00     0.176 HD
ENDBRANCH  16  18
ENDBRANCH  14  16
ENDBRANCH   2  14
TORSDOF 7
ENDMDL
MODEL 2
REMARK VINA RESULT: -4.810764401      1.302      1.476
REMARK  7 active torsions:
REMARK  status: ('A' for Active; 'I' for Inactive)
REMARK    1  A    between atoms: S1_2  and  C2_3 
REMARK    2  A    between atoms: C2_3  and  N4_13 
REMARK    3  A    between atoms: N1_4  and  C3_6 
REMARK    4  A    between atoms: C3_6  and  N2_8 
REMARK    5  A    between atoms: N2_8  and  N3_10 
REMARK    6  A    between atoms: N4_13  and  C4_15 
REMARK    7  A    between atoms: C4_15  and  C5_16 
ROOT
HETATM    1  C2  UNL     1     136.728  -0.396 -55.188  1.00  0.00     0.141 C 
HETATM    2  N1  UNL     1     136.994  -0.751 -56.396  1.00  0.00    -0.313 N 
ATOM      3  H1  UNL     1     137.919  -0.574 -56.788  1.00  0.00     0.170 HD
ENDROOT
BRANCH   1   4
HETATM    4  S1  UNL     1     137.948   0.405 -54.175  1.00  0.00    -0.099 SA
HETATM    5  C1  UNL     1     138.840  -0.741 -53.131  1.00  0.00     0.099 C 
ENDBRANCH   1   4
BRANCH   1   6
HETATM    6  N4  UNL     1     135.443  -0.640 -54.638  1.00  0.00    -0.368 N 
ATOM      7  H4  UNL     1     134.751  -1.179 -55.158  1.00  0.00     0.161 HD
BRANCH   6   8
HETATM    8  C4  UNL     1     135.134  -0.113 -53.329  1.00  0.00     0.153 C 
BRANCH   8   9
HETATM    9  C5  UNL     1     134.373  -1.102 -52.482  1.00  0.00     0.139 C 
HETATM   10  C6  UNL     1     135.139  -1.313 -51.194  1.00  0.00     0.035 C 
HETATM   11  C7  UNL     1     134.556  -0.174 -50.350  1.00  0.00     0.029 C 
HETATM   12  C8  UNL     1     133.129  -0.199 -50.855  1.00  0.00     0.168 C 
HETATM   13  O1  UNL     1     133.140  -0.603 -52.158  1.00  0.00    -0.384 OA
ENDBRANCH   8   9
ENDBRANCH   6   8
ENDBRANCH   1   6
BRANCH   2  14
HETATM   14  C3  UNL     1     135.993  -1.394 -57.185  1.00  0.00     0.192 C 
HETATM   15  S2  UNL     1     135.731  -3.002 -57.067  1.00  0.00    -0.039 SA
BRANCH  14  16
HETATM   16  N2  UNL     1     135.205  -0.658 -58.085  1.00  0.00    -0.283 N 
ATOM     17  H2  UNL     1     134.352  -0.206 -57.756  1.00  0.00     0.188 HD
BRANCH  16  18
HETATM   18  N3  UNL     1     135.583  -0.539 -59.446  1.00  0.00    -0.343 N 
ATOM     19  H32 UNL     1     136.136   0.269 -59.731  1.00  0.00     0.176 HD
ATOM     20  H31 UNL     1     135.307  -1.247 -60.127  1.00  0.00     0.176 HD
ENDBRANCH  16  18
ENDBRANCH  14  16
ENDBRANCH   2  14
TORSDOF 7
ENDMDL
MODEL 3
REMARK VINA RESULT: -4.798676966      1.085      1.140
REMARK  7 active torsions:
REMARK  status: ('A' for Active; 'I' for Inactive)
REMARK    1  A    between atoms: S1_2  and  C2_3 
REMARK    2  A    between atoms: C2_3  and  N4_13 
REMARK    3  A    between atoms: N1_4  and  C3_6 
REMARK    4  A    between atoms: C3_6  and  N2_8 
REMARK    5  A    between atoms: N2_8  and  N3_10 
REMARK    6  A    between atoms: N4_13  and  C4_15 
REMARK    7  A    between atoms: C4_15  and  C5_16 
ROOT
HETATM    1  C2  UNL     1     136.548  -0.292 -55.148  1.00  0.00     0.141 C 
HETATM    2  N1  UNL     1     136.938  -0.752 -56.284  1.00  0.00    -0.313 N 
ATOM      3  H1  UNL     1     137.866  -0.519 -56.640  1.00  0.00     0.170 HD
ENDROOT
BRANCH   1   4
HETATM    4  S1  UNL     1     137.600   0.754 -54.169  1.00  0.00    -0.099 SA
HETATM    5  C1  UNL     1     136.693   2.030 -53.304  1.00  0.00     0.099 C 
ENDBRANCH   1   4
BRANCH   1   6
HETATM    6  N4  UNL     1     135.260  -0.615 -54.650  1.00  0.00    -0.368 N 
ATOM      7  H4  UNL     1     134.423  -0.245 -55.098  1.00  0.00     0.161 HD
BRANCH   6   8
HETATM    8  C4  UNL     1     135.155  -1.478 -53.496  1.00  0.00     0.153 C 
BRANCH   8   9
HETATM    9  C5  UNL     1     133.725  -1.667 -53.054  1.00  0.00     0.139 C 
HETATM   10  C6  UNL     1     133.648  -2.927 -52.220  1.00  0.00     0.035 C 
HETATM   11  C7  UNL     1     133.976  -2.350 -50.838  1.00  0.00     0.029 C 
HETATM   12  C8  UNL     1     133.284  -1.009 -50.961  1.00  0.00     0.168 C 
HETATM   13  O1  UNL     1     133.328  -0.619 -52.267  1.00  0.00    -0.384 OA
ENDBRANCH   8   9
ENDBRANCH   6   8
ENDBRANCH   1   6
BRANCH   2  14
HETATM   14  C3  UNL     1     136.071  -1.592 -57.047  1.00  0.00     0.192 C 
HETATM   15  S2  UNL     1     136.062  -3.211 -56.833  1.00  0.00    -0.039 SA
BRANCH  14  16
HETATM   16  N2  UNL     1     135.199  -1.045 -58.003  1.00  0.00    -0.283 N 
ATOM     17  H2  UNL     1     134.270  -1.447 -58.128  1.00  0.00     0.188 HD
BRANCH  16  18
HETATM   18  N3  UNL     1     135.597   0.061 -58.795  1.00  0.00    -0.343 N 
ATOM     19  H32 UNL     1     135.501  -0.003 -59.808  1.00  0.00     0.176 HD
ATOM     20  H31 UNL     1     135.972   0.904 -58.360  1.00  0.00     0.176 HD
ENDBRANCH  16  18
ENDBRANCH  14  16
ENDBRANCH   2  14
TORSDOF 7
ENDMDL
MODEL 4
REMARK VINA RESULT: -4.798616590      2.196      2.470
REMARK  7 active torsions:
REMARK  status: ('A' for Active; 'I' for Inactive)
REMARK    1  A    between atoms: S1_2  and  C2_3 
REMARK    2  A    between atoms: C2_3  and  N4_13 
REMARK    3  A    between atoms: N1_4  and  C3_6 
REMARK    4  A    between atoms: C3_6  and  N2_8 
REMARK    5  A    between atoms: N2_8  and  N3_10 
REMARK    6  A    between atoms: N4_13  and  C4_15 
REMARK    7  A    between atoms: C4_15  and  C5_16 
ROOT
HETATM    1  C2  UNL     1     136.885  -0.091 -55.191  1.00  0.00     0.141 C 
HETATM    2  N1  UNL     1     137.378  -0.175 -56.376  1.00  0.00    -0.313 N 
ATOM      3  H1  UNL     1     138.274   0.264 -56.589  1.00  0.00     0.170 HD
ENDROOT
BRANCH   1   4
HETATM    4  S1  UNL     1     137.738   0.782 -53.899  1.00  0.00    -0.099 SA
HETATM    5  C1  UNL     1     136.837   2.214 -53.321  1.00  0.00     0.099 C 
ENDBRANCH   1   4
BRANCH   1   6
HETATM    6  N4  UNL     1     135.640  -0.700 -54.890  1.00  0.00    -0.368 N 
ATOM      7  H4  UNL     1     134.817  -0.508 -55.461  1.00  0.00     0.161 HD
BRANCH   6   8
HETATM    8  C4  UNL     1     135.557  -1.596 -53.760  1.00  0.00     0.153 C 
BRANCH   8   9
HETATM    9  C5  UNL     1     136.563  -2.718 -53.849  1.00  0.00     0.139 C 
HETATM   10  C6  UNL     1     136.555  -3.467 -52.535  1.00  0.00     0.035 C 
HETATM   11  C7  UNL     1     135.436  -4.477 -52.813  1.00  0.00     0.029 C 
HETATM   12  C8  UNL     1     135.697  -4.736 -54.282  1.00  0.00     0.168 C 
HETATM   13  O1  UNL     1     136.208  -3.599 -54.835  1.00  0.00    -0.384 OA
ENDBRANCH   8   9
ENDBRANCH   6   8
ENDBRANCH   1   6
BRANCH   2  14
HETATM   14  C3  UNL     1     136.669  -0.883 -57.393  1.00  0.00     0.192 C 
HETATM   15  S2  UNL     1     135.849  -0.086 -58.560  1.00  0.00    -0.039 SA
BRANCH  14  16
HETATM   16  N2  UNL     1     136.658  -2.287 -57.417  1.00  0.00    -0.283 N 
ATOM     17  H2  UNL     1     137.520  -2.802 -57.235  1.00  0.00     0.188 HD
BRANCH  16  18
HETATM   18  N3  UNL     1     135.462  -2.996 -57.691  1.00  0.00    -0.343 N 
ATOM     19  H32 UNL     1     134.929  -3.378 -56.910  1.00  0.00     0.176 HD
ATOM     20  H31 UNL     1     135.140  -3.123 -58.651  1.00  0.00     0.176 HD
ENDBRANCH  16  18
ENDBRANCH  14  16
ENDBRANCH   2  14
TORSDOF 7
ENDMDL
MODEL 5
REMARK VINA RESULT: -4.716212781      2.863      3.834
REMARK  7 active torsions:
REMARK  status: ('A' for Active; 'I' for Inactive)
REMARK    1  A    between atoms: S1_2  and  C2_3 
REMARK    2  A    between atoms: C2_3  and  N4_13 
REMARK    3  A    between atoms: N1_4  and  C3_6 
REMARK    4  A    between atoms: C3_6  and  N2_8 
REMARK    5  A    between atoms: N2_8  and  N3_10 
REMARK    6  A    between atoms: N4_13  and  C4_15 
REMARK    7  A    between atoms: C4_15  and  C5_16 
ROOT
HETATM    1  C2  UNL     1     136.462  -0.499 -54.711  1.00  0.00     0.141 C 
HETATM    2  N1  UNL     1     135.572  -0.911 -55.544  1.00  0.00    -0.313 N 
ATOM      3  H1  UNL     1     134.586  -0.702 -55.384  1.00  0.00     0.170 HD
ENDROOT
BRANCH   1   4
HETATM    4  S1  UNL     1     136.008   0.436 -53.269  1.00  0.00    -0.099 SA
HETATM    5  C1  UNL     1     136.634   2.111 -53.307  1.00  0.00     0.099 C 
ENDBRANCH   1   4
BRANCH   1   6
HETATM    6  N4  UNL     1     137.834  -0.786 -54.929  1.00  0.00    -0.368 N 
ATOM      7  H4  UNL     1     138.219  -0.788 -55.874  1.00  0.00     0.161 HD
BRANCH   6   8
HETATM    8  C4  UNL     1     138.675  -1.074 -53.792  1.00  0.00     0.153 C 
BRANCH   8   9
HETATM    9  C5  UNL     1     138.966  -2.549 -53.658  1.00  0.00     0.139 C 
HETATM   10  C6  UNL     1     140.423  -2.778 -53.994  1.00  0.00     0.035 C 
HETATM   11  C7  UNL     1     141.052  -2.551 -52.615  1.00  0.00     0.029 C 
HETATM   12  C8  UNL     1     139.965  -3.149 -51.747  1.00  0.00     0.168 C 
HETATM   13  O1  UNL     1     138.765  -2.958 -52.367  1.00  0.00    -0.384 OA
ENDBRANCH   8   9
ENDBRANCH   6   8
ENDBRANCH   1   6
BRANCH   2  14
HETATM   14  C3  UNL     1     135.968  -1.659 -56.694  1.00  0.00     0.192 C 
HETATM   15  S2  UNL     1     136.091  -3.288 -56.638  1.00  0.00    -0.039 SA
BRANCH  14  16
HETATM   16  N2  UNL     1     136.262  -1.014 -57.906  1.00  0.00    -0.283 N 
ATOM     17  H2  UNL     1     137.206  -1.063 -58.289  1.00  0.00     0.188 HD
BRANCH  16  18
HETATM   18  N3  UNL     1     135.259  -0.294 -58.603  1.00  0.00    -0.343 N 
ATOM     19  H32 UNL     1     134.568  -0.815 -59.142  1.00  0.00     0.176 HD
ATOM     20  H31 UNL     1     135.230   0.725 -58.567  1.00  0.00     0.176 HD
ENDBRANCH  16  18
ENDBRANCH  14  16
ENDBRANCH   2  14
TORSDOF 7
ENDMDL
