MODEL 1
REMARK VINA RESULT: -8.782399260      0.000      0.000
REMARK  7 active torsions:
REMARK  status: ('A' for Active; 'I' for Inactive)
REMARK    1  A    between atoms: C3_3  and  C4_4 
REMARK    2  A    between atoms: C7_8  and  C8_9 
REMARK    3  A    between atoms: C8_9  and  O2_10 
REMARK    4  A    between atoms: C9_12  and  C10_13 
REMARK    5  A    between atoms: C10_13  and  C11_14 
REMARK    6  A    between atoms: C12_15  and  O3_16 
REMARK    7  A    between atoms: C14_19  and  O4_20 
ROOT
HETATM    1  C4  UNL     1      13.191   9.530  16.242  1.00  0.00     0.090 A 
HETATM    2  O1  UNL     1      13.560   8.298  16.593  1.00  0.00    -0.292 OA
HETATM    3  C5  UNL     1      13.938   7.610  15.530  1.00  0.00     0.159 A 
HETATM    4  C6  UNL     1      13.836   8.401  14.427  1.00  0.00     0.033 A 
HETATM    5  C7  UNL     1      13.342   9.640  14.876  1.00  0.00     0.034 A 
HETATM    6  C9  UNL     1      14.419   7.934  13.168  1.00  0.00    -0.059 C 
HETATM    7  C17 UNL     1      14.507   6.481  13.011  1.00  0.00     0.079 C 
HETATM    8  C18 UNL     1      14.622   5.763  14.287  1.00  0.00     0.067 C 
HETATM    9  N1  UNL     1      14.365   6.242  15.438  1.00  0.00    -0.349 N 
ATOM     10  H1  UNL     1      14.460   5.668  16.276  1.00  0.00     0.167 HD
ENDROOT
BRANCH   6  11
HETATM   11  C10 UNL     1      15.598   8.708  12.680  1.00  0.00     0.045 C 
BRANCH  11  12
HETATM   12  C11 UNL     1      16.128   8.468  11.322  1.00  0.00     0.050 C 
HETATM   13  C12 UNL     1      17.405   9.325  11.093  1.00  0.00     0.127 C 
HETATM   14  C13 UNL     1      17.771   9.375   9.636  1.00  0.00     0.066 C 
HETATM   15  C14 UNL     1      16.688  10.074   8.801  1.00  0.00     0.152 C 
HETATM   16  C15 UNL     1      15.555  10.189   9.767  1.00  0.00     0.180 A 
HETATM   17  O5  UNL     1      14.387   9.590   9.773  1.00  0.00    -0.372 OA
HETATM   18  C16 UNL     1      15.313   8.708  10.142  1.00  0.00     0.160 A 
BRANCH  13  19
HETATM   19  O3  UNL     1      18.491   8.720  11.730  1.00  0.00    -0.395 OA
ATOM     20  H3  UNL     1      18.459   7.782  11.588  1.00  0.00     0.210 HD
ENDBRANCH  13  19
BRANCH  15  21
HETATM   21  O4  UNL     1      16.381   9.216   7.746  1.00  0.00    -0.393 OA
ATOM     22  H4  UNL     1      15.437   9.235   7.646  1.00  0.00     0.210 HD
ENDBRANCH  15  21
ENDBRANCH  11  12
ENDBRANCH   6  11
BRANCH   5  23
HETATM   23  C8  UNL     1      12.983  10.811  14.100  1.00  0.00     0.146 C 
BRANCH  23  24
HETATM   24  O2  UNL     1      11.666  11.101  13.909  1.00  0.00    -0.372 OA
ATOM     25  H2  UNL     1      11.213  11.642  14.546  1.00  0.00     0.216 HD
ENDBRANCH  23  24
ENDBRANCH   5  23
BRANCH   1  26
HETATM   26  C3  UNL     1      12.737  10.456  17.258  1.00  0.00     0.034 C 
HETATM   27  C2  UNL     1      12.052  10.251  18.328  1.00  0.00    -0.028 C 
HETATM   28  C1  UNL     1      11.687  11.384  19.260  1.00  0.00     0.036 C 
ENDBRANCH   1  26
TORSDOF 7
ENDMDL
MODEL 2
REMARK VINA RESULT: -8.638339718      1.503      1.978
REMARK  7 active torsions:
REMARK  status: ('A' for Active; 'I' for Inactive)
REMARK    1  A    between atoms: C3_3  and  C4_4 
REMARK    2  A    between atoms: C7_8  and  C8_9 
REMARK    3  A    between atoms: C8_9  and  O2_10 
REMARK    4  A    between atoms: C9_12  and  C10_13 
REMARK    5  A    between atoms: C10_13  and  C11_14 
REMARK    6  A    between atoms: C12_15  and  O3_16 
REMARK    7  A    between atoms: C14_19  and  O4_20 
ROOT
HETATM    1  C4  UNL     1      13.392   9.577  14.727  1.00  0.00     0.090 A 
HETATM    2  O1  UNL     1      13.499   8.281  15.025  1.00  0.00    -0.292 OA
HETATM    3  C5  UNL     1      14.121   7.635  14.055  1.00  0.00     0.159 A 
HETATM    4  C6  UNL     1      14.458   8.517  13.075  1.00  0.00     0.033 A 
HETATM    5  C7  UNL     1      13.981   9.773  13.496  1.00  0.00     0.034 A 
HETATM    6  C9  UNL     1      15.359   8.077  12.009  1.00  0.00    -0.059 C 
HETATM    7  C17 UNL     1      15.339   6.643  11.715  1.00  0.00     0.079 C 
HETATM    8  C18 UNL     1      14.966   5.816  12.870  1.00  0.00     0.067 C 
HETATM    9  N1  UNL     1      14.408   6.233  13.936  1.00  0.00    -0.349 N 
ATOM     10  H1  UNL     1      14.171   5.586  14.688  1.00  0.00     0.167 HD
ENDROOT
BRANCH   6  11
HETATM   11  C10 UNL     1      16.706   8.718  11.999  1.00  0.00     0.045 C 
BRANCH  11  12
HETATM   12  C11 UNL     1      17.291   9.191  10.727  1.00  0.00     0.050 C 
HETATM   13  C12 UNL     1      16.304  10.161  10.019  1.00  0.00     0.127 C 
HETATM   14  C13 UNL     1      16.702  10.389   8.587  1.00  0.00     0.066 C 
HETATM   15  C14 UNL     1      16.624   9.096   7.762  1.00  0.00     0.152 C 
HETATM   16  C15 UNL     1      16.432   8.051   8.811  1.00  0.00     0.180 A 
HETATM   17  O5  UNL     1      17.241   7.097   9.210  1.00  0.00    -0.372 OA
HETATM   18  C16 UNL     1      17.690   8.256   9.688  1.00  0.00     0.160 A 
BRANCH  13  19
HETATM   19  O3  UNL     1      16.368  11.417  10.628  1.00  0.00    -0.395 OA
ATOM     20  H3  UNL     1      15.798  12.021  10.168  1.00  0.00     0.210 HD
ENDBRANCH  13  19
BRANCH  15  21
HETATM   21  O4  UNL     1      17.851   8.960   7.116  1.00  0.00    -0.393 OA
ATOM     22  H4  UNL     1      17.955   8.036   6.923  1.00  0.00     0.210 HD
ENDBRANCH  15  21
ENDBRANCH  11  12
ENDBRANCH   6  11
BRANCH   5  23
HETATM   23  C8  UNL     1      14.012  11.040  12.792  1.00  0.00     0.146 C 
BRANCH  23  24
HETATM   24  O2  UNL     1      13.385  11.145  11.587  1.00  0.00    -0.372 OA
ATOM     25  H2  UNL     1      13.907  11.167  10.794  1.00  0.00     0.216 HD
ENDBRANCH  23  24
ENDBRANCH   5  23
BRANCH   1  26
HETATM   26  C3  UNL     1      12.739  10.472  15.658  1.00  0.00     0.034 C 
HETATM   27  C2  UNL     1      12.484  10.331  16.911  1.00  0.00    -0.028 C 
HETATM   28  C1  UNL     1      11.782  11.414  17.699  1.00  0.00     0.036 C 
ENDBRANCH   1  26
TORSDOF 7
ENDMDL
MODEL 3
REMARK VINA RESULT: -8.550852891      1.720      6.696
REMARK  7 active torsions:
REMARK  status: ('A' for Active; 'I' for Inactive)
REMARK    1  A    between atoms: C3_3  and  C4_4 
REMARK    2  A    between atoms: C7_8  and  C8_9 
REMARK    3  A    between atoms: C8_9  and  O2_10 
REMARK    4  A    between atoms: C9_12  and  C10_13 
REMARK    5  A    between atoms: C10_13  and  C11_14 
REMARK    6  A    between atoms: C12_15  and  O3_16 
REMARK    7  A    between atoms: C14_19  and  O4_20 
ROOT
HETATM    1  C4  UNL     1      15.694   8.498  10.568  1.00  0.00     0.090 A 
HETATM    2  O1  UNL     1      15.416   7.211  10.783  1.00  0.00    -0.292 OA
HETATM    3  C5  UNL     1      15.089   7.016  12.048  1.00  0.00     0.159 A 
HETATM    4  C6  UNL     1      15.134   8.204  12.710  1.00  0.00     0.033 A 
HETATM    5  C7  UNL     1      15.536   9.166  11.763  1.00  0.00     0.034 A 
HETATM    6  C9  UNL     1      14.587   8.278  14.065  1.00  0.00    -0.059 C 
HETATM    7  C17 UNL     1      14.605   7.027  14.825  1.00  0.00     0.079 C 
HETATM    8  C18 UNL     1      14.542   5.829  13.976  1.00  0.00     0.067 C 
HETATM    9  N1  UNL     1      14.763   5.791  12.723  1.00  0.00    -0.349 N 
ATOM     10  H1  UNL     1      14.710   4.911  12.211  1.00  0.00     0.167 HD
ENDROOT
BRANCH   6  11
HETATM   11  C10 UNL     1      13.355   9.107  14.217  1.00  0.00     0.045 C 
BRANCH  11  12
HETATM   12  C11 UNL     1      13.369  10.299  15.091  1.00  0.00     0.050 C 
HETATM   13  C12 UNL     1      12.456  10.060  16.326  1.00  0.00     0.127 C 
HETATM   14  C13 UNL     1      12.173  11.347  17.048  1.00  0.00     0.066 C 
HETATM   15  C14 UNL     1      11.380  12.329  16.171  1.00  0.00     0.152 C 
HETATM   16  C15 UNL     1      11.442  11.687  14.825  1.00  0.00     0.180 A 
HETATM   17  O5  UNL     1      12.063  12.072  13.734  1.00  0.00    -0.372 OA
HETATM   18  C16 UNL     1      12.969  11.604  14.590  1.00  0.00     0.160 A 
BRANCH  13  19
HETATM   19  O3  UNL     1      13.126   9.254  17.250  1.00  0.00    -0.395 OA
ATOM     20  H3  UNL     1      12.766   9.401  18.117  1.00  0.00     0.210 HD
ENDBRANCH  13  19
BRANCH  15  21
HETATM   21  O4  UNL     1      12.071  13.538  16.200  1.00  0.00    -0.393 OA
ATOM     22  H4  UNL     1      12.298  13.743  15.301  1.00  0.00     0.210 HD
ENDBRANCH  15  21
ENDBRANCH  11  12
ENDBRANCH   6  11
BRANCH   5  23
HETATM   23  C8  UNL     1      15.809  10.576  11.960  1.00  0.00     0.146 C 
BRANCH  23  24
HETATM   24  O2  UNL     1      15.020  11.497  11.339  1.00  0.00    -0.372 OA
ATOM     25  H2  UNL     1      15.408  12.084  10.700  1.00  0.00     0.216 HD
ENDBRANCH  23  24
ENDBRANCH   5  23
BRANCH   1  26
HETATM   26  C3  UNL     1      16.079   8.933   9.242  1.00  0.00     0.034 C 
HETATM   27  C2  UNL     1      17.097   8.615   8.522  1.00  0.00    -0.028 C 
HETATM   28  C1  UNL     1      17.302   9.200   7.144  1.00  0.00     0.036 C 
ENDBRANCH   1  26
TORSDOF 7
ENDMDL
MODEL 4
REMARK VINA RESULT: -8.424610260      1.180      1.490
REMARK  7 active torsions:
REMARK  status: ('A' for Active; 'I' for Inactive)
REMARK    1  A    between atoms: C3_3  and  C4_4 
REMARK    2  A    between atoms: C7_8  and  C8_9 
REMARK    3  A    between atoms: C8_9  and  O2_10 
REMARK    4  A    between atoms: C9_12  and  C10_13 
REMARK    5  A    between atoms: C10_13  and  C11_14 
REMARK    6  A    between atoms: C12_15  and  O3_16 
REMARK    7  A    between atoms: C14_19  and  O4_20 
ROOT
HETATM    1  C4  UNL     1      13.253   9.402  16.051  1.00  0.00     0.090 A 
HETATM    2  O1  UNL     1      13.681   8.209  16.467  1.00  0.00    -0.292 OA
HETATM    3  C5  UNL     1      14.043   7.466  15.436  1.00  0.00     0.159 A 
HETATM    4  C6  UNL     1      13.868   8.177  14.289  1.00  0.00     0.033 A 
HETATM    5  C7  UNL     1      13.347   9.426  14.676  1.00  0.00     0.034 A 
HETATM    6  C9  UNL     1      14.419   7.648  13.040  1.00  0.00    -0.059 C 
HETATM    7  C17 UNL     1      14.555   6.191  12.975  1.00  0.00     0.079 C 
HETATM    8  C18 UNL     1      14.746   5.564  14.290  1.00  0.00     0.067 C 
HETATM    9  N1  UNL     1      14.516   6.111  15.416  1.00  0.00    -0.349 N 
ATOM     10  H1  UNL     1      14.665   5.597  16.285  1.00  0.00     0.167 HD
ENDROOT
BRANCH   6  11
HETATM   11  C10 UNL     1      15.548   8.427  12.454  1.00  0.00     0.045 C 
BRANCH  11  12
HETATM   12  C11 UNL     1      15.407   9.042  11.117  1.00  0.00     0.050 C 
HETATM   13  C12 UNL     1      16.162   8.188  10.060  1.00  0.00     0.127 C 
HETATM   14  C13 UNL     1      16.333   8.945   8.773  1.00  0.00     0.066 C 
HETATM   15  C14 UNL     1      17.214  10.190   8.959  1.00  0.00     0.152 C 
HETATM   16  C15 UNL     1      17.330  10.289  10.444  1.00  0.00     0.180 A 
HETATM   17  O5  UNL     1      16.844  11.186  11.270  1.00  0.00    -0.372 OA
HETATM   18  C16 UNL     1      15.846  10.404  10.865  1.00  0.00     0.160 A 
BRANCH  13  19
HETATM   19  O3  UNL     1      15.395   7.067   9.734  1.00  0.00    -0.395 OA
ATOM     20  H3  UNL     1      15.968   6.325   9.581  1.00  0.00     0.210 HD
ENDBRANCH  13  19
BRANCH  15  21
HETATM   21  O4  UNL     1      16.507  11.264   8.423  1.00  0.00    -0.393 OA
ATOM     22  H4  UNL     1      17.057  11.643   7.748  1.00  0.00     0.210 HD
ENDBRANCH  15  21
ENDBRANCH  11  12
ENDBRANCH   6  11
BRANCH   5  23
HETATM   23  C8  UNL     1      12.915  10.529  13.841  1.00  0.00     0.146 C 
BRANCH  23  24
HETATM   24  O2  UNL     1      13.821  11.478  13.475  1.00  0.00    -0.372 OA
ATOM     25  H2  UNL     1      13.711  12.369  13.787  1.00  0.00     0.216 HD
ENDBRANCH  23  24
ENDBRANCH   5  23
BRANCH   1  26
HETATM   26  C3  UNL     1      12.805  10.378  17.022  1.00  0.00     0.034 C 
HETATM   27  C2  UNL     1      12.231  10.217  18.163  1.00  0.00    -0.028 C 
HETATM   28  C1  UNL     1      11.846  11.398  19.025  1.00  0.00     0.036 C 
ENDBRANCH   1  26
TORSDOF 7
ENDMDL
MODEL 5
REMARK VINA RESULT: -8.395206434      1.709      1.944
REMARK  7 active torsions:
REMARK  status: ('A' for Active; 'I' for Inactive)
REMARK    1  A    between atoms: C3_3  and  C4_4 
REMARK    2  A    between atoms: C7_8  and  C8_9 
REMARK    3  A    between atoms: C8_9  and  O2_10 
REMARK    4  A    between atoms: C9_12  and  C10_13 
REMARK    5  A    between atoms: C10_13  and  C11_14 
REMARK    6  A    between atoms: C12_15  and  O3_16 
REMARK    7  A    between atoms: C14_19  and  O4_20 
ROOT
HETATM    1  C4  UNL     1      13.576   9.385  14.479  1.00  0.00     0.090 A 
HETATM    2  O1  UNL     1      13.483   8.224  15.128  1.00  0.00    -0.292 OA
HETATM    3  C5  UNL     1      13.941   7.238  14.377  1.00  0.00     0.159 A 
HETATM    4  C6  UNL     1      14.370   7.745  13.188  1.00  0.00     0.033 A 
HETATM    5  C7  UNL     1      14.126   9.130  13.241  1.00  0.00     0.034 A 
HETATM    6  C9  UNL     1      15.131   6.880  12.286  1.00  0.00    -0.059 C 
HETATM    7  C17 UNL     1      14.862   5.445  12.406  1.00  0.00     0.079 C 
HETATM    8  C18 UNL     1      14.417   5.047  13.748  1.00  0.00     0.067 C 
HETATM    9  N1  UNL     1      13.989   5.831  14.655  1.00  0.00    -0.349 N 
ATOM     10  H1  UNL     1      13.688   5.467  15.559  1.00  0.00     0.167 HD
ENDROOT
BRANCH   6  11
HETATM   11  C10 UNL     1      16.563   7.253  12.094  1.00  0.00     0.045 C 
BRANCH  11  12
HETATM   12  C11 UNL     1      17.095   7.467  10.732  1.00  0.00     0.050 C 
HETATM   13  C12 UNL     1      17.369   8.979  10.502  1.00  0.00     0.127 C 
HETATM   14  C13 UNL     1      17.579   9.278   9.044  1.00  0.00     0.066 C 
HETATM   15  C14 UNL     1      16.317   8.989   8.217  1.00  0.00     0.152 C 
HETATM   16  C15 UNL     1      15.451   8.257   9.189  1.00  0.00     0.180 A 
HETATM   17  O5  UNL     1      15.065   7.002   9.197  1.00  0.00    -0.372 OA
HETATM   18  C16 UNL     1      16.346   7.051   9.557  1.00  0.00     0.160 A 
BRANCH  13  19
HETATM   19  O3  UNL     1      18.565   9.336  11.131  1.00  0.00    -0.395 OA
ATOM     20  H3  UNL     1      19.014   9.990  10.609  1.00  0.00     0.210 HD
ENDBRANCH  13  19
BRANCH  15  21
HETATM   21  O4  UNL     1      16.710   8.172   7.160  1.00  0.00    -0.393 OA
ATOM     22  H4  UNL     1      16.830   7.301   7.518  1.00  0.00     0.210 HD
ENDBRANCH  15  21
ENDBRANCH  11  12
ENDBRANCH   6  11
BRANCH   5  23
HETATM   23  C8  UNL     1      14.329  10.129  12.210  1.00  0.00     0.146 C 
BRANCH  23  24
HETATM   24  O2  UNL     1      13.273  10.510  11.438  1.00  0.00    -0.372 OA
ATOM     25  H2  UNL     1      12.601  11.066  11.814  1.00  0.00     0.216 HD
ENDBRANCH  23  24
ENDBRANCH   5  23
BRANCH   1  26
HETATM   26  C3  UNL     1      13.126  10.601  15.123  1.00  0.00     0.034 C 
HETATM   27  C2  UNL     1      12.064  11.302  14.932  1.00  0.00    -0.028 C 
HETATM   28  C1  UNL     1      11.793  12.556  15.733  1.00  0.00     0.036 C 
ENDBRANCH   1  26
TORSDOF 7
ENDMDL
