MODEL 1
REMARK VINA RESULT: -9.186867432      0.000      0.000
REMARK  5 active torsions:
REMARK  status: ('A' for Active; 'I' for Inactive)
REMARK    1  A    between atoms: C2_2  and  C3_3 
REMARK    2  A    between atoms: C3_3  and  C4_4 
REMARK    3  A    between atoms: C6_8  and  N2_9 
REMARK    4  A    between atoms: C7_14  and  N4_15 
REMARK    5  A    between atoms: C13_24  and  C14_25 
ROOT
HETATM    1  C4  UNL     1      13.378   9.880  14.491  1.00  0.00     0.041 A 
HETATM    2  N1  UNL     1      13.305  10.966  13.642  1.00  0.00    -0.339 N 
ATOM      3  H1  UNL     1      12.929  11.885  13.874  1.00  0.00     0.167 HD
HETATM    4  C5  UNL     1      13.807  10.603  12.478  1.00  0.00     0.173 A 
HETATM    5  C6  UNL     1      13.966  11.327  11.295  1.00  0.00     0.161 A 
HETATM    6  N3  UNL     1      14.514  10.695  10.270  1.00  0.00    -0.172 N 
ATOM      7  H3  UNL     1      14.635  11.212   9.400  1.00  0.00     0.186 HD
HETATM    8  C7  UNL     1      14.916   9.427  10.304  1.00  0.00     0.697 A 
HETATM    9  N5  UNL     1      14.746   8.744  11.484  1.00  0.00    -0.123 N 
ATOM     10  H5  UNL     1      15.046   7.771  11.536  1.00  0.00     0.206 HD
HETATM   11  N6  UNL     1      14.206   9.304  12.553  1.00  0.00    -0.219 N 
HETATM   12  C13 UNL     1      13.943   8.833  13.818  1.00  0.00     0.094 A 
ENDROOT
BRANCH  12  13
HETATM   13  C14 UNL     1      14.275   7.482  14.329  1.00  0.00     0.028 A 
HETATM   14  C15 UNL     1      14.894   7.119  15.494  1.00  0.00     0.122 A 
HETATM   15  N7  UNL     1      14.944   5.744  15.559  1.00  0.00    -0.311 N 
HETATM   16  N8  UNL     1      14.401   5.224  14.512  1.00  0.00    -0.311 N 
ATOM     17  H7  UNL     1      15.355   5.213  16.326  1.00  0.00     0.186 HD
HETATM   18  C16 UNL     1      13.978   6.264  13.733  1.00  0.00     0.122 A 
ATOM     19  H8  UNL     1      14.305   4.230  14.307  1.00  0.00     0.186 HD
ENDBRANCH  12  13
BRANCH   1  20
HETATM   20  C3  UNL     1      12.851   9.948  15.874  1.00  0.00     0.059 C 
BRANCH  20  21
HETATM   21  C2  UNL     1      12.741  11.360  16.409  1.00  0.00     0.002 C 
HETATM   22  C1  UNL     1      11.291  11.747  16.634  1.00  0.00     0.005 C 
ENDBRANCH  20  21
ENDBRANCH   1  20
BRANCH   5  23
HETATM   23  N2  UNL     1      13.578  12.558  11.251  1.00  0.00    -0.382 N 
ATOM     24  H22 UNL     1      14.214  13.354  11.316  1.00  0.00     0.157 HD
ATOM     25  H21 UNL     1      12.585  12.765  11.145  1.00  0.00     0.157 HD
ENDBRANCH   5  23
BRANCH   8  26
HETATM   26  N4  UNL     1      15.509   8.771   9.195  1.00  0.00    -0.216 N 
HETATM   27  C8  UNL     1      15.175   7.435   8.750  1.00  0.00     0.141 C 
HETATM   28  C9  UNL     1      16.246   6.906   7.808  1.00  0.00     0.020 C 
HETATM   29  C10 UNL     1      17.625   7.227   8.282  1.00  0.00     0.003 C 
HETATM   30  C11 UNL     1      17.816   8.654   8.671  1.00  0.00     0.020 C 
HETATM   31  C12 UNL     1      16.536   9.460   8.446  1.00  0.00     0.141 C 
ENDBRANCH   8  26
TORSDOF 5
ENDMDL
MODEL 2
REMARK VINA RESULT: -9.039964526      1.803      6.410
REMARK  5 active torsions:
REMARK  status: ('A' for Active; 'I' for Inactive)
REMARK    1  A    between atoms: C2_2  and  C3_3 
REMARK    2  A    between atoms: C3_3  and  C4_4 
REMARK    3  A    between atoms: C6_8  and  N2_9 
REMARK    4  A    between atoms: C7_14  and  N4_15 
REMARK    5  A    between atoms: C13_24  and  C14_25 
ROOT
HETATM    1  C4  UNL     1      15.151   9.447  10.188  1.00  0.00     0.041 A 
HETATM    2  N1  UNL     1      14.468  10.644  10.114  1.00  0.00    -0.339 N 
ATOM      3  H1  UNL     1      14.306  11.192   9.269  1.00  0.00     0.167 HD
HETATM    4  C5  UNL     1      14.062  10.952  11.330  1.00  0.00     0.173 A 
HETATM    5  C6  UNL     1      13.332  12.050  11.790  1.00  0.00     0.161 A 
HETATM    6  N3  UNL     1      13.061  12.094  13.083  1.00  0.00    -0.172 N 
ATOM      7  H3  UNL     1      12.529  12.891  13.433  1.00  0.00     0.186 HD
HETATM    8  C7  UNL     1      13.438  11.165  13.958  1.00  0.00     0.697 A 
HETATM    9  N5  UNL     1      14.154  10.098  13.472  1.00  0.00    -0.123 N 
ATOM     10  H5  UNL     1      14.456   9.372  14.121  1.00  0.00     0.206 HD
HETATM   11  N6  UNL     1      14.467   9.980  12.192  1.00  0.00    -0.219 N 
HETATM   12  C13 UNL     1      15.155   9.022  11.487  1.00  0.00     0.094 A 
ENDROOT
BRANCH  12  13
HETATM   13  C14 UNL     1      15.716   7.768  12.043  1.00  0.00     0.028 A 
HETATM   14  C15 UNL     1      15.213   6.496  12.006  1.00  0.00     0.122 A 
HETATM   15  N7  UNL     1      16.110   5.648  12.618  1.00  0.00    -0.311 N 
HETATM   16  N8  UNL     1      17.137   6.304  13.035  1.00  0.00    -0.311 N 
ATOM     17  H7  UNL     1      15.978   4.642  12.725  1.00  0.00     0.186 HD
HETATM   18  C16 UNL     1      16.929   7.612  12.699  1.00  0.00     0.122 A 
ATOM     19  H8  UNL     1      17.947   5.920  13.521  1.00  0.00     0.186 HD
ENDBRANCH  12  13
BRANCH   1  20
HETATM   20  C3  UNL     1      15.778   8.843   8.988  1.00  0.00     0.059 C 
BRANCH  20  21
HETATM   21  C2  UNL     1      16.738   9.773   8.277  1.00  0.00     0.002 C 
HETATM   22  C1  UNL     1      17.413   9.074   7.111  1.00  0.00     0.005 C 
ENDBRANCH  20  21
ENDBRANCH   1  20
BRANCH   5  23
HETATM   23  N2  UNL     1      12.961  12.958  10.950  1.00  0.00    -0.382 N 
ATOM     24  H22 UNL     1      12.064  12.945  10.463  1.00  0.00     0.157 HD
ATOM     25  H21 UNL     1      13.587  13.739  10.751  1.00  0.00     0.157 HD
ENDBRANCH   5  23
BRANCH   8  26
HETATM   26  N4  UNL     1      13.129  11.229  15.340  1.00  0.00    -0.216 N 
HETATM   27  C8  UNL     1      12.974  10.080  16.206  1.00  0.00     0.141 C 
HETATM   28  C9  UNL     1      12.274  10.478  17.497  1.00  0.00     0.020 C 
HETATM   29  C10 UNL     1      11.132  11.410  17.257  1.00  0.00     0.003 C 
HETATM   30  C11 UNL     1      11.464  12.562  16.371  1.00  0.00     0.020 C 
HETATM   31  C12 UNL     1      12.935  12.525  15.951  1.00  0.00     0.141 C 
ENDBRANCH   8  26
TORSDOF 5
ENDMDL
MODEL 3
REMARK VINA RESULT: -9.005567541      1.444      4.055
REMARK  5 active torsions:
REMARK  status: ('A' for Active; 'I' for Inactive)
REMARK    1  A    between atoms: C2_2  and  C3_3 
REMARK    2  A    between atoms: C3_3  and  C4_4 
REMARK    3  A    between atoms: C6_8  and  N2_9 
REMARK    4  A    between atoms: C7_14  and  N4_15 
REMARK    5  A    between atoms: C13_24  and  C14_25 
ROOT
HETATM    1  C4  UNL     1      13.180  10.582  14.375  1.00  0.00     0.041 A 
HETATM    2  N1  UNL     1      13.962   9.482  14.663  1.00  0.00    -0.339 N 
ATOM      3  H1  UNL     1      14.121   9.084  15.589  1.00  0.00     0.167 HD
HETATM    4  C5  UNL     1      14.468   9.038  13.529  1.00  0.00     0.173 A 
HETATM    5  C6  UNL     1      15.314   7.956  13.277  1.00  0.00     0.161 A 
HETATM    6  N3  UNL     1      15.660   7.743  12.019  1.00  0.00    -0.172 N 
ATOM      7  H3  UNL     1      16.278   6.956  11.821  1.00  0.00     0.186 HD
HETATM    8  C7  UNL     1      15.254   8.490  10.995  1.00  0.00     0.697 A 
HETATM    9  N5  UNL     1      14.422   9.546  11.279  1.00  0.00    -0.123 N 
ATOM     10  H5  UNL     1      14.096  10.134  10.512  1.00  0.00     0.206 HD
HETATM   11  N6  UNL     1      14.030   9.826  12.510  1.00  0.00    -0.219 N 
HETATM   12  C13 UNL     1      13.215  10.806  13.027  1.00  0.00     0.094 A 
ENDROOT
BRANCH  12  13
HETATM   13  C14 UNL     1      12.491  11.835  12.245  1.00  0.00     0.028 A 
HETATM   14  C15 UNL     1      12.946  12.650  11.245  1.00  0.00     0.122 A 
HETATM   15  N7  UNL     1      11.896  13.415  10.784  1.00  0.00    -0.311 N 
HETATM   16  N8  UNL     1      10.817  13.133  11.430  1.00  0.00    -0.311 N 
ATOM     17  H7  UNL     1      11.963  14.106  10.038  1.00  0.00     0.186 HD
HETATM   18  C16 UNL     1      11.146  12.165  12.338  1.00  0.00     0.122 A 
ATOM     19  H8  UNL     1       9.897  13.550  11.291  1.00  0.00     0.186 HD
ENDBRANCH  12  13
BRANCH   1  20
HETATM   20  C3  UNL     1      12.500  11.346  15.448  1.00  0.00     0.059 C 
BRANCH  20  21
HETATM   21  C2  UNL     1      12.399  10.589  16.755  1.00  0.00     0.002 C 
HETATM   22  C1  UNL     1      11.386  11.233  17.683  1.00  0.00     0.005 C 
ENDBRANCH  20  21
ENDBRANCH   1  20
BRANCH   5  23
HETATM   23  N2  UNL     1      15.715   7.225  14.263  1.00  0.00    -0.382 N 
ATOM     24  H22 UNL     1      15.462   7.400  15.237  1.00  0.00     0.157 HD
ATOM     25  H21 UNL     1      16.317   6.423  14.077  1.00  0.00     0.157 HD
ENDBRANCH   5  23
BRANCH   8  26
HETATM   26  N4  UNL     1      15.632   8.237   9.652  1.00  0.00    -0.216 N 
HETATM   27  C8  UNL     1      15.695   6.925   9.045  1.00  0.00     0.141 C 
HETATM   28  C9  UNL     1      16.495   6.977   7.751  1.00  0.00     0.020 C 
HETATM   29  C10 UNL     1      17.724   7.816   7.879  1.00  0.00     0.003 C 
HETATM   30  C11 UNL     1      17.485   9.154   8.494  1.00  0.00     0.020 C 
HETATM   31  C12 UNL     1      16.001   9.354   8.811  1.00  0.00     0.141 C 
ENDBRANCH   8  26
TORSDOF 5
ENDMDL
MODEL 4
REMARK VINA RESULT: -8.899334061      1.537      6.222
REMARK  5 active torsions:
REMARK  status: ('A' for Active; 'I' for Inactive)
REMARK    1  A    between atoms: C2_2  and  C3_3 
REMARK    2  A    between atoms: C3_3  and  C4_4 
REMARK    3  A    between atoms: C6_8  and  N2_9 
REMARK    4  A    between atoms: C7_14  and  N4_15 
REMARK    5  A    between atoms: C13_24  and  C14_25 
ROOT
HETATM    1  C4  UNL     1      15.390   7.351  11.312  1.00  0.00     0.041 A 
HETATM    2  N1  UNL     1      15.286   8.657  10.877  1.00  0.00    -0.339 N 
ATOM      3  H1  UNL     1      15.545   9.006   9.954  1.00  0.00     0.167 HD
HETATM    4  C5  UNL     1      14.792   9.374  11.868  1.00  0.00     0.173 A 
HETATM    5  C6  UNL     1      14.493  10.736  11.939  1.00  0.00     0.161 A 
HETATM    6  N3  UNL     1      13.995  11.185  13.078  1.00  0.00    -0.172 N 
ATOM      7  H3  UNL     1      13.772  12.178  13.144  1.00  0.00     0.186 HD
HETATM    8  C7  UNL     1      13.765  10.423  14.145  1.00  0.00     0.697 A 
HETATM    9  N5  UNL     1      14.071   9.087  14.041  1.00  0.00    -0.123 N 
ATOM     10  H5  UNL     1      13.904   8.481  14.844  1.00  0.00     0.206 HD
HETATM   11  N6  UNL     1      14.572   8.560  12.936  1.00  0.00    -0.219 N 
HETATM   12  C13 UNL     1      14.944   7.280  12.602  1.00  0.00     0.094 A 
ENDROOT
BRANCH  12  13
HETATM   13  C14 UNL     1      14.813   6.083  13.466  1.00  0.00     0.028 A 
HETATM   14  C15 UNL     1      14.096   4.936  13.262  1.00  0.00     0.122 A 
HETATM   15  N7  UNL     1      14.317   4.082  14.321  1.00  0.00    -0.311 N 
HETATM   16  N8  UNL     1      15.122   4.620  15.171  1.00  0.00    -0.311 N 
ATOM     17  H7  UNL     1      13.902   3.156  14.418  1.00  0.00     0.186 HD
HETATM   18  C16 UNL     1      15.448   5.852  14.678  1.00  0.00     0.122 A 
ATOM     19  H8  UNL     1      15.452   4.205  16.043  1.00  0.00     0.186 HD
ENDBRANCH  12  13
BRANCH   1  20
HETATM   20  C3  UNL     1      15.957   6.293  10.441  1.00  0.00     0.059 C 
BRANCH  20  21
HETATM   21  C2  UNL     1      15.566   6.437   8.986  1.00  0.00     0.002 C 
HETATM   22  C1  UNL     1      15.245   5.087   8.371  1.00  0.00     0.005 C 
ENDBRANCH  20  21
ENDBRANCH   1  20
BRANCH   5  23
HETATM   23  N2  UNL     1      14.712  11.485  10.909  1.00  0.00    -0.382 N 
ATOM     24  H22 UNL     1      14.696  12.505  10.939  1.00  0.00     0.157 HD
ATOM     25  H21 UNL     1      14.914  11.049  10.009  1.00  0.00     0.157 HD
ENDBRANCH   5  23
BRANCH   8  26
HETATM   26  N4  UNL     1      13.223  10.924  15.355  1.00  0.00    -0.216 N 
HETATM   27  C8  UNL     1      12.784  10.106  16.465  1.00  0.00     0.141 C 
HETATM   28  C9  UNL     1      11.914  10.920  17.412  1.00  0.00     0.020 C 
HETATM   29  C10 UNL     1      10.947  11.794  16.684  1.00  0.00     0.003 C 
HETATM   30  C11 UNL     1      11.564  12.599  15.590  1.00  0.00     0.020 C 
HETATM   31  C12 UNL     1      13.072  12.354  15.511  1.00  0.00     0.141 C 
ENDBRANCH   8  26
TORSDOF 5
ENDMDL
MODEL 5
REMARK VINA RESULT: -8.884671408      1.564      4.253
REMARK  5 active torsions:
REMARK  status: ('A' for Active; 'I' for Inactive)
REMARK    1  A    between atoms: C2_2  and  C3_3 
REMARK    2  A    between atoms: C3_3  and  C4_4 
REMARK    3  A    between atoms: C6_8  and  N2_9 
REMARK    4  A    between atoms: C7_14  and  N4_15 
REMARK    5  A    between atoms: C13_24  and  C14_25 
ROOT
HETATM    1  C4  UNL     1      12.801  10.630  14.608  1.00  0.00     0.041 A 
HETATM    2  N1  UNL     1      13.505   9.522  15.034  1.00  0.00    -0.339 N 
ATOM      3  H1  UNL     1      13.520   9.147  15.983  1.00  0.00     0.167 HD
HETATM    4  C5  UNL     1      14.156   9.034  13.996  1.00  0.00     0.173 A 
HETATM    5  C6  UNL     1      15.001   7.927  13.896  1.00  0.00     0.161 A 
HETATM    6  N3  UNL     1      15.518   7.669  12.707  1.00  0.00    -0.172 N 
ATOM      7  H3  UNL     1      16.138   6.863  12.620  1.00  0.00     0.186 HD
HETATM    8  C7  UNL     1      15.282   8.395  11.616  1.00  0.00     0.697 A 
HETATM    9  N5  UNL     1      14.446   9.476  11.750  1.00  0.00    -0.123 N 
ATOM     10  H5  UNL     1      14.248  10.049  10.930  1.00  0.00     0.206 HD
HETATM   11  N6  UNL     1      13.889   9.801  12.904  1.00  0.00    -0.219 N 
HETATM   12  C13 UNL     1      13.034  10.813  13.274  1.00  0.00     0.094 A 
ENDROOT
BRANCH  12  13
HETATM   13  C14 UNL     1      12.456  11.835  12.370  1.00  0.00     0.028 A 
HETATM   14  C15 UNL     1      13.056  12.561  11.377  1.00  0.00     0.122 A 
HETATM   15  N7  UNL     1      12.106  13.357  10.775  1.00  0.00    -0.311 N 
HETATM   16  N8  UNL     1      10.955  13.177  11.325  1.00  0.00    -0.311 N 
ATOM     17  H7  UNL     1      12.289  13.997  10.003  1.00  0.00     0.186 HD
HETATM   18  C16 UNL     1      11.132  12.248  12.311  1.00  0.00     0.122 A 
ATOM     19  H8  UNL     1      10.081  13.639  11.072  1.00  0.00     0.186 HD
ENDBRANCH  12  13
BRANCH   1  20
HETATM   20  C3  UNL     1      11.995  11.439  15.552  1.00  0.00     0.059 C 
BRANCH  20  21
HETATM   21  C2  UNL     1      12.455  11.324  16.990  1.00  0.00     0.002 C 
HETATM   22  C1  UNL     1      11.273  11.199  17.934  1.00  0.00     0.005 C 
ENDBRANCH  20  21
ENDBRANCH   1  20
BRANCH   5  23
HETATM   23  N2  UNL     1      15.238   7.216  14.948  1.00  0.00    -0.382 N 
ATOM     24  H22 UNL     1      14.862   7.432  15.872  1.00  0.00     0.157 HD
ATOM     25  H21 UNL     1      15.831   6.390  14.869  1.00  0.00     0.157 HD
ENDBRANCH   5  23
BRANCH   8  26
HETATM   26  N4  UNL     1      15.841   8.095  10.348  1.00  0.00    -0.216 N 
HETATM   27  C8  UNL     1      15.807   8.976   9.201  1.00  0.00     0.141 C 
HETATM   28  C9  UNL     1      16.137   8.207   7.931  1.00  0.00     0.020 C 
HETATM   29  C10 UNL     1      15.466   6.874   7.885  1.00  0.00     0.003 C 
HETATM   30  C11 UNL     1      15.624   6.073   9.133  1.00  0.00     0.020 C 
HETATM   31  C12 UNL     1      16.486   6.815  10.156  1.00  0.00     0.141 C 
ENDBRANCH   8  26
TORSDOF 5
ENDMDL
