MODEL 1
REMARK VINA RESULT: -8.905169626      0.000      0.000
REMARK  6 active torsions:
REMARK  status: ('A' for Active; 'I' for Inactive)
REMARK    1  A    between atoms: N1_1  and  C1_4 
REMARK    2  A    between atoms: N4_11  and  C4_12 
REMARK    3  A    between atoms: C4_12  and  C5_13 
REMARK    4  A    between atoms: C5_13  and  C6_14 
REMARK    5  A    between atoms: C13_21  and  N5_22 
REMARK    6  A    between atoms: C16_25  and  O1_26 
ROOT
HETATM    1  C1  UNL     1      13.078  12.632  11.564  1.00  0.00     0.678 A 
HETATM    2  N2  UNL     1      12.629  12.328  12.784  1.00  0.00    -0.188 N 
ATOM      3  H2  UNL     1      11.950  12.951  13.221  1.00  0.00     0.184 HD
HETATM    4  C2  UNL     1      13.035  11.229  13.467  1.00  0.00     0.098 A 
HETATM    5  C3  UNL     1      12.735  10.703  14.684  1.00  0.00     0.140 A 
HETATM    6  N3  UNL     1      13.443   9.595  14.821  1.00  0.00    -0.307 N 
ATOM      7  H3  UNL     1      13.418   8.990  15.642  1.00  0.00     0.186 HD
HETATM    8  N4  UNL     1      14.208   9.367  13.724  1.00  0.00    -0.287 N 
HETATM    9  C12 UNL     1      13.959  10.370  12.885  1.00  0.00     0.124 A 
HETATM   10  C13 UNL     1      14.411  10.677  11.650  1.00  0.00     0.150 A 
HETATM   11  N6  UNL     1      13.957  11.812  11.010  1.00  0.00    -0.175 N 
ATOM     12  H6  UNL     1      14.311  12.026  10.078  1.00  0.00     0.186 HD
ENDROOT
BRANCH   8  13
HETATM   13  C4  UNL     1      15.098   8.262  13.714  1.00  0.00     0.150 C 
BRANCH  13  14
HETATM   14  C5  UNL     1      14.419   6.952  14.068  1.00  0.00     0.026 C 
BRANCH  14  15
HETATM   15  C6  UNL     1      14.320   5.974  12.965  1.00  0.00    -0.013 C 
HETATM   16  C7  UNL     1      14.312   4.583  13.622  1.00  0.00     0.005 C 
HETATM   17  C8  UNL     1      14.477   3.524  12.557  1.00  0.00     0.000 C 
HETATM   18  C9  UNL     1      15.937   3.528  12.123  1.00  0.00     0.000 C 
HETATM   19  C10 UNL     1      16.487   4.916  12.287  1.00  0.00     0.000 C 
HETATM   20  C11 UNL     1      15.425   5.969  11.980  1.00  0.00     0.005 C 
ENDBRANCH  14  15
ENDBRANCH  13  14
ENDBRANCH   8  13
BRANCH  10  21
HETATM   21  N5  UNL     1      15.300   9.846  10.950  1.00  0.00    -0.362 N 
HETATM   22  C14 UNL     1      14.877   8.950   9.861  1.00  0.00     0.127 C 
HETATM   23  C15 UNL     1      16.123   8.470   9.200  1.00  0.00     0.053 C 
HETATM   24  C16 UNL     1      17.190   9.467   9.617  1.00  0.00     0.137 C 
HETATM   25  C17 UNL     1      16.721   9.751  11.051  1.00  0.00     0.156 C 
BRANCH  24  26
HETATM   26  O1  UNL     1      18.449   8.915   9.588  1.00  0.00    -0.394 OA
ATOM     27  H1  UNL     1      18.827   8.846  10.457  1.00  0.00     0.210 HD
ENDBRANCH  24  26
ENDBRANCH  10  21
BRANCH   1  28
HETATM   28  N1  UNL     1      12.661  13.710  10.933  1.00  0.00    -0.234 N 
ATOM     29  H12 UNL     1      12.471  14.576  11.437  1.00  0.00     0.174 HD
ATOM     30  H11 UNL     1      12.517  13.709   9.923  1.00  0.00     0.174 HD
ENDBRANCH   1  28
TORSDOF 6
ENDMDL
MODEL 2
REMARK VINA RESULT: -8.770965361      0.471      1.033
REMARK  6 active torsions:
REMARK  status: ('A' for Active; 'I' for Inactive)
REMARK    1  A    between atoms: N1_1  and  C1_4 
REMARK    2  A    between atoms: N4_11  and  C4_12 
REMARK    3  A    between atoms: C4_12  and  C5_13 
REMARK    4  A    between atoms: C5_13  and  C6_14 
REMARK    5  A    between atoms: C13_21  and  N5_22 
REMARK    6  A    between atoms: C16_25  and  O1_26 
ROOT
HETATM    1  C1  UNL     1      12.896  12.692  11.510  1.00  0.00     0.678 A 
HETATM    2  N2  UNL     1      12.438  12.409  12.732  1.00  0.00    -0.188 N 
ATOM      3  H2  UNL     1      11.737  13.025  13.144  1.00  0.00     0.184 HD
HETATM    4  C2  UNL     1      12.862  11.339  13.449  1.00  0.00     0.098 A 
HETATM    5  C3  UNL     1      12.558  10.837  14.676  1.00  0.00     0.140 A 
HETATM    6  N3  UNL     1      13.292   9.751  14.851  1.00  0.00    -0.307 N 
ATOM      7  H3  UNL     1      13.270   9.168  15.688  1.00  0.00     0.186 HD
HETATM    8  N4  UNL     1      14.077   9.514  13.771  1.00  0.00    -0.287 N 
HETATM    9  C12 UNL     1      13.814  10.488  12.902  1.00  0.00     0.124 A 
HETATM   10  C13 UNL     1      14.276  10.774  11.665  1.00  0.00     0.150 A 
HETATM   11  N6  UNL     1      13.802  11.880  10.990  1.00  0.00    -0.175 N 
ATOM     12  H6  UNL     1      14.164  12.079  10.057  1.00  0.00     0.186 HD
ENDROOT
BRANCH   8  13
HETATM   13  C4  UNL     1      14.994   8.431  13.801  1.00  0.00     0.150 C 
BRANCH  13  14
HETATM   14  C5  UNL     1      14.381   7.123  13.337  1.00  0.00     0.026 C 
BRANCH  14  15
HETATM   15  C6  UNL     1      15.339   6.020  13.119  1.00  0.00    -0.013 C 
HETATM   16  C7  UNL     1      15.309   5.716  11.612  1.00  0.00     0.005 C 
HETATM   17  C8  UNL     1      16.061   4.433  11.344  1.00  0.00     0.000 C 
HETATM   18  C9  UNL     1      15.179   3.276  11.796  1.00  0.00     0.000 C 
HETATM   19  C10 UNL     1      14.312   3.743  12.930  1.00  0.00     0.000 C 
HETATM   20  C11 UNL     1      15.054   4.744  13.813  1.00  0.00     0.005 C 
ENDBRANCH  14  15
ENDBRANCH  13  14
ENDBRANCH   8  13
BRANCH  10  21
HETATM   21  N5  UNL     1      15.194   9.948  10.999  1.00  0.00    -0.362 N 
HETATM   22  C14 UNL     1      14.813   9.033   9.911  1.00  0.00     0.127 C 
HETATM   23  C15 UNL     1      16.083   8.563   9.289  1.00  0.00     0.053 C 
HETATM   24  C16 UNL     1      17.124   9.580   9.721  1.00  0.00     0.137 C 
HETATM   25  C17 UNL     1      16.614   9.875  11.139  1.00  0.00     0.156 C 
BRANCH  24  26
HETATM   26  O1  UNL     1      18.391   9.047   9.732  1.00  0.00    -0.394 OA
ATOM     27  H1  UNL     1      18.881   9.309  10.503  1.00  0.00     0.210 HD
ENDBRANCH  24  26
ENDBRANCH  10  21
BRANCH   1  28
HETATM   28  N1  UNL     1      12.461  13.742  10.845  1.00  0.00    -0.234 N 
ATOM     29  H12 UNL     1      13.108  14.366  10.362  1.00  0.00     0.174 HD
ATOM     30  H11 UNL     1      11.466  13.961  10.795  1.00  0.00     0.174 HD
ENDBRANCH   1  28
TORSDOF 6
ENDMDL
MODEL 3
REMARK VINA RESULT: -8.638010922      0.830      1.152
REMARK  6 active torsions:
REMARK  status: ('A' for Active; 'I' for Inactive)
REMARK    1  A    between atoms: N1_1  and  C1_4 
REMARK    2  A    between atoms: N4_11  and  C4_12 
REMARK    3  A    between atoms: C4_12  and  C5_13 
REMARK    4  A    between atoms: C5_13  and  C6_14 
REMARK    5  A    between atoms: C13_21  and  N5_22 
REMARK    6  A    between atoms: C16_25  and  O1_26 
ROOT
HETATM    1  C1  UNL     1      12.779  12.555  11.267  1.00  0.00     0.678 A 
HETATM    2  N2  UNL     1      12.505  12.133  12.504  1.00  0.00    -0.188 N 
ATOM      3  H2  UNL     1      11.753  12.591  13.019  1.00  0.00     0.184 HD
HETATM    4  C2  UNL     1      13.182  11.124  13.106  1.00  0.00     0.098 A 
HETATM    5  C3  UNL     1      13.097  10.516  14.320  1.00  0.00     0.140 A 
HETATM    6  N3  UNL     1      14.025   9.573  14.354  1.00  0.00    -0.307 N 
ATOM      7  H3  UNL     1      14.191   8.955  15.148  1.00  0.00     0.186 HD
HETATM    8  N4  UNL     1      14.726   9.537  13.193  1.00  0.00    -0.287 N 
HETATM    9  C12 UNL     1      14.209  10.488  12.419  1.00  0.00     0.124 A 
HETATM   10  C13 UNL     1      14.484  10.913  11.167  1.00  0.00     0.150 A 
HETATM   11  N6  UNL     1      13.757  11.947  10.613  1.00  0.00    -0.175 N 
ATOM     12  H6  UNL     1      13.981  12.254   9.666  1.00  0.00     0.186 HD
ENDROOT
BRANCH   8  13
HETATM   13  C4  UNL     1      15.817   8.638  13.067  1.00  0.00     0.150 C 
BRANCH  13  14
HETATM   14  C5  UNL     1      15.586   7.322  13.787  1.00  0.00     0.026 C 
BRANCH  14  15
HETATM   15  C6  UNL     1      14.718   6.359  13.077  1.00  0.00    -0.013 C 
HETATM   16  C7  UNL     1      14.624   5.118  13.980  1.00  0.00     0.005 C 
HETATM   17  C8  UNL     1      13.972   3.990  13.215  1.00  0.00     0.000 C 
HETATM   18  C9  UNL     1      15.000   3.441  12.234  1.00  0.00     0.000 C 
HETATM   19  C10 UNL     1      15.929   4.552  11.835  1.00  0.00     0.000 C 
HETATM   20  C11 UNL     1      15.190   5.886  11.756  1.00  0.00     0.005 C 
ENDBRANCH  14  15
ENDBRANCH  13  14
ENDBRANCH   8  13
BRANCH  10  21
HETATM   21  N5  UNL     1      15.461  10.302  10.367  1.00  0.00    -0.362 N 
HETATM   22  C14 UNL     1      16.877  10.703  10.376  1.00  0.00     0.127 C 
HETATM   23  C15 UNL     1      17.620   9.649   9.628  1.00  0.00     0.053 C 
HETATM   24  C16 UNL     1      16.690   8.449   9.626  1.00  0.00     0.137 C 
HETATM   25  C17 UNL     1      15.343   9.174   9.498  1.00  0.00     0.156 C 
BRANCH  24  26
HETATM   26  O1  UNL     1      16.928   7.615   8.559  1.00  0.00    -0.394 OA
ATOM     27  H1  UNL     1      17.718   7.855   8.089  1.00  0.00     0.210 HD
ENDBRANCH  24  26
ENDBRANCH  10  21
BRANCH   1  28
HETATM   28  N1  UNL     1      12.101  13.540  10.716  1.00  0.00    -0.234 N 
ATOM     29  H12 UNL     1      12.516  14.124   9.991  1.00  0.00     0.174 HD
ATOM     30  H11 UNL     1      11.143  13.745  11.000  1.00  0.00     0.174 HD
ENDBRANCH   1  28
TORSDOF 6
ENDMDL
MODEL 4
REMARK VINA RESULT: -8.627647449      0.821      1.163
REMARK  6 active torsions:
REMARK  status: ('A' for Active; 'I' for Inactive)
REMARK    1  A    between atoms: N1_1  and  C1_4 
REMARK    2  A    between atoms: N4_11  and  C4_12 
REMARK    3  A    between atoms: C4_12  and  C5_13 
REMARK    4  A    between atoms: C5_13  and  C6_14 
REMARK    5  A    between atoms: C13_21  and  N5_22 
REMARK    6  A    between atoms: C16_25  and  O1_26 
ROOT
HETATM    1  C1  UNL     1      13.122  12.579  11.597  1.00  0.00     0.678 A 
HETATM    2  N2  UNL     1      12.693  12.240  12.815  1.00  0.00    -0.188 N 
ATOM      3  H2  UNL     1      12.018  12.847  13.279  1.00  0.00     0.184 HD
HETATM    4  C2  UNL     1      13.116  11.125  13.462  1.00  0.00     0.098 A 
HETATM    5  C3  UNL     1      12.837  10.565  14.669  1.00  0.00     0.140 A 
HETATM    6  N3  UNL     1      13.553   9.457  14.765  1.00  0.00    -0.307 N 
ATOM      7  H3  UNL     1      13.543   8.831  15.570  1.00  0.00     0.186 HD
HETATM    8  N4  UNL     1      14.302   9.263  13.651  1.00  0.00    -0.287 N 
HETATM    9  C12 UNL     1      14.035  10.287  12.843  1.00  0.00     0.124 A 
HETATM   10  C13 UNL     1      14.466  10.629  11.610  1.00  0.00     0.150 A 
HETATM   11  N6  UNL     1      13.996  11.779  11.008  1.00  0.00    -0.175 N 
ATOM     12  H6  UNL     1      14.335  12.020  10.076  1.00  0.00     0.186 HD
ENDROOT
BRANCH   8  13
HETATM   13  C4  UNL     1      15.197   8.163  13.597  1.00  0.00     0.150 C 
BRANCH  13  14
HETATM   14  C5  UNL     1      14.564   6.913  13.015  1.00  0.00     0.026 C 
BRANCH  14  15
HETATM   15  C6  UNL     1      14.371   5.801  13.969  1.00  0.00    -0.013 C 
HETATM   16  C7  UNL     1      15.765   5.468  14.528  1.00  0.00     0.005 C 
HETATM   17  C8  UNL     1      15.696   4.176  15.309  1.00  0.00     0.000 C 
HETATM   18  C9  UNL     1      15.608   3.033  14.306  1.00  0.00     0.000 C 
HETATM   19  C10 UNL     1      14.911   3.526  13.070  1.00  0.00     0.000 C 
HETATM   20  C11 UNL     1      13.824   4.540  13.419  1.00  0.00     0.005 C 
ENDBRANCH  14  15
ENDBRANCH  13  14
ENDBRANCH   8  13
BRANCH  10  21
HETATM   21  N5  UNL     1      15.348   9.822  10.874  1.00  0.00    -0.362 N 
HETATM   22  C14 UNL     1      14.916   8.971   9.753  1.00  0.00     0.127 C 
HETATM   23  C15 UNL     1      16.157   8.512   9.069  1.00  0.00     0.053 C 
HETATM   24  C16 UNL     1      17.231   9.487   9.520  1.00  0.00     0.137 C 
HETATM   25  C17 UNL     1      16.769   9.717  10.965  1.00  0.00     0.156 C 
BRANCH  24  26
HETATM   26  O1  UNL     1      18.487   8.931   9.464  1.00  0.00    -0.394 OA
ATOM     27  H1  UNL     1      18.974   9.073  10.267  1.00  0.00     0.210 HD
ENDBRANCH  24  26
ENDBRANCH  10  21
BRANCH   1  28
HETATM   28  N1  UNL     1      12.690  13.671  11.001  1.00  0.00    -0.234 N 
ATOM     29  H12 UNL     1      13.180  14.559  11.107  1.00  0.00     0.174 HD
ATOM     30  H11 UNL     1      11.853  13.659  10.418  1.00  0.00     0.174 HD
ENDBRANCH   1  28
TORSDOF 6
ENDMDL
MODEL 5
REMARK VINA RESULT: -8.471887127      0.990      1.531
REMARK  6 active torsions:
REMARK  status: ('A' for Active; 'I' for Inactive)
REMARK    1  A    between atoms: N1_1  and  C1_4 
REMARK    2  A    between atoms: N4_11  and  C4_12 
REMARK    3  A    between atoms: C4_12  and  C5_13 
REMARK    4  A    between atoms: C5_13  and  C6_14 
REMARK    5  A    between atoms: C13_21  and  N5_22 
REMARK    6  A    between atoms: C16_25  and  O1_26 
ROOT
HETATM    1  C1  UNL     1      12.836  12.640  11.383  1.00  0.00     0.678 A 
HETATM    2  N2  UNL     1      12.509  12.205  12.602  1.00  0.00    -0.188 N 
ATOM      3  H2  UNL     1      11.774  12.694  13.113  1.00  0.00     0.184 HD
HETATM    4  C2  UNL     1      13.109  11.141  13.191  1.00  0.00     0.098 A 
HETATM    5  C3  UNL     1      12.961  10.508  14.386  1.00  0.00     0.140 A 
HETATM    6  N3  UNL     1      13.829   9.510  14.414  1.00  0.00    -0.307 N 
ATOM      7  H3  UNL     1      13.939   8.863  15.195  1.00  0.00     0.186 HD
HETATM    8  N4  UNL     1      14.552   9.461  13.268  1.00  0.00    -0.287 N 
HETATM    9  C12 UNL     1      14.111  10.462  12.509  1.00  0.00     0.124 A 
HETATM   10  C13 UNL     1      14.441  10.901  11.275  1.00  0.00     0.150 A 
HETATM   11  N6  UNL     1      13.790  11.992  10.734  1.00  0.00    -0.175 N 
ATOM     12  H6  UNL     1      14.054  12.308   9.801  1.00  0.00     0.186 HD
ENDROOT
BRANCH   8  13
HETATM   13  C4  UNL     1      15.590   8.501  13.141  1.00  0.00     0.150 C 
BRANCH  13  14
HETATM   14  C5  UNL     1      15.089   7.145  12.681  1.00  0.00     0.026 C 
BRANCH  14  15
HETATM   15  C6  UNL     1      14.942   6.132  13.746  1.00  0.00    -0.013 C 
HETATM   16  C7  UNL     1      16.254   5.330  13.762  1.00  0.00     0.005 C 
HETATM   17  C8  UNL     1      16.087   4.112  14.641  1.00  0.00     0.000 C 
HETATM   18  C9  UNL     1      15.248   3.099  13.873  1.00  0.00     0.000 C 
HETATM   19  C10 UNL     1      14.319   3.839  12.953  1.00  0.00     0.000 C 
HETATM   20  C11 UNL     1      13.848   5.148  13.582  1.00  0.00     0.005 C 
ENDBRANCH  14  15
ENDBRANCH  13  14
ENDBRANCH   8  13
BRANCH  10  21
HETATM   21  N5  UNL     1      15.397  10.252  10.479  1.00  0.00    -0.362 N 
HETATM   22  C14 UNL     1      16.841  10.524  10.572  1.00  0.00     0.127 C 
HETATM   23  C15 UNL     1      17.523   9.454   9.792  1.00  0.00     0.053 C 
HETATM   24  C16 UNL     1      16.494   8.343   9.678  1.00  0.00     0.137 C 
HETATM   25  C17 UNL     1      15.223   9.191   9.539  1.00  0.00     0.156 C 
BRANCH  24  26
HETATM   26  O1  UNL     1      16.708   7.554   8.572  1.00  0.00    -0.394 OA
ATOM     27  H1  UNL     1      17.622   7.311   8.480  1.00  0.00     0.210 HD
ENDBRANCH  24  26
ENDBRANCH  10  21
BRANCH   1  28
HETATM   28  N1  UNL     1      12.231  13.679  10.845  1.00  0.00    -0.234 N 
ATOM     29  H12 UNL     1      12.270  13.849   9.840  1.00  0.00     0.174 HD
ATOM     30  H11 UNL     1      11.707  14.340  11.418  1.00  0.00     0.174 HD
ENDBRANCH   1  28
TORSDOF 6
ENDMDL
