MODEL 1
REMARK VINA RESULT: -8.258594302      0.000      0.000
REMARK  7 active torsions:
REMARK  status: ('A' for Active; 'I' for Inactive)
REMARK    1  A    between atoms: N1_2  and  C2_4 
REMARK    2  A    between atoms: C4_9  and  N4_10 
REMARK    3  A    between atoms: C5_13  and  N5_14 
REMARK    4  A    between atoms: N5_14  and  N6_16 
REMARK    5  A    between atoms: N6_16  and  C6_17 
REMARK    6  A    between atoms: C6_17  and  C7_18 
REMARK    7  A    between atoms: C6_17  and  C10_21 
ROOT
HETATM    1  C2  UNL     1      13.901  11.113  11.227  1.00  0.00     0.680 A 
HETATM    2  N2  UNL     1      14.733  10.303  10.567  1.00  0.00    -0.176 N 
ATOM      3  H2  UNL     1      15.035  10.551   9.625  1.00  0.00     0.185 HD
HETATM    4  C3  UNL     1      15.175   9.166  11.128  1.00  0.00     0.168 A 
HETATM    5  N3  UNL     1      16.059   8.292  10.444  1.00  0.00    -0.079 NA
HETATM    6  C4  UNL     1      14.753   8.846  12.405  1.00  0.00     0.190 A 
HETATM    7  C5  UNL     1      13.894   9.698  13.067  1.00  0.00     0.182 A 
HETATM    8  N7  UNL     1      13.494  10.806  12.457  1.00  0.00    -0.172 N 
ATOM      9  H7  UNL     1      12.859  11.439  12.942  1.00  0.00     0.186 HD
ENDROOT
BRANCH   7  10
HETATM   10  N5  UNL     1      13.492   9.394  14.284  1.00  0.00    -0.216 N 
ATOM     11  H5  UNL     1      13.396   8.402  14.504  1.00  0.00     0.203 HD
BRANCH  10  12
HETATM   12  N6  UNL     1      13.214  10.217  15.207  1.00  0.00    -0.332 NA
BRANCH  12  13
HETATM   13  C6  UNL     1      12.974  11.012  16.084  1.00  0.00     0.094 C 
BRANCH  13  14
HETATM   14  C7  UNL     1      12.431  12.345  15.703  1.00  0.00     0.040 C 
HETATM   15  C8  UNL     1      13.419  13.332  15.211  1.00  0.00     0.017 C 
HETATM   16  C9  UNL     1      11.299  12.238  14.726  1.00  0.00     0.017 C 
ENDBRANCH  13  14
BRANCH  13  17
HETATM   17  C10 UNL     1      13.232  10.628  17.514  1.00  0.00     0.048 C 
HETATM   18  C11 UNL     1      12.761   9.249  17.836  1.00  0.00     0.011 C 
HETATM   19  C12 UNL     1      12.320   9.127  19.287  1.00  0.00     0.001 C 
HETATM   20  C13 UNL     1      11.196  10.038  19.645  1.00  0.00     0.000 C 
HETATM   21  C14 UNL     1      11.139  11.152  18.622  1.00  0.00     0.001 C 
HETATM   22  C15 UNL     1      12.565  11.634  18.448  1.00  0.00     0.011 C 
ENDBRANCH  13  17
ENDBRANCH  12  13
ENDBRANCH  10  12
ENDBRANCH   7  10
BRANCH   6  23
HETATM   23  N4  UNL     1      15.189   7.653  13.049  1.00  0.00    -0.108 N 
HETATM   24  O1  UNL     1      16.225   7.667  13.718  1.00  0.00    -0.532 OA
HETATM   25  O2  UNL     1      14.452   6.511  12.913  1.00  0.00    -0.532 OA
ENDBRANCH   6  23
BRANCH   1  26
HETATM   26  N1  UNL     1      13.490  12.222  10.642  1.00  0.00    -0.230 N 
HETATM   27  C1  UNL     1      12.400  12.945  11.248  1.00  0.00     0.165 C 
ATOM     28  H1  UNL     1      13.930  12.558   9.785  1.00  0.00     0.177 HD
ENDBRANCH   1  26
TORSDOF 7
ENDMDL
MODEL 2
REMARK VINA RESULT: -7.780864622      2.626      6.537
REMARK  7 active torsions:
REMARK  status: ('A' for Active; 'I' for Inactive)
REMARK    1  A    between atoms: N1_2  and  C2_4 
REMARK    2  A    between atoms: C4_9  and  N4_10 
REMARK    3  A    between atoms: C5_13  and  N5_14 
REMARK    4  A    between atoms: N5_14  and  N6_16 
REMARK    5  A    between atoms: N6_16  and  C6_17 
REMARK    6  A    between atoms: C6_17  and  C7_18 
REMARK    7  A    between atoms: C6_17  and  C10_21 
ROOT
HETATM    1  C2  UNL     1      11.550  11.901  13.262  1.00  0.00     0.680 A 
HETATM    2  N2  UNL     1      11.008  12.268  14.426  1.00  0.00    -0.176 N 
ATOM      3  H2  UNL     1      10.231  12.927  14.434  1.00  0.00     0.185 HD
HETATM    4  C3  UNL     1      11.474  11.779  15.586  1.00  0.00     0.168 A 
HETATM    5  N3  UNL     1      10.912  12.156  16.833  1.00  0.00    -0.079 NA
HETATM    6  C4  UNL     1      12.530  10.886  15.556  1.00  0.00     0.190 A 
HETATM    7  C5  UNL     1      13.073  10.523  14.342  1.00  0.00     0.182 A 
HETATM    8  N7  UNL     1      12.566  11.042  13.231  1.00  0.00    -0.172 N 
ATOM      9  H7  UNL     1      12.965  10.777  12.331  1.00  0.00     0.186 HD
ENDROOT
BRANCH   7  10
HETATM   10  N5  UNL     1      14.079   9.672  14.313  1.00  0.00    -0.216 N 
ATOM     11  H5  UNL     1      14.505   9.429  15.207  1.00  0.00     0.203 HD
BRANCH  10  12
HETATM   12  N6  UNL     1      14.568   9.128  13.278  1.00  0.00    -0.332 NA
BRANCH  12  13
HETATM   13  C6  UNL     1      15.015   8.624  12.276  1.00  0.00     0.094 C 
BRANCH  13  14
HETATM   14  C7  UNL     1      15.681   7.297  12.385  1.00  0.00     0.040 C 
HETATM   15  C8  UNL     1      16.909   7.252  13.210  1.00  0.00     0.017 C 
HETATM   16  C9  UNL     1      14.734   6.225  12.836  1.00  0.00     0.017 C 
ENDBRANCH  13  14
BRANCH  13  17
HETATM   17  C10 UNL     1      14.885   9.352  10.967  1.00  0.00     0.048 C 
HETATM   18  C11 UNL     1      15.420   8.569   9.815  1.00  0.00     0.011 C 
HETATM   19  C12 UNL     1      15.981   9.474   8.727  1.00  0.00     0.001 C 
HETATM   20  C13 UNL     1      17.104  10.336   9.192  1.00  0.00     0.000 C 
HETATM   21  C14 UNL     1      17.046  10.423  10.703  1.00  0.00     0.001 C 
HETATM   22  C15 UNL     1      15.598  10.699  11.051  1.00  0.00     0.011 C 
ENDBRANCH  13  17
ENDBRANCH  12  13
ENDBRANCH  10  12
ENDBRANCH   7  10
BRANCH   6  23
HETATM   23  N4  UNL     1      13.065  10.336  16.756  1.00  0.00    -0.108 N 
HETATM   24  O1  UNL     1      12.988   9.122  16.956  1.00  0.00    -0.532 OA
HETATM   25  O2  UNL     1      13.656  11.165  17.667  1.00  0.00    -0.532 OA
ENDBRANCH   6  23
BRANCH   1  26
HETATM   26  N1  UNL     1      11.063  12.404  12.143  1.00  0.00    -0.230 N 
HETATM   27  C1  UNL     1      11.994  12.846  11.136  1.00  0.00     0.165 C 
ATOM     28  H1  UNL     1      10.056  12.476  11.995  1.00  0.00     0.177 HD
ENDBRANCH   1  26
TORSDOF 7
ENDMDL
MODEL 3
REMARK VINA RESULT: -7.731895107      3.032      5.851
REMARK  7 active torsions:
REMARK  status: ('A' for Active; 'I' for Inactive)
REMARK    1  A    between atoms: N1_2  and  C2_4 
REMARK    2  A    between atoms: C4_9  and  N4_10 
REMARK    3  A    between atoms: C5_13  and  N5_14 
REMARK    4  A    between atoms: N5_14  and  N6_16 
REMARK    5  A    between atoms: N6_16  and  C6_17 
REMARK    6  A    between atoms: C6_17  and  C7_18 
REMARK    7  A    between atoms: C6_17  and  C10_21 
ROOT
HETATM    1  C2  UNL     1      12.098  11.446  13.861  1.00  0.00     0.680 A 
HETATM    2  N2  UNL     1      11.916  11.988  12.654  1.00  0.00    -0.176 N 
ATOM      3  H2  UNL     1      11.160  12.657  12.511  1.00  0.00     0.185 HD
HETATM    4  C3  UNL     1      12.716  11.663  11.627  1.00  0.00     0.168 A 
HETATM    5  N3  UNL     1      12.539  12.228  10.337  1.00  0.00    -0.079 NA
HETATM    6  C4  UNL     1      13.736  10.754  11.839  1.00  0.00     0.190 A 
HETATM    7  C5  UNL     1      13.904  10.208  13.094  1.00  0.00     0.182 A 
HETATM    8  N7  UNL     1      13.079  10.571  14.067  1.00  0.00    -0.172 N 
ATOM      9  H7  UNL     1      13.199  10.169  14.996  1.00  0.00     0.186 HD
ENDROOT
BRANCH   7  10
HETATM   10  N5  UNL     1      14.876   9.341  13.296  1.00  0.00    -0.216 N 
ATOM     11  H5  UNL     1      15.829   9.675  13.154  1.00  0.00     0.203 HD
BRANCH  10  12
HETATM   12  N6  UNL     1      14.738   8.132  13.651  1.00  0.00    -0.332 NA
BRANCH  12  13
HETATM   13  C6  UNL     1      14.621   6.972  13.966  1.00  0.00     0.094 C 
BRANCH  13  14
HETATM   14  C7  UNL     1      14.790   6.606  15.399  1.00  0.00     0.040 C 
HETATM   15  C8  UNL     1      16.184   6.408  15.859  1.00  0.00     0.017 C 
HETATM   16  C9  UNL     1      14.092   7.566  16.315  1.00  0.00     0.017 C 
ENDBRANCH  13  14
BRANCH  13  17
HETATM   17  C10 UNL     1      14.313   5.951  12.907  1.00  0.00     0.048 C 
HETATM   18  C11 UNL     1      14.080   4.588  13.469  1.00  0.00     0.011 C 
HETATM   19  C12 UNL     1      14.510   3.496  12.500  1.00  0.00     0.001 C 
HETATM   20  C13 UNL     1      15.956   3.551  12.146  1.00  0.00     0.000 C 
HETATM   21  C14 UNL     1      16.472   4.941  12.456  1.00  0.00     0.001 C 
HETATM   22  C15 UNL     1      15.448   5.903  11.888  1.00  0.00     0.011 C 
ENDBRANCH  13  17
ENDBRANCH  12  13
ENDBRANCH  10  12
ENDBRANCH   7  10
BRANCH   6  23
HETATM   23  N4  UNL     1      14.615  10.372  10.785  1.00  0.00    -0.108 N 
HETATM   24  O1  UNL     1      14.261   9.507   9.982  1.00  0.00    -0.532 OA
HETATM   25  O2  UNL     1      15.838  10.971  10.684  1.00  0.00    -0.532 OA
ENDBRANCH   6  23
BRANCH   1  26
HETATM   26  N1  UNL     1      11.290  11.793  14.846  1.00  0.00    -0.230 N 
HETATM   27  C1  UNL     1      11.830  12.594  15.916  1.00  0.00     0.165 C 
ATOM     28  H1  UNL     1      10.313  11.502  14.850  1.00  0.00     0.177 HD
ENDBRANCH   1  26
TORSDOF 7
ENDMDL
MODEL 4
REMARK VINA RESULT: -7.701564128      2.175      3.789
REMARK  7 active torsions:
REMARK  status: ('A' for Active; 'I' for Inactive)
REMARK    1  A    between atoms: N1_2  and  C2_4 
REMARK    2  A    between atoms: C4_9  and  N4_10 
REMARK    3  A    between atoms: C5_13  and  N5_14 
REMARK    4  A    between atoms: N5_14  and  N6_16 
REMARK    5  A    between atoms: N6_16  and  C6_17 
REMARK    6  A    between atoms: C6_17  and  C7_18 
REMARK    7  A    between atoms: C6_17  and  C10_21 
ROOT
HETATM    1  C2  UNL     1      15.995   7.002  14.376  1.00  0.00     0.680 A 
HETATM    2  N2  UNL     1      17.186   7.213  13.809  1.00  0.00    -0.176 N 
ATOM      3  H2  UNL     1      17.989   6.657  14.103  1.00  0.00     0.185 HD
HETATM    4  C3  UNL     1      17.339   8.148  12.858  1.00  0.00     0.168 A 
HETATM    5  N3  UNL     1      18.595   8.387  12.244  1.00  0.00    -0.079 NA
HETATM    6  C4  UNL     1      16.239   8.892  12.473  1.00  0.00     0.190 A 
HETATM    7  C5  UNL     1      15.020   8.656  13.073  1.00  0.00     0.182 A 
HETATM    8  N7  UNL     1      14.936   7.718  14.006  1.00  0.00    -0.172 N 
ATOM      9  H7  UNL     1      14.036   7.540  14.453  1.00  0.00     0.186 HD
ENDROOT
BRANCH   7  10
HETATM   10  N5  UNL     1      13.972   9.365  12.706  1.00  0.00    -0.216 N 
ATOM     11  H5  UNL     1      13.526   9.109  11.825  1.00  0.00     0.203 HD
BRANCH  10  12
HETATM   12  N6  UNL     1      13.466  10.337  13.344  1.00  0.00    -0.332 NA
BRANCH  12  13
HETATM   13  C6  UNL     1      13.010  11.266  13.965  1.00  0.00     0.094 C 
BRANCH  13  14
HETATM   14  C7  UNL     1      12.214  12.288  13.230  1.00  0.00     0.040 C 
HETATM   15  C8  UNL     1      12.826  12.819  11.990  1.00  0.00     0.017 C 
HETATM   16  C9  UNL     1      10.820  11.819  12.940  1.00  0.00     0.017 C 
ENDBRANCH  13  14
BRANCH  13  17
HETATM   17  C10 UNL     1      13.261  11.356  15.445  1.00  0.00     0.048 C 
HETATM   18  C11 UNL     1      12.845  10.123  16.176  1.00  0.00     0.011 C 
HETATM   19  C12 UNL     1      12.386  10.434  17.593  1.00  0.00     0.001 C 
HETATM   20  C13 UNL     1      11.217  11.357  17.649  1.00  0.00     0.000 C 
HETATM   21  C14 UNL     1      11.128  12.097  16.331  1.00  0.00     0.001 C 
HETATM   22  C15 UNL     1      12.534  12.568  16.020  1.00  0.00     0.011 C 
ENDBRANCH  13  17
ENDBRANCH  12  13
ENDBRANCH  10  12
ENDBRANCH   7  10
BRANCH   6  23
HETATM   23  N4  UNL     1      16.343   9.897  11.469  1.00  0.00    -0.108 N 
HETATM   24  O1  UNL     1      16.594  11.059  11.796  1.00  0.00    -0.532 OA
HETATM   25  O2  UNL     1      16.163   9.556  10.159  1.00  0.00    -0.532 OA
ENDBRANCH   6  23
BRANCH   1  26
HETATM   26  N1  UNL     1      15.886   6.073  15.307  1.00  0.00    -0.230 N 
HETATM   27  C1  UNL     1      15.112   6.380  16.484  1.00  0.00     0.165 C 
ATOM     28  H1  UNL     1      16.335   5.164  15.197  1.00  0.00     0.177 HD
ENDBRANCH   1  26
TORSDOF 7
ENDMDL
MODEL 5
REMARK VINA RESULT: -7.688345599      1.359      1.716
REMARK  7 active torsions:
REMARK  status: ('A' for Active; 'I' for Inactive)
REMARK    1  A    between atoms: N1_2  and  C2_4 
REMARK    2  A    between atoms: C4_9  and  N4_10 
REMARK    3  A    between atoms: C5_13  and  N5_14 
REMARK    4  A    between atoms: N5_14  and  N6_16 
REMARK    5  A    between atoms: N6_16  and  C6_17 
REMARK    6  A    between atoms: C6_17  and  C7_18 
REMARK    7  A    between atoms: C6_17  and  C10_21 
ROOT
HETATM    1  C2  UNL     1      15.714  10.134  11.875  1.00  0.00     0.680 A 
HETATM    2  N2  UNL     1      16.435   9.010  11.835  1.00  0.00    -0.176 N 
ATOM      3  H2  UNL     1      17.249   8.956  11.223  1.00  0.00     0.185 HD
HETATM    4  C3  UNL     1      16.102   7.952  12.591  1.00  0.00     0.168 A 
HETATM    5  N3  UNL     1      16.856   6.750  12.564  1.00  0.00    -0.079 NA
HETATM    6  C4  UNL     1      14.995   8.044  13.414  1.00  0.00     0.190 A 
HETATM    7  C5  UNL     1      14.265   9.214  13.437  1.00  0.00     0.182 A 
HETATM    8  N7  UNL     1      14.647  10.223  12.666  1.00  0.00    -0.172 N 
ATOM      9  H7  UNL     1      14.111  11.090  12.680  1.00  0.00     0.186 HD
ENDROOT
BRANCH   7  10
HETATM   10  N5  UNL     1      13.210   9.301  14.222  1.00  0.00    -0.216 N 
ATOM     11  H5  UNL     1      12.470   8.614  14.079  1.00  0.00     0.203 HD
BRANCH  10  12
HETATM   12  N6  UNL     1      13.028  10.160  15.136  1.00  0.00    -0.332 NA
BRANCH  12  13
HETATM   13  C6  UNL     1      12.872  10.995  15.994  1.00  0.00     0.094 C 
BRANCH  13  14
HETATM   14  C7  UNL     1      12.371  12.339  15.593  1.00  0.00     0.040 C 
HETATM   15  C8  UNL     1      13.404  13.345  15.260  1.00  0.00     0.017 C 
HETATM   16  C9  UNL     1      11.370  12.260  14.479  1.00  0.00     0.017 C 
ENDBRANCH  13  14
BRANCH  13  17
HETATM   17  C10 UNL     1      13.189  10.650  17.423  1.00  0.00     0.048 C 
HETATM   18  C11 UNL     1      12.771   9.264  17.787  1.00  0.00     0.011 C 
HETATM   19  C12 UNL     1      12.381   9.159  19.255  1.00  0.00     0.001 C 
HETATM   20  C13 UNL     1      11.242  10.043  19.631  1.00  0.00     0.000 C 
HETATM   21  C14 UNL     1      11.117  11.133  18.588  1.00  0.00     0.001 C 
HETATM   22  C15 UNL     1      12.520  11.654  18.358  1.00  0.00     0.011 C 
ENDBRANCH  13  17
ENDBRANCH  12  13
ENDBRANCH  10  12
ENDBRANCH   7  10
BRANCH   6  23
HETATM   23  N4  UNL     1      14.595   6.952  14.237  1.00  0.00    -0.108 N 
HETATM   24  O1  UNL     1      15.046   6.856  15.380  1.00  0.00    -0.532 OA
HETATM   25  O2  UNL     1      13.717   6.029  13.744  1.00  0.00    -0.532 OA
ENDBRANCH   6  23
BRANCH   1  26
HETATM   26  N1  UNL     1      16.074  11.152  11.117  1.00  0.00    -0.230 N 
HETATM   27  C1  UNL     1      17.050  10.916  10.082  1.00  0.00     0.165 C 
ATOM     28  H1  UNL     1      15.674  12.080  11.259  1.00  0.00     0.177 HD
ENDBRANCH   1  26
TORSDOF 7
ENDMDL
