MODEL 1
REMARK VINA RESULT: -7.797129592      0.000      0.000
REMARK  2 active torsions:
REMARK  status: ('A' for Active; 'I' for Inactive)
REMARK       I    between atoms: C1_2  and  N2_4 
REMARK    1  A    between atoms: N2_4  and  S1_6 
REMARK    2  A    between atoms: S1_6  and  C2_8 
REMARK       I    between atoms: N5_16  and  C6_17 
REMARK       I    between atoms: C6_17  and  N6_18 
REMARK       I    between atoms: C6_17  and  N7_22 
ROOT
HETATM    1  C2  UNL     1      11.073  26.147  50.675  1.00  0.00     0.139 A 
HETATM    2  C3  UNL     1       9.985  25.610  50.033  1.00  0.00     0.131 A 
HETATM    3  N3  UNL     1      10.098  24.630  49.097  1.00  0.00    -0.346 N 
ATOM      4  H3  UNL     1       9.265  24.256  48.642  1.00  0.00     0.167 HD
HETATM    5  C4  UNL     1      11.313  24.155  48.775  1.00  0.00     0.164 A 
HETATM    6  C5  UNL     1      12.399  24.713  49.436  1.00  0.00     0.171 A 
HETATM    7  N4  UNL     1      12.296  25.680  50.360  1.00  0.00    -0.328 N 
ATOM      8  H4  UNL     1      13.128  26.055  50.816  1.00  0.00     0.168 HD
HETATM    9  N5  UNL     1      13.575  24.057  48.934  1.00  0.00    -0.202 N 
HETATM   10  C6  UNL     1      14.931  24.563  48.953  1.00  0.00     0.501 C 
HETATM   11  N6  UNL     1      15.413  24.845  50.274  1.00  0.00    -0.031 N 
ATOM     12  H61 UNL     1      16.369  25.201  50.288  1.00  0.00     0.279 HD
ATOM     13  H62 UNL     1      15.323  24.026  50.875  1.00  0.00     0.279 HD
ATOM     14  H63 UNL     1      14.782  25.482  50.760  1.00  0.00     0.279 HD
HETATM   15  N7  UNL     1      15.109  25.677  48.050  1.00  0.00    -0.031 N 
ATOM     16  H71 UNL     1      16.065  26.033  48.064  1.00  0.00     0.279 HD
ATOM     17  H72 UNL     1      14.436  26.419  48.242  1.00  0.00     0.279 HD
ATOM     18  H73 UNL     1      14.819  25.435  47.104  1.00  0.00     0.279 HD
HETATM   19  N8  UNL     1      13.096  22.826  48.422  1.00  0.00    -0.013 NA
HETATM   20  N9  UNL     1      11.850  23.189  47.903  1.00  0.00    -0.266 N 
ATOM     21  H9  UNL     1      11.414  22.825  47.056  1.00  0.00     0.186 HD
ENDROOT
BRANCH   1  22
HETATM   22  S1  UNL     1      10.823  27.414  51.872  1.00  0.00     0.172 S 
HETATM   23  O2  UNL     1      12.195  28.363  52.046  1.00  0.00    -0.228 OA
BRANCH  22  24
HETATM   24  N2  UNL     1      10.484  26.698  53.424  1.00  0.00    -0.255 N 
HETATM   25  C1  UNL     1       9.785  27.444  54.410  1.00  0.00     0.340 C 
HETATM   26  N1  UNL     1       9.509  26.864  55.672  1.00  0.00    -0.039 NA
HETATM   27  O1  UNL     1       9.416  28.618  54.156  1.00  0.00    -0.250 OA
ATOM     28  H2  UNL     1      10.786  25.745  53.624  1.00  0.00     0.181 HD
ENDBRANCH  22  24
ENDBRANCH   1  22
TORSDOF 2
ENDMDL
MODEL 2
REMARK VINA RESULT: -7.018411461      3.506      4.775
REMARK  2 active torsions:
REMARK  status: ('A' for Active; 'I' for Inactive)
REMARK       I    between atoms: C1_2  and  N2_4 
REMARK    1  A    between atoms: N2_4  and  S1_6 
REMARK    2  A    between atoms: S1_6  and  C2_8 
REMARK       I    between atoms: N5_16  and  C6_17 
REMARK       I    between atoms: C6_17  and  N6_18 
REMARK       I    between atoms: C6_17  and  N7_22 
ROOT
HETATM    1  C2  UNL     1      11.164  24.469  49.754  1.00  0.00     0.139 A 
HETATM    2  C3  UNL     1      10.334  25.309  50.454  1.00  0.00     0.131 A 
HETATM    3  N3  UNL     1      10.744  26.517  50.924  1.00  0.00    -0.346 N 
ATOM      4  H3  UNL     1      10.097  27.113  51.441  1.00  0.00     0.167 HD
HETATM    5  C4  UNL     1      12.006  26.923  50.704  1.00  0.00     0.164 A 
HETATM    6  C5  UNL     1      12.827  26.058  49.995  1.00  0.00     0.171 A 
HETATM    7  N4  UNL     1      12.431  24.864  49.528  1.00  0.00    -0.328 N 
ATOM      8  H4  UNL     1      13.077  24.267  49.011  1.00  0.00     0.168 HD
HETATM    9  N5  UNL     1      14.111  26.696  49.885  1.00  0.00    -0.202 N 
HETATM   10  C6  UNL     1      15.387  26.054  49.655  1.00  0.00     0.501 C 
HETATM   11  N6  UNL     1      15.435  25.307  48.432  1.00  0.00    -0.031 N 
ATOM     12  H61 UNL     1      16.335  24.855  48.269  1.00  0.00     0.279 HD
ATOM     13  H62 UNL     1      15.177  25.894  47.638  1.00  0.00     0.279 HD
ATOM     14  H63 UNL     1      14.676  24.627  48.394  1.00  0.00     0.279 HD
HETATM   15  N7  UNL     1      15.819  25.277  50.794  1.00  0.00    -0.031 N 
ATOM     16  H71 UNL     1      16.719  24.825  50.631  1.00  0.00     0.279 HD
ATOM     17  H72 UNL     1      15.108  24.598  51.068  1.00  0.00     0.279 HD
ATOM     18  H73 UNL     1      15.838  25.843  51.641  1.00  0.00     0.279 HD
HETATM   19  N8  UNL     1      13.831  28.074  50.058  1.00  0.00    -0.013 NA
HETATM   20  N9  UNL     1      12.799  28.047  51.001  1.00  0.00    -0.266 N 
ATOM     21  H9  UNL     1      12.651  28.714  51.759  1.00  0.00     0.186 HD
ENDROOT
BRANCH   1  22
HETATM   22  S1  UNL     1      10.539  22.923  49.187  1.00  0.00     0.172 S 
HETATM   23  O2  UNL     1      11.202  22.510  47.702  1.00  0.00    -0.228 OA
BRANCH  22  24
HETATM   24  N2  UNL     1       8.813  23.028  48.976  1.00  0.00    -0.255 N 
HETATM   25  C1  UNL     1       7.950  22.294  49.833  1.00  0.00     0.340 C 
HETATM   26  N1  UNL     1       6.547  22.377  49.662  1.00  0.00    -0.039 NA
HETATM   27  O1  UNL     1       8.438  21.572  50.737  1.00  0.00    -0.250 OA
ATOM     28  H2  UNL     1       8.423  23.615  48.240  1.00  0.00     0.181 HD
ENDBRANCH  22  24
ENDBRANCH   1  22
TORSDOF 2
ENDMDL
MODEL 3
REMARK VINA RESULT: -6.794947324      3.912      5.119
REMARK  2 active torsions:
REMARK  status: ('A' for Active; 'I' for Inactive)
REMARK       I    between atoms: C1_2  and  N2_4 
REMARK    1  A    between atoms: N2_4  and  S1_6 
REMARK    2  A    between atoms: S1_6  and  C2_8 
REMARK       I    between atoms: N5_16  and  C6_17 
REMARK       I    between atoms: C6_17  and  N6_18 
REMARK       I    between atoms: C6_17  and  N7_22 
ROOT
HETATM    1  C2  UNL     1      10.336  23.099  49.322  1.00  0.00     0.139 A 
HETATM    2  C3  UNL     1      11.013  22.080  48.698  1.00  0.00     0.131 A 
HETATM    3  N3  UNL     1      12.239  22.254  48.136  1.00  0.00    -0.346 N 
ATOM      4  H3  UNL     1      12.711  21.472  47.681  1.00  0.00     0.167 HD
HETATM    5  C4  UNL     1      12.827  23.461  48.184  1.00  0.00     0.164 A 
HETATM    6  C5  UNL     1      12.124  24.476  48.818  1.00  0.00     0.171 A 
HETATM    7  N4  UNL     1      10.914  24.313  49.375  1.00  0.00    -0.328 N 
ATOM      8  H4  UNL     1      10.441  25.094  49.830  1.00  0.00     0.168 HD
HETATM    9  N5  UNL     1      12.939  25.658  48.745  1.00  0.00    -0.202 N 
HETATM   10  C6  UNL     1      12.493  27.032  48.841  1.00  0.00     0.501 C 
HETATM   11  N6  UNL     1      11.828  27.329  50.075  1.00  0.00    -0.031 N 
ATOM     12  H61 UNL     1      11.514  28.298  50.143  1.00  0.00     0.279 HD
ATOM     13  H62 UNL     1      12.416  27.083  50.872  1.00  0.00     0.279 HD
ATOM     14  H63 UNL     1      11.052  26.685  50.232  1.00  0.00     0.279 HD
HETATM   15  N7  UNL     1      11.722  27.435  47.686  1.00  0.00    -0.031 N 
ATOM     16  H71 UNL     1      11.408  28.404  47.754  1.00  0.00     0.279 HD
ATOM     17  H72 UNL     1      10.938  26.802  47.528  1.00  0.00     0.279 HD
ATOM     18  H73 UNL     1      12.238  27.273  46.823  1.00  0.00     0.279 HD
HETATM   19  N8  UNL     1      14.253  25.164  48.557  1.00  0.00    -0.013 NA
HETATM   20  N9  UNL     1      14.032  24.045  47.749  1.00  0.00    -0.266 N 
ATOM     21  H9  UNL     1      14.629  23.714  46.991  1.00  0.00     0.186 HD
ENDROOT
BRANCH   1  22
HETATM   22  S1  UNL     1       8.751  22.773  50.019  1.00  0.00     0.172 S 
HETATM   23  O2  UNL     1       8.786  21.406  50.990  1.00  0.00    -0.228 OA
BRANCH  22  24
HETATM   24  N2  UNL     1       7.597  22.481  48.748  1.00  0.00    -0.255 N 
HETATM   25  C1  UNL     1       6.206  22.554  49.024  1.00  0.00     0.340 C 
HETATM   26  N1  UNL     1       5.267  22.316  47.991  1.00  0.00    -0.039 NA
HETATM   27  O1  UNL     1       5.816  22.828  50.186  1.00  0.00    -0.250 OA
ATOM     28  H2  UNL     1       7.920  22.259  47.806  1.00  0.00     0.181 HD
ENDBRANCH  22  24
ENDBRANCH   1  22
TORSDOF 2
ENDMDL
MODEL 4
REMARK VINA RESULT: -6.651971184      2.248      3.311
REMARK  2 active torsions:
REMARK  status: ('A' for Active; 'I' for Inactive)
REMARK       I    between atoms: C1_2  and  N2_4 
REMARK    1  A    between atoms: N2_4  and  S1_6 
REMARK    2  A    between atoms: S1_6  and  C2_8 
REMARK       I    between atoms: N5_16  and  C6_17 
REMARK       I    between atoms: C6_17  and  N6_18 
REMARK       I    between atoms: C6_17  and  N7_22 
ROOT
HETATM    1  C2  UNL     1      11.023  26.946  51.798  1.00  0.00     0.139 A 
HETATM    2  C3  UNL     1      12.027  27.805  51.426  1.00  0.00     0.131 A 
HETATM    3  N3  UNL     1      12.707  27.671  50.255  1.00  0.00    -0.346 N 
ATOM      4  H3  UNL     1      13.448  28.329  50.014  1.00  0.00     0.167 HD
HETATM    5  C4  UNL     1      12.398  26.667  49.418  1.00  0.00     0.164 A 
HETATM    6  C5  UNL     1      11.380  25.811  49.815  1.00  0.00     0.171 A 
HETATM    7  N4  UNL     1      10.704  25.936  50.968  1.00  0.00    -0.328 N 
ATOM      8  H4  UNL     1       9.963  25.278  51.210  1.00  0.00     0.168 HD
HETATM    9  N5  UNL     1      11.229  24.830  48.774  1.00  0.00    -0.202 N 
HETATM   10  C6  UNL     1      10.653  23.509  48.899  1.00  0.00     0.501 C 
HETATM   11  N6  UNL     1       9.293  23.522  49.353  1.00  0.00    -0.031 N 
ATOM     12  H61 UNL     1       8.886  22.590  49.441  1.00  0.00     0.279 HD
ATOM     13  H62 UNL     1       8.717  24.113  48.754  1.00  0.00     0.279 HD
ATOM     14  H63 UNL     1       9.210  24.037  50.230  1.00  0.00     0.279 HD
HETATM   15  N7  UNL     1      11.487  22.622  49.679  1.00  0.00    -0.031 N 
ATOM     16  H71 UNL     1      11.081  21.690  49.766  1.00  0.00     0.279 HD
ATOM     17  H72 UNL     1      11.696  23.022  50.594  1.00  0.00     0.279 HD
ATOM     18  H73 UNL     1      12.433  22.579  49.301  1.00  0.00     0.279 HD
HETATM   19  N8  UNL     1      11.774  25.455  47.625  1.00  0.00    -0.013 NA
HETATM   20  N9  UNL     1      12.832  26.192  48.166  1.00  0.00    -0.266 N 
ATOM     21  H9  UNL     1      13.743  26.353  47.736  1.00  0.00     0.186 HD
ENDROOT
BRANCH   1  22
HETATM   22  S1  UNL     1      10.201  27.202  53.335  1.00  0.00     0.172 S 
HETATM   23  O2  UNL     1       8.542  27.329  53.121  1.00  0.00    -0.228 OA
BRANCH  22  24
HETATM   24  N2  UNL     1      10.750  28.691  54.054  1.00  0.00    -0.255 N 
HETATM   25  C1  UNL     1      10.511  28.942  55.431  1.00  0.00     0.340 C 
HETATM   26  N1  UNL     1      10.956  30.152  56.017  1.00  0.00    -0.039 NA
HETATM   27  O1  UNL     1       9.904  28.087  56.123  1.00  0.00    -0.250 OA
ATOM     28  H2  UNL     1      11.242  29.381  53.487  1.00  0.00     0.181 HD
ENDBRANCH  22  24
ENDBRANCH   1  22
TORSDOF 2
ENDMDL
MODEL 5
REMARK VINA RESULT: -6.574872990      1.531      3.396
REMARK  2 active torsions:
REMARK  status: ('A' for Active; 'I' for Inactive)
REMARK       I    between atoms: C1_2  and  N2_4 
REMARK    1  A    between atoms: N2_4  and  S1_6 
REMARK    2  A    between atoms: S1_6  and  C2_8 
REMARK       I    between atoms: N5_16  and  C6_17 
REMARK       I    between atoms: C6_17  and  N6_18 
REMARK       I    between atoms: C6_17  and  N7_22 
ROOT
HETATM    1  C2  UNL     1      11.319  25.883  50.906  1.00  0.00     0.139 A 
HETATM    2  C3  UNL     1      12.641  25.736  50.563  1.00  0.00     0.131 A 
HETATM    3  N3  UNL     1      13.082  24.724  49.770  1.00  0.00    -0.346 N 
ATOM      4  H3  UNL     1      14.073  24.648  49.538  1.00  0.00     0.167 HD
HETATM    5  C4  UNL     1      12.207  23.823  49.293  1.00  0.00     0.164 A 
HETATM    6  C5  UNL     1      10.877  23.991  49.652  1.00  0.00     0.171 A 
HETATM    7  N4  UNL     1      10.433  24.987  50.434  1.00  0.00    -0.328 N 
ATOM      8  H4  UNL     1       9.443  25.063  50.667  1.00  0.00     0.168 HD
HETATM    9  N5  UNL     1      10.139  22.923  49.033  1.00  0.00    -0.202 N 
HETATM   10  C6  UNL     1       8.856  22.397  49.444  1.00  0.00     0.501 C 
HETATM   11  N6  UNL     1       7.812  23.381  49.446  1.00  0.00    -0.031 N 
ATOM     12  H61 UNL     1       6.907  23.009  49.736  1.00  0.00     0.279 HD
ATOM     13  H62 UNL     1       7.742  23.835  48.536  1.00  0.00     0.279 HD
ATOM     14  H63 UNL     1       8.074  24.184  50.017  1.00  0.00     0.279 HD
HETATM   15  N7  UNL     1       8.938  21.677  50.695  1.00  0.00    -0.031 N 
ATOM     16  H71 UNL     1       8.033  21.306  50.985  1.00  0.00     0.279 HD
ATOM     17  H72 UNL     1       9.352  22.255  51.427  1.00  0.00     0.279 HD
ATOM     18  H73 UNL     1       9.643  20.942  50.652  1.00  0.00     0.279 HD
HETATM   19  N8  UNL     1      10.957  22.517  47.949  1.00  0.00    -0.013 NA
HETATM   20  N9  UNL     1      12.242  22.677  48.476  1.00  0.00    -0.266 N 
ATOM     21  H9  UNL     1      13.049  22.077  48.303  1.00  0.00     0.186 HD
ENDROOT
BRANCH   1  22
HETATM   22  S1  UNL     1      10.846  27.228  51.939  1.00  0.00     0.172 S 
HETATM   23  O2  UNL     1      12.068  28.372  52.042  1.00  0.00    -0.228 OA
BRANCH  22  24
HETATM   24  N2  UNL     1      10.535  26.650  53.553  1.00  0.00    -0.255 N 
HETATM   25  C1  UNL     1       9.628  27.348  54.392  1.00  0.00     0.340 C 
HETATM   26  N1  UNL     1       9.375  26.879  55.705  1.00  0.00    -0.039 NA
HETATM   27  O1  UNL     1       9.054  28.381  53.966  1.00  0.00    -0.250 OA
ATOM     28  H2  UNL     1      11.004  25.811  53.894  1.00  0.00     0.181 HD
ENDBRANCH  22  24
ENDBRANCH   1  22
TORSDOF 2
ENDMDL
