MODEL 1
REMARK VINA RESULT: -6.861946013      0.000      0.000
REMARK  6 active torsions:
REMARK  status: ('A' for Active; 'I' for Inactive)
REMARK    1  A    between atoms: N1_1  and  C1_4 
REMARK    2  A    between atoms: N5_12  and  C4_14 
REMARK    3  A    between atoms: C4_14  and  C5_19 
REMARK    4  A    between atoms: N6_15  and  O1_17 
REMARK    5  A    between atoms: C5_19  and  N7_20 
REMARK    6  A    between atoms: C5_19  and  C6_24 
ROOT
HETATM    1  C1  UNL     1      10.687  28.759  53.783  1.00  0.00     0.692 A 
HETATM    2  N2  UNL     1      10.140  27.565  54.133  1.00  0.00    -0.131 N 
ATOM      3  H2  UNL     1       9.598  27.496  54.994  1.00  0.00     0.205 HD
HETATM    4  N3  UNL     1      10.300  26.498  53.380  1.00  0.00    -0.270 N 
ATOM      5  H3  UNL     1       9.876  25.618  53.673  1.00  0.00     0.189 HD
HETATM    6  C2  UNL     1      11.007  26.536  52.234  1.00  0.00     0.176 A 
HETATM    7  N4  UNL     1      11.141  25.321  51.453  1.00  0.00    -0.077 NA
HETATM    8  C3  UNL     1      11.575  27.715  51.842  1.00  0.00     0.165 A 
HETATM    9  N5  UNL     1      12.249  27.861  50.801  1.00  0.00    -0.325 N 
ATOM     10  H5  UNL     1      12.564  28.828  50.724  1.00  0.00     0.169 HD
HETATM   11  N9  UNL     1      11.383  28.806  52.659  1.00  0.00    -0.172 N 
ATOM     12  H9  UNL     1      11.798  29.697  52.385  1.00  0.00     0.186 HD
ENDROOT
BRANCH   9  13
HETATM   13  C4  UNL     1      12.697  27.140  49.734  1.00  0.00     0.144 C 
HETATM   14  N6  UNL     1      11.833  26.848  48.795  1.00  0.00    -0.238 N 
ATOM     15  H6  UNL     1      10.867  27.163  48.887  1.00  0.00     0.197 HD
BRANCH  14  16
HETATM   16  O1  UNL     1      12.203  26.131  47.697  1.00  0.00    -0.189 OA
HETATM   17  S1  UNL     1      11.698  24.473  47.570  1.00  0.00     0.125 SA
ENDBRANCH  14  16
BRANCH  13  18
HETATM   18  C5  UNL     1      14.071  26.665  49.483  1.00  0.00     0.340 C 
BRANCH  18  19
HETATM   19  N7  UNL     1      14.244  25.378  50.125  1.00  0.00    -0.060 N 
ATOM     20  H73 UNL     1      13.853  25.357  51.066  1.00  0.00     0.275 HD
ATOM     21  H72 UNL     1      13.657  24.654  49.711  1.00  0.00     0.275 HD
ATOM     22  H71 UNL     1      15.234  25.134  50.109  1.00  0.00     0.275 HD
ENDBRANCH  18  19
BRANCH  18  23
HETATM   23  C6  UNL     1      15.117  27.626  49.864  1.00  0.00     0.269 C 
HETATM   24  N8  UNL     1      15.166  28.366  51.042  1.00  0.00    -0.060 NA
HETATM   25  O2  UNL     1      16.059  27.790  49.036  1.00  0.00    -0.274 OA
ENDBRANCH  18  23
ENDBRANCH  13  18
ENDBRANCH   9  13
BRANCH   1  26
HETATM   26  N1  UNL     1      10.518  29.798  54.540  1.00  0.00    -0.233 N 
ATOM     27  H12 UNL     1      10.182  29.726  55.500  1.00  0.00     0.174 HD
ATOM     28  H11 UNL     1      10.723  30.730  54.181  1.00  0.00     0.174 HD
ENDBRANCH   1  26
TORSDOF 6
ENDMDL
MODEL 2
REMARK VINA RESULT: -6.279773917      2.490      3.908
REMARK  6 active torsions:
REMARK  status: ('A' for Active; 'I' for Inactive)
REMARK    1  A    between atoms: N1_1  and  C1_4 
REMARK    2  A    between atoms: N5_12  and  C4_14 
REMARK    3  A    between atoms: C4_14  and  C5_19 
REMARK    4  A    between atoms: N6_15  and  O1_17 
REMARK    5  A    between atoms: C5_19  and  N7_20 
REMARK    6  A    between atoms: C5_19  and  C6_24 
ROOT
HETATM    1  C1  UNL     1      10.253  27.773  54.071  1.00  0.00     0.692 A 
HETATM    2  N2  UNL     1      10.870  28.903  53.638  1.00  0.00    -0.131 N 
ATOM      3  H2  UNL     1      10.783  29.762  54.181  1.00  0.00     0.205 HD
HETATM    4  N3  UNL     1      11.578  28.908  52.529  1.00  0.00    -0.270 N 
ATOM      5  H3  UNL     1      12.027  29.773  52.232  1.00  0.00     0.189 HD
HETATM    6  C2  UNL     1      11.725  27.801  51.774  1.00  0.00     0.176 A 
HETATM    7  N4  UNL     1      12.520  27.879  50.564  1.00  0.00    -0.077 NA
HETATM    8  C3  UNL     1      11.122  26.640  52.171  1.00  0.00     0.165 A 
HETATM    9  N5  UNL     1      11.193  25.561  51.549  1.00  0.00    -0.325 N 
ATOM     10  H5  UNL     1      10.664  24.841  52.041  1.00  0.00     0.169 HD
HETATM   11  N9  UNL     1      10.392  26.681  53.338  1.00  0.00    -0.172 N 
ATOM     12  H9  UNL     1       9.934  25.825  53.653  1.00  0.00     0.186 HD
ENDROOT
BRANCH   9  13
HETATM   13  C4  UNL     1      11.752  25.037  50.421  1.00  0.00     0.144 C 
HETATM   14  N6  UNL     1      13.053  24.898  50.399  1.00  0.00    -0.238 N 
ATOM     15  H6  UNL     1      13.602  25.180  51.212  1.00  0.00     0.197 HD
BRANCH  14  16
HETATM   16  O1  UNL     1      13.687  24.383  49.308  1.00  0.00    -0.189 OA
HETATM   17  S1  UNL     1      15.088  25.203  48.687  1.00  0.00     0.125 SA
ENDBRANCH  14  16
BRANCH  13  18
HETATM   18  C5  UNL     1      11.057  24.566  49.208  1.00  0.00     0.340 C 
BRANCH  18  19
HETATM   19  N7  UNL     1       9.827  25.316  49.055  1.00  0.00    -0.060 N 
ATOM     20  H73 UNL     1       9.981  26.239  48.649  1.00  0.00     0.275 HD
ATOM     21  H72 UNL     1       9.228  24.937  48.322  1.00  0.00     0.275 HD
ATOM     22  H71 UNL     1       9.356  25.362  49.959  1.00  0.00     0.275 HD
ENDBRANCH  18  19
BRANCH  18  23
HETATM   23  C6  UNL     1      10.836  23.113  49.168  1.00  0.00     0.269 C 
HETATM   24  N8  UNL     1      11.254  22.243  48.165  1.00  0.00    -0.060 NA
HETATM   25  O2  UNL     1      10.204  22.613  50.144  1.00  0.00    -0.274 OA
ENDBRANCH  18  23
ENDBRANCH  13  18
ENDBRANCH   9  13
BRANCH   1  26
HETATM   26  N1  UNL     1       9.560  27.790  55.167  1.00  0.00    -0.233 N 
ATOM     27  H12 UNL     1       9.793  27.206  55.970  1.00  0.00     0.174 HD
ATOM     28  H11 UNL     1       8.750  28.404  55.250  1.00  0.00     0.174 HD
ENDBRANCH   1  26
TORSDOF 6
ENDMDL
MODEL 3
REMARK VINA RESULT: -5.154536148      2.113      3.318
REMARK  6 active torsions:
REMARK  status: ('A' for Active; 'I' for Inactive)
REMARK    1  A    between atoms: N1_1  and  C1_4 
REMARK    2  A    between atoms: N5_12  and  C4_14 
REMARK    3  A    between atoms: C4_14  and  C5_19 
REMARK    4  A    between atoms: N6_15  and  O1_17 
REMARK    5  A    between atoms: C5_19  and  N7_20 
REMARK    6  A    between atoms: C5_19  and  C6_24 
ROOT
HETATM    1  C1  UNL     1      10.231  27.923  53.899  1.00  0.00     0.692 A 
HETATM    2  N2  UNL     1      10.949  28.992  53.468  1.00  0.00    -0.131 N 
ATOM      3  H2  UNL     1      10.903  29.870  53.986  1.00  0.00     0.205 HD
HETATM    4  N3  UNL     1      11.704  28.914  52.393  1.00  0.00    -0.270 N 
ATOM      5  H3  UNL     1      12.230  29.735  52.096  1.00  0.00     0.189 HD
HETATM    6  C2  UNL     1      11.801  27.779  51.673  1.00  0.00     0.176 A 
HETATM    7  N4  UNL     1      12.653  27.765  50.499  1.00  0.00    -0.077 NA
HETATM    8  C3  UNL     1      11.096  26.678  52.069  1.00  0.00     0.165 A 
HETATM    9  N5  UNL     1      11.113  25.579  51.477  1.00  0.00    -0.325 N 
ATOM     10  H5  UNL     1      10.510  24.914  51.962  1.00  0.00     0.169 HD
HETATM   11  N9  UNL     1      10.319  26.804  53.199  1.00  0.00    -0.172 N 
ATOM     12  H9  UNL     1       9.785  25.993  53.513  1.00  0.00     0.186 HD
ENDROOT
BRANCH   9  13
HETATM   13  C4  UNL     1      11.681  24.985  50.389  1.00  0.00     0.144 C 
HETATM   14  N6  UNL     1      12.984  24.864  50.377  1.00  0.00    -0.238 N 
ATOM     15  H6  UNL     1      13.527  25.212  51.167  1.00  0.00     0.197 HD
BRANCH  14  16
HETATM   16  O1  UNL     1      13.626  24.282  49.326  1.00  0.00    -0.189 OA
HETATM   17  S1  UNL     1      15.103  24.992  48.748  1.00  0.00     0.125 SA
ENDBRANCH  14  16
BRANCH  13  18
HETATM   18  C5  UNL     1      10.993  24.418  49.213  1.00  0.00     0.340 C 
BRANCH  18  19
HETATM   19  N7  UNL     1      11.150  22.979  49.230  1.00  0.00    -0.060 N 
ATOM     20  H73 UNL     1      12.047  22.680  48.847  1.00  0.00     0.275 HD
ATOM     21  H72 UNL     1      11.269  22.611  50.173  1.00  0.00     0.275 HD
ATOM     22  H71 UNL     1      10.360  22.556  48.742  1.00  0.00     0.275 HD
ENDBRANCH  18  19
BRANCH  18  23
HETATM   23  C6  UNL     1      11.406  25.012  47.932  1.00  0.00     0.269 C 
HETATM   24  N8  UNL     1      11.857  26.314  47.736  1.00  0.00    -0.060 NA
HETATM   25  O2  UNL     1      11.342  24.261  46.917  1.00  0.00    -0.274 OA
ENDBRANCH  18  23
ENDBRANCH  13  18
ENDBRANCH   9  13
BRANCH   1  26
HETATM   26  N1  UNL     1       9.493  28.022  54.961  1.00  0.00    -0.233 N 
ATOM     27  H12 UNL     1       9.745  28.618  55.748  1.00  0.00     0.174 HD
ATOM     28  H11 UNL     1       8.624  27.492  55.030  1.00  0.00     0.174 HD
ENDBRANCH   1  26
TORSDOF 6
ENDMDL
MODEL 4
REMARK VINA RESULT: -4.887057333      2.047      3.093
REMARK  6 active torsions:
REMARK  status: ('A' for Active; 'I' for Inactive)
REMARK    1  A    between atoms: N1_1  and  C1_4 
REMARK    2  A    between atoms: N5_12  and  C4_14 
REMARK    3  A    between atoms: C4_14  and  C5_19 
REMARK    4  A    between atoms: N6_15  and  O1_17 
REMARK    5  A    between atoms: C5_19  and  N7_20 
REMARK    6  A    between atoms: C5_19  and  C6_24 
ROOT
HETATM    1  C1  UNL     1      10.015  27.583  54.399  1.00  0.00     0.692 A 
HETATM    2  N2  UNL     1      10.633  28.769  54.164  1.00  0.00    -0.131 N 
ATOM      3  H2  UNL     1      10.544  29.525  54.843  1.00  0.00     0.205 HD
HETATM    4  N3  UNL     1      11.346  28.959  53.074  1.00  0.00    -0.270 N 
ATOM      5  H3  UNL     1      11.797  29.862  52.928  1.00  0.00     0.189 HD
HETATM    6  C2  UNL     1      11.496  27.995  52.145  1.00  0.00     0.176 A 
HETATM    7  N4  UNL     1      12.296  28.274  50.968  1.00  0.00    -0.077 NA
HETATM    8  C3  UNL     1      10.891  26.785  52.339  1.00  0.00     0.165 A 
HETATM    9  N5  UNL     1      10.965  25.825  51.545  1.00  0.00    -0.325 N 
ATOM     10  H5  UNL     1      10.434  25.033  51.908  1.00  0.00     0.169 HD
HETATM   11  N9  UNL     1      10.156  26.629  53.494  1.00  0.00    -0.172 N 
ATOM     12  H9  UNL     1       9.697  25.733  53.658  1.00  0.00     0.186 HD
ENDROOT
BRANCH   9  13
HETATM   13  C4  UNL     1      11.529  25.497  50.348  1.00  0.00     0.144 C 
HETATM   14  N6  UNL     1      10.969  25.973  49.265  1.00  0.00    -0.238 N 
ATOM     15  H6  UNL     1      10.142  26.564  49.347  1.00  0.00     0.197 HD
BRANCH  14  16
HETATM   16  O1  UNL     1      11.473  25.690  48.031  1.00  0.00    -0.189 OA
HETATM   17  S1  UNL     1      11.629  26.978  46.874  1.00  0.00     0.125 SA
ENDBRANCH  14  16
BRANCH  13  18
HETATM   18  C5  UNL     1      12.738  24.683  50.116  1.00  0.00     0.340 C 
BRANCH  18  19
HETATM   19  N7  UNL     1      13.729  25.499  49.447  1.00  0.00    -0.060 N 
ATOM     20  H73 UNL     1      13.319  26.105  48.736  1.00  0.00     0.275 HD
ATOM     21  H72 UNL     1      14.107  26.228  50.052  1.00  0.00     0.275 HD
ATOM     22  H71 UNL     1      14.455  24.891  49.069  1.00  0.00     0.275 HD
ENDBRANCH  18  19
BRANCH  18  23
HETATM   23  C6  UNL     1      12.483  23.418  49.409  1.00  0.00     0.269 C 
HETATM   24  N8  UNL     1      11.324  22.652  49.484  1.00  0.00    -0.060 NA
HETATM   25  O2  UNL     1      13.413  22.994  48.665  1.00  0.00    -0.274 OA
ENDBRANCH  18  23
ENDBRANCH  13  18
ENDBRANCH   9  13
BRANCH   1  26
HETATM   26  N1  UNL     1       9.317  27.417  55.479  1.00  0.00    -0.233 N 
ATOM     27  H12 UNL     1       8.966  26.504  55.768  1.00  0.00     0.174 HD
ATOM     28  H11 UNL     1       9.101  28.215  56.076  1.00  0.00     0.174 HD
ENDBRANCH   1  26
TORSDOF 6
ENDMDL
MODEL 5
REMARK VINA RESULT: -4.869908148      1.612      2.399
REMARK  6 active torsions:
REMARK  status: ('A' for Active; 'I' for Inactive)
REMARK    1  A    between atoms: N1_1  and  C1_4 
REMARK    2  A    between atoms: N5_12  and  C4_14 
REMARK    3  A    between atoms: C4_14  and  C5_19 
REMARK    4  A    between atoms: N6_15  and  O1_17 
REMARK    5  A    between atoms: C5_19  and  N7_20 
REMARK    6  A    between atoms: C5_19  and  C6_24 
ROOT
HETATM    1  C1  UNL     1      10.021  27.410  53.953  1.00  0.00     0.692 A 
HETATM    2  N2  UNL     1      10.701  28.586  53.944  1.00  0.00    -0.131 N 
ATOM      3  H2  UNL     1      10.594  29.234  54.725  1.00  0.00     0.205 HD
HETATM    4  N3  UNL     1      11.495  28.904  52.944  1.00  0.00    -0.270 N 
ATOM      5  H3  UNL     1      11.991  29.795  52.969  1.00  0.00     0.189 HD
HETATM    6  C2  UNL     1      11.673  28.085  51.889  1.00  0.00     0.176 A 
HETATM    7  N4  UNL     1      12.565  28.500  50.823  1.00  0.00    -0.077 NA
HETATM    8  C3  UNL     1      11.009  26.891  51.854  1.00  0.00     0.165 A 
HETATM    9  N5  UNL     1      11.101  26.060  50.928  1.00  0.00    -0.325 N 
ATOM     10  H5  UNL     1      10.515  25.250  51.129  1.00  0.00     0.169 HD
HETATM   11  N9  UNL     1      10.189  26.599  52.921  1.00  0.00    -0.172 N 
ATOM     12  H9  UNL     1       9.684  25.712  52.916  1.00  0.00     0.186 HD
ENDROOT
BRANCH   9  13
HETATM   13  C4  UNL     1      11.735  25.890  49.732  1.00  0.00     0.144 C 
HETATM   14  N6  UNL     1      11.459  26.739  48.776  1.00  0.00    -0.238 N 
ATOM     15  H6  UNL     1      10.790  27.490  48.948  1.00  0.00     0.197 HD
BRANCH  14  16
HETATM   16  O1  UNL     1      12.051  26.637  47.552  1.00  0.00    -0.189 OA
HETATM   17  S1  UNL     1      11.356  27.494  46.210  1.00  0.00     0.125 SA
ENDBRANCH  14  16
BRANCH  13  18
HETATM   18  C5  UNL     1      12.740  24.867  49.385  1.00  0.00     0.340 C 
BRANCH  18  19
HETATM   19  N7  UNL     1      12.457  23.662  50.136  1.00  0.00    -0.060 N 
ATOM     20  H73 UNL     1      12.905  22.839  49.735  1.00  0.00     0.275 HD
ATOM     21  H72 UNL     1      12.924  23.650  51.043  1.00  0.00     0.275 HD
ATOM     22  H71 UNL     1      11.446  23.555  50.216  1.00  0.00     0.275 HD
ENDBRANCH  18  19
BRANCH  18  23
HETATM   23  C6  UNL     1      14.132  25.315  49.546  1.00  0.00     0.269 C 
HETATM   24  N8  UNL     1      15.242  24.808  48.876  1.00  0.00    -0.060 NA
HETATM   25  O2  UNL     1      14.330  26.249  50.375  1.00  0.00    -0.274 OA
ENDBRANCH  18  23
ENDBRANCH  13  18
ENDBRANCH   9  13
BRANCH   1  26
HETATM   26  N1  UNL     1       9.243  27.117  54.947  1.00  0.00    -0.233 N 
ATOM     27  H12 UNL     1       9.456  26.368  55.606  1.00  0.00     0.174 HD
ATOM     28  H11 UNL     1       8.381  27.642  55.095  1.00  0.00     0.174 HD
ENDBRANCH   1  26
TORSDOF 6
ENDMDL
