MODEL 1
REMARK VINA RESULT: -8.775862737      0.000      0.000
REMARK  6 active torsions:
REMARK  status: ('A' for Active; 'I' for Inactive)
REMARK    1  A    between atoms: N1_1  and  C1_4 
REMARK    2  A    between atoms: C3_9  and  C4_10 
REMARK    3  A    between atoms: C4_10  and  N5_15 
REMARK    4  A    between atoms: N4_11  and  O1_13 
REMARK    5  A    between atoms: N5_15  and  O2_16 
REMARK    6  A    between atoms: N6_18  and  N7_20 
REMARK       I    between atoms: N7_20  and  C5_22 
ROOT
HETATM    1  C4  UNL     1      12.613  24.311  48.374  1.00  0.00     0.192 C 
HETATM    2  N4  UNL     1      12.906  23.036  48.355  1.00  0.00    -0.249 N 
ATOM      3  H4  UNL     1      13.804  22.740  48.739  1.00  0.00     0.196 HD
ENDROOT
BRANCH   1   4
HETATM    4  C3  UNL     1      13.557  25.273  48.931  1.00  0.00     0.124 A 
HETATM    5  C2  UNL     1      13.052  26.381  49.622  1.00  0.00     0.151 A 
HETATM    6  N2  UNL     1      13.920  27.270  50.137  1.00  0.00    -0.178 N 
HETATM    7  N3  UNL     1      11.653  26.506  49.741  1.00  0.00    -0.081 NA
HETATM    8  C1  UNL     1      15.255  27.148  50.021  1.00  0.00     0.680 A 
ATOM      9  H2  UNL     1      13.548  28.076  50.639  1.00  0.00     0.185 HD
HETATM   10  N9  UNL     1      15.750  26.078  49.354  1.00  0.00    -0.155 N 
HETATM   11  C6  UNL     1      14.915  25.166  48.824  1.00  0.00     0.277 A 
ATOM     12  H9  UNL     1      16.759  25.963  49.253  1.00  0.00     0.187 HD
HETATM   13  O4  UNL     1      15.396  24.173  48.204  1.00  0.00    -0.267 OA
BRANCH   8  14
HETATM   14  N1  UNL     1      16.045  28.024  50.531  1.00  0.00    -0.234 N 
ATOM     15  H12 UNL     1      16.939  28.238  50.089  1.00  0.00     0.174 HD
ATOM     16  H11 UNL     1      15.794  28.521  51.386  1.00  0.00     0.174 HD
ENDBRANCH   8  14
ENDBRANCH   1   4
BRANCH   1  17
HETATM   17  N5  UNL     1      11.359  24.685  47.833  1.00  0.00    -0.129 N 
HETATM   18  N6  UNL     1      10.262  24.335  48.333  1.00  0.00    -0.211 N 
ATOM     19  H6  UNL     1       9.401  24.646  47.883  1.00  0.00     0.211 HD
BRANCH  17  20
HETATM   20  O2  UNL     1      11.363  25.465  46.710  1.00  0.00    -0.265 OA
ATOM     21  H2  UNL     1      11.790  25.116  45.936  1.00  0.00     0.247 HD
ENDBRANCH  17  20
BRANCH  18  22
HETATM   22  N7  UNL     1      10.163  23.534  49.483  1.00  0.00    -0.237 N 
HETATM   23  C5  UNL     1       9.131  22.605  49.628  1.00  0.00     0.348 C 
HETATM   24  N8  UNL     1       9.044  21.803  50.797  1.00  0.00    -0.038 NA
HETATM   25  O3  UNL     1       8.254  22.448  48.741  1.00  0.00    -0.249 OA
ATOM     26  H7  UNL     1      10.856  23.634  50.225  1.00  0.00     0.193 HD
ENDBRANCH  18  22
ENDBRANCH   1  17
BRANCH   2  27
HETATM   27  O1  UNL     1      12.083  22.092  47.856  1.00  0.00    -0.288 OA
ATOM     28  H1  UNL     1      11.660  21.430  48.390  1.00  0.00     0.244 HD
ENDBRANCH   2  27
TORSDOF 6
ENDMDL
MODEL 2
REMARK VINA RESULT: -8.198849904      1.028      1.862
REMARK  6 active torsions:
REMARK  status: ('A' for Active; 'I' for Inactive)
REMARK    1  A    between atoms: N1_1  and  C1_4 
REMARK    2  A    between atoms: C3_9  and  C4_10 
REMARK    3  A    between atoms: C4_10  and  N5_15 
REMARK    4  A    between atoms: N4_11  and  O1_13 
REMARK    5  A    between atoms: N5_15  and  O2_16 
REMARK    6  A    between atoms: N6_18  and  N7_20 
REMARK       I    between atoms: N7_20  and  C5_22 
ROOT
HETATM    1  C4  UNL     1      12.657  24.425  48.370  1.00  0.00     0.192 C 
HETATM    2  N4  UNL     1      13.042  23.175  48.328  1.00  0.00    -0.249 N 
ATOM      3  H4  UNL     1      13.950  22.935  48.726  1.00  0.00     0.196 HD
ENDROOT
BRANCH   1   4
HETATM    4  C3  UNL     1      13.515  25.438  48.974  1.00  0.00     0.124 A 
HETATM    5  C2  UNL     1      14.902  25.288  48.867  1.00  0.00     0.151 A 
HETATM    6  N2  UNL     1      15.696  26.221  49.423  1.00  0.00    -0.178 N 
HETATM    7  N3  UNL     1      15.396  24.160  48.179  1.00  0.00    -0.081 NA
HETATM    8  C1  UNL     1      15.223  27.295  50.079  1.00  0.00     0.680 A 
ATOM      9  H2  UNL     1      16.707  26.107  49.343  1.00  0.00     0.185 HD
HETATM   10  N9  UNL     1      13.880  27.447  50.185  1.00  0.00    -0.155 N 
HETATM   11  C6  UNL     1      13.052  26.536  49.643  1.00  0.00     0.277 A 
ATOM     12  H9  UNL     1      13.497  28.254  50.678  1.00  0.00     0.187 HD
HETATM   13  O4  UNL     1      11.801  26.694  49.753  1.00  0.00    -0.267 OA
BRANCH   8  14
HETATM   14  N1  UNL     1      16.022  28.160  50.592  1.00  0.00    -0.234 N 
ATOM     15  H12 UNL     1      15.733  28.723  51.393  1.00  0.00     0.174 HD
ATOM     16  H11 UNL     1      16.957  28.301  50.211  1.00  0.00     0.174 HD
ENDBRANCH   8  14
ENDBRANCH   1   4
BRANCH   1  17
HETATM   17  N5  UNL     1      11.391  24.721  47.808  1.00  0.00    -0.129 N 
HETATM   18  N6  UNL     1      10.309  24.301  48.288  1.00  0.00    -0.211 N 
ATOM     19  H6  UNL     1       9.439  24.559  47.824  1.00  0.00     0.211 HD
BRANCH  17  20
HETATM   20  O2  UNL     1      11.366  25.504  46.688  1.00  0.00    -0.265 OA
ATOM     21  H2  UNL     1      10.702  26.182  46.641  1.00  0.00     0.247 HD
ENDBRANCH  17  20
BRANCH  18  22
HETATM   22  N7  UNL     1      10.241  23.492  49.434  1.00  0.00    -0.237 N 
HETATM   23  C5  UNL     1       9.187  22.595  49.623  1.00  0.00     0.348 C 
HETATM   24  N8  UNL     1       9.132  21.785  50.787  1.00  0.00    -0.038 NA
HETATM   25  O3  UNL     1       8.262  22.477  48.779  1.00  0.00    -0.249 OA
ATOM     26  H7  UNL     1      10.973  23.560  50.141  1.00  0.00     0.193 HD
ENDBRANCH  18  22
ENDBRANCH   1  17
BRANCH   2  27
HETATM   27  O1  UNL     1      12.302  22.188  47.785  1.00  0.00    -0.288 OA
ATOM     28  H1  UNL     1      12.154  21.350  48.209  1.00  0.00     0.244 HD
ENDBRANCH   2  27
TORSDOF 6
ENDMDL
MODEL 3
REMARK VINA RESULT: -8.050735089      1.925      4.588
REMARK  6 active torsions:
REMARK  status: ('A' for Active; 'I' for Inactive)
REMARK    1  A    between atoms: N1_1  and  C1_4 
REMARK    2  A    between atoms: C3_9  and  C4_10 
REMARK    3  A    between atoms: C4_10  and  N5_15 
REMARK    4  A    between atoms: N4_11  and  O1_13 
REMARK    5  A    between atoms: N5_15  and  O2_16 
REMARK    6  A    between atoms: N6_18  and  N7_20 
REMARK       I    between atoms: N7_20  and  C5_22 
ROOT
HETATM    1  C4  UNL     1      12.065  24.688  48.303  1.00  0.00     0.192 C 
HETATM    2  N4  UNL     1      11.284  24.737  47.255  1.00  0.00    -0.249 N 
ATOM      3  H4  UNL     1      10.512  25.405  47.257  1.00  0.00     0.196 HD
ENDROOT
BRANCH   1   4
HETATM    4  C3  UNL     1      11.826  25.570  49.440  1.00  0.00     0.124 A 
HETATM    5  C2  UNL     1      11.250  25.030  50.595  1.00  0.00     0.151 A 
HETATM    6  N2  UNL     1      11.029  25.842  51.645  1.00  0.00    -0.178 N 
HETATM    7  N3  UNL     1      10.931  23.657  50.597  1.00  0.00    -0.081 NA
HETATM    8  C1  UNL     1      11.334  27.152  51.640  1.00  0.00     0.680 A 
ATOM      9  H2  UNL     1      10.609  25.445  52.485  1.00  0.00     0.185 HD
HETATM   10  N9  UNL     1      11.892  27.681  50.524  1.00  0.00    -0.155 N 
HETATM   11  C6  UNL     1      12.130  26.903  49.454  1.00  0.00     0.277 A 
ATOM     12  H9  UNL     1      12.133  28.672  50.497  1.00  0.00     0.187 HD
HETATM   13  O4  UNL     1      12.652  27.414  48.419  1.00  0.00    -0.267 OA
BRANCH   8  14
HETATM   14  N1  UNL     1      11.104  27.887  52.669  1.00  0.00    -0.234 N 
ATOM     15  H12 UNL     1      11.497  27.645  53.579  1.00  0.00     0.174 HD
ATOM     16  H11 UNL     1      10.526  28.724  52.596  1.00  0.00     0.174 HD
ENDBRANCH   8  14
ENDBRANCH   1   4
BRANCH   1  17
HETATM   17  N5  UNL     1      13.125  23.749  48.265  1.00  0.00    -0.129 N 
HETATM   18  N6  UNL     1      14.332  24.078  48.159  1.00  0.00    -0.211 N 
ATOM     19  H6  UNL     1      15.036  23.340  48.138  1.00  0.00     0.211 HD
BRANCH  17  20
HETATM   20  O2  UNL     1      12.797  22.425  48.347  1.00  0.00    -0.265 OA
ATOM     21  H2  UNL     1      13.435  21.795  48.032  1.00  0.00     0.247 HD
ENDBRANCH  17  20
BRANCH  18  22
HETATM   22  N7  UNL     1      14.759  25.413  48.068  1.00  0.00    -0.237 N 
HETATM   23  C5  UNL     1      15.423  26.032  49.129  1.00  0.00     0.348 C 
HETATM   24  N8  UNL     1      15.847  27.382  49.021  1.00  0.00    -0.038 NA
HETATM   25  O3  UNL     1      15.664  25.424  50.203  1.00  0.00    -0.249 OA
ATOM     26  H7  UNL     1      14.581  25.939  47.212  1.00  0.00     0.193 HD
ENDBRANCH  18  22
ENDBRANCH   1  17
BRANCH   2  27
HETATM   27  O1  UNL     1      11.444  23.952  46.171  1.00  0.00    -0.288 OA
ATOM     28  H1  UNL     1      11.616  24.290  45.300  1.00  0.00     0.244 HD
ENDBRANCH   2  27
TORSDOF 6
ENDMDL
MODEL 4
REMARK VINA RESULT: -7.957353444      2.104      5.742
REMARK  6 active torsions:
REMARK  status: ('A' for Active; 'I' for Inactive)
REMARK    1  A    between atoms: N1_1  and  C1_4 
REMARK    2  A    between atoms: C3_9  and  C4_10 
REMARK    3  A    between atoms: C4_10  and  N5_15 
REMARK    4  A    between atoms: N4_11  and  O1_13 
REMARK    5  A    between atoms: N5_15  and  O2_16 
REMARK    6  A    between atoms: N6_18  and  N7_20 
REMARK       I    between atoms: N7_20  and  C5_22 
ROOT
HETATM    1  C4  UNL     1      14.353  25.305  49.806  1.00  0.00     0.192 C 
HETATM    2  N4  UNL     1      14.950  25.049  50.942  1.00  0.00    -0.249 N 
ATOM      3  H4  UNL     1      14.455  24.481  51.631  1.00  0.00     0.196 HD
ENDROOT
BRANCH   1   4
HETATM    4  C3  UNL     1      13.015  24.787  49.546  1.00  0.00     0.124 A 
HETATM    5  C2  UNL     1      11.914  25.566  49.917  1.00  0.00     0.151 A 
HETATM    6  N2  UNL     1      10.678  25.091  49.679  1.00  0.00    -0.178 N 
HETATM    7  N3  UNL     1      12.160  26.814  50.526  1.00  0.00    -0.081 NA
HETATM    8  C1  UNL     1      10.446  23.900  49.098  1.00  0.00     0.680 A 
ATOM      9  H2  UNL     1       9.878  25.662  49.951  1.00  0.00     0.185 HD
HETATM   10  N9  UNL     1      11.509  23.141  48.736  1.00  0.00    -0.155 N 
HETATM   11  C6  UNL     1      12.760  23.580  48.957  1.00  0.00     0.277 A 
ATOM     12  H9  UNL     1      11.359  22.234  48.293  1.00  0.00     0.187 HD
HETATM   13  O4  UNL     1      13.741  22.857  48.612  1.00  0.00    -0.267 OA
BRANCH   8  14
HETATM   14  N1  UNL     1       9.247  23.489  48.890  1.00  0.00    -0.234 N 
ATOM     15  H12 UNL     1       8.814  23.594  47.972  1.00  0.00     0.174 HD
ATOM     16  H11 UNL     1       8.706  23.051  49.636  1.00  0.00     0.174 HD
ENDBRANCH   8  14
ENDBRANCH   1   4
BRANCH   1  17
HETATM   17  N5  UNL     1      15.070  26.095  48.874  1.00  0.00    -0.129 N 
HETATM   18  N6  UNL     1      15.268  27.327  49.025  1.00  0.00    -0.211 N 
ATOM     19  H6  UNL     1      15.794  27.825  48.307  1.00  0.00     0.211 HD
BRANCH  17  20
HETATM   20  O2  UNL     1      15.561  25.470  47.763  1.00  0.00    -0.265 OA
ATOM     21  H2  UNL     1      15.468  25.918  46.930  1.00  0.00     0.247 HD
ENDBRANCH  17  20
BRANCH  18  22
HETATM   22  N7  UNL     1      14.800  28.050  50.134  1.00  0.00    -0.237 N 
HETATM   23  C5  UNL     1      15.681  28.539  51.101  1.00  0.00     0.348 C 
HETATM   24  N8  UNL     1      15.192  29.268  52.216  1.00  0.00    -0.038 NA
HETATM   25  O3  UNL     1      16.922  28.354  51.018  1.00  0.00    -0.249 OA
ATOM     26  H7  UNL     1      13.799  28.220  50.235  1.00  0.00     0.193 HD
ENDBRANCH  18  22
ENDBRANCH   1  17
BRANCH   2  27
HETATM   27  O1  UNL     1      16.184  25.495  51.251  1.00  0.00    -0.288 OA
ATOM     28  H1  UNL     1      16.724  25.113  51.933  1.00  0.00     0.244 HD
ENDBRANCH   2  27
TORSDOF 6
ENDMDL
MODEL 5
REMARK VINA RESULT: -7.872930410      2.142      4.573
REMARK  6 active torsions:
REMARK  status: ('A' for Active; 'I' for Inactive)
REMARK    1  A    between atoms: N1_1  and  C1_4 
REMARK    2  A    between atoms: C3_9  and  C4_10 
REMARK    3  A    between atoms: C4_10  and  N5_15 
REMARK    4  A    between atoms: N4_11  and  O1_13 
REMARK    5  A    between atoms: N5_15  and  O2_16 
REMARK    6  A    between atoms: N6_18  and  N7_20 
REMARK       I    between atoms: N7_20  and  C5_22 
ROOT
HETATM    1  C4  UNL     1      12.021  24.655  48.311  1.00  0.00     0.192 C 
HETATM    2  N4  UNL     1      11.240  24.741  47.264  1.00  0.00    -0.249 N 
ATOM      3  H4  UNL     1      10.470  25.409  47.289  1.00  0.00     0.196 HD
ENDROOT
BRANCH   1   4
HETATM    4  C3  UNL     1      11.782  25.498  49.477  1.00  0.00     0.124 A 
HETATM    5  C2  UNL     1      11.981  26.878  49.355  1.00  0.00     0.151 A 
HETATM    6  N2  UNL     1      11.761  27.658  50.428  1.00  0.00    -0.178 N 
HETATM    7  N3  UNL     1      12.403  27.379  48.107  1.00  0.00    -0.081 NA
HETATM    8  C1  UNL     1      11.358  27.177  51.618  1.00  0.00     0.680 A 
ATOM      9  H2  UNL     1      11.907  28.663  50.336  1.00  0.00     0.185 HD
HETATM   10  N9  UNL     1      11.163  25.842  51.743  1.00  0.00    -0.155 N 
HETATM   11  C6  UNL     1      11.372  25.028  50.693  1.00  0.00     0.277 A 
ATOM     12  H9  UNL     1      10.857  25.454  52.635  1.00  0.00     0.187 HD
HETATM   13  O4  UNL     1      11.185  23.783  50.828  1.00  0.00    -0.267 OA
BRANCH   8  14
HETATM   14  N1  UNL     1      11.160  27.964  52.615  1.00  0.00    -0.234 N 
ATOM     15  H12 UNL     1      10.325  27.869  53.194  1.00  0.00     0.174 HD
ATOM     16  H11 UNL     1      11.832  28.695  52.847  1.00  0.00     0.174 HD
ENDBRANCH   8  14
ENDBRANCH   1   4
BRANCH   1  17
HETATM   17  N5  UNL     1      13.080  23.717  48.241  1.00  0.00    -0.129 N 
HETATM   18  N6  UNL     1      14.285  24.049  48.115  1.00  0.00    -0.211 N 
ATOM     19  H6  UNL     1      14.989  23.312  48.072  1.00  0.00     0.211 HD
BRANCH  17  20
HETATM   20  O2  UNL     1      12.755  22.392  48.315  1.00  0.00    -0.265 OA
ATOM     21  H2  UNL     1      13.428  21.762  48.084  1.00  0.00     0.247 HD
ENDBRANCH  17  20
BRANCH  18  22
HETATM   22  N7  UNL     1      14.709  25.385  48.030  1.00  0.00    -0.237 N 
HETATM   23  C5  UNL     1      15.369  26.001  49.095  1.00  0.00     0.348 C 
HETATM   24  N8  UNL     1      15.791  27.353  48.994  1.00  0.00    -0.038 NA
HETATM   25  O3  UNL     1      15.608  25.389  50.168  1.00  0.00    -0.249 OA
ATOM     26  H7  UNL     1      14.533  25.914  47.176  1.00  0.00     0.193 HD
ENDBRANCH  18  22
ENDBRANCH   1  17
BRANCH   2  27
HETATM   27  O1  UNL     1      11.401  23.993  46.154  1.00  0.00    -0.288 OA
ATOM     28  H1  UNL     1      11.268  24.327  45.274  1.00  0.00     0.244 HD
ENDBRANCH   2  27
TORSDOF 6
ENDMDL
