MODEL 1
REMARK VINA RESULT: -7.120043052      0.000      0.000
REMARK  7 active torsions:
REMARK  status: ('A' for Active; 'I' for Inactive)
REMARK    1  A    between atoms: N2_3  and  C2_5 
REMARK    2  A    between atoms: C3_8  and  N4_9 
REMARK    3  A    between atoms: C5_16  and  C6_17 
REMARK    4  A    between atoms: N7_18  and  C7_20 
REMARK    5  A    between atoms: C7_20  and  O1_21 
REMARK    6  A    between atoms: C7_20  and  C8_23 
REMARK    7  A    between atoms: C8_23  and  N8_24 
ROOT
HETATM    1  N1  UNL     1       9.676  22.860  48.526  1.00  0.00    -0.172 NA
HETATM    2  C1  UNL     1      10.179  23.456  49.403  1.00  0.00     0.183 C 
HETATM    3  N2  UNL     1      10.784  24.145  50.450  1.00  0.00    -0.278 N 
ATOM      4  H2  UNL     1      10.535  23.918  51.412  1.00  0.00     0.179 HD
ENDROOT
BRANCH   3   5
HETATM    5  C2  UNL     1      11.654  25.066  50.218  1.00  0.00     0.144 A 
HETATM    6  N3  UNL     1      12.649  24.856  49.347  1.00  0.00    -0.175 N 
HETATM    7  C3  UNL     1      13.583  25.781  49.067  1.00  0.00     0.678 A 
ATOM      8  H3  UNL     1      12.699  23.953  48.874  1.00  0.00     0.186 HD
HETATM    9  N5  UNL     1      13.548  26.982  49.670  1.00  0.00    -0.178 N 
HETATM   10  C4  UNL     1      12.550  27.208  50.551  1.00  0.00     0.147 A 
ATOM     11  H5  UNL     1      14.249  27.695  49.470  1.00  0.00     0.185 HD
HETATM   12  N6  UNL     1      12.486  28.481  51.211  1.00  0.00    -0.081 NA
HETATM   13  C5  UNL     1      11.575  26.290  50.866  1.00  0.00     0.066 A 
BRANCH   7  14
HETATM   14  N4  UNL     1      14.519  25.526  48.221  1.00  0.00    -0.234 N 
ATOM     15  H42 UNL     1      15.441  25.254  48.562  1.00  0.00     0.174 HD
ATOM     16  H41 UNL     1      14.343  25.593  47.219  1.00  0.00     0.174 HD
ENDBRANCH   7  14
BRANCH  13  17
HETATM   17  C6  UNL     1      10.537  26.601  51.818  1.00  0.00     0.104 C 
HETATM   18  N7  UNL     1      10.758  26.833  53.062  1.00  0.00    -0.370 N 
ATOM     19  H7  UNL     1      11.717  26.798  53.406  1.00  0.00     0.161 HD
BRANCH  18  20
HETATM   20  C7  UNL     1       9.704  27.139  53.980  1.00  0.00     0.262 C 
BRANCH  20  21
HETATM   21  O1  UNL     1       8.621  27.732  53.293  1.00  0.00    -0.374 OA
ATOM     22  H1  UNL     1       8.732  28.674  53.266  1.00  0.00     0.212 HD
ENDBRANCH  20  21
BRANCH  20  23
HETATM   23  C8  UNL     1      10.117  28.155  55.039  1.00  0.00     0.337 C 
HETATM   24  C9  UNL     1       9.002  28.661  55.796  1.00  0.00     0.097 C 
HETATM   25  N9  UNL     1       8.105  29.048  56.394  1.00  0.00    -0.195 NA
BRANCH  23  26
HETATM   26  N8  UNL     1      10.719  29.268  54.319  1.00  0.00    -0.058 N 
ATOM     27  H83 UNL     1      11.735  29.206  54.252  1.00  0.00     0.276 HD
ATOM     28  H82 UNL     1      10.527  29.255  53.317  1.00  0.00     0.276 HD
ATOM     29  H81 UNL     1      10.394  30.115  54.784  1.00  0.00     0.276 HD
ENDBRANCH  23  26
ENDBRANCH  20  23
ENDBRANCH  18  20
ENDBRANCH  13  17
ENDBRANCH   3   5
TORSDOF 7
ENDMDL
MODEL 2
REMARK VINA RESULT: -6.853908351      2.997      5.596
REMARK  7 active torsions:
REMARK  status: ('A' for Active; 'I' for Inactive)
REMARK    1  A    between atoms: N2_3  and  C2_5 
REMARK    2  A    between atoms: C3_8  and  N4_9 
REMARK    3  A    between atoms: C5_16  and  C6_17 
REMARK    4  A    between atoms: N7_18  and  C7_20 
REMARK    5  A    between atoms: C7_20  and  O1_21 
REMARK    6  A    between atoms: C7_20  and  C8_23 
REMARK    7  A    between atoms: C8_23  and  N8_24 
ROOT
HETATM    1  N1  UNL     1      10.810  26.658  52.540  1.00  0.00    -0.172 NA
HETATM    2  C1  UNL     1      11.357  26.976  51.552  1.00  0.00     0.183 C 
HETATM    3  N2  UNL     1      12.003  27.374  50.385  1.00  0.00    -0.278 N 
ATOM      4  H2  UNL     1      11.489  27.900  49.679  1.00  0.00     0.179 HD
ENDROOT
BRANCH   3   5
HETATM    5  C2  UNL     1      13.242  27.084  50.185  1.00  0.00     0.144 A 
HETATM    6  N3  UNL     1      14.203  27.961  50.501  1.00  0.00    -0.175 N 
HETATM    7  C3  UNL     1      15.511  27.712  50.314  1.00  0.00     0.678 A 
ATOM      8  H3  UNL     1      13.930  28.859  50.902  1.00  0.00     0.186 HD
HETATM    9  N5  UNL     1      15.907  26.539  49.789  1.00  0.00    -0.178 N 
HETATM   10  C4  UNL     1      14.949  25.645  49.466  1.00  0.00     0.147 A 
ATOM     11  H5  UNL     1      16.895  26.334  49.640  1.00  0.00     0.185 HD
HETATM   12  N6  UNL     1      15.342  24.384  48.904  1.00  0.00    -0.081 NA
HETATM   13  C5  UNL     1      13.602  25.860  49.641  1.00  0.00     0.066 A 
BRANCH   7  14
HETATM   14  N4  UNL     1      16.394  28.592  50.635  1.00  0.00    -0.234 N 
ATOM     15  H42 UNL     1      16.096  29.540  50.863  1.00  0.00     0.174 HD
ATOM     16  H41 UNL     1      17.383  28.344  50.663  1.00  0.00     0.174 HD
ENDBRANCH   7  14
BRANCH  13  17
HETATM   17  C6  UNL     1      12.632  24.857  49.272  1.00  0.00     0.104 C 
HETATM   18  N7  UNL     1      12.541  23.711  49.843  1.00  0.00    -0.370 N 
ATOM     19  H7  UNL     1      13.184  23.486  50.601  1.00  0.00     0.161 HD
BRANCH  18  20
HETATM   20  C7  UNL     1      11.567  22.738  49.452  1.00  0.00     0.262 C 
BRANCH  20  21
HETATM   21  O1  UNL     1      11.738  22.405  48.090  1.00  0.00    -0.374 OA
ATOM     22  H1  UNL     1      10.892  22.349  47.662  1.00  0.00     0.212 HD
ENDBRANCH  20  21
BRANCH  20  23
HETATM   23  C8  UNL     1      10.136  23.252  49.567  1.00  0.00     0.337 C 
HETATM   24  C9  UNL     1       9.239  22.287  50.148  1.00  0.00     0.097 C 
HETATM   25  N9  UNL     1       8.540  21.511  50.616  1.00  0.00    -0.195 NA
BRANCH  23  26
HETATM   26  N8  UNL     1       9.693  23.524  48.208  1.00  0.00    -0.058 N 
ATOM     27  H83 UNL     1       8.684  23.649  48.128  1.00  0.00     0.276 HD
ATOM     28  H82 UNL     1       9.960  24.450  47.871  1.00  0.00     0.276 HD
ATOM     29  H81 UNL     1      10.056  22.763  47.635  1.00  0.00     0.276 HD
ENDBRANCH  23  26
ENDBRANCH  20  23
ENDBRANCH  18  20
ENDBRANCH  13  17
ENDBRANCH   3   5
TORSDOF 7
ENDMDL
MODEL 3
REMARK VINA RESULT: -6.791027997      3.953      5.517
REMARK  7 active torsions:
REMARK  status: ('A' for Active; 'I' for Inactive)
REMARK    1  A    between atoms: N2_3  and  C2_5 
REMARK    2  A    between atoms: C3_8  and  N4_9 
REMARK    3  A    between atoms: C5_16  and  C6_17 
REMARK    4  A    between atoms: N7_18  and  C7_20 
REMARK    5  A    between atoms: C7_20  and  O1_21 
REMARK    6  A    between atoms: C7_20  and  C8_23 
REMARK    7  A    between atoms: C8_23  and  N8_24 
ROOT
HETATM    1  N1  UNL     1      11.751  27.471  46.369  1.00  0.00    -0.172 NA
HETATM    2  C1  UNL     1      11.465  27.071  47.434  1.00  0.00     0.183 C 
HETATM    3  N2  UNL     1      11.107  26.605  48.695  1.00  0.00    -0.278 N 
ATOM      4  H2  UNL     1      10.902  27.272  49.439  1.00  0.00     0.179 HD
ENDROOT
BRANCH   3   5
HETATM    5  C2  UNL     1      11.033  25.342  48.936  1.00  0.00     0.144 A 
HETATM    6  N3  UNL     1       9.848  24.718  48.929  1.00  0.00    -0.175 N 
HETATM    7  C3  UNL     1       9.712  23.403  49.172  1.00  0.00     0.678 A 
ATOM      8  H3  UNL     1       9.011  25.266  48.729  1.00  0.00     0.186 HD
HETATM    9  N5  UNL     1      10.793  22.650  49.439  1.00  0.00    -0.178 N 
HETATM   10  C4  UNL     1      11.995  23.265  49.449  1.00  0.00     0.147 A 
ATOM     11  H5  UNL     1      10.708  21.651  49.626  1.00  0.00     0.185 HD
HETATM   12  N6  UNL     1      13.167  22.486  49.730  1.00  0.00    -0.081 NA
HETATM   13  C5  UNL     1      12.177  24.606  49.205  1.00  0.00     0.066 A 
BRANCH   7  14
HETATM   14  N4  UNL     1       8.547  22.854  49.154  1.00  0.00    -0.234 N 
ATOM     15  H42 UNL     1       7.756  23.372  48.773  1.00  0.00     0.174 HD
ATOM     16  H41 UNL     1       8.416  21.910  49.516  1.00  0.00     0.174 HD
ENDBRANCH   7  14
BRANCH  13  17
HETATM   17  C6  UNL     1      13.493  25.196  49.233  1.00  0.00     0.104 C 
HETATM   18  N7  UNL     1      14.140  25.446  50.314  1.00  0.00    -0.370 N 
ATOM     19  H7  UNL     1      13.709  25.218  51.209  1.00  0.00     0.161 HD
BRANCH  18  20
HETATM   20  C7  UNL     1      15.445  26.032  50.306  1.00  0.00     0.262 C 
BRANCH  20  21
HETATM   21  O1  UNL     1      16.172  25.608  51.440  1.00  0.00    -0.374 OA
ATOM     22  H1  UNL     1      16.179  24.660  51.484  1.00  0.00     0.212 HD
ENDBRANCH  20  21
BRANCH  20  23
HETATM   23  C8  UNL     1      15.412  27.554  50.391  1.00  0.00     0.337 C 
HETATM   24  C9  UNL     1      14.151  28.061  50.869  1.00  0.00     0.097 C 
HETATM   25  N9  UNL     1      13.146  28.448  51.256  1.00  0.00    -0.195 NA
BRANCH  23  26
HETATM   26  N8  UNL     1      15.612  28.040  49.034  1.00  0.00    -0.058 N 
ATOM     27  H83 UNL     1      16.000  27.338  48.405  1.00  0.00     0.276 HD
ATOM     28  H82 UNL     1      14.741  28.196  48.525  1.00  0.00     0.276 HD
ATOM     29  H81 UNL     1      16.190  28.877  49.116  1.00  0.00     0.276 HD
ENDBRANCH  23  26
ENDBRANCH  20  23
ENDBRANCH  18  20
ENDBRANCH  13  17
ENDBRANCH   3   5
TORSDOF 7
ENDMDL
MODEL 4
REMARK VINA RESULT: -6.646709010      3.607      5.808
REMARK  7 active torsions:
REMARK  status: ('A' for Active; 'I' for Inactive)
REMARK    1  A    between atoms: N2_3  and  C2_5 
REMARK    2  A    between atoms: C3_8  and  N4_9 
REMARK    3  A    between atoms: C5_16  and  C6_17 
REMARK    4  A    between atoms: N7_18  and  C7_20 
REMARK    5  A    between atoms: C7_20  and  O1_21 
REMARK    6  A    between atoms: C7_20  and  C8_23 
REMARK    7  A    between atoms: C8_23  and  N8_24 
ROOT
HETATM    1  N1  UNL     1      12.177  28.028  51.003  1.00  0.00    -0.172 NA
HETATM    2  C1  UNL     1      11.788  27.408  50.086  1.00  0.00     0.183 C 
HETATM    3  N2  UNL     1      11.341  26.678  48.988  1.00  0.00    -0.278 N 
ATOM      4  H2  UNL     1      11.124  27.161  48.117  1.00  0.00     0.179 HD
ENDROOT
BRANCH   3   5
HETATM    5  C2  UNL     1      11.199  25.400  49.059  1.00  0.00     0.144 A 
HETATM    6  N3  UNL     1       9.978  24.851  49.058  1.00  0.00    -0.175 N 
HETATM    7  C3  UNL     1       9.771  23.525  49.130  1.00  0.00     0.678 A 
ATOM      8  H3  UNL     1       9.167  25.469  48.999  1.00  0.00     0.186 HD
HETATM    9  N5  UNL     1      10.816  22.682  49.208  1.00  0.00    -0.178 N 
HETATM   10  C4  UNL     1      12.054  23.220  49.209  1.00  0.00     0.147 A 
ATOM     11  H5  UNL     1      10.677  21.673  49.264  1.00  0.00     0.185 HD
HETATM   12  N6  UNL     1      13.188  22.344  49.291  1.00  0.00    -0.081 NA
HETATM   13  C5  UNL     1      12.308  24.570  49.138  1.00  0.00     0.066 A 
BRANCH   7  14
HETATM   14  N4  UNL     1       8.575  23.051  49.127  1.00  0.00    -0.234 N 
ATOM     15  H42 UNL     1       8.407  22.118  48.749  1.00  0.00     0.174 HD
ATOM     16  H41 UNL     1       7.800  23.600  49.499  1.00  0.00     0.174 HD
ENDBRANCH   7  14
BRANCH  13  17
HETATM   17  C6  UNL     1      13.659  25.075  49.145  1.00  0.00     0.104 C 
HETATM   18  N7  UNL     1      14.284  25.426  50.210  1.00  0.00    -0.370 N 
ATOM     19  H7  UNL     1      13.807  25.348  51.108  1.00  0.00     0.161 HD
BRANCH  18  20
HETATM   20  C7  UNL     1      15.625  25.924  50.182  1.00  0.00     0.262 C 
BRANCH  20  21
HETATM   21  O1  UNL     1      16.171  25.913  51.484  1.00  0.00    -0.374 OA
ATOM     22  H1  UNL     1      15.749  26.574  52.019  1.00  0.00     0.212 HD
ENDBRANCH  20  21
BRANCH  20  23
HETATM   23  C8  UNL     1      15.709  27.374  49.719  1.00  0.00     0.337 C 
HETATM   24  C9  UNL     1      15.634  28.315  50.806  1.00  0.00     0.097 C 
HETATM   25  N9  UNL     1      15.579  29.049  51.682  1.00  0.00    -0.195 NA
BRANCH  23  26
HETATM   26  N8  UNL     1      14.561  27.589  48.851  1.00  0.00    -0.058 N 
ATOM     27  H83 UNL     1      14.689  27.219  47.909  1.00  0.00     0.276 HD
ATOM     28  H82 UNL     1      13.751  27.020  49.100  1.00  0.00     0.276 HD
ATOM     29  H81 UNL     1      14.375  28.592  48.872  1.00  0.00     0.276 HD
ENDBRANCH  23  26
ENDBRANCH  20  23
ENDBRANCH  18  20
ENDBRANCH  13  17
ENDBRANCH   3   5
TORSDOF 7
ENDMDL
MODEL 5
REMARK VINA RESULT: -6.576387445      1.825      3.459
REMARK  7 active torsions:
REMARK  status: ('A' for Active; 'I' for Inactive)
REMARK    1  A    between atoms: N2_3  and  C2_5 
REMARK    2  A    between atoms: C3_8  and  N4_9 
REMARK    3  A    between atoms: C5_16  and  C6_17 
REMARK    4  A    between atoms: N7_18  and  C7_20 
REMARK    5  A    between atoms: C7_20  and  O1_21 
REMARK    6  A    between atoms: C7_20  and  C8_23 
REMARK    7  A    between atoms: C8_23  and  N8_24 
ROOT
HETATM    1  N1  UNL     1      15.867  27.702  48.963  1.00  0.00    -0.172 NA
HETATM    2  C1  UNL     1      15.261  26.911  49.584  1.00  0.00     0.183 C 
HETATM    3  N2  UNL     1      14.539  25.988  50.334  1.00  0.00    -0.278 N 
ATOM      4  H2  UNL     1      14.815  25.794  51.296  1.00  0.00     0.179 HD
ENDROOT
BRANCH   3   5
HETATM    5  C2  UNL     1      13.525  25.376  49.827  1.00  0.00     0.144 A 
HETATM    6  N3  UNL     1      13.695  24.247  49.126  1.00  0.00    -0.175 N 
HETATM    7  C3  UNL     1      12.675  23.567  48.575  1.00  0.00     0.678 A 
ATOM      8  H3  UNL     1      14.643  23.888  49.004  1.00  0.00     0.186 HD
HETATM    9  N5  UNL     1      11.413  24.011  48.716  1.00  0.00    -0.178 N 
HETATM   10  C4  UNL     1      11.226  25.147  49.421  1.00  0.00     0.147 A 
ATOM     11  H5  UNL     1      10.627  23.508  48.304  1.00  0.00     0.185 HD
HETATM   12  N6  UNL     1       9.890  25.645  49.587  1.00  0.00    -0.081 NA
HETATM   13  C5  UNL     1      12.242  25.872  49.999  1.00  0.00     0.066 A 
BRANCH   7  14
HETATM   14  N4  UNL     1      12.895  22.488  47.909  1.00  0.00    -0.234 N 
ATOM     15  H42 UNL     1      12.111  21.885  47.661  1.00  0.00     0.174 HD
ATOM     16  H41 UNL     1      13.844  22.238  47.630  1.00  0.00     0.174 HD
ENDBRANCH   7  14
BRANCH  13  17
HETATM   17  C6  UNL     1      11.968  27.080  50.740  1.00  0.00     0.104 C 
HETATM   18  N7  UNL     1      11.211  27.124  51.776  1.00  0.00    -0.370 N 
ATOM     19  H7  UNL     1      10.773  26.263  52.102  1.00  0.00     0.161 HD
BRANCH  18  20
HETATM   20  C7  UNL     1      10.959  28.339  52.488  1.00  0.00     0.262 C 
BRANCH  20  21
HETATM   21  O1  UNL     1      12.180  28.919  52.899  1.00  0.00    -0.374 OA
ATOM     22  H1  UNL     1      12.174  29.054  53.838  1.00  0.00     0.212 HD
ENDBRANCH  20  21
BRANCH  20  23
HETATM   23  C8  UNL     1      10.162  28.122  53.769  1.00  0.00     0.337 C 
HETATM   24  C9  UNL     1      10.682  28.868  54.885  1.00  0.00     0.097 C 
HETATM   25  N9  UNL     1      11.103  29.471  55.762  1.00  0.00    -0.195 NA
BRANCH  23  26
HETATM   26  N8  UNL     1      10.272  26.704  54.078  1.00  0.00    -0.058 N 
ATOM     27  H83 UNL     1       9.400  26.293  54.410  1.00  0.00     0.276 HD
ATOM     28  H82 UNL     1      10.381  26.115  53.252  1.00  0.00     0.276 HD
ATOM     29  H81 UNL     1      11.040  26.618  54.743  1.00  0.00     0.276 HD
ENDBRANCH  23  26
ENDBRANCH  20  23
ENDBRANCH  18  20
ENDBRANCH  13  17
ENDBRANCH   3   5
TORSDOF 7
ENDMDL
