MODEL 1
REMARK VINA RESULT: -7.824603240      0.000      0.000
REMARK  6 active torsions:
REMARK  status: ('A' for Active; 'I' for Inactive)
REMARK    1  A    between atoms: N1_1  and  N2_4 
REMARK       I    between atoms: N2_4  and  C1_6 
REMARK    2  A    between atoms: C1_6  and  C2_8 
REMARK    3  A    between atoms: C2_8  and  N3_9 
REMARK    4  A    between atoms: C2_8  and  C7_25 
REMARK    5  A    between atoms: N3_9  and  C3_11 
REMARK    6  A    between atoms: C4_14  and  N5_15 
ROOT
HETATM    1  C2  UNL     1      -8.542  20.155 -10.917  1.00  0.00     0.262 C 
ENDROOT
BRANCH   1   2
HETATM    2  C1  UNL     1      -8.796  19.572 -12.256  1.00  0.00     0.266 C 
HETATM    3  N2  UNL     1     -10.048  19.712 -12.866  1.00  0.00    -0.275 N 
ATOM      4  H2  UNL     1     -10.779  20.222 -12.372  1.00  0.00     0.189 HD
HETATM    5  O1  UNL     1      -7.881  18.953 -12.836  1.00  0.00    -0.269 OA
BRANCH   3   6
HETATM    6  N1  UNL     1     -10.337  19.181 -14.126  1.00  0.00    -0.343 N 
ATOM      7  H12 UNL     1      -9.770  18.398 -14.450  1.00  0.00     0.176 HD
ATOM      8  H11 UNL     1     -11.082  19.544 -14.719  1.00  0.00     0.176 HD
ENDBRANCH   3   6
ENDBRANCH   1   2
BRANCH   1   9
HETATM    9  N3  UNL     1      -9.162  21.432 -10.737  1.00  0.00    -0.206 N 
ATOM     10  H3  UNL     1      -9.923  21.690 -11.366  1.00  0.00     0.179 HD
BRANCH   9  11
HETATM   11  C3  UNL     1      -8.777  22.366  -9.728  1.00  0.00     0.674 C 
HETATM   12  N4  UNL     1      -7.818  23.194  -9.980  1.00  0.00    -0.180 N 
HETATM   13  C4  UNL     1      -7.262  24.219  -9.121  1.00  0.00     0.400 C 
ATOM     14  H4  UNL     1      -7.397  23.115 -10.906  1.00  0.00     0.181 HD
HETATM   15  N6  UNL     1      -8.159  25.074  -8.493  1.00  0.00    -0.358 N 
HETATM   16  C5  UNL     1      -9.405  24.643  -8.059  1.00  0.00     0.079 C 
ATOM     17  H6  UNL     1      -7.894  26.049  -8.347  1.00  0.00     0.162 HD
HETATM   18  C6  UNL     1      -9.501  23.291  -7.433  1.00  0.00     0.182 C 
HETATM   19  N7  UNL     1      -9.505  22.296  -8.508  1.00  0.00    -0.222 N 
ATOM     20  H7  UNL     1     -10.087  21.471  -8.368  1.00  0.00     0.178 HD
BRANCH  13  21
HETATM   21  N5  UNL     1      -6.364  23.639  -8.118  1.00  0.00    -0.040 N 
ATOM     22  H53 UNL     1      -6.798  22.850  -7.638  1.00  0.00     0.279 HD
ATOM     23  H52 UNL     1      -5.584  23.147  -8.553  1.00  0.00     0.279 HD
ATOM     24  H51 UNL     1      -6.041  24.347  -7.459  1.00  0.00     0.279 HD
ENDBRANCH  13  21
ENDBRANCH   9  11
ENDBRANCH   1   9
BRANCH   1  25
HETATM   25  C7  UNL     1      -7.069  20.302 -10.780  1.00  0.00     0.130 A 
HETATM   26  N8  UNL     1      -6.303  19.936  -9.712  1.00  0.00    -0.338 N 
HETATM   27  C8  UNL     1      -5.016  20.228  -9.960  1.00  0.00     0.198 A 
ATOM     28  H8  UNL     1      -6.654  19.506  -8.856  1.00  0.00     0.168 HD
HETATM   29  N9  UNL     1      -4.963  20.776 -11.181  1.00  0.00    -0.295 N 
HETATM   30  N10 UNL     1      -6.184  20.815 -11.655  1.00  0.00    -0.286 N 
ATOM     31  H9  UNL     1      -4.122  21.105 -11.657  1.00  0.00     0.187 HD
ATOM     32  H10 UNL     1      -6.432  21.188 -12.572  1.00  0.00     0.188 HD
ENDBRANCH   1  25
TORSDOF 6
ENDMDL
MODEL 2
REMARK VINA RESULT: -7.779452740      1.308      2.008
REMARK  6 active torsions:
REMARK  status: ('A' for Active; 'I' for Inactive)
REMARK    1  A    between atoms: N1_1  and  N2_4 
REMARK       I    between atoms: N2_4  and  C1_6 
REMARK    2  A    between atoms: C1_6  and  C2_8 
REMARK    3  A    between atoms: C2_8  and  N3_9 
REMARK    4  A    between atoms: C2_8  and  C7_25 
REMARK    5  A    between atoms: N3_9  and  C3_11 
REMARK    6  A    between atoms: C4_14  and  N5_15 
ROOT
HETATM    1  C2  UNL     1      -8.267  20.412 -11.294  1.00  0.00     0.262 C 
ENDROOT
BRANCH   1   2
HETATM    2  C1  UNL     1      -8.365  19.450 -12.417  1.00  0.00     0.266 C 
HETATM    3  N2  UNL     1      -9.608  19.145 -12.986  1.00  0.00    -0.275 N 
ATOM      4  H2  UNL     1     -10.441  19.599 -12.612  1.00  0.00     0.189 HD
HETATM    5  O1  UNL     1      -7.328  18.911 -12.853  1.00  0.00    -0.269 OA
BRANCH   3   6
HETATM    6  N1  UNL     1      -9.753  18.246 -14.045  1.00  0.00    -0.343 N 
ATOM      7  H12 UNL     1      -9.464  18.556 -14.972  1.00  0.00     0.176 HD
ATOM      8  H11 UNL     1     -10.131  17.307 -13.922  1.00  0.00     0.176 HD
ENDBRANCH   3   6
ENDBRANCH   1   2
BRANCH   1   9
HETATM    9  N3  UNL     1      -8.647  21.741 -11.662  1.00  0.00    -0.206 N 
ATOM     10  H3  UNL     1      -8.586  22.003 -12.647  1.00  0.00     0.179 HD
BRANCH   9  11
HETATM   11  C3  UNL     1      -9.104  22.722 -10.731  1.00  0.00     0.674 C 
HETATM   12  N4  UNL     1     -10.369  22.803 -10.484  1.00  0.00    -0.180 N 
HETATM   13  C4  UNL     1     -11.058  23.708  -9.586  1.00  0.00     0.400 C 
ATOM     14  H4  UNL     1     -10.962  22.141 -10.986  1.00  0.00     0.181 HD
HETATM   15  N6  UNL     1     -10.552  23.828  -8.298  1.00  0.00    -0.358 N 
HETATM   16  C5  UNL     1      -9.191  23.757  -8.032  1.00  0.00     0.079 C 
ATOM     17  H6  UNL     1     -11.201  23.972  -7.524  1.00  0.00     0.162 HD
HETATM   18  C6  UNL     1      -8.255  24.420  -8.987  1.00  0.00     0.182 C 
HETATM   19  N7  UNL     1      -8.098  23.540 -10.148  1.00  0.00    -0.222 N 
ATOM     20  H7  UNL     1      -7.175  23.512 -10.581  1.00  0.00     0.178 HD
BRANCH  13  21
HETATM   21  N5  UNL     1     -11.190  25.042 -10.180  1.00  0.00    -0.040 N 
ATOM     22  H53 UNL     1     -12.166  25.274 -10.365  1.00  0.00     0.279 HD
ATOM     23  H52 UNL     1     -10.979  25.776  -9.504  1.00  0.00     0.279 HD
ATOM     24  H51 UNL     1     -10.618  25.130 -11.020  1.00  0.00     0.279 HD
ENDBRANCH  13  21
ENDBRANCH   9  11
ENDBRANCH   1   9
BRANCH   1  25
HETATM   25  C7  UNL     1      -6.850  20.413 -10.846  1.00  0.00     0.130 A 
HETATM   26  N8  UNL     1      -6.371  20.005  -9.635  1.00  0.00    -0.338 N 
HETATM   27  C8  UNL     1      -5.036  20.158  -9.605  1.00  0.00     0.198 A 
ATOM     28  H8  UNL     1      -6.938  19.641  -8.870  1.00  0.00     0.168 HD
HETATM   29  N9  UNL     1      -4.668  20.658 -10.791  1.00  0.00    -0.295 N 
HETATM   30  N10 UNL     1      -5.750  20.805 -11.516  1.00  0.00    -0.286 N 
ATOM     31  H9  UNL     1      -3.716  20.885 -11.079  1.00  0.00     0.187 HD
ATOM     32  H10 UNL     1      -5.757  21.171 -12.468  1.00  0.00     0.188 HD
ENDBRANCH   1  25
TORSDOF 6
ENDMDL
MODEL 3
REMARK VINA RESULT: -7.618684788      1.103      1.127
REMARK  6 active torsions:
REMARK  status: ('A' for Active; 'I' for Inactive)
REMARK    1  A    between atoms: N1_1  and  N2_4 
REMARK       I    between atoms: N2_4  and  C1_6 
REMARK    2  A    between atoms: C1_6  and  C2_8 
REMARK    3  A    between atoms: C2_8  and  N3_9 
REMARK    4  A    between atoms: C2_8  and  C7_25 
REMARK    5  A    between atoms: N3_9  and  C3_11 
REMARK    6  A    between atoms: C4_14  and  N5_15 
ROOT
HETATM    1  C2  UNL     1      -8.356  20.227 -11.370  1.00  0.00     0.262 C 
ENDROOT
BRANCH   1   2
HETATM    2  C1  UNL     1      -8.463  19.299 -12.520  1.00  0.00     0.266 C 
HETATM    3  N2  UNL     1      -9.701  19.062 -13.130  1.00  0.00    -0.275 N 
ATOM      4  H2  UNL     1     -10.525  19.542 -12.767  1.00  0.00     0.189 HD
HETATM    5  O1  UNL     1      -7.437  18.727 -12.942  1.00  0.00    -0.269 OA
BRANCH   3   6
HETATM    6  N1  UNL     1      -9.854  18.197 -14.216  1.00  0.00    -0.343 N 
ATOM      7  H12 UNL     1      -9.138  17.485 -14.357  1.00  0.00     0.176 HD
ATOM      8  H11 UNL     1     -10.643  18.254 -14.859  1.00  0.00     0.176 HD
ENDBRANCH   3   6
ENDBRANCH   1   2
BRANCH   1   9
HETATM    9  N3  UNL     1      -8.839  21.541 -11.666  1.00  0.00    -0.206 N 
ATOM     10  H3  UNL     1      -9.029  21.775 -12.640  1.00  0.00     0.179 HD
BRANCH   9  11
HETATM   11  C3  UNL     1      -9.068  22.543 -10.675  1.00  0.00     0.674 C 
HETATM   12  N4  UNL     1      -8.097  23.329 -10.347  1.00  0.00    -0.180 N 
HETATM   13  C4  UNL     1      -8.095  24.407  -9.379  1.00  0.00     0.400 C 
ATOM     14  H4  UNL     1      -7.215  23.169 -10.834  1.00  0.00     0.181 HD
HETATM   15  N6  UNL     1      -9.133  25.327  -9.455  1.00  0.00    -0.358 N 
HETATM   16  C5  UNL     1     -10.418  24.957  -9.828  1.00  0.00     0.079 C 
ATOM     17  H6  UNL     1      -8.945  26.304  -9.230  1.00  0.00     0.162 HD
HETATM   18  C6  UNL     1     -10.952  23.661  -9.314  1.00  0.00     0.182 C 
HETATM   19  N7  UNL     1     -10.381  22.584 -10.128  1.00  0.00    -0.222 N 
ATOM     20  H7  UNL     1     -10.984  21.785 -10.321  1.00  0.00     0.178 HD
BRANCH  13  21
HETATM   21  N5  UNL     1      -8.007  23.888  -8.011  1.00  0.00    -0.040 N 
ATOM     22  H53 UNL     1      -8.632  24.390  -7.379  1.00  0.00     0.279 HD
ATOM     23  H52 UNL     1      -8.419  22.959  -7.934  1.00  0.00     0.279 HD
ATOM     24  H51 UNL     1      -7.044  23.900  -7.674  1.00  0.00     0.279 HD
ENDBRANCH  13  21
ENDBRANCH   9  11
ENDBRANCH   1   9
BRANCH   1  25
HETATM   25  C7  UNL     1      -6.917  20.304 -11.007  1.00  0.00     0.130 A 
HETATM   26  N8  UNL     1      -6.321  19.785  -9.894  1.00  0.00    -0.338 N 
HETATM   27  C8  UNL     1      -5.006  20.059  -9.918  1.00  0.00     0.198 A 
ATOM     28  H8  UNL     1      -6.801  19.269  -9.156  1.00  0.00     0.168 HD
HETATM   29  N9  UNL     1      -4.766  20.748 -11.041  1.00  0.00    -0.295 N 
HETATM   30  N10 UNL     1      -5.904  20.887 -11.677  1.00  0.00    -0.286 N 
ATOM     31  H9  UNL     1      -3.859  21.101 -11.348  1.00  0.00     0.187 HD
ATOM     32  H10 UNL     1      -6.009  21.375 -12.566  1.00  0.00     0.188 HD
ENDBRANCH   1  25
TORSDOF 6
ENDMDL
MODEL 4
REMARK VINA RESULT: -7.437477937      1.176      3.429
REMARK  6 active torsions:
REMARK  status: ('A' for Active; 'I' for Inactive)
REMARK    1  A    between atoms: N1_1  and  N2_4 
REMARK       I    between atoms: N2_4  and  C1_6 
REMARK    2  A    between atoms: C1_6  and  C2_8 
REMARK    3  A    between atoms: C2_8  and  N3_9 
REMARK    4  A    between atoms: C2_8  and  C7_25 
REMARK    5  A    between atoms: N3_9  and  C3_11 
REMARK    6  A    between atoms: C4_14  and  N5_15 
ROOT
HETATM    1  C2  UNL     1      -8.672  21.086 -12.064  1.00  0.00     0.262 C 
ENDROOT
BRANCH   1   2
HETATM    2  C1  UNL     1      -7.787  20.169 -11.306  1.00  0.00     0.266 C 
HETATM    3  N2  UNL     1      -6.395  20.308 -11.372  1.00  0.00    -0.275 N 
ATOM      4  H2  UNL     1      -6.004  21.051 -11.951  1.00  0.00     0.189 HD
HETATM    5  O1  UNL     1      -8.294  19.269 -10.606  1.00  0.00    -0.269 OA
BRANCH   3   6
HETATM    6  N1  UNL     1      -5.519  19.470 -10.677  1.00  0.00    -0.343 N 
ATOM      7  H12 UNL     1      -4.847  18.933 -11.223  1.00  0.00     0.176 HD
ATOM      8  H11 UNL     1      -5.532  19.381  -9.662  1.00  0.00     0.176 HD
ENDBRANCH   3   6
ENDBRANCH   1   2
BRANCH   1   9
HETATM    9  N3  UNL     1      -9.481  21.908 -11.217  1.00  0.00    -0.206 N 
ATOM     10  H3  UNL     1     -10.476  21.984 -11.430  1.00  0.00     0.179 HD
BRANCH   9  11
HETATM   11  C3  UNL     1      -8.975  22.628 -10.092  1.00  0.00     0.674 C 
HETATM   12  N4  UNL     1      -7.875  23.292 -10.222  1.00  0.00    -0.180 N 
HETATM   13  C4  UNL     1      -7.179  24.088  -9.232  1.00  0.00     0.400 C 
ATOM     14  H4  UNL     1      -7.439  23.250 -11.144  1.00  0.00     0.181 HD
HETATM   15  N6  UNL     1      -7.934  25.010  -8.518  1.00  0.00    -0.358 N 
HETATM   16  C5  UNL     1      -9.253  24.764  -8.162  1.00  0.00     0.079 C 
ATOM     17  H6  UNL     1      -7.506  25.896  -8.247  1.00  0.00     0.162 HD
HETATM   18  C6  UNL     1      -9.612  23.387  -7.712  1.00  0.00     0.182 C 
HETATM   19  N7  UNL     1      -9.751  22.545  -8.904  1.00  0.00    -0.222 N 
ATOM     20  H7  UNL     1     -10.477  21.829  -8.878  1.00  0.00     0.178 HD
BRANCH  13  21
HETATM   21  N5  UNL     1      -6.439  23.238  -8.295  1.00  0.00    -0.040 N 
ATOM     22  H53 UNL     1      -6.144  22.366  -8.733  1.00  0.00     0.279 HD
ATOM     23  H52 UNL     1      -5.520  23.626  -8.082  1.00  0.00     0.279 HD
ATOM     24  H51 UNL     1      -6.980  23.068  -7.447  1.00  0.00     0.279 HD
ENDBRANCH  13  21
ENDBRANCH   9  11
ENDBRANCH   1   9
BRANCH   1  25
HETATM   25  C7  UNL     1      -9.551  20.238 -12.910  1.00  0.00     0.130 A 
HETATM   26  N8  UNL     1     -10.707  20.615 -13.529  1.00  0.00    -0.338 N 
HETATM   27  C8  UNL     1     -11.218  19.571 -14.203  1.00  0.00     0.198 A 
ATOM     28  H8  UNL     1     -11.120  21.547 -13.487  1.00  0.00     0.168 HD
HETATM   29  N9  UNL     1     -10.391  18.536 -14.014  1.00  0.00    -0.295 N 
HETATM   30  N10 UNL     1      -9.409  18.942 -13.247  1.00  0.00    -0.286 N 
ATOM     31  H9  UNL     1     -10.505  17.597 -14.399  1.00  0.00     0.187 HD
ATOM     32  H10 UNL     1      -8.635  18.351 -12.944  1.00  0.00     0.188 HD
ENDBRANCH   1  25
TORSDOF 6
ENDMDL
MODEL 5
REMARK VINA RESULT: -7.434228124      1.919      3.336
REMARK  6 active torsions:
REMARK  status: ('A' for Active; 'I' for Inactive)
REMARK    1  A    between atoms: N1_1  and  N2_4 
REMARK       I    between atoms: N2_4  and  C1_6 
REMARK    2  A    between atoms: C1_6  and  C2_8 
REMARK    3  A    between atoms: C2_8  and  N3_9 
REMARK    4  A    between atoms: C2_8  and  C7_25 
REMARK    5  A    between atoms: N3_9  and  C3_11 
REMARK    6  A    between atoms: C4_14  and  N5_15 
ROOT
HETATM    1  C2  UNL     1      -5.970  20.833 -11.332  1.00  0.00     0.262 C 
ENDROOT
BRANCH   1   2
HETATM    2  C1  UNL     1      -5.383  19.512 -11.005  1.00  0.00     0.266 C 
HETATM    3  N2  UNL     1      -5.079  18.598 -12.022  1.00  0.00    -0.275 N 
ATOM      4  H2  UNL     1      -5.270  18.860 -12.989  1.00  0.00     0.189 HD
HETATM    5  O1  UNL     1      -5.160  19.219  -9.813  1.00  0.00    -0.269 OA
BRANCH   3   6
HETATM    6  N1  UNL     1      -4.525  17.341 -11.766  1.00  0.00    -0.343 N 
ATOM      7  H12 UNL     1      -4.070  17.200 -10.864  1.00  0.00     0.176 HD
ATOM      8  H11 UNL     1      -4.559  16.576 -12.439  1.00  0.00     0.176 HD
ENDBRANCH   3   6
ENDBRANCH   1   2
BRANCH   1   9
HETATM    9  N3  UNL     1      -5.834  21.783 -10.271  1.00  0.00    -0.206 N 
ATOM     10  H3  UNL     1      -4.892  22.030  -9.966  1.00  0.00     0.179 HD
BRANCH   9  11
HETATM   11  C3  UNL     1      -6.940  22.404  -9.615  1.00  0.00     0.674 C 
HETATM   12  N4  UNL     1      -7.314  23.577 -10.003  1.00  0.00    -0.180 N 
HETATM   13  C4  UNL     1      -8.397  24.393  -9.493  1.00  0.00     0.400 C 
ATOM     14  H4  UNL     1      -6.776  23.983 -10.769  1.00  0.00     0.181 HD
HETATM   15  N6  UNL     1      -9.636  23.782  -9.348  1.00  0.00    -0.358 N 
HETATM   16  C5  UNL     1      -9.760  22.450  -8.974  1.00  0.00     0.079 C 
ATOM     17  H6  UNL     1     -10.480  24.328  -9.521  1.00  0.00     0.162 HD
HETATM   18  C6  UNL     1      -8.832  21.926  -7.930  1.00  0.00     0.182 C 
HETATM   19  N7  UNL     1      -7.542  21.651  -8.570  1.00  0.00    -0.222 N 
ATOM     20  H7  UNL     1      -7.026  20.840  -8.232  1.00  0.00     0.178 HD
BRANCH  13  21
HETATM   21  N5  UNL     1      -8.025  25.038  -8.231  1.00  0.00    -0.040 N 
ATOM     22  H53 UNL     1      -8.510  24.617  -7.438  1.00  0.00     0.279 HD
ATOM     23  H52 UNL     1      -7.066  24.815  -7.964  1.00  0.00     0.279 HD
ATOM     24  H51 UNL     1      -8.177  26.046  -8.272  1.00  0.00     0.279 HD
ENDBRANCH  13  21
ENDBRANCH   9  11
ENDBRANCH   1   9
BRANCH   1  25
HETATM   25  C7  UNL     1      -7.414  20.609 -11.607  1.00  0.00     0.130 A 
HETATM   26  N8  UNL     1      -8.273  21.464 -12.235  1.00  0.00    -0.338 N 
HETATM   27  C8  UNL     1      -9.494  20.909 -12.295  1.00  0.00     0.198 A 
ATOM     28  H8  UNL     1      -8.025  22.382 -12.602  1.00  0.00     0.168 HD
HETATM   29  N9  UNL     1      -9.414  19.708 -11.710  1.00  0.00    -0.295 N 
HETATM   30  N10 UNL     1      -8.178  19.541 -11.307  1.00  0.00    -0.286 N 
ATOM     31  H9  UNL     1     -10.177  19.040 -11.599  1.00  0.00     0.187 HD
ATOM     32  H10 UNL     1      -7.838  18.709 -10.825  1.00  0.00     0.188 HD
ENDBRANCH   1  25
TORSDOF 6
ENDMDL
