MODEL 1
REMARK VINA RESULT: -8.360802679      0.000      0.000
REMARK  6 active torsions:
REMARK  status: ('A' for Active; 'I' for Inactive)
REMARK    1  A    between atoms: N1_1  and  C1_4 
REMARK    2  A    between atoms: C2_9  and  N4_10 
REMARK    3  A    between atoms: N4_10  and  C3_12 
REMARK    4  A    between atoms: C3_12  and  C4_13 
REMARK    5  A    between atoms: C3_12  and  C5_18 
REMARK    6  A    between atoms: C4_13  and  N5_14 
REMARK       I    between atoms: C5_18  and  N6_20 
ROOT
HETATM    1  C3  UNL     1      -9.663  20.826 -12.034  1.00  0.00     0.201 C 
ENDROOT
BRANCH   1   2
HETATM    2  N4  UNL     1     -10.359  21.063 -10.839  1.00  0.00    -0.354 N 
ATOM      3  H4  UNL     1     -11.190  20.511 -10.624  1.00  0.00     0.162 HD
BRANCH   2   4
HETATM    4  C2  UNL     1      -9.916  22.079  -9.905  1.00  0.00     0.163 A 
HETATM    5  N3  UNL     1      -9.818  21.974  -8.593  1.00  0.00    -0.278 N 
HETATM    6  N2  UNL     1      -9.367  22.970  -7.925  1.00  0.00    -0.278 N 
ATOM      7  H3  UNL     1     -10.096  21.114  -8.119  1.00  0.00     0.189 HD
HETATM    8  C1  UNL     1      -9.011  24.077  -8.592  1.00  0.00     0.160 A 
ATOM      9  H2  UNL     1      -9.282  22.923  -6.909  1.00  0.00     0.189 HD
HETATM   10  S1  UNL     1      -9.337  23.641 -10.201  1.00  0.00    -0.016 SA
BRANCH   8  11
HETATM   11  N1  UNL     1      -8.553  25.186  -8.071  1.00  0.00    -0.379 N 
ATOM     12  H12 UNL     1      -8.310  25.431  -7.111  1.00  0.00     0.158 HD
ATOM     13  H11 UNL     1      -8.333  26.046  -8.572  1.00  0.00     0.158 HD
ENDBRANCH   8  11
ENDBRANCH   2   4
ENDBRANCH   1   2
BRANCH   1  14
HETATM   14  C4  UNL     1     -10.364  20.307 -13.224  1.00  0.00     0.264 C 
BRANCH  14  15
HETATM   15  N5  UNL     1      -9.760  18.979 -13.573  1.00  0.00    -0.077 N 
ATOM     16  H53 UNL     1      -9.096  19.039 -14.345  1.00  0.00     0.274 HD
ATOM     17  H52 UNL     1      -9.113  18.640 -12.862  1.00  0.00     0.274 HD
ATOM     18  H51 UNL     1     -10.522  18.327 -13.758  1.00  0.00     0.274 HD
ENDBRANCH  14  15
ENDBRANCH   1  14
BRANCH   1  19
HETATM   19  C5  UNL     1      -8.578  19.838 -11.611  1.00  0.00     0.248 C 
HETATM   20  O1  UNL     1      -8.955  18.686 -11.211  1.00  0.00    -0.271 OA
HETATM   21  N6  UNL     1      -7.257  20.240 -11.711  1.00  0.00    -0.295 N 
HETATM   22  C6  UNL     1      -6.393  20.452 -10.863  1.00  0.00     0.212 C 
ATOM     23  H6  UNL     1      -6.941  20.388 -12.670  1.00  0.00     0.172 HD
HETATM   24  N7  UNL     1      -6.430  20.351  -9.454  1.00  0.00    -0.256 N 
HETATM   25  N10 UNL     1      -5.028  20.842 -11.176  1.00  0.00    -0.256 N 
HETATM   26  N8  UNL     1      -5.163  20.449  -8.952  1.00  0.00    -0.006 NA
ATOM     27  H7  UNL     1      -7.274  20.224  -8.896  1.00  0.00     0.187 HD
HETATM   28  N9  UNL     1      -4.279  20.650 -10.007  1.00  0.00    -0.006 NA
ATOM     29  H10 UNL     1      -4.683  21.187 -12.071  1.00  0.00     0.187 HD
ENDBRANCH   1  19
TORSDOF 6
ENDMDL
MODEL 2
REMARK VINA RESULT: -8.165926543      2.127      5.298
REMARK  6 active torsions:
REMARK  status: ('A' for Active; 'I' for Inactive)
REMARK    1  A    between atoms: N1_1  and  C1_4 
REMARK    2  A    between atoms: C2_9  and  N4_10 
REMARK    3  A    between atoms: N4_10  and  C3_12 
REMARK    4  A    between atoms: C3_12  and  C4_13 
REMARK    5  A    between atoms: C3_12  and  C5_18 
REMARK    6  A    between atoms: C4_13  and  N5_14 
REMARK       I    between atoms: C5_18  and  N6_20 
ROOT
HETATM    1  C3  UNL     1      -6.274  21.093 -10.671  1.00  0.00     0.201 C 
ENDROOT
BRANCH   1   2
HETATM    2  N4  UNL     1      -7.540  20.545 -10.408  1.00  0.00    -0.354 N 
ATOM      3  H4  UNL     1      -7.821  20.370  -9.443  1.00  0.00     0.162 HD
BRANCH   2   4
HETATM    4  C2  UNL     1      -8.455  20.225 -11.486  1.00  0.00     0.163 A 
HETATM    5  N3  UNL     1      -8.461  19.140 -12.236  1.00  0.00    -0.278 N 
HETATM    6  N2  UNL     1      -9.376  19.008 -13.124  1.00  0.00    -0.278 N 
ATOM      7  H3  UNL     1      -7.750  18.418 -12.112  1.00  0.00     0.189 HD
HETATM    8  C1  UNL     1     -10.290  19.979 -13.247  1.00  0.00     0.160 A 
ATOM      9  H2  UNL     1      -9.407  18.182 -13.723  1.00  0.00     0.189 HD
HETATM   10  S1  UNL     1      -9.802  21.081 -12.050  1.00  0.00    -0.016 SA
BRANCH   8  11
HETATM   11  N1  UNL     1     -11.275  20.015 -14.108  1.00  0.00    -0.379 N 
ATOM     12  H12 UNL     1     -12.286  19.966 -13.980  1.00  0.00     0.158 HD
ATOM     13  H11 UNL     1     -11.193  20.122 -15.119  1.00  0.00     0.158 HD
ENDBRANCH   8  11
ENDBRANCH   2   4
ENDBRANCH   1   2
BRANCH   1  14
HETATM   14  C4  UNL     1      -5.051  20.294 -10.464  1.00  0.00     0.264 C 
BRANCH  14  15
HETATM   15  N5  UNL     1      -5.217  19.514  -9.194  1.00  0.00    -0.077 N 
ATOM     16  H53 UNL     1      -5.692  20.046  -8.465  1.00  0.00     0.274 HD
ATOM     17  H52 UNL     1      -5.899  18.761  -9.280  1.00  0.00     0.274 HD
ATOM     18  H51 UNL     1      -4.297  19.183  -8.907  1.00  0.00     0.274 HD
ENDBRANCH  14  15
ENDBRANCH   1  14
BRANCH   1  19
HETATM   19  C5  UNL     1      -6.237  22.324  -9.770  1.00  0.00     0.248 C 
HETATM   20  O1  UNL     1      -5.340  22.362  -8.862  1.00  0.00    -0.271 OA
HETATM   21  N6  UNL     1      -7.156  23.331 -10.005  1.00  0.00    -0.295 N 
HETATM   22  C6  UNL     1      -8.101  23.758  -9.343  1.00  0.00     0.212 C 
ATOM     23  H6  UNL     1      -7.026  23.810 -10.896  1.00  0.00     0.172 HD
HETATM   24  N7  UNL     1      -8.593  23.377  -8.075  1.00  0.00    -0.256 N 
HETATM   25  N10 UNL     1      -8.943  24.868  -9.756  1.00  0.00    -0.256 N 
HETATM   26  N8  UNL     1      -9.505  24.296  -7.640  1.00  0.00    -0.006 NA
ATOM     27  H7  UNL     1      -8.310  22.542  -7.562  1.00  0.00     0.187 HD
HETATM   28  N9  UNL     1      -9.657  25.272  -8.619  1.00  0.00    -0.006 NA
ATOM     29  H10 UNL     1      -9.004  25.273 -10.690  1.00  0.00     0.187 HD
ENDBRANCH   1  19
TORSDOF 6
ENDMDL
MODEL 3
REMARK VINA RESULT: -8.153277202      1.782      5.397
REMARK  6 active torsions:
REMARK  status: ('A' for Active; 'I' for Inactive)
REMARK    1  A    between atoms: N1_1  and  C1_4 
REMARK    2  A    between atoms: C2_9  and  N4_10 
REMARK    3  A    between atoms: N4_10  and  C3_12 
REMARK    4  A    between atoms: C3_12  and  C4_13 
REMARK    5  A    between atoms: C3_12  and  C5_18 
REMARK    6  A    between atoms: C4_13  and  N5_14 
REMARK       I    between atoms: C5_18  and  N6_20 
ROOT
HETATM    1  C3  UNL     1      -7.180  20.812 -10.572  1.00  0.00     0.201 C 
ENDROOT
BRANCH   1   2
HETATM    2  N4  UNL     1      -7.869  19.634 -10.899  1.00  0.00    -0.354 N 
ATOM      3  H4  UNL     1      -7.709  18.789 -10.350  1.00  0.00     0.162 HD
BRANCH   2   4
HETATM    4  C2  UNL     1      -8.806  19.599 -12.004  1.00  0.00     0.163 A 
HETATM    5  N3  UNL     1      -8.963  18.635 -12.892  1.00  0.00    -0.278 N 
HETATM    6  N2  UNL     1      -9.874  18.759 -13.784  1.00  0.00    -0.278 N 
ATOM      7  H3  UNL     1      -8.368  17.806 -12.868  1.00  0.00     0.189 HD
HETATM    8  C1  UNL     1     -10.633  19.863 -13.772  1.00  0.00     0.160 A 
ATOM      9  H2  UNL     1     -10.019  18.034 -14.487  1.00  0.00     0.189 HD
HETATM   10  S1  UNL     1     -10.003  20.713 -12.443  1.00  0.00    -0.016 SA
BRANCH   8  11
HETATM   11  N1  UNL     1     -11.589  20.159 -14.615  1.00  0.00    -0.379 N 
ATOM     12  H12 UNL     1     -11.629  20.116 -15.633  1.00  0.00     0.158 HD
ATOM     13  H11 UNL     1     -12.524  20.491 -14.379  1.00  0.00     0.158 HD
ENDBRANCH   8  11
ENDBRANCH   2   4
ENDBRANCH   1   2
BRANCH   1  14
HETATM   14  C4  UNL     1      -5.717  20.800 -10.379  1.00  0.00     0.264 C 
BRANCH  14  15
HETATM   15  N5  UNL     1      -5.402  19.810  -9.297  1.00  0.00    -0.077 N 
ATOM     16  H53 UNL     1      -6.214  19.580  -8.724  1.00  0.00     0.274 HD
ATOM     17  H52 UNL     1      -5.221  18.874  -9.659  1.00  0.00     0.274 HD
ATOM     18  H51 UNL     1      -4.625  20.180  -8.750  1.00  0.00     0.274 HD
ENDBRANCH  14  15
ENDBRANCH   1  14
BRANCH   1  19
HETATM   19  C5  UNL     1      -7.860  21.263  -9.282  1.00  0.00     0.248 C 
HETATM   20  O1  UNL     1      -8.478  20.377  -8.601  1.00  0.00    -0.271 OA
HETATM   21  N6  UNL     1      -7.745  22.593  -8.916  1.00  0.00    -0.295 N 
HETATM   22  C6  UNL     1      -8.572  23.498  -8.826  1.00  0.00     0.212 C 
ATOM     23  H6  UNL     1      -6.795  22.875  -8.675  1.00  0.00     0.172 HD
HETATM   24  N7  UNL     1      -9.966  23.509  -9.056  1.00  0.00    -0.256 N 
HETATM   25  N10 UNL     1      -8.254  24.845  -8.382  1.00  0.00    -0.256 N 
HETATM   26  N8  UNL     1     -10.501  24.677  -8.592  1.00  0.00    -0.006 NA
ATOM     27  H7  UNL     1     -10.493  22.758  -9.502  1.00  0.00     0.187 HD
HETATM   28  N9  UNL     1      -9.475  25.467  -8.083  1.00  0.00    -0.006 NA
ATOM     29  H10 UNL     1      -7.325  25.258  -8.304  1.00  0.00     0.187 HD
ENDBRANCH   1  19
TORSDOF 6
ENDMDL
MODEL 4
REMARK VINA RESULT: -7.635327190      2.088      4.430
REMARK  6 active torsions:
REMARK  status: ('A' for Active; 'I' for Inactive)
REMARK    1  A    between atoms: N1_1  and  C1_4 
REMARK    2  A    between atoms: C2_9  and  N4_10 
REMARK    3  A    between atoms: N4_10  and  C3_12 
REMARK    4  A    between atoms: C3_12  and  C4_13 
REMARK    5  A    between atoms: C3_12  and  C5_18 
REMARK    6  A    between atoms: C4_13  and  N5_14 
REMARK       I    between atoms: C5_18  and  N6_20 
ROOT
HETATM    1  C3  UNL     1      -8.690  23.179  -8.044  1.00  0.00     0.201 C 
ENDROOT
BRANCH   1   2
HETATM    2  N4  UNL     1      -8.910  21.810  -8.261  1.00  0.00    -0.354 N 
ATOM      3  H4  UNL     1      -8.901  21.168  -7.467  1.00  0.00     0.162 HD
BRANCH   2   4
HETATM    4  C2  UNL     1      -9.151  21.293  -9.593  1.00  0.00     0.163 A 
HETATM    5  N3  UNL     1      -8.704  20.163 -10.107  1.00  0.00    -0.278 N 
HETATM    6  N2  UNL     1      -9.052  19.846 -11.299  1.00  0.00    -0.278 N 
ATOM      7  H3  UNL     1      -8.092  19.552  -9.565  1.00  0.00     0.189 HD
HETATM    8  C1  UNL     1      -9.861  20.678 -11.970  1.00  0.00     0.160 A 
ATOM      9  H2  UNL     1      -8.722  18.981 -11.728  1.00  0.00     0.189 HD
HETATM   10  S1  UNL     1     -10.109  21.921 -10.839  1.00  0.00    -0.016 SA
BRANCH   8  11
HETATM   11  N1  UNL     1     -10.296  20.521 -13.194  1.00  0.00    -0.379 N 
ATOM     12  H12 UNL     1     -10.497  19.681 -13.736  1.00  0.00     0.158 HD
ATOM     13  H11 UNL     1     -10.539  21.262 -13.851  1.00  0.00     0.158 HD
ENDBRANCH   8  11
ENDBRANCH   2   4
ENDBRANCH   1   2
BRANCH   1  14
HETATM   14  C4  UNL     1      -9.511  24.192  -8.733  1.00  0.00     0.264 C 
BRANCH  14  15
HETATM   15  N5  UNL     1      -9.362  25.489  -7.995  1.00  0.00    -0.077 N 
ATOM     16  H53 UNL     1      -9.241  26.286  -8.619  1.00  0.00     0.274 HD
ATOM     17  H52 UNL     1     -10.228  25.793  -7.551  1.00  0.00     0.274 HD
ATOM     18  H51 UNL     1      -8.594  25.386  -7.332  1.00  0.00     0.274 HD
ENDBRANCH  14  15
ENDBRANCH   1  14
BRANCH   1  19
HETATM   19  C5  UNL     1      -7.226  23.359  -8.434  1.00  0.00     0.248 C 
HETATM   20  O1  UNL     1      -6.831  24.542  -8.710  1.00  0.00    -0.271 OA
HETATM   21  N6  UNL     1      -6.411  22.240  -8.440  1.00  0.00    -0.295 N 
HETATM   22  C6  UNL     1      -5.838  21.642  -9.350  1.00  0.00     0.212 C 
ATOM     23  H6  UNL     1      -6.258  21.835  -7.517  1.00  0.00     0.172 HD
HETATM   24  N7  UNL     1      -5.791  21.890 -10.739  1.00  0.00    -0.256 N 
HETATM   25  N10 UNL     1      -4.984  20.484  -9.145  1.00  0.00    -0.256 N 
HETATM   26  N8  UNL     1      -4.831  21.107 -11.315  1.00  0.00    -0.006 NA
ATOM     27  H7  UNL     1      -6.384  22.554 -11.238  1.00  0.00     0.187 HD
HETATM   28  N9  UNL     1      -4.257  20.309 -10.331  1.00  0.00    -0.006 NA
ATOM     29  H10 UNL     1      -4.925  19.911  -8.304  1.00  0.00     0.187 HD
ENDBRANCH   1  19
TORSDOF 6
ENDMDL
MODEL 5
REMARK VINA RESULT: -7.632532255      2.150      4.687
REMARK  6 active torsions:
REMARK  status: ('A' for Active; 'I' for Inactive)
REMARK    1  A    between atoms: N1_1  and  C1_4 
REMARK    2  A    between atoms: C2_9  and  N4_10 
REMARK    3  A    between atoms: N4_10  and  C3_12 
REMARK    4  A    between atoms: C3_12  and  C4_13 
REMARK    5  A    between atoms: C3_12  and  C5_18 
REMARK    6  A    between atoms: C4_13  and  N5_14 
REMARK       I    between atoms: C5_18  and  N6_20 
ROOT
HETATM    1  C3  UNL     1      -9.877  21.759 -10.844  1.00  0.00     0.201 C 
ENDROOT
BRANCH   1   2
HETATM    2  N4  UNL     1      -9.340  21.495 -12.113  1.00  0.00    -0.354 N 
ATOM      3  H4  UNL     1      -8.568  22.064 -12.460  1.00  0.00     0.162 HD
BRANCH   2   4
HETATM    4  C2  UNL     1      -9.866  20.427 -12.940  1.00  0.00     0.163 A 
HETATM    5  N3  UNL     1     -10.869  20.494 -13.795  1.00  0.00    -0.278 N 
HETATM    6  N2  UNL     1     -11.173  19.451 -14.474  1.00  0.00    -0.278 N 
ATOM      7  H3  UNL     1     -11.393  21.362 -13.914  1.00  0.00     0.189 HD
HETATM    8  C1  UNL     1     -10.453  18.336 -14.287  1.00  0.00     0.160 A 
ATOM      9  H2  UNL     1     -11.945  19.468 -15.141  1.00  0.00     0.189 HD
HETATM   10  S1  UNL     1      -9.328  18.832 -13.115  1.00  0.00    -0.016 SA
BRANCH   8  11
HETATM   11  N1  UNL     1     -10.637  17.183 -14.878  1.00  0.00    -0.379 N 
ATOM     12  H12 UNL     1     -10.082  16.684 -15.572  1.00  0.00     0.158 HD
ATOM     13  H11 UNL     1     -11.412  16.538 -14.721  1.00  0.00     0.158 HD
ENDBRANCH   8  11
ENDBRANCH   2   4
ENDBRANCH   1   2
BRANCH   1  14
HETATM   14  C4  UNL     1      -9.923  23.137 -10.317  1.00  0.00     0.264 C 
BRANCH  14  15
HETATM   15  N5  UNL     1     -10.925  23.172  -9.202  1.00  0.00    -0.077 N 
ATOM     16  H53 UNL     1     -11.576  22.387  -9.232  1.00  0.00     0.274 HD
ATOM     17  H52 UNL     1     -10.510  22.970  -8.292  1.00  0.00     0.274 HD
ATOM     18  H51 UNL     1     -11.395  24.076  -9.230  1.00  0.00     0.274 HD
ENDBRANCH  14  15
ENDBRANCH   1  14
BRANCH   1  19
HETATM   19  C5  UNL     1      -9.025  20.891  -9.922  1.00  0.00     0.248 C 
HETATM   20  O1  UNL     1      -9.534  20.546  -8.802  1.00  0.00    -0.271 OA
HETATM   21  N6  UNL     1      -7.770  20.509 -10.363  1.00  0.00    -0.295 N 
HETATM   22  C6  UNL     1      -6.638  20.785  -9.970  1.00  0.00     0.212 C 
ATOM     23  H6  UNL     1      -7.788  19.880 -11.166  1.00  0.00     0.172 HD
HETATM   24  N7  UNL     1      -6.199  21.596  -8.900  1.00  0.00    -0.256 N 
HETATM   25  N10 UNL     1      -5.423  20.245 -10.556  1.00  0.00    -0.256 N 
HETATM   26  N8  UNL     1      -4.861  21.407  -8.698  1.00  0.00    -0.006 NA
ATOM     27  H7  UNL     1      -6.791  22.227  -8.360  1.00  0.00     0.187 HD
HETATM   28  N9  UNL     1      -4.390  20.503  -9.645  1.00  0.00    -0.006 NA
ATOM     29  H10 UNL     1      -5.338  19.772 -11.455  1.00  0.00     0.187 HD
ENDBRANCH   1  19
TORSDOF 6
ENDMDL
