MODEL 1
REMARK VINA RESULT: -8.034961739      0.000      0.000
REMARK  8 active torsions:
REMARK  status: ('A' for Active; 'I' for Inactive)
REMARK    1  A    between atoms: C2_2  and  N3_8 
REMARK    2  A    between atoms: N1_3  and  N2_5 
REMARK       I    between atoms: N3_8  and  C3_10 
REMARK       I    between atoms: C3_10  and  N4_11 
REMARK       I    between atoms: C3_10  and  N5_15 
REMARK    3  A    between atoms: N5_15  and  N6_17 
REMARK    4  A    between atoms: N7_19  and  N8_21 
REMARK    5  A    between atoms: N8_21  and  N9_22 
REMARK    6  A    between atoms: N8_21  and  N10_25 
REMARK    7  A    between atoms: N10_25  and  C4_27 
REMARK    8  A    between atoms: N12_32  and  N13_33 
ROOT
HETATM    1  N6  UNL     1     -11.619  -9.425   6.687  1.00  0.00    -0.227 N 
ATOM      2  H6  UNL     1     -10.625  -9.652   6.709  1.00  0.00     0.209 HD
HETATM    3  N7  UNL     1     -12.296  -9.209   7.747  1.00  0.00    -0.192 N 
ATOM      4  H7  UNL     1     -13.290  -8.983   7.704  1.00  0.00     0.213 HD
ENDROOT
BRANCH   3   5
HETATM    5  N8  UNL     1     -11.624  -9.293   8.967  1.00  0.00    -0.120 N 
BRANCH   5   6
HETATM    6  N9  UNL     1     -10.444  -8.637   9.249  1.00  0.00    -0.308 N 
ATOM      7  H92 UNL     1      -9.887  -8.289   8.468  1.00  0.00     0.180 HD
ATOM      8  H91 UNL     1     -10.088  -8.476  10.192  1.00  0.00     0.180 HD
ENDBRANCH   5   6
BRANCH   5   9
HETATM    9  N10 UNL     1     -12.191 -10.098   9.969  1.00  0.00    -0.243 N 
ATOM     10  H10 UNL     1     -12.028 -11.105   9.938  1.00  0.00     0.192 HD
BRANCH   9  11
HETATM   11  C4  UNL     1     -12.977  -9.574  11.016  1.00  0.00     0.190 C 
HETATM   12  N11 UNL     1     -14.253  -9.573  10.980  1.00  0.00    -0.369 N 
HETATM   13  C5  UNL     1     -15.118  -9.066  11.985  1.00  0.00     0.143 C 
ATOM     14  H11 UNL     1     -14.691  -9.973  10.151  1.00  0.00     0.161 HD
HETATM   15  C6  UNL     1     -14.468  -9.029  13.323  1.00  0.00     0.171 C 
HETATM   16  N12 UNL     1     -13.115  -8.531  13.240  1.00  0.00    -0.259 N 
HETATM   17  C7  UNL     1     -12.317  -9.033  12.190  1.00  0.00     0.306 C 
HETATM   18  O1  UNL     1     -11.083  -9.013  12.268  1.00  0.00    -0.262 OA
BRANCH  16  19
HETATM   19  N13 UNL     1     -12.650  -7.611  14.155  1.00  0.00    -0.340 N 
ATOM     20 2H13 UNL     1     -13.263  -7.130  14.813  1.00  0.00     0.177 HD
ATOM     21 1H13 UNL     1     -11.658  -7.381  14.200  1.00  0.00     0.177 HD
ENDBRANCH  16  19
ENDBRANCH   9  11
ENDBRANCH   5   9
ENDBRANCH   3   5
BRANCH   1  22
HETATM   22  N5  UNL     1     -12.348  -9.327   5.477  1.00  0.00    -0.274 N 
HETATM   23  C3  UNL     1     -11.953  -8.372   4.487  1.00  0.00     0.403 C 
HETATM   24  N3  UNL     1     -12.800  -8.457   3.336  1.00  0.00    -0.335 N 
HETATM   25  N4  UNL     1     -10.538  -8.355   4.191  1.00  0.00    -0.039 N 
ATOM     26  H3  UNL     1     -13.508  -7.729   3.245  1.00  0.00     0.164 HD
ATOM     27  H43 UNL     1     -10.284  -9.164   3.624  1.00  0.00     0.279 HD
ATOM     28  H42 UNL     1     -10.321  -7.605   3.534  1.00  0.00     0.279 HD
ATOM     29  H41 UNL     1      -9.935  -8.294   5.011  1.00  0.00     0.279 HD
ATOM     30  H5  UNL     1     -13.150  -9.935   5.312  1.00  0.00     0.186 HD
BRANCH  24  31
HETATM   31  C2  UNL     1     -12.772  -9.425   2.317  1.00  0.00     0.090 C 
HETATM   32  C1  UNL     1     -13.933 -10.418   2.309  1.00  0.00     0.090 C 
HETATM   33  N1  UNL     1     -11.936  -9.606   1.397  1.00  0.00    -0.296 N 
ATOM     34  H1  UNL     1     -12.169 -10.392   0.789  1.00  0.00     0.187 HD
BRANCH  33  35
HETATM   35  N2  UNL     1     -10.780  -8.972   1.039  1.00  0.00    -0.344 N 
ATOM     36  H22 UNL     1      -9.983  -9.292   1.590  1.00  0.00     0.176 HD
ATOM     37  H21 UNL     1     -10.558  -8.259   0.345  1.00  0.00     0.176 HD
ENDBRANCH  33  35
ENDBRANCH  24  31
ENDBRANCH   1  22
TORSDOF 8
ENDMDL
MODEL 2
REMARK VINA RESULT: -7.821107618      2.318      8.300
REMARK  8 active torsions:
REMARK  status: ('A' for Active; 'I' for Inactive)
REMARK    1  A    between atoms: C2_2  and  N3_8 
REMARK    2  A    between atoms: N1_3  and  N2_5 
REMARK       I    between atoms: N3_8  and  C3_10 
REMARK       I    between atoms: C3_10  and  N4_11 
REMARK       I    between atoms: C3_10  and  N5_15 
REMARK    3  A    between atoms: N5_15  and  N6_17 
REMARK    4  A    between atoms: N7_19  and  N8_21 
REMARK    5  A    between atoms: N8_21  and  N9_22 
REMARK    6  A    between atoms: N8_21  and  N10_25 
REMARK    7  A    between atoms: N10_25  and  C4_27 
REMARK    8  A    between atoms: N12_32  and  N13_33 
ROOT
HETATM    1  N6  UNL     1     -11.944  -9.375   8.096  1.00  0.00    -0.227 N 
ATOM      2  H6  UNL     1     -12.881  -9.544   7.729  1.00  0.00     0.209 HD
HETATM    3  N7  UNL     1     -10.962  -9.056   7.346  1.00  0.00    -0.192 N 
ATOM      4  H7  UNL     1     -10.033  -8.891   7.732  1.00  0.00     0.213 HD
ENDROOT
BRANCH   3   5
HETATM    5  N8  UNL     1     -11.209  -8.944   5.977  1.00  0.00    -0.120 N 
BRANCH   5   6
HETATM    6  N9  UNL     1     -10.553  -8.064   5.141  1.00  0.00    -0.308 N 
ATOM      7  H92 UNL     1      -9.637  -8.333   4.783  1.00  0.00     0.180 HD
ATOM      8  H91 UNL     1     -10.924  -7.157   4.856  1.00  0.00     0.180 HD
ENDBRANCH   5   6
BRANCH   5   9
HETATM    9  N10 UNL     1     -12.188  -9.784   5.420  1.00  0.00    -0.243 N 
ATOM     10  H10 UNL     1     -12.335 -10.705   5.833  1.00  0.00     0.192 HD
BRANCH   9  11
HETATM   11  C4  UNL     1     -12.978  -9.407   4.314  1.00  0.00     0.190 C 
HETATM   12  N11 UNL     1     -12.488  -9.255   3.145  1.00  0.00    -0.369 N 
HETATM   13  C5  UNL     1     -13.207  -8.877   1.980  1.00  0.00     0.143 C 
ATOM     14  H11 UNL     1     -11.488  -9.419   3.038  1.00  0.00     0.161 HD
HETATM   15  C6  UNL     1     -14.657  -9.196   2.083  1.00  0.00     0.171 C 
HETATM   16  N12 UNL     1     -15.185  -8.847   3.382  1.00  0.00    -0.259 N 
HETATM   17  C7  UNL     1     -14.402  -9.203   4.501  1.00  0.00     0.306 C 
HETATM   18  O1  UNL     1     -14.918  -9.338   5.616  1.00  0.00    -0.262 OA
BRANCH  16  19
HETATM   19  N13 UNL     1     -16.396  -8.199   3.494  1.00  0.00    -0.340 N 
ATOM     20 2H13 UNL     1     -16.485  -7.184   3.443  1.00  0.00     0.177 HD
ATOM     21 1H13 UNL     1     -17.256  -8.729   3.634  1.00  0.00     0.177 HD
ENDBRANCH  16  19
ENDBRANCH   9  11
ENDBRANCH   5   9
ENDBRANCH   3   5
BRANCH   1  22
HETATM   22  N5  UNL     1     -11.641  -9.475   9.475  1.00  0.00    -0.274 N 
HETATM   23  C3  UNL     1     -11.658  -8.300  10.293  1.00  0.00     0.403 C 
HETATM   24  N3  UNL     1     -11.353  -8.626  11.652  1.00  0.00    -0.335 N 
HETATM   25  N4  UNL     1     -12.824  -7.462  10.124  1.00  0.00    -0.039 N 
ATOM     26  H3  UNL     1     -10.410  -8.400  11.967  1.00  0.00     0.164 HD
ATOM     27  H43 UNL     1     -13.634  -7.884  10.577  1.00  0.00     0.279 HD
ATOM     28  H42 UNL     1     -12.734  -6.612  10.681  1.00  0.00     0.279 HD
ATOM     29  H41 UNL     1     -13.042  -7.229   9.155  1.00  0.00     0.279 HD
ATOM     30  H5  UNL     1     -11.411 -10.381   9.884  1.00  0.00     0.186 HD
BRANCH  24  31
HETATM   31  C2  UNL     1     -12.198  -9.221  12.606  1.00  0.00     0.090 C 
HETATM   32  C1  UNL     1     -12.587 -10.674  12.337  1.00  0.00     0.090 C 
HETATM   33  N1  UNL     1     -12.690  -8.745  13.659  1.00  0.00    -0.296 N 
ATOM     34  H1  UNL     1     -13.273  -9.410  14.168  1.00  0.00     0.187 HD
BRANCH  33  35
HETATM   35  N2  UNL     1     -12.607  -7.524  14.266  1.00  0.00    -0.344 N 
ATOM     36  H22 UNL     1     -12.550  -6.764  13.588  1.00  0.00     0.176 HD
ATOM     37  H21 UNL     1     -12.592  -7.225  15.241  1.00  0.00     0.176 HD
ENDBRANCH  33  35
ENDBRANCH  24  31
ENDBRANCH   1  22
TORSDOF 8
ENDMDL
MODEL 3
REMARK VINA RESULT: -7.736283768      2.659      8.263
REMARK  8 active torsions:
REMARK  status: ('A' for Active; 'I' for Inactive)
REMARK    1  A    between atoms: C2_2  and  N3_8 
REMARK    2  A    between atoms: N1_3  and  N2_5 
REMARK       I    between atoms: N3_8  and  C3_10 
REMARK       I    between atoms: C3_10  and  N4_11 
REMARK       I    between atoms: C3_10  and  N5_15 
REMARK    3  A    between atoms: N5_15  and  N6_17 
REMARK    4  A    between atoms: N7_19  and  N8_21 
REMARK    5  A    between atoms: N8_21  and  N9_22 
REMARK    6  A    between atoms: N8_21  and  N10_25 
REMARK    7  A    between atoms: N10_25  and  C4_27 
REMARK    8  A    between atoms: N12_32  and  N13_33 
ROOT
HETATM    1  N6  UNL     1     -11.765  -9.342   8.151  1.00  0.00    -0.227 N 
ATOM      2  H6  UNL     1     -12.679  -9.501   7.728  1.00  0.00     0.209 HD
HETATM    3  N7  UNL     1     -10.745  -8.996   7.467  1.00  0.00    -0.192 N 
ATOM      4  H7  UNL     1      -9.838  -8.842   7.908  1.00  0.00     0.213 HD
ENDROOT
BRANCH   3   5
HETATM    5  N8  UNL     1     -10.916  -8.839   6.091  1.00  0.00    -0.120 N 
BRANCH   5   6
HETATM    6  N9  UNL     1     -10.357  -7.817   5.352  1.00  0.00    -0.308 N 
ATOM      7  H92 UNL     1     -10.013  -6.995   5.849  1.00  0.00     0.180 HD
ATOM      8  H91 UNL     1     -10.264  -7.828   4.336  1.00  0.00     0.180 HD
ENDBRANCH   5   6
BRANCH   5   9
HETATM    9  N10 UNL     1     -11.710  -9.785   5.421  1.00  0.00    -0.243 N 
ATOM     10  H10 UNL     1     -11.432 -10.766   5.452  1.00  0.00     0.192 HD
BRANCH   9  11
HETATM   11  C4  UNL     1     -12.875  -9.436   4.706  1.00  0.00     0.190 C 
HETATM   12  N11 UNL     1     -14.044  -9.553   5.205  1.00  0.00    -0.369 N 
HETATM   13  C5  UNL     1     -15.266  -9.228   4.558  1.00  0.00     0.143 C 
ATOM     14  H11 UNL     1     -14.106  -9.914   6.156  1.00  0.00     0.161 HD
HETATM   15  C6  UNL     1     -15.079  -8.234   3.466  1.00  0.00     0.171 C 
HETATM   16  N12 UNL     1     -13.916  -8.539   2.666  1.00  0.00    -0.259 N 
HETATM   17  C7  UNL     1     -12.745  -8.904   3.362  1.00  0.00     0.306 C 
HETATM   18  O1  UNL     1     -11.631  -8.775   2.839  1.00  0.00    -0.262 OA
BRANCH  16  19
HETATM   19  N13 UNL     1     -13.975  -8.467   1.291  1.00  0.00    -0.340 N 
ATOM     20 2H13 UNL     1     -14.826  -8.665   0.764  1.00  0.00     0.177 HD
ATOM     21 1H13 UNL     1     -13.150  -8.210   0.749  1.00  0.00     0.177 HD
ENDBRANCH  16  19
ENDBRANCH   9  11
ENDBRANCH   5   9
ENDBRANCH   3   5
BRANCH   1  22
HETATM   22  N5  UNL     1     -11.536  -9.488   9.540  1.00  0.00    -0.274 N 
HETATM   23  C3  UNL     1     -11.524  -8.330  10.383  1.00  0.00     0.403 C 
HETATM   24  N3  UNL     1     -11.307  -8.701  11.748  1.00  0.00    -0.335 N 
HETATM   25  N4  UNL     1     -12.628  -7.420  10.177  1.00  0.00    -0.039 N 
ATOM     26  H3  UNL     1     -10.368  -8.538  12.113  1.00  0.00     0.164 HD
ATOM     27  H43 UNL     1     -13.483  -7.801  10.581  1.00  0.00     0.279 HD
ATOM     28  H42 UNL     1     -12.516  -6.588  10.757  1.00  0.00     0.279 HD
ATOM     29  H41 UNL     1     -12.783  -7.156   9.204  1.00  0.00     0.279 HD
ATOM     30  H5  UNL     1     -11.381 -10.414   9.939  1.00  0.00     0.186 HD
BRANCH  24  31
HETATM   31  C2  UNL     1     -12.232  -9.262  12.645  1.00  0.00     0.090 C 
HETATM   32  C1  UNL     1     -12.662 -10.698  12.349  1.00  0.00     0.090 C 
HETATM   33  N1  UNL     1     -12.768  -8.767  13.668  1.00  0.00    -0.296 N 
ATOM     34  H1  UNL     1     -13.407  -9.409  14.138  1.00  0.00     0.187 HD
BRANCH  33  35
HETATM   35  N2  UNL     1     -12.674  -7.552  14.284  1.00  0.00    -0.344 N 
ATOM     36  H22 UNL     1     -11.790  -7.444  14.781  1.00  0.00     0.176 HD
ATOM     37  H21 UNL     1     -13.296  -6.747  14.345  1.00  0.00     0.176 HD
ENDBRANCH  33  35
ENDBRANCH  24  31
ENDBRANCH   1  22
TORSDOF 8
ENDMDL
MODEL 4
REMARK VINA RESULT: -7.691081974      2.422      8.180
REMARK  8 active torsions:
REMARK  status: ('A' for Active; 'I' for Inactive)
REMARK    1  A    between atoms: C2_2  and  N3_8 
REMARK    2  A    between atoms: N1_3  and  N2_5 
REMARK       I    between atoms: N3_8  and  C3_10 
REMARK       I    between atoms: C3_10  and  N4_11 
REMARK       I    between atoms: C3_10  and  N5_15 
REMARK    3  A    between atoms: N5_15  and  N6_17 
REMARK    4  A    between atoms: N7_19  and  N8_21 
REMARK    5  A    between atoms: N8_21  and  N9_22 
REMARK    6  A    between atoms: N8_21  and  N10_25 
REMARK    7  A    between atoms: N10_25  and  C4_27 
REMARK    8  A    between atoms: N12_32  and  N13_33 
ROOT
HETATM    1  N6  UNL     1     -11.937  -9.310   8.031  1.00  0.00    -0.227 N 
ATOM      2  H6  UNL     1     -12.892  -9.394   7.682  1.00  0.00     0.209 HD
HETATM    3  N7  UNL     1     -10.946  -9.080   7.261  1.00  0.00    -0.192 N 
ATOM      4  H7  UNL     1      -9.997  -8.999   7.628  1.00  0.00     0.213 HD
ENDROOT
BRANCH   3   5
HETATM    5  N8  UNL     1     -11.208  -8.943   5.897  1.00  0.00    -0.120 N 
BRANCH   5   6
HETATM    6  N9  UNL     1     -10.580  -8.032   5.074  1.00  0.00    -0.308 N 
ATOM      7  H92 UNL     1     -10.064  -7.267   5.508  1.00  0.00     0.180 HD
ATOM      8  H91 UNL     1     -10.600  -8.070   4.054  1.00  0.00     0.180 HD
ENDBRANCH   5   6
BRANCH   5   9
HETATM    9  N10 UNL     1     -12.174  -9.793   5.332  1.00  0.00    -0.243 N 
ATOM     10  H10 UNL     1     -12.294 -10.727   5.724  1.00  0.00     0.192 HD
BRANCH   9  11
HETATM   11  C4  UNL     1     -12.986  -9.409   4.244  1.00  0.00     0.190 C 
HETATM   12  N11 UNL     1     -12.523  -9.261   3.064  1.00  0.00    -0.369 N 
HETATM   13  C5  UNL     1     -13.264  -8.877   1.916  1.00  0.00     0.143 C 
ATOM     14  H11 UNL     1     -11.526  -9.434   2.934  1.00  0.00     0.161 HD
HETATM   15  C6  UNL     1     -14.714  -9.183   2.053  1.00  0.00     0.171 C 
HETATM   16  N12 UNL     1     -15.209  -8.830   3.363  1.00  0.00    -0.259 N 
HETATM   17  C7  UNL     1     -14.404  -9.193   4.464  1.00  0.00     0.306 C 
HETATM   18  O1  UNL     1     -14.895  -9.325   5.591  1.00  0.00    -0.262 OA
BRANCH  16  19
HETATM   19  N13 UNL     1     -16.411  -8.172   3.504  1.00  0.00    -0.340 N 
ATOM     20 2H13 UNL     1     -16.864  -7.679   2.734  1.00  0.00     0.177 HD
ATOM     21 1H13 UNL     1     -16.893  -8.158   4.403  1.00  0.00     0.177 HD
ENDBRANCH  16  19
ENDBRANCH   9  11
ENDBRANCH   5   9
ENDBRANCH   3   5
BRANCH   1  22
HETATM   22  N5  UNL     1     -11.616  -9.440   9.403  1.00  0.00    -0.274 N 
HETATM   23  C3  UNL     1     -11.605  -8.279  10.242  1.00  0.00     0.403 C 
HETATM   24  N3  UNL     1     -11.287  -8.634  11.591  1.00  0.00    -0.335 N 
HETATM   25  N4  UNL     1     -12.762  -7.422  10.104  1.00  0.00    -0.039 N 
ATOM     26  H3  UNL     1     -10.336  -8.426  11.896  1.00  0.00     0.164 HD
ATOM     27  H43 UNL     1     -13.571  -7.841  10.561  1.00  0.00     0.279 HD
ATOM     28  H42 UNL     1     -12.652  -6.583  10.675  1.00  0.00     0.279 HD
ATOM     29  H41 UNL     1     -12.989  -7.169   9.143  1.00  0.00     0.279 HD
ATOM     30  H5  UNL     1     -11.393 -10.356   9.793  1.00  0.00     0.186 HD
BRANCH  24  31
HETATM   31  C2  UNL     1     -12.127  -9.234  12.545  1.00  0.00     0.090 C 
HETATM   32  C1  UNL     1     -12.694  -8.301  13.614  1.00  0.00     0.090 C 
HETATM   33  N1  UNL     1     -12.494 -10.430  12.661  1.00  0.00    -0.296 N 
ATOM     34  H1  UNL     1     -13.115 -10.585  13.455  1.00  0.00     0.187 HD
BRANCH  33  35
HETATM   35  N2  UNL     1     -12.237 -11.565  11.947  1.00  0.00    -0.344 N 
ATOM     36  H22 UNL     1     -11.599 -11.390  11.170  1.00  0.00     0.176 HD
ATOM     37  H21 UNL     1     -12.547 -12.532  12.032  1.00  0.00     0.176 HD
ENDBRANCH  33  35
ENDBRANCH  24  31
ENDBRANCH   1  22
TORSDOF 8
ENDMDL
MODEL 5
REMARK VINA RESULT: -7.580030710      1.329      1.666
REMARK  8 active torsions:
REMARK  status: ('A' for Active; 'I' for Inactive)
REMARK    1  A    between atoms: C2_2  and  N3_8 
REMARK    2  A    between atoms: N1_3  and  N2_5 
REMARK       I    between atoms: N3_8  and  C3_10 
REMARK       I    between atoms: C3_10  and  N4_11 
REMARK       I    between atoms: C3_10  and  N5_15 
REMARK    3  A    between atoms: N5_15  and  N6_17 
REMARK    4  A    between atoms: N7_19  and  N8_21 
REMARK    5  A    between atoms: N8_21  and  N9_22 
REMARK    6  A    between atoms: N8_21  and  N10_25 
REMARK    7  A    between atoms: N10_25  and  C4_27 
REMARK    8  A    between atoms: N12_32  and  N13_33 
ROOT
HETATM    1  N6  UNL     1     -11.522  -9.513   6.598  1.00  0.00    -0.227 N 
ATOM      2  H6  UNL     1     -10.554  -9.835   6.610  1.00  0.00     0.209 HD
HETATM    3  N7  UNL     1     -12.137  -9.158   7.659  1.00  0.00    -0.192 N 
ATOM      4  H7  UNL     1     -13.106  -8.839   7.627  1.00  0.00     0.213 HD
ENDROOT
BRANCH   3   5
HETATM    5  N8  UNL     1     -11.435  -9.224   8.862  1.00  0.00    -0.120 N 
BRANCH   5   6
HETATM    6  N9  UNL     1     -10.318  -8.467   9.151  1.00  0.00    -0.308 N 
ATOM      7  H92 UNL     1      -9.436  -8.722   8.708  1.00  0.00     0.180 HD
ATOM      8  H91 UNL     1     -10.315  -7.666   9.782  1.00  0.00     0.180 HD
ENDBRANCH   5   6
BRANCH   5   9
HETATM    9  N10 UNL     1     -11.900 -10.119   9.841  1.00  0.00    -0.243 N 
ATOM     10  H10 UNL     1     -11.789 -11.121   9.679  1.00  0.00     0.192 HD
BRANCH   9  11
HETATM   11  C4  UNL     1     -12.515  -9.693  11.036  1.00  0.00     0.190 C 
HETATM   12  N11 UNL     1     -11.870  -9.566  12.129  1.00  0.00    -0.369 N 
HETATM   13  C5  UNL     1     -12.407  -9.145  13.374  1.00  0.00     0.143 C 
ATOM     14  H11 UNL     1     -10.875  -9.787  12.107  1.00  0.00     0.161 HD
HETATM   15  C6  UNL     1     -13.648  -8.341  13.210  1.00  0.00     0.171 C 
HETATM   16  N12 UNL     1     -14.528  -8.919  12.221  1.00  0.00    -0.259 N 
HETATM   17  C7  UNL     1     -13.929  -9.366  11.023  1.00  0.00     0.306 C 
HETATM   18  O1  UNL     1     -14.594  -9.475   9.986  1.00  0.00    -0.262 OA
BRANCH  16  19
HETATM   19  N13 UNL     1     -15.881  -9.018  12.460  1.00  0.00    -0.340 N 
ATOM     20 2H13 UNL     1     -16.533  -9.416  11.785  1.00  0.00     0.177 HD
ATOM     21 1H13 UNL     1     -16.277  -8.688  13.340  1.00  0.00     0.177 HD
ENDBRANCH  16  19
ENDBRANCH   9  11
ENDBRANCH   5   9
ENDBRANCH   3   5
BRANCH   1  22
HETATM   22  N5  UNL     1     -12.279  -9.428   5.406  1.00  0.00    -0.274 N 
HETATM   23  C3  UNL     1     -11.968  -8.419   4.438  1.00  0.00     0.403 C 
HETATM   24  N3  UNL     1     -12.829  -8.526   3.301  1.00  0.00    -0.335 N 
HETATM   25  N4  UNL     1     -10.562  -8.301   4.118  1.00  0.00    -0.039 N 
ATOM     26  H3  UNL     1     -13.585  -7.843   3.245  1.00  0.00     0.164 HD
ATOM     27  H43 UNL     1     -10.268  -9.074   3.521  1.00  0.00     0.279 HD
ATOM     28  H42 UNL     1     -10.408  -7.519   3.481  1.00  0.00     0.279 HD
ATOM     29  H41 UNL     1      -9.948  -8.225   4.928  1.00  0.00     0.279 HD
ATOM     30  H5  UNL     1     -13.044 -10.082   5.236  1.00  0.00     0.186 HD
BRANCH  24  31
HETATM   31  C2  UNL     1     -12.758  -9.459   2.252  1.00  0.00     0.090 C 
HETATM   32  C1  UNL     1     -13.901 -10.471   2.182  1.00  0.00     0.090 C 
HETATM   33  N1  UNL     1     -11.897  -9.596   1.348  1.00  0.00    -0.296 N 
ATOM     34  H1  UNL     1     -12.101 -10.365   0.710  1.00  0.00     0.187 HD
BRANCH  33  35
HETATM   35  N2  UNL     1     -10.745  -8.931   1.040  1.00  0.00    -0.344 N 
ATOM     36  H22 UNL     1     -10.096  -8.906   1.827  1.00  0.00     0.176 HD
ATOM     37  H21 UNL     1     -10.408  -8.463   0.199  1.00  0.00     0.176 HD
ENDBRANCH  33  35
ENDBRANCH  24  31
ENDBRANCH   1  22
TORSDOF 8
ENDMDL
