MODEL 1
REMARK VINA RESULT: -8.319480718      0.000      0.000
REMARK  7 active torsions:
REMARK  status: ('A' for Active; 'I' for Inactive)
REMARK    1  A    between atoms: C2_7  and  C3_8 
REMARK    2  A    between atoms: C3_8  and  O1_9 
REMARK    3  A    between atoms: O1_9  and  N3_10 
REMARK       I    between atoms: N3_10  and  C4_12 
REMARK    4  A    between atoms: C4_12  and  C5_14 
REMARK    5  A    between atoms: N4_15  and  O3_17 
REMARK    6  A    between atoms: N5_19  and  C6_20 
REMARK    7  A    between atoms: C8_27  and  N8_28 
ROOT
HETATM    1  N1  UNL     1     -12.990  -8.356  15.266  1.00  0.00    -0.370 N 
ATOM      2  H11 UNL     1     -12.292  -8.911  15.758  1.00  0.00     0.159 HD
ATOM      3  H12 UNL     1     -13.386  -7.746  15.982  1.00  0.00     0.159 HD
HETATM    4  C1  UNL     1     -13.300  -8.416  14.017  1.00  0.00     0.190 C 
HETATM    5  N2  UNL     1     -14.273  -7.642  13.331  1.00  0.00    -0.336 N 
ATOM      6  H2  UNL     1     -14.615  -6.712  13.575  1.00  0.00     0.164 HD
HETATM    7  C2  UNL     1     -14.680  -8.473  12.197  1.00  0.00     0.253 C 
HETATM    8  N5  UNL     1     -13.387  -8.989  11.793  1.00  0.00    -0.094 N 
HETATM    9  N10 UNL     1     -12.742  -9.275  13.009  1.00  0.00    -0.253 N 
ATOM     10  H10 UNL     1     -12.007  -9.969  13.150  1.00  0.00     0.191 HD
ENDROOT
BRANCH   8  11
HETATM   11  C6  UNL     1     -12.867  -9.170  10.480  1.00  0.00     0.719 A 
HETATM   12  N6  UNL     1     -11.554  -9.061  10.216  1.00  0.00    -0.139 N 
HETATM   13  C7  UNL     1     -11.045  -9.227   8.987  1.00  0.00     0.352 A 
ATOM     14  H6  UNL     1     -10.918  -8.844  10.983  1.00  0.00     0.189 HD
HETATM   15  O4  UNL     1      -9.809  -9.107   8.830  1.00  0.00    -0.246 OA
HETATM   16  N7  UNL     1     -11.889  -9.513   7.986  1.00  0.00    -0.141 N 
HETATM   17  C8  UNL     1     -13.211  -9.637   8.174  1.00  0.00     0.694 A 
ATOM     18  H7  UNL     1     -11.512  -9.641   7.047  1.00  0.00     0.189 HD
HETATM   19  N9  UNL     1     -13.675  -9.460   9.436  1.00  0.00    -0.021 N 
ATOM     20  H9  UNL     1     -14.677  -9.549   9.605  1.00  0.00     0.203 HD
BRANCH  17  21
HETATM   21  N8  UNL     1     -14.029  -9.915   7.203  1.00  0.00    -0.234 N 
ATOM     22  H82 UNL     1     -13.903 -10.759   6.644  1.00  0.00     0.174 HD
ATOM     23  H81 UNL     1     -14.817  -9.314   6.963  1.00  0.00     0.174 HD
ENDBRANCH  17  21
ENDBRANCH   8  11
BRANCH   7  24
HETATM   24  C3  UNL     1     -15.559  -9.549  12.805  1.00  0.00     0.250 C 
BRANCH  24  25
HETATM   25  O1  UNL     1     -16.489  -9.066  13.703  1.00  0.00    -0.274 OA
BRANCH  25  26
HETATM   26  N3  UNL     1     -16.738 -10.060  14.592  1.00  0.00    -0.230 N 
HETATM   27  C4  UNL     1     -17.679  -9.946  15.626  1.00  0.00     0.282 C 
HETATM   28  O2  UNL     1     -18.335  -8.840  15.728  1.00  0.00    -0.265 OA
ATOM     29  H3  UNL     1     -16.217 -10.932  14.505  1.00  0.00     0.197 HD
BRANCH  27  30
HETATM   30  C5  UNL     1     -17.974 -10.978  16.598  1.00  0.00     0.189 C 
HETATM   31  N4  UNL     1     -19.040 -11.645  16.727  1.00  0.00    -0.275 N 
ATOM     32  H4  UNL     1     -19.023 -12.323  17.489  1.00  0.00     0.193 HD
BRANCH  31  33
HETATM   33  O3  UNL     1     -20.189 -11.619  16.040  1.00  0.00    -0.290 OA
ATOM     34  H3  UNL     1     -20.393 -11.872  15.147  1.00  0.00     0.244 HD
ENDBRANCH  31  33
ENDBRANCH  27  30
ENDBRANCH  25  26
ENDBRANCH  24  25
ENDBRANCH   7  24
TORSDOF 7
ENDMDL
MODEL 2
REMARK VINA RESULT: -8.154127601      1.193      1.747
REMARK  7 active torsions:
REMARK  status: ('A' for Active; 'I' for Inactive)
REMARK    1  A    between atoms: C2_7  and  C3_8 
REMARK    2  A    between atoms: C3_8  and  O1_9 
REMARK    3  A    between atoms: O1_9  and  N3_10 
REMARK       I    between atoms: N3_10  and  C4_12 
REMARK    4  A    between atoms: C4_12  and  C5_14 
REMARK    5  A    between atoms: N4_15  and  O3_17 
REMARK    6  A    between atoms: N5_19  and  C6_20 
REMARK    7  A    between atoms: C8_27  and  N8_28 
ROOT
HETATM    1  N1  UNL     1     -13.189  -8.634  15.699  1.00  0.00    -0.370 N 
ATOM      2  H11 UNL     1     -12.542  -9.271  16.163  1.00  0.00     0.159 HD
ATOM      3  H12 UNL     1     -13.539  -8.034  16.446  1.00  0.00     0.159 HD
HETATM    4  C1  UNL     1     -13.493  -8.601  14.448  1.00  0.00     0.190 C 
HETATM    5  N2  UNL     1     -14.395  -7.714  13.803  1.00  0.00    -0.336 N 
ATOM      6  H2  UNL     1     -14.661  -6.774  14.096  1.00  0.00     0.164 HD
HETATM    7  C2  UNL     1     -14.859  -8.446  12.623  1.00  0.00     0.253 C 
HETATM    8  N5  UNL     1     -13.610  -9.043  12.196  1.00  0.00    -0.094 N 
HETATM    9  N10 UNL     1     -12.999  -9.446  13.396  1.00  0.00    -0.253 N 
ATOM     10  H10 UNL     1     -12.325 -10.204  13.501  1.00  0.00     0.191 HD
ENDROOT
BRANCH   8  11
HETATM   11  C6  UNL     1     -13.096  -9.194  10.876  1.00  0.00     0.719 A 
HETATM   12  N6  UNL     1     -13.807  -9.790   9.903  1.00  0.00    -0.139 N 
HETATM   13  C7  UNL     1     -13.342  -9.943   8.656  1.00  0.00     0.352 A 
ATOM     14  H6  UNL     1     -14.740 -10.140  10.124  1.00  0.00     0.189 HD
HETATM   15  O4  UNL     1     -14.072 -10.510   7.811  1.00  0.00    -0.246 OA
HETATM   16  N7  UNL     1     -12.117  -9.479   8.376  1.00  0.00    -0.141 N 
HETATM   17  C8  UNL     1     -11.350  -8.873   9.295  1.00  0.00     0.694 A 
ATOM     18  H7  UNL     1     -11.754  -9.590   7.429  1.00  0.00     0.189 HD
HETATM   19  N9  UNL     1     -11.867  -8.744  10.542  1.00  0.00    -0.021 N 
ATOM     20  H9  UNL     1     -11.303  -8.287  11.259  1.00  0.00     0.203 HD
BRANCH  17  21
HETATM   21  N8  UNL     1     -10.162  -8.423   9.023  1.00  0.00    -0.234 N 
ATOM     22  H82 UNL     1      -9.946  -7.432   9.129  1.00  0.00     0.174 HD
ATOM     23  H81 UNL     1      -9.409  -9.030   8.698  1.00  0.00     0.174 HD
ENDBRANCH  17  21
ENDBRANCH   8  11
BRANCH   7  24
HETATM   24  C3  UNL     1     -15.828  -9.477  13.169  1.00  0.00     0.250 C 
BRANCH  24  25
HETATM   25  O1  UNL     1     -16.591  -9.022  14.224  1.00  0.00    -0.274 OA
BRANCH  25  26
HETATM   26  N3  UNL     1     -16.921 -10.103  14.974  1.00  0.00    -0.230 N 
HETATM   27  C4  UNL     1     -17.976 -10.102  15.898  1.00  0.00     0.282 C 
HETATM   28  O2  UNL     1     -18.660  -9.017  16.034  1.00  0.00    -0.265 OA
ATOM     29  H3  UNL     1     -16.376 -10.957  14.861  1.00  0.00     0.197 HD
BRANCH  27  30
HETATM   30  C5  UNL     1     -18.360 -11.230  16.721  1.00  0.00     0.189 C 
HETATM   31  N4  UNL     1     -19.447 -11.876  16.699  1.00  0.00    -0.275 N 
ATOM     32  H4  UNL     1     -19.497 -12.637  17.376  1.00  0.00     0.193 HD
BRANCH  31  33
HETATM   33  O3  UNL     1     -20.544 -11.737  15.944  1.00  0.00    -0.290 OA
ATOM     34  H3  UNL     1     -21.405 -11.389  16.145  1.00  0.00     0.244 HD
ENDBRANCH  31  33
ENDBRANCH  27  30
ENDBRANCH  25  26
ENDBRANCH  24  25
ENDBRANCH   7  24
TORSDOF 7
ENDMDL
MODEL 3
REMARK VINA RESULT: -8.057785686      3.818      4.844
REMARK  7 active torsions:
REMARK  status: ('A' for Active; 'I' for Inactive)
REMARK    1  A    between atoms: C2_7  and  C3_8 
REMARK    2  A    between atoms: C3_8  and  O1_9 
REMARK    3  A    between atoms: O1_9  and  N3_10 
REMARK       I    between atoms: N3_10  and  C4_12 
REMARK    4  A    between atoms: C4_12  and  C5_14 
REMARK    5  A    between atoms: N4_15  and  O3_17 
REMARK    6  A    between atoms: N5_19  and  C6_20 
REMARK    7  A    between atoms: C8_27  and  N8_28 
ROOT
HETATM    1  N1  UNL     1     -12.531  -7.440  14.330  1.00  0.00    -0.370 N 
ATOM      2  H11 UNL     1     -11.676  -6.934  14.556  1.00  0.00     0.159 HD
ATOM      3  H12 UNL     1     -13.144  -7.283  15.130  1.00  0.00     0.159 HD
HETATM    4  C1  UNL     1     -12.776  -8.125  13.266  1.00  0.00     0.190 C 
HETATM    5  N2  UNL     1     -13.967  -8.831  12.951  1.00  0.00    -0.336 N 
ATOM      6  H2  UNL     1     -14.912  -8.640  13.286  1.00  0.00     0.164 HD
HETATM    7  C2  UNL     1     -13.541  -9.894  12.039  1.00  0.00     0.253 C 
HETATM    8  N5  UNL     1     -12.603  -9.154  11.219  1.00  0.00    -0.094 N 
HETATM    9  N10 UNL     1     -11.913  -8.346  12.139  1.00  0.00    -0.253 N 
ATOM     10  H10 UNL     1     -10.967  -7.981  12.026  1.00  0.00     0.191 HD
ENDROOT
BRANCH   8  11
HETATM   11  C6  UNL     1     -12.409  -9.212   9.809  1.00  0.00     0.719 A 
HETATM   12  N6  UNL     1     -11.204  -9.004   9.251  1.00  0.00    -0.139 N 
HETATM   13  C7  UNL     1     -11.001  -9.053   7.927  1.00  0.00     0.352 A 
ATOM     14  H6  UNL     1     -10.412  -8.801   9.860  1.00  0.00     0.189 HD
HETATM   15  O4  UNL     1      -9.846  -8.847   7.491  1.00  0.00    -0.246 OA
HETATM   16  N7  UNL     1     -12.049  -9.321   7.135  1.00  0.00    -0.141 N 
HETATM   17  C8  UNL     1     -13.280  -9.539   7.622  1.00  0.00     0.694 A 
ATOM     18  H7  UNL     1     -11.905  -9.361   6.127  1.00  0.00     0.189 HD
HETATM   19  N9  UNL     1     -13.432  -9.478   8.967  1.00  0.00    -0.021 N 
ATOM     20  H9  UNL     1     -14.359  -9.641   9.362  1.00  0.00     0.203 HD
BRANCH  17  21
HETATM   21  N8  UNL     1     -14.295  -9.800   6.854  1.00  0.00    -0.234 N 
ATOM     22  H82 UNL     1     -14.724  -9.064   6.293  1.00  0.00     0.174 HD
ATOM     23  H81 UNL     1     -14.699 -10.734   6.780  1.00  0.00     0.174 HD
ENDBRANCH  17  21
ENDBRANCH   8  11
BRANCH   7  24
HETATM   24  C3  UNL     1     -12.847 -10.907  12.929  1.00  0.00     0.250 C 
BRANCH  24  25
HETATM   25  O1  UNL     1     -12.084 -11.826  12.238  1.00  0.00    -0.274 OA
BRANCH  25  26
HETATM   26  N3  UNL     1     -12.731 -13.016  12.307  1.00  0.00    -0.230 N 
HETATM   27  C4  UNL     1     -12.097 -14.214  12.664  1.00  0.00     0.282 C 
HETATM   28  O2  UNL     1     -10.837 -14.174  12.938  1.00  0.00    -0.265 OA
ATOM     29  H3  UNL     1     -13.727 -13.040  12.090  1.00  0.00     0.197 HD
BRANCH  27  30
HETATM   30  C5  UNL     1     -12.747 -15.505  12.747  1.00  0.00     0.189 C 
HETATM   31  N4  UNL     1     -12.357 -16.607  12.265  1.00  0.00    -0.275 N 
ATOM     32  H4  UNL     1     -12.983 -17.391  12.449  1.00  0.00     0.193 HD
BRANCH  31  33
HETATM   33  O3  UNL     1     -11.268 -16.926  11.555  1.00  0.00    -0.290 OA
ATOM     34  H3  UNL     1     -10.906 -17.768  11.303  1.00  0.00     0.244 HD
ENDBRANCH  31  33
ENDBRANCH  27  30
ENDBRANCH  25  26
ENDBRANCH  24  25
ENDBRANCH   7  24
TORSDOF 7
ENDMDL
MODEL 4
REMARK VINA RESULT: -8.050127335      2.332      8.277
REMARK  7 active torsions:
REMARK  status: ('A' for Active; 'I' for Inactive)
REMARK    1  A    between atoms: C2_7  and  C3_8 
REMARK    2  A    between atoms: C3_8  and  O1_9 
REMARK    3  A    between atoms: O1_9  and  N3_10 
REMARK       I    between atoms: N3_10  and  C4_12 
REMARK    4  A    between atoms: C4_12  and  C5_14 
REMARK    5  A    between atoms: N4_15  and  O3_17 
REMARK    6  A    between atoms: N5_19  and  C6_20 
REMARK    7  A    between atoms: C8_27  and  N8_28 
ROOT
HETATM    1  N1  UNL     1     -10.199  -8.085   8.748  1.00  0.00    -0.370 N 
ATOM      2  H11 UNL     1      -9.906  -7.109   8.783  1.00  0.00     0.159 HD
ATOM      3  H12 UNL     1      -9.552  -8.525   8.093  1.00  0.00     0.159 HD
HETATM    4  C1  UNL     1     -11.171  -8.633   9.391  1.00  0.00     0.190 C 
HETATM    5  N2  UNL     1     -11.580  -9.993   9.341  1.00  0.00    -0.336 N 
ATOM      6  H2  UNL     1     -11.009 -10.807   9.114  1.00  0.00     0.164 HD
HETATM    7  C2  UNL     1     -13.002  -9.968   9.690  1.00  0.00     0.253 C 
HETATM    8  N5  UNL     1     -12.975  -8.999  10.766  1.00  0.00    -0.094 N 
HETATM    9  N10 UNL     1     -12.082  -8.013  10.314  1.00  0.00    -0.253 N 
ATOM     10  H10 UNL     1     -12.080  -7.031  10.591  1.00  0.00     0.191 HD
ENDROOT
BRANCH   8  11
HETATM   11  C6  UNL     1     -13.678  -9.020  12.005  1.00  0.00     0.719 A 
HETATM   12  N6  UNL     1     -14.959  -9.418  12.086  1.00  0.00    -0.139 N 
HETATM   13  C7  UNL     1     -15.638  -9.444  13.242  1.00  0.00     0.352 A 
ATOM     14  H6  UNL     1     -15.434  -9.713  11.233  1.00  0.00     0.189 HD
HETATM   15  O4  UNL     1     -16.829  -9.830  13.227  1.00  0.00    -0.246 OA
HETATM   16  N7  UNL     1     -15.005  -9.056  14.357  1.00  0.00    -0.141 N 
HETATM   17  C8  UNL     1     -13.727  -8.646  14.353  1.00  0.00     0.694 A 
ATOM     18  H7  UNL     1     -15.512  -9.073  15.241  1.00  0.00     0.189 HD
HETATM   19  N9  UNL     1     -13.085  -8.639  13.158  1.00  0.00    -0.021 N 
ATOM     20  H9  UNL     1     -12.113  -8.331  13.128  1.00  0.00     0.203 HD
BRANCH  17  21
HETATM   21  N8  UNL     1     -13.113  -8.270  15.435  1.00  0.00    -0.234 N 
ATOM     22  H82 UNL     1     -13.579  -7.666  16.112  1.00  0.00     0.174 HD
ATOM     23  H81 UNL     1     -12.158  -8.558  15.649  1.00  0.00     0.174 HD
ENDBRANCH  17  21
ENDBRANCH   8  11
BRANCH   7  24
HETATM   24  C3  UNL     1     -13.690  -9.427   8.451  1.00  0.00     0.250 C 
BRANCH  24  25
HETATM   25  O1  UNL     1     -13.822 -10.353   7.437  1.00  0.00    -0.274 OA
BRANCH  25  26
HETATM   26  N3  UNL     1     -13.666  -9.687   6.265  1.00  0.00    -0.230 N 
HETATM   27  C4  UNL     1     -12.415  -9.453   5.677  1.00  0.00     0.282 C 
HETATM   28  O2  UNL     1     -11.367  -9.897   6.285  1.00  0.00    -0.265 OA
ATOM     29  H3  UNL     1     -14.499  -9.340   5.789  1.00  0.00     0.197 HD
BRANCH  27  30
HETATM   30  C5  UNL     1     -12.202  -8.745   4.432  1.00  0.00     0.189 C 
HETATM   31  N4  UNL     1     -11.241  -7.985   4.122  1.00  0.00    -0.275 N 
ATOM     32  H4  UNL     1     -11.302  -7.592   3.183  1.00  0.00     0.193 HD
BRANCH  31  33
HETATM   33  O3  UNL     1     -10.156  -7.605   4.809  1.00  0.00    -0.290 OA
ATOM     34  H3  UNL     1      -9.270  -7.947   4.822  1.00  0.00     0.244 HD
ENDBRANCH  31  33
ENDBRANCH  27  30
ENDBRANCH  25  26
ENDBRANCH  24  25
ENDBRANCH   7  24
TORSDOF 7
ENDMDL
MODEL 5
REMARK VINA RESULT: -8.030310240      3.971      5.121
REMARK  7 active torsions:
REMARK  status: ('A' for Active; 'I' for Inactive)
REMARK    1  A    between atoms: C2_7  and  C3_8 
REMARK    2  A    between atoms: C3_8  and  O1_9 
REMARK    3  A    between atoms: O1_9  and  N3_10 
REMARK       I    between atoms: N3_10  and  C4_12 
REMARK    4  A    between atoms: C4_12  and  C5_14 
REMARK    5  A    between atoms: N4_15  and  O3_17 
REMARK    6  A    between atoms: N5_19  and  C6_20 
REMARK    7  A    between atoms: C8_27  and  N8_28 
ROOT
HETATM    1  N1  UNL     1     -12.462  -7.345  14.245  1.00  0.00    -0.370 N 
ATOM      2  H11 UNL     1     -11.596  -6.841  14.438  1.00  0.00     0.159 HD
ATOM      3  H12 UNL     1     -13.049  -7.171  15.061  1.00  0.00     0.159 HD
HETATM    4  C1  UNL     1     -12.745  -8.042  13.200  1.00  0.00     0.190 C 
HETATM    5  N2  UNL     1     -13.950  -8.743  12.931  1.00  0.00    -0.336 N 
ATOM      6  H2  UNL     1     -14.883  -8.540  13.291  1.00  0.00     0.164 HD
HETATM    7  C2  UNL     1     -13.560  -9.822  12.022  1.00  0.00     0.253 C 
HETATM    8  N5  UNL     1     -12.642  -9.102  11.163  1.00  0.00    -0.094 N 
HETATM    9  N10 UNL     1     -11.918  -8.286  12.049  1.00  0.00    -0.253 N 
ATOM     10  H10 UNL     1     -10.974  -7.930  11.902  1.00  0.00     0.191 HD
ENDROOT
BRANCH   8  11
HETATM   11  C6  UNL     1     -12.492  -9.181   9.749  1.00  0.00     0.719 A 
HETATM   12  N6  UNL     1     -13.521  -9.496   8.944  1.00  0.00    -0.139 N 
HETATM   13  C7  UNL     1     -13.400  -9.577   7.611  1.00  0.00     0.352 A 
ATOM     14  H6  UNL     1     -14.432  -9.681   9.364  1.00  0.00     0.189 HD
HETATM   15  O4  UNL     1     -14.411  -9.878   6.936  1.00  0.00    -0.246 OA
HETATM   16  N7  UNL     1     -12.200  -9.331   7.069  1.00  0.00    -0.141 N 
HETATM   17  C8  UNL     1     -11.128  -9.011   7.809  1.00  0.00     0.694 A 
ATOM     18  H7  UNL     1     -12.097  -9.390   6.056  1.00  0.00     0.189 HD
HETATM   19  N9  UNL     1     -11.303  -8.943   9.152  1.00  0.00    -0.021 N 
ATOM     20  H9  UNL     1     -10.504  -8.701   9.737  1.00  0.00     0.203 HD
BRANCH  17  21
HETATM   21  N8  UNL     1      -9.964  -8.772   7.282  1.00  0.00    -0.234 N 
ATOM     22  H82 UNL     1      -9.873  -8.128   6.497  1.00  0.00     0.174 HD
ATOM     23  H81 UNL     1      -9.109  -9.210   7.625  1.00  0.00     0.174 HD
ENDBRANCH  17  21
ENDBRANCH   8  11
BRANCH   7  24
HETATM   24  C3  UNL     1     -12.846 -10.828  12.905  1.00  0.00     0.250 C 
BRANCH  24  25
HETATM   25  O1  UNL     1     -12.106 -11.758  12.204  1.00  0.00    -0.274 OA
BRANCH  25  26
HETATM   26  N3  UNL     1     -12.742 -12.950  12.327  1.00  0.00    -0.230 N 
HETATM   27  C4  UNL     1     -12.076 -14.147  12.627  1.00  0.00     0.282 C 
HETATM   28  O2  UNL     1     -10.798 -14.103  12.793  1.00  0.00    -0.265 OA
ATOM     29  H3  UNL     1     -13.753 -12.977  12.195  1.00  0.00     0.197 HD
BRANCH  27  30
HETATM   30  C5  UNL     1     -12.714 -15.440  12.764  1.00  0.00     0.189 C 
HETATM   31  N4  UNL     1     -12.340 -16.548  12.283  1.00  0.00    -0.275 N 
ATOM     32  H4  UNL     1     -12.951 -17.332  12.511  1.00  0.00     0.193 HD
BRANCH  31  33
HETATM   33  O3  UNL     1     -11.283 -16.873  11.529  1.00  0.00    -0.290 OA
ATOM     34  H3  UNL     1     -10.997 -17.707  11.174  1.00  0.00     0.244 HD
ENDBRANCH  31  33
ENDBRANCH  27  30
ENDBRANCH  25  26
ENDBRANCH  24  25
ENDBRANCH   7  24
TORSDOF 7
ENDMDL
