MODEL 1
REMARK VINA RESULT: -8.549863241      0.000      0.000
REMARK  9 active torsions:
REMARK  status: ('A' for Active; 'I' for Inactive)
REMARK    1  A    between atoms: N1_1  and  N2_4 
REMARK    2  A    between atoms: N2_4  and  N3_6 
REMARK    3  A    between atoms: N3_6  and  C1_8 
REMARK    4  A    between atoms: N7_15  and  C2_16 
REMARK    5  A    between atoms: C2_16  and  N8_17 
REMARK    6  A    between atoms: N8_17  and  C3_19 
REMARK    7  A    between atoms: C4_22  and  S1_23 
REMARK    8  A    between atoms: S1_23  and  N10_24 
REMARK    9  A    between atoms: C5_31  and  O3_32 
ROOT
HETATM    1  N8  UNL     1     -12.854  -7.278  12.290  1.00  0.00    -0.333 N 
ATOM      2  H8  UNL     1     -12.953  -6.263  12.326  1.00  0.00     0.168 HD
ENDROOT
BRANCH   1   3
HETATM    3  C2  UNL     1     -12.833  -8.021  13.493  1.00  0.00     0.229 C 
BRANCH   3   4
HETATM    4  N7  UNL     1     -13.966  -8.811  13.811  1.00  0.00    -0.063 N 
HETATM    5  C1  UNL     1     -14.041 -10.155  13.899  1.00  0.00     0.737 A 
HETATM    6  N4  UNL     1     -15.282 -10.532  14.234  1.00  0.00    -0.113 N 
HETATM    7  N5  UNL     1     -15.966  -9.389  14.348  1.00  0.00    -0.213 N 
ATOM      8  H4  UNL     1     -15.629 -11.482  14.371  1.00  0.00     0.207 HD
HETATM    9  N6  UNL     1     -15.177  -8.379  14.096  1.00  0.00    -0.206 N 
ATOM     10  H5  UNL     1     -16.954  -9.316  14.594  1.00  0.00     0.210 HD
ATOM     11  H6  UNL     1     -15.458  -7.399  14.118  1.00  0.00     0.211 HD
BRANCH   5  12
HETATM   12  N3  UNL     1     -13.070 -10.944  13.692  1.00  0.00    -0.115 N 
ATOM     13  H3  UNL     1     -12.581 -11.299  14.514  1.00  0.00     0.207 HD
BRANCH  12  14
HETATM   14  N2  UNL     1     -12.612 -11.368  12.466  1.00  0.00    -0.235 N 
ATOM     15  H2  UNL     1     -12.619 -10.747  11.657  1.00  0.00     0.208 HD
BRANCH  14  16
HETATM   16  N1  UNL     1     -12.133 -12.691  12.364  1.00  0.00    -0.330 N 
ATOM     17  H12 UNL     1     -12.555 -13.434  12.922  1.00  0.00     0.178 HD
ATOM     18  H11 UNL     1     -11.362 -12.870  11.721  1.00  0.00     0.178 HD
ENDBRANCH  14  16
ENDBRANCH  12  14
ENDBRANCH   5  12
ENDBRANCH   3   4
ENDBRANCH   1   3
BRANCH   1  19
HETATM   19  C3  UNL     1     -12.737  -7.928  11.030  1.00  0.00     0.160 A 
HETATM   20  N9  UNL     1     -11.670  -7.992  10.215  1.00  0.00    -0.314 N 
HETATM   21  C4  UNL     1     -11.931  -8.696   9.119  1.00  0.00     0.227 A 
ATOM     22  H9  UNL     1     -10.770  -7.554  10.414  1.00  0.00     0.170 HD
HETATM   23  N11 UNL     1     -13.198  -9.100   9.220  1.00  0.00    -0.309 N 
HETATM   24  C5  UNL     1     -13.720  -8.653  10.367  1.00  0.00     0.187 A 
ATOM     25  H11 UNL     1     -13.693  -9.663   8.529  1.00  0.00     0.170 HD
BRANCH  21  26
HETATM   26  S1  UNL     1     -10.766  -8.977   7.847  1.00  0.00     0.289 S 
HETATM   27  O1  UNL     1      -9.992  -7.719   7.585  1.00  0.00    -0.198 OA
HETATM   28  O2  UNL     1      -9.792 -10.039   8.298  1.00  0.00    -0.198 OA
BRANCH  26  29
HETATM   29  N10 UNL     1     -11.639  -9.495   6.445  1.00  0.00    -0.322 N 
ATOM     30 2H10 UNL     1     -11.614  -9.041   5.532  1.00  0.00     0.169 HD
ATOM     31 1H10 UNL     1     -12.172 -10.325   6.703  1.00  0.00     0.169 HD
ENDBRANCH  26  29
ENDBRANCH  21  26
BRANCH  24  32
HETATM   32  O3  UNL     1     -15.007  -8.875  10.812  1.00  0.00    -0.343 OA
ATOM     33  H3  UNL     1     -15.649  -9.448  10.409  1.00  0.00     0.219 HD
ENDBRANCH  24  32
ENDBRANCH   1  19
TORSDOF 9
ENDMDL
MODEL 2
REMARK VINA RESULT: -8.295708840      1.210      1.681
REMARK  9 active torsions:
REMARK  status: ('A' for Active; 'I' for Inactive)
REMARK    1  A    between atoms: N1_1  and  N2_4 
REMARK    2  A    between atoms: N2_4  and  N3_6 
REMARK    3  A    between atoms: N3_6  and  C1_8 
REMARK    4  A    between atoms: N7_15  and  C2_16 
REMARK    5  A    between atoms: C2_16  and  N8_17 
REMARK    6  A    between atoms: N8_17  and  C3_19 
REMARK    7  A    between atoms: C4_22  and  S1_23 
REMARK    8  A    between atoms: S1_23  and  N10_24 
REMARK    9  A    between atoms: C5_31  and  O3_32 
ROOT
HETATM    1  N8  UNL     1     -14.993  -8.711  10.985  1.00  0.00    -0.333 N 
ATOM      2  H8  UNL     1     -15.766  -8.239  10.516  1.00  0.00     0.168 HD
ENDROOT
BRANCH   1   3
HETATM    3  C2  UNL     1     -15.255  -9.553  12.090  1.00  0.00     0.229 C 
BRANCH   3   4
HETATM    4  N7  UNL     1     -14.531  -9.330  13.288  1.00  0.00    -0.063 N 
HETATM    5  C1  UNL     1     -13.576 -10.109  13.836  1.00  0.00     0.737 A 
HETATM    6  N4  UNL     1     -13.117  -9.557  14.968  1.00  0.00    -0.113 N 
HETATM    7  N5  UNL     1     -13.814  -8.423  15.101  1.00  0.00    -0.213 N 
ATOM      8  H4  UNL     1     -12.396  -9.922  15.591  1.00  0.00     0.207 HD
HETATM    9  N6  UNL     1     -14.645  -8.301  14.102  1.00  0.00    -0.206 N 
ATOM     10  H5  UNL     1     -13.711  -7.757  15.867  1.00  0.00     0.210 HD
ATOM     11  H6  UNL     1     -15.289  -7.521  13.971  1.00  0.00     0.211 HD
BRANCH   5  12
HETATM   12  N3  UNL     1     -13.173 -11.207  13.345  1.00  0.00    -0.115 N 
ATOM     13  H3  UNL     1     -13.529 -12.061  13.773  1.00  0.00     0.207 HD
BRANCH  12  14
HETATM   14  N2  UNL     1     -12.302 -11.355  12.290  1.00  0.00    -0.235 N 
ATOM     15  H2  UNL     1     -12.026 -10.557  11.718  1.00  0.00     0.208 HD
BRANCH  14  16
HETATM   16  N1  UNL     1     -11.805 -12.649  12.026  1.00  0.00    -0.330 N 
ATOM     17  H12 UNL     1     -12.246 -13.233  11.316  1.00  0.00     0.178 HD
ATOM     18  H11 UNL     1     -11.000 -12.968  12.565  1.00  0.00     0.178 HD
ENDBRANCH  14  16
ENDBRANCH  12  14
ENDBRANCH   5  12
ENDBRANCH   3   4
ENDBRANCH   1   3
BRANCH   1  19
HETATM   19  C3  UNL     1     -13.664  -8.514  10.519  1.00  0.00     0.160 A 
HETATM   20  N9  UNL     1     -13.101  -8.956   9.380  1.00  0.00    -0.314 N 
HETATM   21  C4  UNL     1     -11.834  -8.570   9.277  1.00  0.00     0.227 A 
ATOM     22  H9  UNL     1     -13.587  -9.518   8.681  1.00  0.00     0.170 HD
HETATM   23  N11 UNL     1     -11.563  -7.860  10.374  1.00  0.00    -0.309 N 
HETATM   24  C5  UNL     1     -12.650  -7.805  11.151  1.00  0.00     0.187 A 
ATOM     25  H11 UNL     1     -10.665  -7.427  10.588  1.00  0.00     0.170 HD
BRANCH  21  26
HETATM   26  S1  UNL     1     -10.805  -8.970   7.923  1.00  0.00     0.289 S 
HETATM   27  O1  UNL     1     -10.000  -7.768   7.528  1.00  0.00    -0.198 OA
HETATM   28  O2  UNL     1      -9.845 -10.059   8.339  1.00  0.00    -0.198 OA
BRANCH  26  29
HETATM   29  N10 UNL     1     -11.826  -9.507   6.632  1.00  0.00    -0.322 N 
ATOM     30 2H10 UNL     1     -12.459  -8.917   6.094  1.00  0.00     0.169 HD
ATOM     31 1H10 UNL     1     -11.673 -10.509   6.515  1.00  0.00     0.169 HD
ENDBRANCH  26  29
ENDBRANCH  21  26
BRANCH  24  32
HETATM   32  O3  UNL     1     -12.746  -7.157  12.366  1.00  0.00    -0.343 OA
ATOM     33  H3  UNL     1     -12.161  -7.266  13.107  1.00  0.00     0.219 HD
ENDBRANCH  24  32
ENDBRANCH   1  19
TORSDOF 9
ENDMDL
MODEL 3
REMARK VINA RESULT: -7.822327907      2.955      4.956
REMARK  9 active torsions:
REMARK  status: ('A' for Active; 'I' for Inactive)
REMARK    1  A    between atoms: N1_1  and  N2_4 
REMARK    2  A    between atoms: N2_4  and  N3_6 
REMARK    3  A    between atoms: N3_6  and  C1_8 
REMARK    4  A    between atoms: N7_15  and  C2_16 
REMARK    5  A    between atoms: C2_16  and  N8_17 
REMARK    6  A    between atoms: N8_17  and  C3_19 
REMARK    7  A    between atoms: C4_22  and  S1_23 
REMARK    8  A    between atoms: S1_23  and  N10_24 
REMARK    9  A    between atoms: C5_31  and  O3_32 
ROOT
HETATM    1  N8  UNL     1     -13.235  -9.879   8.463  1.00  0.00    -0.333 N 
ATOM      2  H8  UNL     1     -13.437 -10.830   8.771  1.00  0.00     0.168 HD
ENDROOT
BRANCH   1   3
HETATM    3  C2  UNL     1     -13.425  -8.799   9.356  1.00  0.00     0.229 C 
BRANCH   3   4
HETATM    4  N7  UNL     1     -12.381  -8.489  10.263  1.00  0.00    -0.063 N 
HETATM    5  C1  UNL     1     -12.479  -8.244  11.586  1.00  0.00     0.737 A 
HETATM    6  N4  UNL     1     -11.269  -8.000  12.106  1.00  0.00    -0.113 N 
HETATM    7  N5  UNL     1     -10.427  -8.099  11.071  1.00  0.00    -0.213 N 
ATOM      8  H4  UNL     1     -11.039  -7.785  13.077  1.00  0.00     0.207 HD
HETATM    9  N6  UNL     1     -11.097  -8.389   9.988  1.00  0.00    -0.206 N 
ATOM     10  H5  UNL     1      -9.417  -7.968  11.120  1.00  0.00     0.210 HD
ATOM     11  H6  UNL     1     -10.685  -8.519   9.065  1.00  0.00     0.211 HD
BRANCH   5  12
HETATM   12  N3  UNL     1     -13.566  -8.247  12.240  1.00  0.00    -0.115 N 
ATOM     13  H3  UNL     1     -14.328  -8.811  11.864  1.00  0.00     0.207 HD
BRANCH  12  14
HETATM   14  N2  UNL     1     -13.815  -7.562  13.407  1.00  0.00    -0.235 N 
ATOM     15  H2  UNL     1     -14.192  -6.614  13.392  1.00  0.00     0.208 HD
BRANCH  14  16
HETATM   16  N1  UNL     1     -13.532  -8.214  14.625  1.00  0.00    -0.330 N 
ATOM     17  H12 UNL     1     -13.281  -7.671  15.451  1.00  0.00     0.178 HD
ATOM     18  H11 UNL     1     -13.590  -9.233  14.644  1.00  0.00     0.178 HD
ENDBRANCH  14  16
ENDBRANCH  12  14
ENDBRANCH   5  12
ENDBRANCH   3   4
ENDBRANCH   1   3
BRANCH   1  19
HETATM   19  C3  UNL     1     -12.764  -9.654   7.140  1.00  0.00     0.160 A 
HETATM   20  N9  UNL     1     -13.478  -9.522   6.007  1.00  0.00    -0.314 N 
HETATM   21  C4  UNL     1     -12.694  -9.315   4.955  1.00  0.00     0.227 A 
ATOM     22  H9  UNL     1     -14.496  -9.573   5.962  1.00  0.00     0.170 HD
HETATM   23  N11 UNL     1     -11.440  -9.313   5.410  1.00  0.00    -0.309 N 
HETATM   24  C5  UNL     1     -11.443  -9.516   6.732  1.00  0.00     0.187 A 
ATOM     25  H11 UNL     1     -10.607  -9.178   4.838  1.00  0.00     0.170 HD
BRANCH  21  26
HETATM   26  S1  UNL     1     -13.292  -9.100   3.327  1.00  0.00     0.289 S 
HETATM   27  O1  UNL     1     -14.348 -10.126   3.039  1.00  0.00    -0.198 OA
HETATM   28  O2  UNL     1     -13.925  -7.733   3.212  1.00  0.00    -0.198 OA
BRANCH  26  29
HETATM   29  N10 UNL     1     -11.945  -9.250   2.251  1.00  0.00    -0.322 N 
ATOM     30 2H10 UNL     1     -10.998  -8.920   2.439  1.00  0.00     0.169 HD
ATOM     31 1H10 UNL     1     -12.274  -9.723   1.410  1.00  0.00     0.169 HD
ENDBRANCH  26  29
ENDBRANCH  21  26
BRANCH  24  32
HETATM   32  O3  UNL     1     -10.330  -9.577   7.545  1.00  0.00    -0.343 OA
ATOM     33  H3  UNL     1     -10.331  -9.708   8.486  1.00  0.00     0.219 HD
ENDBRANCH  24  32
ENDBRANCH   1  19
TORSDOF 9
ENDMDL
MODEL 4
REMARK VINA RESULT: -7.780707172      3.271      7.654
REMARK  9 active torsions:
REMARK  status: ('A' for Active; 'I' for Inactive)
REMARK    1  A    between atoms: N1_1  and  N2_4 
REMARK    2  A    between atoms: N2_4  and  N3_6 
REMARK    3  A    between atoms: N3_6  and  C1_8 
REMARK    4  A    between atoms: N7_15  and  C2_16 
REMARK    5  A    between atoms: C2_16  and  N8_17 
REMARK    6  A    between atoms: N8_17  and  C3_19 
REMARK    7  A    between atoms: C4_22  and  S1_23 
REMARK    8  A    between atoms: S1_23  and  N10_24 
REMARK    9  A    between atoms: C5_31  and  O3_32 
ROOT
HETATM    1  N8  UNL     1     -10.853  -9.404   6.558  1.00  0.00    -0.333 N 
ATOM      2  H8  UNL     1     -10.350 -10.272   6.374  1.00  0.00     0.168 HD
ENDROOT
BRANCH   1   3
HETATM    3  C2  UNL     1     -10.817  -8.359   5.606  1.00  0.00     0.229 C 
BRANCH   3   4
HETATM    4  N7  UNL     1     -11.122  -8.671   4.258  1.00  0.00    -0.063 N 
HETATM    5  C1  UNL     1     -12.320  -9.003   3.735  1.00  0.00     0.737 A 
HETATM    6  N4  UNL     1     -12.211  -9.216   2.417  1.00  0.00    -0.113 N 
HETATM    7  N5  UNL     1     -10.918  -9.008   2.144  1.00  0.00    -0.213 N 
ATOM      8  H4  UNL     1     -12.950  -9.480   1.765  1.00  0.00     0.207 HD
HETATM    9  N6  UNL     1     -10.286  -8.686   3.240  1.00  0.00    -0.206 N 
ATOM     10  H5  UNL     1     -10.491  -9.088   1.221  1.00  0.00     0.210 HD
ATOM     11  H6  UNL     1      -9.290  -8.476   3.299  1.00  0.00     0.211 HD
BRANCH   5  12
HETATM   12  N3  UNL     1     -13.394  -9.099   4.402  1.00  0.00    -0.115 N 
ATOM     13  H3  UNL     1     -13.337  -8.899   5.400  1.00  0.00     0.207 HD
BRANCH  12  14
HETATM   14  N2  UNL     1     -14.631  -9.447   3.908  1.00  0.00    -0.235 N 
ATOM     15  H2  UNL     1     -14.833  -9.398   2.910  1.00  0.00     0.208 HD
BRANCH  14  16
HETATM   16  N1  UNL     1     -15.610  -9.874   4.830  1.00  0.00    -0.330 N 
ATOM     17  H12 UNL     1     -15.350 -10.476   5.612  1.00  0.00     0.178 HD
ATOM     18  H11 UNL     1     -16.570  -9.561   4.683  1.00  0.00     0.178 HD
ENDBRANCH  14  16
ENDBRANCH  12  14
ENDBRANCH   5  12
ENDBRANCH   3   4
ENDBRANCH   1   3
BRANCH   1  19
HETATM   19  C3  UNL     1     -11.584  -9.260   7.770  1.00  0.00     0.160 A 
HETATM   20  N9  UNL     1     -11.149  -8.821   8.964  1.00  0.00    -0.314 N 
HETATM   21  C4  UNL     1     -12.121  -8.817   9.869  1.00  0.00     0.227 A 
ATOM     22  H9  UNL     1     -10.190  -8.528   9.152  1.00  0.00     0.170 HD
HETATM   23  N11 UNL     1     -13.216  -9.263   9.252  1.00  0.00    -0.309 N 
HETATM   24  C5  UNL     1     -12.929  -9.543   7.977  1.00  0.00     0.187 A 
ATOM     25  H11 UNL     1     -14.132  -9.376   9.687  1.00  0.00     0.170 HD
BRANCH  21  26
HETATM   26  S1  UNL     1     -11.902  -8.305  11.526  1.00  0.00     0.289 S 
HETATM   27  O1  UNL     1     -11.303  -9.425  12.324  1.00  0.00    -0.198 OA
HETATM   28  O2  UNL     1     -10.940  -7.141  11.558  1.00  0.00    -0.198 OA
BRANCH  26  29
HETATM   29  N10 UNL     1     -13.453  -7.841  12.139  1.00  0.00    -0.322 N 
ATOM     30 2H10 UNL     1     -13.970  -7.005  11.868  1.00  0.00     0.169 HD
ATOM     31 1H10 UNL     1     -13.743  -8.551  12.811  1.00  0.00     0.169 HD
ENDBRANCH  26  29
ENDBRANCH  21  26
BRANCH  24  32
HETATM   32  O3  UNL     1     -13.813 -10.026   7.033  1.00  0.00    -0.343 OA
ATOM     33  H3  UNL     1     -14.116 -10.923   6.957  1.00  0.00     0.219 HD
ENDBRANCH  24  32
ENDBRANCH   1  19
TORSDOF 9
ENDMDL
MODEL 5
REMARK VINA RESULT: -7.741632753      1.170      2.260
REMARK  9 active torsions:
REMARK  status: ('A' for Active; 'I' for Inactive)
REMARK    1  A    between atoms: N1_1  and  N2_4 
REMARK    2  A    between atoms: N2_4  and  N3_6 
REMARK    3  A    between atoms: N3_6  and  C1_8 
REMARK    4  A    between atoms: N7_15  and  C2_16 
REMARK    5  A    between atoms: C2_16  and  N8_17 
REMARK    6  A    between atoms: N8_17  and  C3_19 
REMARK    7  A    between atoms: C4_22  and  S1_23 
REMARK    8  A    between atoms: S1_23  and  N10_24 
REMARK    9  A    between atoms: C5_31  and  O3_32 
ROOT
HETATM    1  N8  UNL     1     -13.435 -11.199  12.057  1.00  0.00    -0.333 N 
ATOM      2  H8  UNL     1     -13.732 -12.158  11.879  1.00  0.00     0.168 HD
ENDROOT
BRANCH   1   3
HETATM    3  C2  UNL     1     -13.323 -10.737  13.389  1.00  0.00     0.229 C 
BRANCH   3   4
HETATM    4  N7  UNL     1     -14.367  -9.932  13.909  1.00  0.00    -0.063 N 
HETATM    5  C1  UNL     1     -14.259  -8.779  14.600  1.00  0.00     0.737 A 
HETATM    6  N4  UNL     1     -15.473  -8.307  14.913  1.00  0.00    -0.113 N 
HETATM    7  N5  UNL     1     -16.328  -9.198  14.398  1.00  0.00    -0.213 N 
ATOM      8  H4  UNL     1     -15.697  -7.456  15.429  1.00  0.00     0.207 HD
HETATM    9  N6  UNL     1     -15.662 -10.153  13.807  1.00  0.00    -0.206 N 
ATOM     10  H5  UNL     1     -17.345  -9.141  14.458  1.00  0.00     0.210 HD
ATOM     11  H6  UNL     1     -16.083 -10.953  13.336  1.00  0.00     0.211 HD
BRANCH   5  12
HETATM   12  N3  UNL     1     -13.160  -8.225  14.907  1.00  0.00    -0.115 N 
ATOM     13  H3  UNL     1     -12.758  -8.469  15.812  1.00  0.00     0.207 HD
BRANCH  12  14
HETATM   14  N2  UNL     1     -12.458  -7.327  14.137  1.00  0.00    -0.235 N 
ATOM     15  H2  UNL     1     -12.502  -6.325  14.323  1.00  0.00     0.208 HD
BRANCH  14  16
HETATM   16  N1  UNL     1     -11.676  -7.838  13.080  1.00  0.00    -0.330 N 
ATOM     17  H12 UNL     1     -11.056  -7.221  12.556  1.00  0.00     0.178 HD
ATOM     18  H11 UNL     1     -11.754  -8.833  12.868  1.00  0.00     0.178 HD
ENDBRANCH  14  16
ENDBRANCH  12  14
ENDBRANCH   5  12
ENDBRANCH   3   4
ENDBRANCH   1   3
BRANCH   1  19
HETATM   19  C3  UNL     1     -13.138 -10.341  10.962  1.00  0.00     0.160 A 
HETATM   20  N9  UNL     1     -12.039 -10.321  10.188  1.00  0.00    -0.314 N 
HETATM   21  C4  UNL     1     -12.115  -9.381   9.252  1.00  0.00     0.227 A 
ATOM     22  H9  UNL     1     -11.244 -10.949  10.304  1.00  0.00     0.170 HD
HETATM   23  N11 UNL     1     -13.291  -8.773   9.420  1.00  0.00    -0.309 N 
HETATM   24  C5  UNL     1     -13.940  -9.329  10.448  1.00  0.00     0.187 A 
ATOM     25  H11 UNL     1     -13.641  -8.002   8.851  1.00  0.00     0.170 HD
BRANCH  21  26
HETATM   26  S1  UNL     1     -10.858  -9.078   8.076  1.00  0.00     0.289 S 
HETATM   27  O1  UNL     1     -10.274  -7.716   8.302  1.00  0.00    -0.198 OA
HETATM   28  O2  UNL     1      -9.757 -10.095   8.260  1.00  0.00    -0.198 OA
BRANCH  26  29
HETATM   29  N10 UNL     1     -11.570  -9.216   6.504  1.00  0.00    -0.322 N 
ATOM     30 2H10 UNL     1     -11.789  -8.437   5.883  1.00  0.00     0.169 HD
ATOM     31 1H10 UNL     1     -11.725 -10.208   6.322  1.00  0.00     0.169 HD
ENDBRANCH  26  29
ENDBRANCH  21  26
BRANCH  24  32
HETATM   32  O3  UNL     1     -15.186  -8.962  10.914  1.00  0.00    -0.343 OA
ATOM     33  H3  UNL     1     -15.897  -8.608  10.393  1.00  0.00     0.219 HD
ENDBRANCH  24  32
ENDBRANCH   1  19
TORSDOF 9
ENDMDL
