MODEL 1
REMARK VINA RESULT: -7.317485729      0.000      0.000
REMARK  9 active torsions:
REMARK  status: ('A' for Active; 'I' for Inactive)
REMARK    1  A    between atoms: C3_4  and  C4_5 
REMARK    2  A    between atoms: C3_4  and  C17_23 
REMARK    3  A    between atoms: C5_6  and  C6_7 
REMARK    4  A    between atoms: C7_8  and  C8_9 
REMARK    5  A    between atoms: C10_12  and  O3_13 
REMARK    6  A    between atoms: C10_12  and  C11_15 
REMARK    7  A    between atoms: C14_18  and  O4_19 
REMARK    8  A    between atoms: C17_23  and  O5_24 
REMARK    9  A    between atoms: C19_27  and  O6_28 
ROOT
HETATM    1  C6  UNL     1      90.285  71.644  32.917  1.00  0.00    -0.001 C 
HETATM    2  C7  UNL     1      89.115  71.830  32.420  1.00  0.00     0.011 C 
ENDROOT
BRANCH   2   3
HETATM    3  C8  UNL     1      88.453  71.304  31.239  1.00  0.00     0.085 C 
HETATM    4  C9  UNL     1      88.611  69.793  31.131  1.00  0.00     0.051 C 
HETATM    5  O2  UNL     1      87.053  71.525  31.422  1.00  0.00    -0.337 OA
HETATM    6  C10 UNL     1      86.771  72.802  31.015  1.00  0.00     0.192 C 
HETATM    7  C14 UNL     1      87.907  73.307  30.193  1.00  0.00     0.187 C 
HETATM    8  C15 UNL     1      88.664  72.012  29.957  1.00  0.00     0.054 C 
HETATM    9  C16 UNL     1      90.028  72.197  29.451  1.00  0.00     0.016 C 
BRANCH   6  10
HETATM   10  O3  UNL     1      86.545  73.701  32.074  1.00  0.00    -0.363 OA
ATOM     11  H3  UNL     1      87.306  74.218  32.310  1.00  0.00     0.213 HD
ENDBRANCH   6  10
BRANCH   6  12
HETATM   12  C11 UNL     1      85.455  72.757  30.253  1.00  0.00     0.043 C 
HETATM   13  C12 UNL     1      84.869  71.381  30.189  1.00  0.00     0.015 C 
HETATM   14  C13 UNL     1      84.483  73.814  30.699  1.00  0.00     0.015 C 
ENDBRANCH   6  12
BRANCH   7  15
HETATM   15  O4  UNL     1      87.536  73.811  28.960  1.00  0.00    -0.390 OA
ATOM     16  H4  UNL     1      86.924  74.536  29.003  1.00  0.00     0.210 HD
ENDBRANCH   7  15
ENDBRANCH   2   3
BRANCH   1  17
HETATM   17  C5  UNL     1      91.379  70.804  32.436  1.00  0.00    -0.001 C 
HETATM   18  C4  UNL     1      92.516  71.327  32.014  1.00  0.00     0.013 C 
BRANCH  18  19
HETATM   19  C3  UNL     1      93.615  70.482  31.530  1.00  0.00     0.103 C 
HETATM   20  O1  UNL     1      93.657  69.257  32.200  1.00  0.00    -0.366 OA
HETATM   21  C2  UNL     1      94.942  69.009  32.596  1.00  0.00     0.147 C 
HETATM   22  C1  UNL     1      95.834  68.426  31.550  1.00  0.00     0.042 C 
HETATM   23  C19 UNL     1      95.488  70.391  32.953  1.00  0.00     0.150 C 
HETATM   24  C18 UNL     1      94.904  71.211  31.841  1.00  0.00     0.078 C 
BRANCH  23  25
HETATM   25  O6  UNL     1      96.860  70.417  33.015  1.00  0.00    -0.393 OA
ATOM     26  H6  UNL     1      97.202  69.918  33.748  1.00  0.00     0.210 HD
ENDBRANCH  23  25
BRANCH  19  27
HETATM   27  C17 UNL     1      93.451  70.238  30.048  1.00  0.00     0.206 C 
BRANCH  27  28
HETATM   28  O5  UNL     1      94.431  70.900  29.341  1.00  0.00    -0.398 OA
ATOM     29  H5  UNL     1      94.219  70.915  28.415  1.00  0.00     0.209 HD
ENDBRANCH  27  28
ENDBRANCH  19  27
ENDBRANCH  18  19
ENDBRANCH   1  17
TORSDOF 9
ENDMDL
MODEL 2
REMARK VINA RESULT: -7.075911042      1.517      7.877
REMARK  9 active torsions:
REMARK  status: ('A' for Active; 'I' for Inactive)
REMARK    1  A    between atoms: C3_4  and  C4_5 
REMARK    2  A    between atoms: C3_4  and  C17_23 
REMARK    3  A    between atoms: C5_6  and  C6_7 
REMARK    4  A    between atoms: C7_8  and  C8_9 
REMARK    5  A    between atoms: C10_12  and  O3_13 
REMARK    6  A    between atoms: C10_12  and  C11_15 
REMARK    7  A    between atoms: C14_18  and  O4_19 
REMARK    8  A    between atoms: C17_23  and  O5_24 
REMARK    9  A    between atoms: C19_27  and  O6_28 
ROOT
HETATM    1  C6  UNL     1      90.875  73.528  31.863  1.00  0.00    -0.001 C 
HETATM    2  C7  UNL     1      91.842  72.722  31.602  1.00  0.00     0.011 C 
ENDROOT
BRANCH   2   3
HETATM    3  C8  UNL     1      92.031  71.710  30.578  1.00  0.00     0.085 C 
HETATM    4  C9  UNL     1      91.536  72.187  29.218  1.00  0.00     0.051 C 
HETATM    5  O2  UNL     1      93.441  71.537  30.427  1.00  0.00    -0.337 OA
HETATM    6  C10 UNL     1      93.862  70.652  31.384  1.00  0.00     0.192 C 
HETATM    7  C14 UNL     1      92.675  69.929  31.925  1.00  0.00     0.187 C 
HETATM    8  C15 UNL     1      91.629  70.322  30.897  1.00  0.00     0.054 C 
HETATM    9  C16 UNL     1      90.249  70.047  31.309  1.00  0.00     0.016 C 
BRANCH   6  10
HETATM   10  O3  UNL     1      94.551  71.253  32.453  1.00  0.00    -0.363 OA
ATOM     11  H3  UNL     1      94.885  70.634  33.092  1.00  0.00     0.213 HD
ENDBRANCH   6  10
BRANCH   6  12
HETATM   12  C11 UNL     1      94.878  69.727  30.732  1.00  0.00     0.043 C 
HETATM   13  C12 UNL     1      95.002  69.949  29.257  1.00  0.00     0.015 C 
HETATM   14  C13 UNL     1      96.196  69.701  31.458  1.00  0.00     0.015 C 
ENDBRANCH   6  12
BRANCH   7  15
HETATM   15  O4  UNL     1      92.791  68.552  31.905  1.00  0.00    -0.390 OA
ATOM     16  H4  UNL     1      92.404  68.139  31.141  1.00  0.00     0.210 HD
ENDBRANCH   7  15
ENDBRANCH   2   3
BRANCH   1  17
HETATM   17  C5  UNL     1      89.593  73.696  31.182  1.00  0.00    -0.001 C 
HETATM   18  C4  UNL     1      88.476  73.200  31.683  1.00  0.00     0.013 C 
BRANCH  18  19
HETATM   19  C3  UNL     1      87.189  73.369  30.997  1.00  0.00     0.103 C 
HETATM   20  O1  UNL     1      86.119  73.356  31.897  1.00  0.00    -0.366 OA
HETATM   21  C2  UNL     1      85.150  72.516  31.426  1.00  0.00     0.147 C 
HETATM   22  C1  UNL     1      84.234  73.103  30.403  1.00  0.00     0.042 C 
HETATM   23  C19 UNL     1      85.935  71.391  30.754  1.00  0.00     0.150 C 
HETATM   24  C18 UNL     1      87.018  72.180  30.078  1.00  0.00     0.078 C 
BRANCH  23  25
HETATM   25  O6  UNL     1      85.162  70.644  29.900  1.00  0.00    -0.393 OA
ATOM     26  H6  UNL     1      85.119  69.729  30.152  1.00  0.00     0.210 HD
ENDBRANCH  23  25
BRANCH  19  27
HETATM   27  C17 UNL     1      87.188  74.673  30.236  1.00  0.00     0.206 C 
BRANCH  27  28
HETATM   28  O5  UNL     1      87.151  74.437  28.878  1.00  0.00    -0.398 OA
ATOM     29  H5  UNL     1      87.560  75.153  28.406  1.00  0.00     0.209 HD
ENDBRANCH  27  28
ENDBRANCH  19  27
ENDBRANCH  18  19
ENDBRANCH   1  17
TORSDOF 9
ENDMDL
MODEL 3
REMARK VINA RESULT: -6.949166439      1.065      1.970
REMARK  9 active torsions:
REMARK  status: ('A' for Active; 'I' for Inactive)
REMARK    1  A    between atoms: C3_4  and  C4_5 
REMARK    2  A    between atoms: C3_4  and  C17_23 
REMARK    3  A    between atoms: C5_6  and  C6_7 
REMARK    4  A    between atoms: C7_8  and  C8_9 
REMARK    5  A    between atoms: C10_12  and  O3_13 
REMARK    6  A    between atoms: C10_12  and  C11_15 
REMARK    7  A    between atoms: C14_18  and  O4_19 
REMARK    8  A    between atoms: C17_23  and  O5_24 
REMARK    9  A    between atoms: C19_27  and  O6_28 
ROOT
HETATM    1  C6  UNL     1      90.389  71.994  33.016  1.00  0.00    -0.001 C 
HETATM    2  C7  UNL     1      89.207  72.075  32.517  1.00  0.00     0.011 C 
ENDROOT
BRANCH   2   3
HETATM    3  C8  UNL     1      88.583  71.455  31.361  1.00  0.00     0.085 C 
HETATM    4  C9  UNL     1      88.823  69.952  31.330  1.00  0.00     0.051 C 
HETATM    5  O2  UNL     1      87.172  71.610  31.525  1.00  0.00    -0.337 OA
HETATM    6  C10 UNL     1      86.826  72.848  31.053  1.00  0.00     0.192 C 
HETATM    7  C14 UNL     1      87.940  73.371  30.212  1.00  0.00     0.187 C 
HETATM    8  C15 UNL     1      88.767  72.109  30.045  1.00  0.00     0.054 C 
HETATM    9  C16 UNL     1      90.123  72.340  29.538  1.00  0.00     0.016 C 
BRANCH   6  10
HETATM   10  O3  UNL     1      86.544  73.785  32.064  1.00  0.00    -0.363 OA
ATOM     11  H3  UNL     1      87.309  74.072  32.548  1.00  0.00     0.213 HD
ENDBRANCH   6  10
BRANCH   6  12
HETATM   12  C11 UNL     1      85.521  72.694  30.287  1.00  0.00     0.043 C 
HETATM   13  C12 UNL     1      85.035  71.278  30.246  1.00  0.00     0.015 C 
HETATM   14  C13 UNL     1      84.472  73.687  30.711  1.00  0.00     0.015 C 
ENDBRANCH   6  12
BRANCH   7  15
HETATM   15  O4  UNL     1      87.552  73.792  28.953  1.00  0.00    -0.390 OA
ATOM     16  H4  UNL     1      88.210  74.299  28.492  1.00  0.00     0.210 HD
ENDBRANCH   7  15
ENDBRANCH   2   3
BRANCH   1  17
HETATM   17  C5  UNL     1      91.541  71.217  32.563  1.00  0.00    -0.001 C 
HETATM   18  C4  UNL     1      92.673  71.802  32.216  1.00  0.00     0.013 C 
BRANCH  18  19
HETATM   19  C3  UNL     1      93.830  71.021  31.760  1.00  0.00     0.103 C 
HETATM   20  O1  UNL     1      94.219  71.381  30.467  1.00  0.00    -0.366 OA
HETATM   21  C2  UNL     1      94.396  70.248  29.723  1.00  0.00     0.147 C 
HETATM   22  C1  UNL     1      95.715  69.570  29.892  1.00  0.00     0.042 C 
HETATM   23  C19 UNL     1      93.317  69.298  30.240  1.00  0.00     0.150 C 
HETATM   24  C18 UNL     1      93.395  69.573  31.713  1.00  0.00     0.078 C 
BRANCH  23  25
HETATM   25  O6  UNL     1      93.556  67.990  29.895  1.00  0.00    -0.393 OA
ATOM     26  H6  UNL     1      94.284  67.898  29.293  1.00  0.00     0.210 HD
ENDBRANCH  23  25
BRANCH  19  27
HETATM   27  C17 UNL     1      94.987  71.229  32.708  1.00  0.00     0.206 C 
BRANCH  27  28
HETATM   28  O5  UNL     1      94.901  72.467  33.307  1.00  0.00    -0.398 OA
ATOM     29  H5  UNL     1      95.685  72.645  33.814  1.00  0.00     0.209 HD
ENDBRANCH  27  28
ENDBRANCH  19  27
ENDBRANCH  18  19
ENDBRANCH   1  17
TORSDOF 9
ENDMDL
MODEL 4
REMARK VINA RESULT: -6.855287781      0.912      1.788
REMARK  9 active torsions:
REMARK  status: ('A' for Active; 'I' for Inactive)
REMARK    1  A    between atoms: C3_4  and  C4_5 
REMARK    2  A    between atoms: C3_4  and  C17_23 
REMARK    3  A    between atoms: C5_6  and  C6_7 
REMARK    4  A    between atoms: C7_8  and  C8_9 
REMARK    5  A    between atoms: C10_12  and  O3_13 
REMARK    6  A    between atoms: C10_12  and  C11_15 
REMARK    7  A    between atoms: C14_18  and  O4_19 
REMARK    8  A    between atoms: C17_23  and  O5_24 
REMARK    9  A    between atoms: C19_27  and  O6_28 
ROOT
HETATM    1  C6  UNL     1      90.224  71.410  32.882  1.00  0.00    -0.001 C 
HETATM    2  C7  UNL     1      89.082  71.701  32.370  1.00  0.00     0.011 C 
ENDROOT
BRANCH   2   3
HETATM    3  C8  UNL     1      88.378  71.217  31.195  1.00  0.00     0.085 C 
HETATM    4  C9  UNL     1      88.456  69.701  31.078  1.00  0.00     0.051 C 
HETATM    5  O2  UNL     1      86.994  71.511  31.397  1.00  0.00    -0.337 OA
HETATM    6  C10 UNL     1      86.775  72.803  31.000  1.00  0.00     0.192 C 
HETATM    7  C14 UNL     1      87.927  73.252  30.166  1.00  0.00     0.187 C 
HETATM    8  C15 UNL     1      88.611  71.920  29.914  1.00  0.00     0.054 C 
HETATM    9  C16 UNL     1      89.976  72.035  29.392  1.00  0.00     0.016 C 
BRANCH   6  10
HETATM   10  O3  UNL     1      86.610  73.707  32.066  1.00  0.00    -0.363 OA
ATOM     11  H3  UNL     1      87.209  73.562  32.790  1.00  0.00     0.213 HD
ENDBRANCH   6  10
BRANCH   6  12
HETATM   12  C11 UNL     1      85.450  72.831  30.254  1.00  0.00     0.043 C 
HETATM   13  C12 UNL     1      84.742  71.512  30.278  1.00  0.00     0.015 C 
HETATM   14  C13 UNL     1      84.582  73.996  30.646  1.00  0.00     0.015 C 
ENDBRANCH   6  12
BRANCH   7  15
HETATM   15  O4  UNL     1      87.567  73.781  28.940  1.00  0.00    -0.390 OA
ATOM     16  H4  UNL     1      87.943  74.635  28.759  1.00  0.00     0.210 HD
ENDBRANCH   7  15
ENDBRANCH   2   3
BRANCH   1  17
HETATM   17  C5  UNL     1      91.232  70.453  32.429  1.00  0.00    -0.001 C 
HETATM   18  C4  UNL     1      92.481  70.820  32.208  1.00  0.00     0.013 C 
BRANCH  18  19
HETATM   19  C3  UNL     1      93.493  69.859  31.753  1.00  0.00     0.103 C 
HETATM   20  O1  UNL     1      94.783  70.260  32.108  1.00  0.00    -0.366 OA
HETATM   21  C2  UNL     1      95.600  70.150  31.018  1.00  0.00     0.147 C 
HETATM   22  C1  UNL     1      96.138  68.782  30.754  1.00  0.00     0.042 C 
HETATM   23  C19 UNL     1      94.698  70.527  29.844  1.00  0.00     0.150 C 
HETATM   24  C18 UNL     1      93.429  69.832  30.242  1.00  0.00     0.078 C 
BRANCH  23  25
HETATM   25  O6  UNL     1      95.209  70.125  28.634  1.00  0.00    -0.393 OA
ATOM     26  H6  UNL     1      94.962  69.236  28.411  1.00  0.00     0.210 HD
ENDBRANCH  23  25
BRANCH  19  27
HETATM   27  C17 UNL     1      93.207  68.502  32.350  1.00  0.00     0.206 C 
BRANCH  27  28
HETATM   28  O5  UNL     1      93.972  68.302  33.479  1.00  0.00    -0.398 OA
ATOM     29  H5  UNL     1      93.773  67.460  33.871  1.00  0.00     0.209 HD
ENDBRANCH  27  28
ENDBRANCH  19  27
ENDBRANCH  18  19
ENDBRANCH   1  17
TORSDOF 9
ENDMDL
MODEL 5
REMARK VINA RESULT: -6.775207091      1.325      8.120
REMARK  9 active torsions:
REMARK  status: ('A' for Active; 'I' for Inactive)
REMARK    1  A    between atoms: C3_4  and  C4_5 
REMARK    2  A    between atoms: C3_4  and  C17_23 
REMARK    3  A    between atoms: C5_6  and  C6_7 
REMARK    4  A    between atoms: C7_8  and  C8_9 
REMARK    5  A    between atoms: C10_12  and  O3_13 
REMARK    6  A    between atoms: C10_12  and  C11_15 
REMARK    7  A    between atoms: C14_18  and  O4_19 
REMARK    8  A    between atoms: C17_23  and  O5_24 
REMARK    9  A    between atoms: C19_27  and  O6_28 
ROOT
HETATM    1  C6  UNL     1      89.600  70.338  31.028  1.00  0.00    -0.001 C 
HETATM    2  C7  UNL     1      90.850  70.405  31.321  1.00  0.00     0.011 C 
ENDROOT
BRANCH   2   3
HETATM    3  C8  UNL     1      91.793  71.509  31.362  1.00  0.00     0.085 C 
HETATM    4  C9  UNL     1      91.190  72.739  32.029  1.00  0.00     0.051 C 
HETATM    5  O2  UNL     1      92.863  71.102  32.217  1.00  0.00    -0.337 OA
HETATM    6  C10 UNL     1      93.747  70.372  31.468  1.00  0.00     0.192 C 
HETATM    7  C14 UNL     1      93.471  70.619  30.023  1.00  0.00     0.187 C 
HETATM    8  C15 UNL     1      92.547  71.819  30.127  1.00  0.00     0.054 C 
HETATM    9  C16 UNL     1      91.816  72.124  28.893  1.00  0.00     0.016 C 
BRANCH   6  10
HETATM   10  O3  UNL     1      93.689  68.986  31.708  1.00  0.00    -0.363 OA
ATOM     11  H3  UNL     1      93.474  68.470  30.940  1.00  0.00     0.213 HD
ENDBRANCH   6  10
BRANCH   6  12
HETATM   12  C11 UNL     1      95.149  70.785  31.887  1.00  0.00     0.043 C 
HETATM   13  C12 UNL     1      95.155  71.685  33.084  1.00  0.00     0.015 C 
HETATM   14  C13 UNL     1      96.095  69.619  31.995  1.00  0.00     0.015 C 
ENDBRANCH   6  12
BRANCH   7  15
HETATM   15  O4  UNL     1      94.580  71.001  29.291  1.00  0.00    -0.390 OA
ATOM     16  H4  UNL     1      94.387  71.259  28.397  1.00  0.00     0.210 HD
ENDBRANCH   7  15
ENDBRANCH   2   3
BRANCH   1  17
HETATM   17  C5  UNL     1      88.679  71.398  30.624  1.00  0.00    -0.001 C 
HETATM   18  C4  UNL     1      87.851  71.958  31.488  1.00  0.00     0.013 C 
BRANCH  18  19
HETATM   19  C3  UNL     1      86.926  73.022  31.082  1.00  0.00     0.103 C 
HETATM   20  O1  UNL     1      86.308  73.618  32.185  1.00  0.00    -0.366 OA
HETATM   21  C2  UNL     1      84.964  73.702  31.951  1.00  0.00     0.147 C 
HETATM   22  C1  UNL     1      84.529  74.867  31.124  1.00  0.00     0.042 C 
HETATM   23  C19 UNL     1      84.648  72.432  31.163  1.00  0.00     0.150 C 
HETATM   24  C18 UNL     1      85.840  72.372  30.254  1.00  0.00     0.078 C 
BRANCH  23  25
HETATM   25  O6  UNL     1      83.441  72.500  30.512  1.00  0.00    -0.393 OA
ATOM     26  H6  UNL     1      82.904  71.731  30.658  1.00  0.00     0.210 HD
ENDBRANCH  23  25
BRANCH  19  27
HETATM   27  C17 UNL     1      87.676  74.074  30.298  1.00  0.00     0.206 C 
BRANCH  27  28
HETATM   28  O5  UNL     1      87.148  74.198  29.031  1.00  0.00    -0.398 OA
ATOM     29  H5  UNL     1      87.401  75.028  28.646  1.00  0.00     0.209 HD
ENDBRANCH  27  28
ENDBRANCH  19  27
ENDBRANCH  18  19
ENDBRANCH   1  17
TORSDOF 9
ENDMDL
