MODEL 1
REMARK VINA RESULT: -6.875201822      0.000      0.000
REMARK  9 active torsions:
REMARK  status: ('A' for Active; 'I' for Inactive)
REMARK    1  A    between atoms: C2_2  and  C3_3 
REMARK    2  A    between atoms: C5_6  and  C6_7 
REMARK    3  A    between atoms: C7_10  and  S1_11 
REMARK    4  A    between atoms: S1_11  and  C8_12 
REMARK    5  A    between atoms: C10_14  and  N2_15 
REMARK    6  A    between atoms: N2_15  and  N3_17 
REMARK    7  A    between atoms: C11_25  and  C12_26 
REMARK    8  A    between atoms: C12_26  and  O3_27 
REMARK    9  A    between atoms: C13_29  and  O4_30 
ROOT
HETATM    1  C8  UNL     1      83.669  71.771  30.873  1.00  0.00     0.088 C 
HETATM    2  C9  UNL     1      84.608  72.887  30.510  1.00  0.00     0.073 C 
HETATM    3  C10 UNL     1      84.405  73.924  31.587  1.00  0.00     0.301 C 
HETATM    4  N5  UNL     1      83.700  73.277  32.662  1.00  0.00    -0.046 N 
ATOM      5  H51 UNL     1      83.160  73.916  33.246  1.00  0.00     0.280 HD
ATOM      6  H52 UNL     1      84.307  72.926  33.404  1.00  0.00     0.280 HD
HETATM    7  C11 UNL     1      82.919  72.273  32.035  1.00  0.00     0.226 C 
ENDROOT
BRANCH   1   8
HETATM    8  S1  UNL     1      84.370  70.164  30.888  1.00  0.00    -0.122 SA
BRANCH   8   9
HETATM    9  C7  UNL     1      85.649  69.775  29.771  1.00  0.00     0.043 C 
HETATM   10  C5  UNL     1      86.946  69.987  30.021  1.00  0.00     0.124 C 
HETATM   11  N1  UNL     1      87.755  69.576  28.951  1.00  0.00    -0.359 N 
HETATM   12  C4  UNL     1      88.740  69.310  27.946  1.00  0.00     0.160 C 
HETATM   13  C14 UNL     1      86.923  68.574  28.250  1.00  0.00     0.149 C 
HETATM   14  C3  UNL     1      87.625  68.985  27.021  1.00  0.00    -0.041 C 
HETATM   15  C13 UNL     1      85.538  69.177  28.432  1.00  0.00     0.187 C 
BRANCH  10  16
HETATM   16  C6  UNL     1      87.482  70.582  31.273  1.00  0.00     0.227 C 
HETATM   17  O1  UNL     1      87.936  69.857  32.176  1.00  0.00    -0.643 OA
HETATM   18  O2  UNL     1      87.487  71.948  31.460  1.00  0.00    -0.643 OA
ENDBRANCH  10  16
BRANCH  14  19
HETATM   19  C2  UNL     1      87.445  69.063  25.717  1.00  0.00    -0.024 C 
HETATM   20  C1  UNL     1      88.009  68.001  24.849  1.00  0.00     0.036 C 
ENDBRANCH  14  19
BRANCH  15  21
HETATM   21  O4  UNL     1      85.313  70.139  27.441  1.00  0.00    -0.388 OA
ATOM     22  H4  UNL     1      85.029  69.750  26.623  1.00  0.00     0.210 HD
ENDBRANCH  15  21
ENDBRANCH   8   9
ENDBRANCH   1   8
BRANCH   7  23
HETATM   23  C12 UNL     1      82.290  71.251  32.926  1.00  0.00     0.198 C 
BRANCH  23  24
HETATM   24  O3  UNL     1      81.212  71.868  33.585  1.00  0.00    -0.399 OA
ATOM     25  H3  UNL     1      80.826  71.224  34.168  1.00  0.00     0.209 HD
ENDBRANCH  23  24
ENDBRANCH   7  23
BRANCH   3  26
HETATM   26  N2  UNL     1      85.596  74.575  32.026  1.00  0.00    -0.292 N 
ATOM     27  H2  UNL     1      85.741  74.775  33.015  1.00  0.00     0.184 HD
BRANCH  26  28
HETATM   28  N3  UNL     1      86.448  74.893  31.191  1.00  0.00    -0.252 N 
HETATM   29  N4  UNL     1      87.567  74.965  30.677  1.00  0.00    -0.331 N 
ATOM     30  H42 UNL     1      88.089  74.440  31.379  1.00  0.00     0.178 HD
ATOM     31  H41 UNL     1      88.272  75.229  29.987  1.00  0.00     0.178 HD
ATOM     32  H3  UNL     1      85.885  75.411  30.517  1.00  0.00     0.207 HD
ENDBRANCH  26  28
ENDBRANCH   3  26
TORSDOF 9
ENDMDL
MODEL 2
REMARK VINA RESULT: -6.874200919      1.975      2.588
REMARK  9 active torsions:
REMARK  status: ('A' for Active; 'I' for Inactive)
REMARK    1  A    between atoms: C2_2  and  C3_3 
REMARK    2  A    between atoms: C5_6  and  C6_7 
REMARK    3  A    between atoms: C7_10  and  S1_11 
REMARK    4  A    between atoms: S1_11  and  C8_12 
REMARK    5  A    between atoms: C10_14  and  N2_15 
REMARK    6  A    between atoms: N2_15  and  N3_17 
REMARK    7  A    between atoms: C11_25  and  C12_26 
REMARK    8  A    between atoms: C12_26  and  O3_27 
REMARK    9  A    between atoms: C13_29  and  O4_30 
ROOT
HETATM    1  C8  UNL     1      85.980  73.404  30.079  1.00  0.00     0.088 C 
HETATM    2  C9  UNL     1      87.169  74.166  29.565  1.00  0.00     0.073 C 
HETATM    3  C10 UNL     1      87.106  75.498  30.271  1.00  0.00     0.301 C 
HETATM    4  N5  UNL     1      86.185  75.347  31.366  1.00  0.00    -0.046 N 
ATOM      5  H51 UNL     1      85.749  76.220  31.665  1.00  0.00     0.280 HD
ATOM      6  H52 UNL     1      86.632  75.130  32.257  1.00  0.00     0.280 HD
HETATM    7  C11 UNL     1      85.260  74.363  30.933  1.00  0.00     0.226 C 
ENDROOT
BRANCH   1   8
HETATM    8  S1  UNL     1      86.307  71.776  30.641  1.00  0.00    -0.122 SA
BRANCH   8   9
HETATM    9  C7  UNL     1      87.239  70.695  29.644  1.00  0.00     0.043 C 
HETATM   10  C5  UNL     1      88.576  70.676  29.613  1.00  0.00     0.124 C 
HETATM   11  N1  UNL     1      89.061  69.703  28.725  1.00  0.00    -0.359 N 
HETATM   12  C4  UNL     1      89.753  68.843  27.812  1.00  0.00     0.160 C 
HETATM   13  C14 UNL     1      87.948  68.733  28.629  1.00  0.00     0.149 C 
HETATM   14  C3  UNL     1      88.429  68.457  27.263  1.00  0.00    -0.041 C 
HETATM   15  C13 UNL     1      86.750  69.668  28.712  1.00  0.00     0.187 C 
BRANCH  10  16
HETATM   16  C6  UNL     1      89.455  71.567  30.413  1.00  0.00     0.227 C 
HETATM   17  O1  UNL     1      90.195  72.396  29.854  1.00  0.00    -0.643 OA
HETATM   18  O2  UNL     1      89.470  71.494  31.789  1.00  0.00    -0.643 OA
ENDBRANCH  10  16
BRANCH  14  19
HETATM   19  C2  UNL     1      87.989  68.061  26.084  1.00  0.00    -0.024 C 
HETATM   20  C1  UNL     1      88.296  68.885  24.890  1.00  0.00     0.036 C 
ENDBRANCH  14  19
BRANCH  15  21
HETATM   21  O4  UNL     1      86.477  70.192  27.443  1.00  0.00    -0.388 OA
ATOM     22  H4  UNL     1      86.558  69.537  26.760  1.00  0.00     0.210 HD
ENDBRANCH  15  21
ENDBRANCH   8   9
ENDBRANCH   1   8
BRANCH   7  23
HETATM   23  C12 UNL     1      84.347  73.791  31.969  1.00  0.00     0.198 C 
BRANCH  23  24
HETATM   24  O3  UNL     1      84.810  74.220  33.226  1.00  0.00    -0.399 OA
ATOM     25  H3  UNL     1      84.355  73.712  33.888  1.00  0.00     0.209 HD
ENDBRANCH  23  24
ENDBRANCH   7  23
BRANCH   3  26
HETATM   26  N2  UNL     1      88.367  76.020  30.683  1.00  0.00    -0.292 N 
ATOM     27  H2  UNL     1      88.522  77.028  30.723  1.00  0.00     0.184 HD
BRANCH  26  28
HETATM   28  N3  UNL     1      89.270  75.236  30.990  1.00  0.00    -0.252 N 
HETATM   29  N4  UNL     1      90.171  74.750  31.679  1.00  0.00    -0.331 N 
ATOM     30  H42 UNL     1      90.131  75.404  32.461  1.00  0.00     0.178 HD
ATOM     31  H41 UNL     1      90.917  74.102  31.932  1.00  0.00     0.178 HD
ATOM     32  H3  UNL     1      89.272  74.608  30.186  1.00  0.00     0.207 HD
ENDBRANCH  26  28
ENDBRANCH   3  26
TORSDOF 9
ENDMDL
MODEL 3
REMARK VINA RESULT: -6.844754448      3.571      4.475
REMARK  9 active torsions:
REMARK  status: ('A' for Active; 'I' for Inactive)
REMARK    1  A    between atoms: C2_2  and  C3_3 
REMARK    2  A    between atoms: C5_6  and  C6_7 
REMARK    3  A    between atoms: C7_10  and  S1_11 
REMARK    4  A    between atoms: S1_11  and  C8_12 
REMARK    5  A    between atoms: C10_14  and  N2_15 
REMARK    6  A    between atoms: N2_15  and  N3_17 
REMARK    7  A    between atoms: C11_25  and  C12_26 
REMARK    8  A    between atoms: C12_26  and  O3_27 
REMARK    9  A    between atoms: C13_29  and  O4_30 
ROOT
HETATM    1  C8  UNL     1      86.631  73.098  30.349  1.00  0.00     0.088 C 
HETATM    2  C9  UNL     1      87.681  74.014  29.785  1.00  0.00     0.073 C 
HETATM    3  C10 UNL     1      87.243  75.398  30.196  1.00  0.00     0.301 C 
HETATM    4  N5  UNL     1      86.247  75.234  31.222  1.00  0.00    -0.046 N 
ATOM      5  H51 UNL     1      85.599  76.018  31.300  1.00  0.00     0.280 HD
ATOM      6  H52 UNL     1      86.617  75.294  32.171  1.00  0.00     0.280 HD
HETATM    7  C11 UNL     1      85.620  73.997  30.928  1.00  0.00     0.226 C 
ENDROOT
BRANCH   1   8
HETATM    8  S1  UNL     1      87.231  71.723  31.257  1.00  0.00    -0.122 SA
BRANCH   8   9
HETATM    9  C7  UNL     1      88.895  71.240  31.083  1.00  0.00     0.043 C 
HETATM   10  C5  UNL     1      89.525  70.422  31.932  1.00  0.00     0.124 C 
HETATM   11  N1  UNL     1      90.857  70.199  31.548  1.00  0.00    -0.359 N 
HETATM   12  C4  UNL     1      92.252  69.920  31.384  1.00  0.00     0.160 C 
HETATM   13  C14 UNL     1      90.851  70.480  30.095  1.00  0.00     0.149 C 
HETATM   14  C3  UNL     1      92.256  70.892  30.263  1.00  0.00    -0.041 C 
HETATM   15  C13 UNL     1      89.849  71.623  30.031  1.00  0.00     0.187 C 
BRANCH  10  16
HETATM   16  C6  UNL     1      88.908  69.812  33.139  1.00  0.00     0.227 C 
HETATM   17  O1  UNL     1      89.103  70.302  34.266  1.00  0.00    -0.643 OA
HETATM   18  O2  UNL     1      88.108  68.695  33.036  1.00  0.00    -0.643 OA
ENDBRANCH  10  16
BRANCH  14  19
HETATM   19  C2  UNL     1      93.154  71.702  29.737  1.00  0.00    -0.024 C 
HETATM   20  C1  UNL     1      94.555  71.233  29.606  1.00  0.00     0.036 C 
ENDBRANCH  14  19
BRANCH  15  21
HETATM   21  O4  UNL     1      90.496  72.829  30.318  1.00  0.00    -0.388 OA
ATOM     22  H4  UNL     1      90.367  73.100  31.219  1.00  0.00     0.210 HD
ENDBRANCH  15  21
ENDBRANCH   8   9
ENDBRANCH   1   8
BRANCH   7  23
HETATM   23  C12 UNL     1      84.731  73.421  31.983  1.00  0.00     0.198 C 
BRANCH  23  24
HETATM   24  O3  UNL     1      84.844  74.237  33.124  1.00  0.00    -0.399 OA
ATOM     25  H3  UNL     1      85.112  73.683  33.847  1.00  0.00     0.209 HD
ENDBRANCH  23  24
ENDBRANCH   7  23
BRANCH   3  26
HETATM   26  N2  UNL     1      88.300  76.270  30.591  1.00  0.00    -0.292 N 
ATOM     27  H2  UNL     1      88.177  77.282  30.551  1.00  0.00     0.184 HD
BRANCH  26  28
HETATM   28  N3  UNL     1      89.365  75.783  30.982  1.00  0.00    -0.252 N 
HETATM   29  N4  UNL     1      90.243  75.464  31.788  1.00  0.00    -0.331 N 
ATOM     30  H42 UNL     1      89.810  75.831  32.635  1.00  0.00     0.178 HD
ATOM     31  H41 UNL     1      91.123  75.062  32.111  1.00  0.00     0.178 HD
ATOM     32  H3  UNL     1      89.758  75.432  30.108  1.00  0.00     0.207 HD
ENDBRANCH  26  28
ENDBRANCH   3  26
TORSDOF 9
ENDMDL
MODEL 4
REMARK VINA RESULT: -6.810928798      3.713      4.519
REMARK  9 active torsions:
REMARK  status: ('A' for Active; 'I' for Inactive)
REMARK    1  A    between atoms: C2_2  and  C3_3 
REMARK    2  A    between atoms: C5_6  and  C6_7 
REMARK    3  A    between atoms: C7_10  and  S1_11 
REMARK    4  A    between atoms: S1_11  and  C8_12 
REMARK    5  A    between atoms: C10_14  and  N2_15 
REMARK    6  A    between atoms: N2_15  and  N3_17 
REMARK    7  A    between atoms: C11_25  and  C12_26 
REMARK    8  A    between atoms: C12_26  and  O3_27 
REMARK    9  A    between atoms: C13_29  and  O4_30 
ROOT
HETATM    1  C8  UNL     1      88.532  70.865  31.088  1.00  0.00     0.088 C 
HETATM    2  C9  UNL     1      87.901  71.828  30.122  1.00  0.00     0.073 C 
HETATM    3  C10 UNL     1      87.887  73.149  30.851  1.00  0.00     0.301 C 
HETATM    4  N5  UNL     1      88.780  73.016  31.973  1.00  0.00    -0.046 N 
ATOM      5  H51 UNL     1      88.570  73.647  32.746  1.00  0.00     0.280 HD
ATOM      6  H52 UNL     1      89.723  73.361  31.794  1.00  0.00     0.280 HD
HETATM    7  C11 UNL     1      88.726  71.643  32.322  1.00  0.00     0.226 C 
ENDROOT
BRANCH   1   8
HETATM    8  S1  UNL     1      89.829  69.880  30.439  1.00  0.00    -0.122 SA
BRANCH   8   9
HETATM    9  C7  UNL     1      90.030  69.754  28.713  1.00  0.00     0.043 C 
HETATM   10  C5  UNL     1      91.006  70.362  28.031  1.00  0.00     0.124 C 
HETATM   11  N1  UNL     1      90.932  70.085  26.657  1.00  0.00    -0.359 N 
HETATM   12  C4  UNL     1      90.977  70.003  25.228  1.00  0.00     0.160 C 
HETATM   13  C14 UNL     1      90.185  68.809  26.601  1.00  0.00     0.149 C 
HETATM   14  C3  UNL     1      89.692  69.262  25.288  1.00  0.00    -0.041 C 
HETATM   15  C13 UNL     1      89.211  68.999  27.754  1.00  0.00     0.187 C 
BRANCH  10  16
HETATM   16  C6  UNL     1      92.051  71.230  28.636  1.00  0.00     0.227 C 
HETATM   17  O1  UNL     1      93.141  70.751  28.998  1.00  0.00    -0.643 OA
HETATM   18  O2  UNL     1      91.835  72.580  28.809  1.00  0.00    -0.643 OA
ENDBRANCH  10  16
BRANCH  14  19
HETATM   19  C2  UNL     1      88.655  69.132  24.484  1.00  0.00    -0.024 C 
HETATM   20  C1  UNL     1      88.158  67.771  24.167  1.00  0.00     0.036 C 
ENDBRANCH  14  19
BRANCH  15  21
HETATM   21  O4  UNL     1      88.103  69.731  27.314  1.00  0.00    -0.388 OA
ATOM     22  H4  UNL     1      88.208  70.664  27.461  1.00  0.00     0.210 HD
ENDBRANCH  15  21
ENDBRANCH   8   9
ENDBRANCH   1   8
BRANCH   7  23
HETATM   23  C12 UNL     1      89.765  71.147  33.276  1.00  0.00     0.198 C 
BRANCH  23  24
HETATM   24  O3  UNL     1      89.127  70.286  34.188  1.00  0.00    -0.399 OA
ATOM     25  H3  UNL     1      88.817  69.532  33.701  1.00  0.00     0.209 HD
ENDBRANCH  23  24
ENDBRANCH   7  23
BRANCH   3  26
HETATM   26  N2  UNL     1      88.186  74.284  30.043  1.00  0.00    -0.292 N 
ATOM     27  H2  UNL     1      88.125  74.226  29.027  1.00  0.00     0.184 HD
BRANCH  26  28
HETATM   28  N3  UNL     1      88.520  75.339  30.590  1.00  0.00    -0.252 N 
HETATM   29  N4  UNL     1      88.997  76.473  30.682  1.00  0.00    -0.331 N 
ATOM     30  H42 UNL     1      89.281  76.595  29.710  1.00  0.00     0.178 HD
ATOM     31  H41 UNL     1      89.273  77.345  31.134  1.00  0.00     0.178 HD
ATOM     32  H3  UNL     1      88.218  75.172  31.550  1.00  0.00     0.207 HD
ENDBRANCH  26  28
ENDBRANCH   3  26
TORSDOF 9
ENDMDL
MODEL 5
REMARK VINA RESULT: -6.758240548      2.771      6.076
REMARK  9 active torsions:
REMARK  status: ('A' for Active; 'I' for Inactive)
REMARK    1  A    between atoms: C2_2  and  C3_3 
REMARK    2  A    between atoms: C5_6  and  C6_7 
REMARK    3  A    between atoms: C7_10  and  S1_11 
REMARK    4  A    between atoms: S1_11  and  C8_12 
REMARK    5  A    between atoms: C10_14  and  N2_15 
REMARK    6  A    between atoms: N2_15  and  N3_17 
REMARK    7  A    between atoms: C11_25  and  C12_26 
REMARK    8  A    between atoms: C12_26  and  O3_27 
REMARK    9  A    between atoms: C13_29  and  O4_30 
ROOT
HETATM    1  C8  UNL     1      89.044  71.936  30.692  1.00  0.00     0.088 C 
HETATM    2  C9  UNL     1      88.837  73.089  31.634  1.00  0.00     0.073 C 
HETATM    3  C10 UNL     1      90.161  73.813  31.651  1.00  0.00     0.301 C 
HETATM    4  N5  UNL     1      90.916  73.329  30.525  1.00  0.00    -0.046 N 
ATOM      5  H51 UNL     1      91.927  73.413  30.637  1.00  0.00     0.280 HD
ATOM      6  H52 UNL     1      90.841  73.916  29.694  1.00  0.00     0.280 HD
HETATM    7  C11 UNL     1      90.469  71.997  30.331  1.00  0.00     0.226 C 
ENDROOT
BRANCH   1   8
HETATM    8  S1  UNL     1      87.816  71.734  29.458  1.00  0.00    -0.122 SA
BRANCH   8   9
HETATM    9  C7  UNL     1      86.206  71.257  29.919  1.00  0.00     0.043 C 
HETATM   10  C5  UNL     1      85.530  70.260  29.339  1.00  0.00     0.124 C 
HETATM   11  N1  UNL     1      84.259  70.091  29.911  1.00  0.00    -0.359 N 
HETATM   12  C4  UNL     1      82.905  69.818  30.288  1.00  0.00     0.160 C 
HETATM   13  C14 UNL     1      84.406  70.677  31.261  1.00  0.00     0.149 C 
HETATM   14  C3  UNL     1      82.972  71.008  31.173  1.00  0.00    -0.041 C 
HETATM   15  C13 UNL     1      85.352  71.832  30.969  1.00  0.00     0.187 C 
BRANCH  10  16
HETATM   16  C6  UNL     1      86.045  69.421  28.225  1.00  0.00     0.227 C 
HETATM   17  O1  UNL     1      86.064  69.858  27.060  1.00  0.00    -0.643 OA
HETATM   18  O2  UNL     1      86.511  68.145  28.458  1.00  0.00    -0.643 OA
ENDBRANCH  10  16
BRANCH  14  19
HETATM   19  C2  UNL     1      82.096  71.889  31.616  1.00  0.00    -0.024 C 
HETATM   20  C1  UNL     1      81.672  71.828  33.035  1.00  0.00     0.036 C 
ENDBRANCH  14  19
BRANCH  15  21
HETATM   21  O4  UNL     1      84.618  72.932  30.510  1.00  0.00    -0.388 OA
ATOM     22  H4  UNL     1      84.401  73.536  31.210  1.00  0.00     0.210 HD
ENDBRANCH  15  21
ENDBRANCH   8   9
ENDBRANCH   1   8
BRANCH   7  23
HETATM   23  C12 UNL     1      90.871  71.329  29.055  1.00  0.00     0.198 C 
BRANCH  23  24
HETATM   24  O3  UNL     1      91.631  72.251  28.314  1.00  0.00    -0.399 OA
ATOM     25  H3  UNL     1      92.311  72.588  28.886  1.00  0.00     0.209 HD
ENDBRANCH  23  24
ENDBRANCH   7  23
BRANCH   3  26
HETATM   26  N2  UNL     1      90.068  75.235  31.679  1.00  0.00    -0.292 N 
ATOM     27  H2  UNL     1      90.655  75.779  32.310  1.00  0.00     0.184 HD
BRANCH  26  28
HETATM   28  N3  UNL     1      89.266  75.799  30.928  1.00  0.00    -0.252 N 
HETATM   29  N4  UNL     1      88.827  76.682  30.188  1.00  0.00    -0.331 N 
ATOM     30  H42 UNL     1      89.616  77.327  30.240  1.00  0.00     0.178 HD
ATOM     31  H41 UNL     1      88.164  77.148  29.568  1.00  0.00     0.178 HD
ATOM     32  H3  UNL     1      88.502  75.123  30.908  1.00  0.00     0.207 HD
ENDBRANCH  26  28
ENDBRANCH   3  26
TORSDOF 9
ENDMDL
