MODEL 1
REMARK VINA RESULT: -7.231684655      0.000      0.000
REMARK  8 active torsions:
REMARK  status: ('A' for Active; 'I' for Inactive)
REMARK    1  A    between atoms: C2_2  and  C3_3 
REMARK    2  A    between atoms: C5_5  and  N1_6 
REMARK    3  A    between atoms: C8_13  and  N3_14 
REMARK    4  A    between atoms: N3_14  and  C9_16 
REMARK    5  A    between atoms: C9_16  and  C11_18 
REMARK    6  A    between atoms: C11_18  and  C12_19 
REMARK    7  A    between atoms: C15_24  and  O2_25 
REMARK    8  A    between atoms: C16_27  and  O3_28 
ROOT
HETATM    1  N1  UNL     1      87.814  71.779  31.010  1.00  0.00    -0.293 N 
HETATM    2  S1  UNL     1      89.190  72.038  31.906  1.00  0.00    -0.001 SA
HETATM    3  C6  UNL     1      88.949  70.399  32.221  1.00  0.00     0.135 A 
HETATM    4  C7  UNL     1      89.302  69.196  32.827  1.00  0.00     0.281 A 
HETATM    5  O1  UNL     1      90.333  69.225  33.548  1.00  0.00    -0.266 OA
HETATM    6  N2  UNL     1      88.566  68.103  32.630  1.00  0.00    -0.155 N 
ATOM      7  H2  UNL     1      88.835  67.228  33.079  1.00  0.00     0.187 HD
HETATM    8  C8  UNL     1      87.486  68.137  31.857  1.00  0.00     0.683 A 
HETATM    9  N4  UNL     1      87.156  69.328  31.270  1.00  0.00    -0.174 N 
ATOM     10  H4  UNL     1      86.327  69.348  30.677  1.00  0.00     0.186 HD
HETATM   11  C14 UNL     1      87.849  70.484  31.418  1.00  0.00     0.154 A 
ENDROOT
BRANCH   1  12
HETATM   12  C5  UNL     1      86.936  72.599  30.145  1.00  0.00     0.131 C 
HETATM   13  C4  UNL     1      85.504  72.486  30.552  1.00  0.00     0.040 C 
HETATM   14  C3  UNL     1      85.095  73.874  31.003  1.00  0.00     0.041 C 
HETATM   15  C16 UNL     1      86.402  74.625  31.230  1.00  0.00     0.156 C 
HETATM   16  C15 UNL     1      87.331  74.037  30.187  1.00  0.00     0.171 C 
BRANCH  14  17
HETATM   17  C2  UNL     1      84.385  73.737  32.295  1.00  0.00    -0.030 C 
HETATM   18  C1  UNL     1      83.397  72.874  32.401  1.00  0.00     0.007 C 
ENDBRANCH  14  17
BRANCH  15  19
HETATM   19  O3  UNL     1      86.254  75.992  30.978  1.00  0.00    -0.392 OA
ATOM     20  H3  UNL     1      85.575  76.371  31.523  1.00  0.00     0.210 HD
ENDBRANCH  15  19
BRANCH  16  21
HETATM   21  O2  UNL     1      87.031  74.621  28.943  1.00  0.00    -0.391 OA
ATOM     22  H2  UNL     1      87.268  75.541  28.976  1.00  0.00     0.210 HD
ENDBRANCH  16  21
ENDBRANCH   1  12
BRANCH   8  23
HETATM   23  N3  UNL     1      86.716  67.179  31.596  1.00  0.00    -0.222 N 
ATOM     24  H3  UNL     1      87.193  66.297  31.406  1.00  0.00     0.178 HD
BRANCH  23  25
HETATM   25  C9  UNL     1      85.302  67.105  31.519  1.00  0.00     0.095 C 
HETATM   26  C10 UNL     1      84.915  66.444  30.250  1.00  0.00     0.032 C 
BRANCH  25  27
HETATM   27  C11 UNL     1      84.775  66.584  32.804  1.00  0.00     0.025 C 
BRANCH  27  28
HETATM   28  C12 UNL     1      83.378  66.907  33.178  1.00  0.00    -0.002 C 
HETATM   29  C13 UNL     1      82.418  65.774  33.126  1.00  0.00     0.005 C 
ENDBRANCH  27  28
ENDBRANCH  25  27
ENDBRANCH  23  25
ENDBRANCH   8  23
TORSDOF 8
ENDMDL
MODEL 2
REMARK VINA RESULT: -7.040032080      2.900      5.287
REMARK  8 active torsions:
REMARK  status: ('A' for Active; 'I' for Inactive)
REMARK    1  A    between atoms: C2_2  and  C3_3 
REMARK    2  A    between atoms: C5_5  and  N1_6 
REMARK    3  A    between atoms: C8_13  and  N3_14 
REMARK    4  A    between atoms: N3_14  and  C9_16 
REMARK    5  A    between atoms: C9_16  and  C11_18 
REMARK    6  A    between atoms: C11_18  and  C12_19 
REMARK    7  A    between atoms: C15_24  and  O2_25 
REMARK    8  A    between atoms: C16_27  and  O3_28 
ROOT
HETATM    1  N1  UNL     1      87.359  71.249  30.783  1.00  0.00    -0.293 N 
HETATM    2  S1  UNL     1      86.981  69.729  31.338  1.00  0.00    -0.001 SA
HETATM    3  C6  UNL     1      88.545  69.876  31.953  1.00  0.00     0.135 A 
HETATM    4  C7  UNL     1      89.641  69.392  32.662  1.00  0.00     0.281 A 
HETATM    5  O1  UNL     1      89.513  68.240  33.151  1.00  0.00    -0.266 OA
HETATM    6  N2  UNL     1      90.739  70.134  32.790  1.00  0.00    -0.155 N 
ATOM      7  H2  UNL     1      91.535  69.768  33.312  1.00  0.00     0.187 HD
HETATM    8  C8  UNL     1      90.813  71.345  32.248  1.00  0.00     0.683 A 
HETATM    9  N4  UNL     1      89.726  71.803  31.556  1.00  0.00    -0.174 N 
ATOM     10  H4  UNL     1      89.787  72.734  31.143  1.00  0.00     0.186 HD
HETATM   11  C14 UNL     1      88.572  71.114  31.378  1.00  0.00     0.154 A 
ENDROOT
BRANCH   1  12
HETATM   12  C5  UNL     1      86.674  72.294  29.989  1.00  0.00     0.131 C 
HETATM   13  C4  UNL     1      85.209  72.331  30.277  1.00  0.00     0.040 C 
HETATM   14  C3  UNL     1      84.947  73.689  30.896  1.00  0.00     0.041 C 
HETATM   15  C16 UNL     1      86.316  74.210  31.318  1.00  0.00     0.156 C 
HETATM   16  C15 UNL     1      87.247  73.643  30.267  1.00  0.00     0.171 C 
BRANCH  14  17
HETATM   17  C2  UNL     1      84.116  73.480  32.103  1.00  0.00    -0.030 C 
HETATM   18  C1  UNL     1      83.246  72.492  32.126  1.00  0.00     0.007 C 
ENDBRANCH  14  17
BRANCH  15  19
HETATM   19  O3  UNL     1      86.370  75.605  31.259  1.00  0.00    -0.392 OA
ATOM     20  H3  UNL     1      85.499  75.984  31.261  1.00  0.00     0.210 HD
ENDBRANCH  15  19
BRANCH  16  21
HETATM   21  O2  UNL     1      87.136  74.426  29.104  1.00  0.00    -0.391 OA
ATOM     22  H2  UNL     1      87.268  75.337  29.338  1.00  0.00     0.210 HD
ENDBRANCH  16  21
ENDBRANCH   1  12
BRANCH   8  23
HETATM   23  N3  UNL     1      91.789  72.135  32.300  1.00  0.00    -0.222 N 
ATOM     24  H3  UNL     1      91.660  72.919  32.941  1.00  0.00     0.178 HD
BRANCH  23  25
HETATM   25  C9  UNL     1      93.037  72.131  31.626  1.00  0.00     0.095 C 
HETATM   26  C10 UNL     1      94.096  71.687  32.563  1.00  0.00     0.032 C 
BRANCH  25  27
HETATM   27  C11 UNL     1      92.878  71.443  30.323  1.00  0.00     0.025 C 
BRANCH  27  28
HETATM   28  C12 UNL     1      92.427  72.235  29.155  1.00  0.00    -0.002 C 
HETATM   29  C13 UNL     1      91.345  71.626  28.340  1.00  0.00     0.005 C 
ENDBRANCH  27  28
ENDBRANCH  25  27
ENDBRANCH  23  25
ENDBRANCH   8  23
TORSDOF 8
ENDMDL
MODEL 3
REMARK VINA RESULT: -6.922317119      1.267      1.904
REMARK  8 active torsions:
REMARK  status: ('A' for Active; 'I' for Inactive)
REMARK    1  A    between atoms: C2_2  and  C3_3 
REMARK    2  A    between atoms: C5_5  and  N1_6 
REMARK    3  A    between atoms: C8_13  and  N3_14 
REMARK    4  A    between atoms: N3_14  and  C9_16 
REMARK    5  A    between atoms: C9_16  and  C11_18 
REMARK    6  A    between atoms: C11_18  and  C12_19 
REMARK    7  A    between atoms: C15_24  and  O2_25 
REMARK    8  A    between atoms: C16_27  and  O3_28 
ROOT
HETATM    1  N1  UNL     1      87.776  71.874  30.975  1.00  0.00    -0.293 N 
HETATM    2  S1  UNL     1      89.141  72.130  31.888  1.00  0.00    -0.001 SA
HETATM    3  C6  UNL     1      88.918  70.481  32.165  1.00  0.00     0.135 A 
HETATM    4  C7  UNL     1      89.281  69.269  32.747  1.00  0.00     0.281 A 
HETATM    5  O1  UNL     1      90.305  69.295  33.477  1.00  0.00    -0.266 OA
HETATM    6  N2  UNL     1      88.560  68.172  32.519  1.00  0.00    -0.155 N 
ATOM      7  H2  UNL     1      88.836  67.291  32.951  1.00  0.00     0.187 HD
HETATM    8  C8  UNL     1      87.486  68.210  31.737  1.00  0.00     0.683 A 
HETATM    9  N4  UNL     1      87.147  69.410  31.175  1.00  0.00    -0.174 N 
ATOM     10  H4  UNL     1      86.322  69.433  30.575  1.00  0.00     0.186 HD
HETATM   11  C14 UNL     1      87.824  70.570  31.354  1.00  0.00     0.154 A 
ENDROOT
BRANCH   1  12
HETATM   12  C5  UNL     1      86.894  72.702  30.121  1.00  0.00     0.131 C 
HETATM   13  C4  UNL     1      85.463  72.577  30.525  1.00  0.00     0.040 C 
HETATM   14  C3  UNL     1      85.047  73.957  30.995  1.00  0.00     0.041 C 
HETATM   15  C16 UNL     1      86.351  74.710  31.234  1.00  0.00     0.156 C 
HETATM   16  C15 UNL     1      87.283  74.142  30.184  1.00  0.00     0.171 C 
BRANCH  14  17
HETATM   17  C2  UNL     1      84.337  73.798  32.284  1.00  0.00    -0.030 C 
HETATM   18  C1  UNL     1      83.425  72.857  32.408  1.00  0.00     0.007 C 
ENDBRANCH  14  17
BRANCH  15  19
HETATM   19  O3  UNL     1      86.197  76.080  31.002  1.00  0.00    -0.392 OA
ATOM     20  H3  UNL     1      86.290  76.286  30.079  1.00  0.00     0.210 HD
ENDBRANCH  15  19
BRANCH  16  21
HETATM   21  O2  UNL     1      86.981  74.741  28.948  1.00  0.00    -0.391 OA
ATOM     22  H2  UNL     1      86.479  75.532  29.110  1.00  0.00     0.210 HD
ENDBRANCH  16  21
ENDBRANCH   1  12
BRANCH   8  23
HETATM   23  N3  UNL     1      86.731  67.248  31.449  1.00  0.00    -0.222 N 
ATOM     24  H3  UNL     1      86.412  67.241  30.479  1.00  0.00     0.178 HD
BRANCH  23  25
HETATM   25  C9  UNL     1      86.242  66.171  32.232  1.00  0.00     0.095 C 
HETATM   26  C10 UNL     1      84.860  66.475  32.672  1.00  0.00     0.032 C 
BRANCH  25  27
HETATM   27  C11 UNL     1      86.521  64.897  31.526  1.00  0.00     0.025 C 
BRANCH  27  28
HETATM   28  C12 UNL     1      87.924  64.428  31.442  1.00  0.00    -0.002 C 
HETATM   29  C13 UNL     1      88.698  64.476  32.709  1.00  0.00     0.005 C 
ENDBRANCH  27  28
ENDBRANCH  25  27
ENDBRANCH  23  25
ENDBRANCH   8  23
TORSDOF 8
ENDMDL
MODEL 4
REMARK VINA RESULT: -6.910470401      3.350      6.334
REMARK  8 active torsions:
REMARK  status: ('A' for Active; 'I' for Inactive)
REMARK    1  A    between atoms: C2_2  and  C3_3 
REMARK    2  A    between atoms: C5_5  and  N1_6 
REMARK    3  A    between atoms: C8_13  and  N3_14 
REMARK    4  A    between atoms: N3_14  and  C9_16 
REMARK    5  A    between atoms: C9_16  and  C11_18 
REMARK    6  A    between atoms: C11_18  and  C12_19 
REMARK    7  A    between atoms: C15_24  and  O2_25 
REMARK    8  A    between atoms: C16_27  and  O3_28 
ROOT
HETATM    1  N1  UNL     1      84.690  72.184  31.384  1.00  0.00    -0.293 N 
HETATM    2  S1  UNL     1      84.100  73.735  31.478  1.00  0.00    -0.001 SA
HETATM    3  C6  UNL     1      85.596  74.042  30.762  1.00  0.00     0.135 A 
HETATM    4  C7  UNL     1      86.555  74.900  30.229  1.00  0.00     0.281 A 
HETATM    5  O1  UNL     1      86.257  76.122  30.228  1.00  0.00    -0.266 OA
HETATM    6  N2  UNL     1      87.703  74.416  29.760  1.00  0.00    -0.155 N 
ATOM      7  H2  UNL     1      88.397  75.055  29.373  1.00  0.00     0.187 HD
HETATM    8  C8  UNL     1      87.959  73.112  29.791  1.00  0.00     0.683 A 
HETATM    9  N4  UNL     1      87.005  72.286  30.317  1.00  0.00    -0.174 N 
ATOM     10  H4  UNL     1      87.206  71.286  30.338  1.00  0.00     0.186 HD
HETATM   11  C14 UNL     1      85.813  72.695  30.815  1.00  0.00     0.154 A 
ENDROOT
BRANCH   1  12
HETATM   12  C5  UNL     1      84.205  70.835  31.756  1.00  0.00     0.131 C 
HETATM   13  C4  UNL     1      82.891  70.899  32.460  1.00  0.00     0.040 C 
HETATM   14  C3  UNL     1      81.906  70.183  31.558  1.00  0.00     0.041 C 
HETATM   15  C16 UNL     1      82.591  70.103  30.198  1.00  0.00     0.156 C 
HETATM   16  C15 UNL     1      84.057  69.966  30.551  1.00  0.00     0.171 C 
BRANCH  14  17
HETATM   17  C2  UNL     1      80.700  71.035  31.443  1.00  0.00    -0.030 C 
HETATM   18  C1  UNL     1      80.357  71.809  32.450  1.00  0.00     0.007 C 
ENDBRANCH  14  17
BRANCH  15  19
HETATM   19  O3  UNL     1      82.191  68.964  29.494  1.00  0.00    -0.392 OA
ATOM     20  H3  UNL     1      82.849  68.701  28.861  1.00  0.00     0.210 HD
ENDBRANCH  15  19
BRANCH  16  21
HETATM   21  O2  UNL     1      84.303  68.633  30.927  1.00  0.00    -0.391 OA
ATOM     22  H2  UNL     1      83.600  68.090  30.591  1.00  0.00     0.210 HD
ENDBRANCH  16  21
ENDBRANCH   1  12
BRANCH   8  23
HETATM   23  N3  UNL     1      89.000  72.539  29.381  1.00  0.00    -0.222 N 
ATOM     24  H3  UNL     1      88.964  72.254  28.402  1.00  0.00     0.178 HD
BRANCH  23  25
HETATM   25  C9  UNL     1      90.215  72.219  30.038  1.00  0.00     0.095 C 
HETATM   26  C10 UNL     1      91.246  71.888  29.025  1.00  0.00     0.032 C 
BRANCH  25  27
HETATM   27  C11 UNL     1      90.499  73.256  31.059  1.00  0.00     0.025 C 
BRANCH  27  28
HETATM   28  C12 UNL     1      90.429  72.877  32.490  1.00  0.00    -0.002 C 
HETATM   29  C13 UNL     1      89.813  71.556  32.779  1.00  0.00     0.005 C 
ENDBRANCH  27  28
ENDBRANCH  25  27
ENDBRANCH  23  25
ENDBRANCH   8  23
TORSDOF 8
ENDMDL
MODEL 5
REMARK VINA RESULT: -6.896145350      0.881      1.431
REMARK  8 active torsions:
REMARK  status: ('A' for Active; 'I' for Inactive)
REMARK    1  A    between atoms: C2_2  and  C3_3 
REMARK    2  A    between atoms: C5_5  and  N1_6 
REMARK    3  A    between atoms: C8_13  and  N3_14 
REMARK    4  A    between atoms: N3_14  and  C9_16 
REMARK    5  A    between atoms: C9_16  and  C11_18 
REMARK    6  A    between atoms: C11_18  and  C12_19 
REMARK    7  A    between atoms: C15_24  and  O2_25 
REMARK    8  A    between atoms: C16_27  and  O3_28 
ROOT
HETATM    1  N1  UNL     1      87.732  71.820  31.003  1.00  0.00    -0.293 N 
HETATM    2  S1  UNL     1      89.066  72.054  31.967  1.00  0.00    -0.001 SA
HETATM    3  C6  UNL     1      88.832  70.399  32.199  1.00  0.00     0.135 A 
HETATM    4  C7  UNL     1      89.174  69.174  32.766  1.00  0.00     0.281 A 
HETATM    5  O1  UNL     1      90.174  69.182  33.530  1.00  0.00    -0.266 OA
HETATM    6  N2  UNL     1      88.460  68.084  32.490  1.00  0.00    -0.155 N 
ATOM      7  H2  UNL     1      88.721  67.193  32.911  1.00  0.00     0.187 HD
HETATM    8  C8  UNL     1      87.413  68.141  31.674  1.00  0.00     0.683 A 
HETATM    9  N4  UNL     1      87.094  69.354  31.127  1.00  0.00    -0.174 N 
ATOM     10  H4  UNL     1      86.290  69.392  30.501  1.00  0.00     0.186 HD
HETATM   11  C14 UNL     1      87.766  70.509  31.355  1.00  0.00     0.154 A 
ENDROOT
BRANCH   1  12
HETATM   12  C5  UNL     1      86.880  72.669  30.139  1.00  0.00     0.131 C 
HETATM   13  C4  UNL     1      85.441  72.575  30.523  1.00  0.00     0.040 C 
HETATM   14  C3  UNL     1      85.049  73.962  30.990  1.00  0.00     0.041 C 
HETATM   15  C16 UNL     1      86.366  74.687  31.248  1.00  0.00     0.156 C 
HETATM   16  C15 UNL     1      87.299  74.100  30.209  1.00  0.00     0.171 C 
BRANCH  14  17
HETATM   17  C2  UNL     1      84.318  73.817  32.269  1.00  0.00    -0.030 C 
HETATM   18  C1  UNL     1      83.423  72.860  32.397  1.00  0.00     0.007 C 
ENDBRANCH  14  17
BRANCH  15  19
HETATM   19  O3  UNL     1      86.244  76.059  31.016  1.00  0.00    -0.392 OA
ATOM     20  H3  UNL     1      86.219  76.251  30.086  1.00  0.00     0.210 HD
ENDBRANCH  15  19
BRANCH  16  21
HETATM   21  O2  UNL     1      87.027  74.708  28.971  1.00  0.00    -0.391 OA
ATOM     22  H2  UNL     1      87.528  75.513  28.913  1.00  0.00     0.210 HD
ENDBRANCH  16  21
ENDBRANCH   1  12
BRANCH   8  23
HETATM   23  N3  UNL     1      86.666  67.187  31.339  1.00  0.00    -0.222 N 
ATOM     24  H3  UNL     1      86.418  67.176  30.350  1.00  0.00     0.178 HD
BRANCH  23  25
HETATM   25  C9  UNL     1      86.108  66.124  32.093  1.00  0.00     0.095 C 
HETATM   26  C10 UNL     1      84.892  66.605  32.791  1.00  0.00     0.032 C 
BRANCH  25  27
HETATM   27  C11 UNL     1      86.030  64.916  31.238  1.00  0.00     0.025 C 
BRANCH  27  28
HETATM   28  C12 UNL     1      84.935  64.823  30.243  1.00  0.00    -0.002 C 
HETATM   29  C13 UNL     1      84.325  63.479  30.077  1.00  0.00     0.005 C 
ENDBRANCH  27  28
ENDBRANCH  25  27
ENDBRANCH  23  25
ENDBRANCH   8  23
TORSDOF 8
ENDMDL
