MODEL 1
REMARK VINA RESULT: -7.850766334      0.000      0.000
REMARK  3 active torsions:
REMARK  status: ('A' for Active; 'I' for Inactive)
REMARK    1  A    between atoms: N1_1  and  C1_4 
REMARK    2  A    between atoms: C3_9  and  C4_10 
REMARK    3  A    between atoms: N4_11  and  N5_13 
REMARK       I    between atoms: C5_15  and  N7_17 
ROOT
HETATM    1  C1  UNL     1     -16.477 -27.397  17.884  1.00  0.00     0.680 A 
HETATM    2  N2  UNL     1     -17.087 -26.756  18.902  1.00  0.00    -0.178 N 
ATOM      3  H2  UNL     1     -18.035 -26.405  18.768  1.00  0.00     0.185 HD
HETATM    4  C2  UNL     1     -16.478 -26.563  20.102  1.00  0.00     0.149 A 
HETATM    5  N3  UNL     1     -17.129 -25.891  21.159  1.00  0.00    -0.081 NA
HETATM    6  C3  UNL     1     -15.193 -27.043  20.279  1.00  0.00     0.091 A 
HETATM    7  C6  UNL     1     -14.609 -27.693  19.208  1.00  0.00     0.274 A 
HETATM    8  O1  UNL     1     -13.451 -28.141  19.323  1.00  0.00    -0.267 OA
HETATM    9  N11 UNL     1     -15.234 -27.867  18.036  1.00  0.00    -0.155 N 
ATOM     10  H11 UNL     1     -14.768 -28.353  17.270  1.00  0.00     0.187 HD
ENDROOT
BRANCH   6  11
HETATM   11  C4  UNL     1     -14.489 -26.868  21.539  1.00  0.00     0.127 C 
HETATM   12  N4  UNL     1     -15.015 -27.232  22.627  1.00  0.00    -0.308 N 
ATOM     13  H4  UNL     1     -15.945 -27.647  22.563  1.00  0.00     0.186 HD
BRANCH  12  14
HETATM   14  N5  UNL     1     -14.479 -27.135  23.885  1.00  0.00    -0.272 N 
HETATM   15  C5  UNL     1     -14.862 -27.818  24.910  1.00  0.00     0.240 C 
HETATM   16  N6  UNL     1     -15.911 -28.749  24.764  1.00  0.00    -0.059 NA
HETATM   17  N7  UNL     1     -14.219 -27.619  26.162  1.00  0.00    -0.136 N 
HETATM   18  N8  UNL     1     -14.139 -28.349  27.284  1.00  0.00     0.013 NA
HETATM   19  N10 UNL     1     -13.467 -26.703  26.752  1.00  0.00     0.013 NA
HETATM   20  N9  UNL     1     -13.387 -27.422  27.859  1.00  0.00     0.008 NA
ATOM     21  H5  UNL     1     -13.719 -26.469  24.021  1.00  0.00     0.189 HD
ENDBRANCH  12  14
ENDBRANCH   6  11
BRANCH   1  22
HETATM   22  N1  UNL     1     -17.111 -27.546  16.771  1.00  0.00    -0.234 N 
ATOM     23  H12 UNL     1     -16.738 -27.170  15.900  1.00  0.00     0.174 HD
ATOM     24  H11 UNL     1     -17.998 -28.049  16.772  1.00  0.00     0.174 HD
ENDBRANCH   1  22
TORSDOF 3
ENDMDL
MODEL 2
REMARK VINA RESULT: -7.667707175      2.888      3.698
REMARK  3 active torsions:
REMARK  status: ('A' for Active; 'I' for Inactive)
REMARK    1  A    between atoms: N1_1  and  C1_4 
REMARK    2  A    between atoms: C3_9  and  C4_10 
REMARK    3  A    between atoms: N4_11  and  N5_13 
REMARK       I    between atoms: C5_15  and  N7_17 
ROOT
HETATM    1  C1  UNL     1     -16.457 -27.276  18.240  1.00  0.00     0.680 A 
HETATM    2  N2  UNL     1     -15.135 -27.474  18.423  1.00  0.00    -0.178 N 
ATOM      3  H2  UNL     1     -14.583 -27.865  17.659  1.00  0.00     0.185 HD
HETATM    4  C2  UNL     1     -14.514 -27.170  19.593  1.00  0.00     0.149 A 
HETATM    5  N3  UNL     1     -13.129 -27.383  19.771  1.00  0.00    -0.081 NA
HETATM    6  C3  UNL     1     -15.266 -26.640  20.626  1.00  0.00     0.091 A 
HETATM    7  C6  UNL     1     -16.616 -26.454  20.392  1.00  0.00     0.274 A 
HETATM    8  O1  UNL     1     -17.333 -25.979  21.296  1.00  0.00    -0.267 OA
HETATM    9  N11 UNL     1     -17.200 -26.764  19.228  1.00  0.00    -0.155 N 
ATOM     10  H11 UNL     1     -18.200 -26.612  19.095  1.00  0.00     0.187 HD
ENDROOT
BRANCH   6  11
HETATM   11  C4  UNL     1     -14.660 -26.294  21.902  1.00  0.00     0.127 C 
HETATM   12  N4  UNL     1     -14.834 -25.151  22.408  1.00  0.00    -0.308 N 
ATOM     13  H4  UNL     1     -15.415 -24.503  21.874  1.00  0.00     0.186 HD
BRANCH  12  14
HETATM   14  N5  UNL     1     -14.333 -24.681  23.595  1.00  0.00    -0.272 N 
HETATM   15  C5  UNL     1     -13.935 -23.472  23.805  1.00  0.00     0.240 C 
HETATM   16  N6  UNL     1     -14.006 -22.532  22.756  1.00  0.00    -0.059 NA
HETATM   17  N7  UNL     1     -13.435 -23.115  25.087  1.00  0.00    -0.136 N 
HETATM   18  N8  UNL     1     -13.261 -21.942  25.715  1.00  0.00     0.013 NA
HETATM   19  N10 UNL     1     -12.952 -23.717  26.162  1.00  0.00     0.013 NA
HETATM   20  N9  UNL     1     -12.779 -22.561  26.782  1.00  0.00     0.008 NA
ATOM     21  H5  UNL     1     -14.270 -25.339  24.371  1.00  0.00     0.189 HD
ENDBRANCH  12  14
ENDBRANCH   6  11
BRANCH   1  22
HETATM   22  N1  UNL     1     -16.983 -27.586  17.106  1.00  0.00    -0.234 N 
ATOM     23  H12 UNL     1     -17.363 -28.518  16.940  1.00  0.00     0.174 HD
ATOM     24  H11 UNL     1     -17.016 -26.882  16.368  1.00  0.00     0.174 HD
ENDBRANCH   1  22
TORSDOF 3
ENDMDL
MODEL 3
REMARK VINA RESULT: -7.457324461      2.353      3.386
REMARK  3 active torsions:
REMARK  status: ('A' for Active; 'I' for Inactive)
REMARK    1  A    between atoms: N1_1  and  C1_4 
REMARK    2  A    between atoms: C3_9  and  C4_10 
REMARK    3  A    between atoms: N4_11  and  N5_13 
REMARK       I    between atoms: C5_15  and  N7_17 
ROOT
HETATM    1  C1  UNL     1     -14.792 -29.480  16.626  1.00  0.00     0.680 A 
HETATM    2  N2  UNL     1     -13.596 -29.558  17.246  1.00  0.00    -0.178 N 
ATOM      3  H2  UNL     1     -12.923 -30.259  16.935  1.00  0.00     0.185 HD
HETATM    4  C2  UNL     1     -13.258 -28.733  18.271  1.00  0.00     0.149 A 
HETATM    5  N3  UNL     1     -12.003 -28.826  18.910  1.00  0.00    -0.081 NA
HETATM    6  C3  UNL     1     -14.173 -27.784  18.688  1.00  0.00     0.091 A 
HETATM    7  C6  UNL     1     -15.385 -27.741  18.024  1.00  0.00     0.274 A 
HETATM    8  O1  UNL     1     -16.241 -26.900  18.366  1.00  0.00    -0.267 OA
HETATM    9  N11 UNL     1     -15.690 -28.568  17.016  1.00  0.00    -0.155 N 
ATOM     10  H11 UNL     1     -16.595 -28.504  16.551  1.00  0.00     0.187 HD
ENDROOT
BRANCH   6  11
HETATM   11  C4  UNL     1     -13.872 -26.871  19.779  1.00  0.00     0.127 C 
HETATM   12  N4  UNL     1     -14.712 -26.667  20.699  1.00  0.00    -0.308 N 
ATOM     13  H4  UNL     1     -15.595 -27.174  20.625  1.00  0.00     0.186 HD
BRANCH  12  14
HETATM   14  N5  UNL     1     -14.574 -25.843  21.786  1.00  0.00    -0.272 N 
HETATM   15  C5  UNL     1     -15.025 -26.092  22.968  1.00  0.00     0.240 C 
HETATM   16  N6  UNL     1     -15.719 -27.297  23.200  1.00  0.00    -0.059 NA
HETATM   17  N7  UNL     1     -14.811 -25.148  24.010  1.00  0.00    -0.136 N 
HETATM   18  N8  UNL     1     -14.846 -25.228  25.348  1.00  0.00     0.013 NA
HETATM   19  N10 UNL     1     -14.507 -23.866  24.135  1.00  0.00     0.013 NA
HETATM   20  N9  UNL     1     -14.541 -23.944  25.455  1.00  0.00     0.008 NA
ATOM     21  H5  UNL     1     -14.076 -24.964  21.648  1.00  0.00     0.189 HD
ENDBRANCH  12  14
ENDBRANCH   6  11
BRANCH   1  22
HETATM   22  N1  UNL     1     -15.048 -30.293  15.660  1.00  0.00    -0.234 N 
ATOM     23  H12 UNL     1     -14.672 -30.134  14.726  1.00  0.00     0.174 HD
ATOM     24  H11 UNL     1     -15.638 -31.105  15.842  1.00  0.00     0.174 HD
ENDBRANCH   1  22
TORSDOF 3
ENDMDL
MODEL 4
REMARK VINA RESULT: -7.402693388      3.687      4.075
REMARK  3 active torsions:
REMARK  status: ('A' for Active; 'I' for Inactive)
REMARK    1  A    between atoms: N1_1  and  C1_4 
REMARK    2  A    between atoms: C3_9  and  C4_10 
REMARK    3  A    between atoms: N4_11  and  N5_13 
REMARK       I    between atoms: C5_15  and  N7_17 
ROOT
HETATM    1  C1  UNL     1     -16.554 -27.406  17.808  1.00  0.00     0.680 A 
HETATM    2  N2  UNL     1     -16.644 -27.307  19.151  1.00  0.00    -0.178 N 
ATOM      3  H2  UNL     1     -17.567 -27.240  19.581  1.00  0.00     0.185 HD
HETATM    4  C2  UNL     1     -15.544 -27.293  19.950  1.00  0.00     0.149 A 
HETATM    5  N3  UNL     1     -15.653 -27.189  21.353  1.00  0.00    -0.081 NA
HETATM    6  C3  UNL     1     -14.296 -27.385  19.361  1.00  0.00     0.091 A 
HETATM    7  C6  UNL     1     -14.254 -27.484  17.983  1.00  0.00     0.274 A 
HETATM    8  O1  UNL     1     -13.149 -27.569  17.410  1.00  0.00    -0.267 OA
HETATM    9  N11 UNL     1     -15.355 -27.495  17.222  1.00  0.00    -0.155 N 
ATOM     10  H11 UNL     1     -15.281 -27.570  16.208  1.00  0.00     0.187 HD
ENDROOT
BRANCH   6  11
HETATM   11  C4  UNL     1     -13.082 -27.376  20.161  1.00  0.00     0.127 C 
HETATM   12  N4  UNL     1     -12.246 -28.317  20.073  1.00  0.00    -0.308 N 
ATOM     13  H4  UNL     1     -12.475 -29.066  19.419  1.00  0.00     0.186 HD
BRANCH  12  14
HETATM   14  N5  UNL     1     -11.064 -28.448  20.756  1.00  0.00    -0.272 N 
HETATM   15  C5  UNL     1     -10.857 -29.267  21.731  1.00  0.00     0.240 C 
HETATM   16  N6  UNL     1     -11.905 -30.109  22.156  1.00  0.00    -0.059 NA
HETATM   17  N7  UNL     1      -9.580 -29.302  22.354  1.00  0.00    -0.136 N 
HETATM   18  N8  UNL     1      -8.954 -30.205  23.123  1.00  0.00     0.013 NA
HETATM   19  N10 UNL     1      -8.509 -28.531  22.458  1.00  0.00     0.013 NA
HETATM   20  N9  UNL     1      -7.891 -29.421  23.216  1.00  0.00     0.008 NA
ATOM     21  H5  UNL     1     -10.288 -27.852  20.470  1.00  0.00     0.189 HD
ENDBRANCH  12  14
ENDBRANCH   6  11
BRANCH   1  22
HETATM   22  N1  UNL     1     -17.637 -27.413  17.109  1.00  0.00    -0.234 N 
ATOM     23  H12 UNL     1     -18.548 -27.529  17.553  1.00  0.00     0.174 HD
ATOM     24  H11 UNL     1     -17.573 -27.299  16.098  1.00  0.00     0.174 HD
ENDBRANCH   1  22
TORSDOF 3
ENDMDL
MODEL 5
REMARK VINA RESULT: -7.387755076      2.714      2.734
REMARK  3 active torsions:
REMARK  status: ('A' for Active; 'I' for Inactive)
REMARK    1  A    between atoms: N1_1  and  C1_4 
REMARK    2  A    between atoms: C3_9  and  C4_10 
REMARK    3  A    between atoms: N4_11  and  N5_13 
REMARK       I    between atoms: C5_15  and  N7_17 
ROOT
HETATM    1  C1  UNL     1     -16.455 -27.079  18.342  1.00  0.00     0.680 A 
HETATM    2  N2  UNL     1     -16.813 -26.691  19.584  1.00  0.00    -0.178 N 
ATOM      3  H2  UNL     1     -17.783 -26.427  19.759  1.00  0.00     0.185 HD
HETATM    4  C2  UNL     1     -15.923 -26.642  20.610  1.00  0.00     0.149 A 
HETATM    5  N3  UNL     1     -16.312 -26.234  21.904  1.00  0.00    -0.081 NA
HETATM    6  C3  UNL     1     -14.610 -27.002  20.367  1.00  0.00     0.091 A 
HETATM    7  C6  UNL     1     -14.290 -27.392  19.080  1.00  0.00     0.274 A 
HETATM    8  O1  UNL     1     -13.117 -27.725  18.816  1.00  0.00    -0.267 OA
HETATM    9  N11 UNL     1     -15.189 -27.431  18.088  1.00  0.00    -0.155 N 
ATOM     10  H11 UNL     1     -14.913 -27.724  17.152  1.00  0.00     0.187 HD
ENDROOT
BRANCH   6  11
HETATM   11  C4  UNL     1     -13.610 -26.970  21.423  1.00  0.00     0.127 C 
HETATM   12  N4  UNL     1     -13.023 -28.027  21.786  1.00  0.00    -0.308 N 
ATOM     13  H4  UNL     1     -13.292 -28.883  21.300  1.00  0.00     0.186 HD
BRANCH  12  14
HETATM   14  N5  UNL     1     -12.066 -28.156  22.758  1.00  0.00    -0.272 N 
HETATM   15  C5  UNL     1     -11.784 -29.248  23.383  1.00  0.00     0.240 C 
HETATM   16  N6  UNL     1     -12.497 -30.424  23.068  1.00  0.00    -0.059 NA
HETATM   17  N7  UNL     1     -10.765 -29.244  24.373  1.00  0.00    -0.136 N 
HETATM   18  N8  UNL     1     -10.029 -30.209  24.944  1.00  0.00     0.013 NA
HETATM   19  N10 UNL     1     -10.123 -28.365  25.127  1.00  0.00     0.013 NA
HETATM   20  N9  UNL     1      -9.397 -29.317  25.690  1.00  0.00     0.008 NA
ATOM     21  H5  UNL     1     -11.535 -27.321  23.007  1.00  0.00     0.189 HD
ENDBRANCH  12  14
ENDBRANCH   6  11
BRANCH   1  22
HETATM   22  N1  UNL     1     -17.349 -27.103  17.414  1.00  0.00    -0.234 N 
ATOM     23  H12 UNL     1     -18.249 -26.640  17.539  1.00  0.00     0.174 HD
ATOM     24  H11 UNL     1     -17.144 -27.596  16.544  1.00  0.00     0.174 HD
ENDBRANCH   1  22
TORSDOF 3
ENDMDL
