MODEL 1
REMARK VINA RESULT: -7.462533580      0.000      0.000
REMARK  7 active torsions:
REMARK  status: ('A' for Active; 'I' for Inactive)
REMARK    1  A    between atoms: N1_1  and  C1_4 
REMARK    2  A    between atoms: C2_7  and  N3_8 
REMARK    3  A    between atoms: N3_8  and  C3_10 
REMARK    4  A    between atoms: N5_14  and  N6_15 
REMARK    5  A    between atoms: C5_17  and  C6_18 
REMARK    6  A    between atoms: C6_18  and  N7_19 
REMARK    7  A    between atoms: C8_27  and  N10_28 
ROOT
HETATM    1  N3  UNL     1     -14.551 -26.656  23.273  1.00  0.00    -0.178 N 
ATOM      2  H3  UNL     1     -13.643 -26.247  23.496  1.00  0.00     0.185 HD
ENDROOT
BRANCH   1   3
HETATM    3  C2  UNL     1     -15.274 -27.361  24.294  1.00  0.00     0.712 A 
HETATM    4  N2  UNL     1     -15.051 -28.665  24.539  1.00  0.00    -0.021 N 
HETATM    5  C1  UNL     1     -15.729 -29.325  25.494  1.00  0.00     0.705 A 
ATOM      6  H2  UNL     1     -14.354 -29.164  23.987  1.00  0.00     0.203 HD
HETATM    7  N11 UNL     1     -16.658 -28.717  26.251  1.00  0.00    -0.022 N 
HETATM    8  C8  UNL     1     -16.892 -27.394  26.013  1.00  0.00     0.705 A 
ATOM      9  H11 UNL     1     -17.167 -29.224  26.974  1.00  0.00     0.203 HD
HETATM   10  N9  UNL     1     -16.203 -26.748  25.050  1.00  0.00    -0.021 N 
ATOM     11  H9  UNL     1     -16.394 -25.760  24.889  1.00  0.00     0.203 HD
BRANCH   5  12
HETATM   12  N1  UNL     1     -15.487 -30.572  25.697  1.00  0.00    -0.234 N 
ATOM     13  H12 UNL     1     -14.907 -31.074  25.024  1.00  0.00     0.174 HD
ATOM     14  H11 UNL     1     -15.877 -31.033  26.519  1.00  0.00     0.174 HD
ENDBRANCH   5  12
BRANCH   8  15
HETATM   15  N10 UNL     1     -17.785 -26.812  26.742  1.00  0.00    -0.234 N 
ATOM     16 2H10 UNL     1     -18.559 -26.358  26.257  1.00  0.00     0.174 HD
ATOM     17 1H10 UNL     1     -17.739 -26.794  27.761  1.00  0.00     0.174 HD
ENDBRANCH   8  15
ENDBRANCH   1   3
BRANCH   1  18
HETATM   18  C3  UNL     1     -15.072 -26.516  21.961  1.00  0.00     0.111 C 
HETATM   19  N4  UNL     1     -16.298 -26.200  21.736  1.00  0.00    -0.359 N 
HETATM   20  C4  UNL     1     -16.720 -26.086  20.339  1.00  0.00     0.288 C 
ATOM     21  H4  UNL     1     -16.951 -26.034  22.502  1.00  0.00     0.162 HD
HETATM   22  N5  UNL     1     -16.150 -27.172  19.566  1.00  0.00    -0.220 N 
HETATM   23  N8  UNL     1     -14.884 -27.661  19.904  1.00  0.00    -0.114 NA
HETATM   24  C7  UNL     1     -14.185 -26.741  20.796  1.00  0.00     0.213 C 
BRANCH  22  25
HETATM   25  N6  UNL     1     -16.850 -27.720  18.504  1.00  0.00    -0.299 N 
HETATM   26  C5  UNL     1     -16.467 -27.638  17.275  1.00  0.00     0.108 C 
ATOM     27  H6  UNL     1     -17.718 -28.217  18.706  1.00  0.00     0.187 HD
BRANCH  26  28
HETATM   28  C6  UNL     1     -15.224 -26.942  16.882  1.00  0.00     0.275 C 
BRANCH  28  29
HETATM   29  N7  UNL     1     -14.113 -27.868  16.817  1.00  0.00    -0.075 N 
ATOM     30  H73 UNL     1     -14.411 -28.828  16.993  1.00  0.00     0.274 HD
ATOM     31  H72 UNL     1     -13.775 -27.985  15.861  1.00  0.00     0.274 HD
ATOM     32  H71 UNL     1     -13.365 -27.583  17.449  1.00  0.00     0.274 HD
ENDBRANCH  28  29
ENDBRANCH  26  28
ENDBRANCH  22  25
ENDBRANCH   1  18
TORSDOF 7
ENDMDL
MODEL 2
REMARK VINA RESULT: -7.460532008      0.036      1.810
REMARK  7 active torsions:
REMARK  status: ('A' for Active; 'I' for Inactive)
REMARK    1  A    between atoms: N1_1  and  C1_4 
REMARK    2  A    between atoms: C2_7  and  N3_8 
REMARK    3  A    between atoms: N3_8  and  C3_10 
REMARK    4  A    between atoms: N5_14  and  N6_15 
REMARK    5  A    between atoms: C5_17  and  C6_18 
REMARK    6  A    between atoms: C6_18  and  N7_19 
REMARK    7  A    between atoms: C8_27  and  N10_28 
ROOT
HETATM    1  N3  UNL     1     -14.576 -26.619  23.301  1.00  0.00    -0.178 N 
ATOM      2  H3  UNL     1     -13.678 -26.190  23.529  1.00  0.00     0.185 HD
ENDROOT
BRANCH   1   3
HETATM    3  C2  UNL     1     -15.290 -27.336  24.319  1.00  0.00     0.712 A 
HETATM    4  N2  UNL     1     -16.227 -26.736  25.074  1.00  0.00    -0.021 N 
HETATM    5  C1  UNL     1     -16.896 -27.408  26.028  1.00  0.00     0.705 A 
ATOM      6  H2  UNL     1     -16.435 -25.750  24.921  1.00  0.00     0.203 HD
HETATM    7  N11 UNL     1     -16.664 -28.708  26.271  1.00  0.00    -0.022 N 
HETATM    8  C8  UNL     1     -15.717 -29.329  25.511  1.00  0.00     0.705 A 
ATOM      9  H11 UNL     1     -17.176 -29.212  26.996  1.00  0.00     0.203 HD
HETATM   10  N9  UNL     1     -15.055 -28.639  24.559  1.00  0.00    -0.021 N 
ATOM     11  H9  UNL     1     -14.351 -29.123  24.002  1.00  0.00     0.203 HD
BRANCH   5  12
HETATM   12  N1  UNL     1     -17.785 -26.797  26.730  1.00  0.00    -0.234 N 
ATOM     13  H12 UNL     1     -18.625 -26.453  26.264  1.00  0.00     0.174 HD
ATOM     14  H11 UNL     1     -17.634 -26.668  27.730  1.00  0.00     0.174 HD
ENDBRANCH   5  12
BRANCH   8  15
HETATM   15  N10 UNL     1     -15.496 -30.579  25.746  1.00  0.00    -0.234 N 
ATOM     16 2H10 UNL     1     -14.552 -30.841  26.031  1.00  0.00     0.174 HD
ATOM     17 1H10 UNL     1     -16.220 -31.293  25.659  1.00  0.00     0.174 HD
ENDBRANCH   8  15
ENDBRANCH   1   3
BRANCH   1  18
HETATM   18  C3  UNL     1     -15.090 -26.494  21.985  1.00  0.00     0.111 C 
HETATM   19  N4  UNL     1     -16.319 -26.198  21.750  1.00  0.00    -0.359 N 
HETATM   20  C4  UNL     1     -16.733 -26.097  20.350  1.00  0.00     0.288 C 
ATOM     21  H4  UNL     1     -16.980 -26.039  22.511  1.00  0.00     0.162 HD
HETATM   22  N5  UNL     1     -16.142 -27.178  19.586  1.00  0.00    -0.220 N 
HETATM   23  N8  UNL     1     -14.870 -27.646  19.935  1.00  0.00    -0.114 NA
HETATM   24  C7  UNL     1     -14.191 -26.710  20.827  1.00  0.00     0.213 C 
BRANCH  22  25
HETATM   25  N6  UNL     1     -16.826 -27.742  18.523  1.00  0.00    -0.299 N 
HETATM   26  C5  UNL     1     -16.443 -27.649  17.294  1.00  0.00     0.108 C 
ATOM     27  H6  UNL     1     -17.681 -28.262  18.723  1.00  0.00     0.187 HD
BRANCH  26  28
HETATM   28  C6  UNL     1     -15.218 -26.920  16.903  1.00  0.00     0.275 C 
BRANCH  28  29
HETATM   29  N7  UNL     1     -14.085 -27.819  16.831  1.00  0.00    -0.075 N 
ATOM     30  H73 UNL     1     -14.334 -28.705  16.393  1.00  0.00     0.274 HD
ATOM     31  H72 UNL     1     -13.393 -27.500  16.153  1.00  0.00     0.274 HD
ATOM     32  H71 UNL     1     -13.672 -27.957  17.754  1.00  0.00     0.274 HD
ENDBRANCH  28  29
ENDBRANCH  26  28
ENDBRANCH  22  25
ENDBRANCH   1  18
TORSDOF 7
ENDMDL
MODEL 3
REMARK VINA RESULT: -7.131079425      2.197      7.116
REMARK  7 active torsions:
REMARK  status: ('A' for Active; 'I' for Inactive)
REMARK    1  A    between atoms: N1_1  and  C1_4 
REMARK    2  A    between atoms: C2_7  and  N3_8 
REMARK    3  A    between atoms: N3_8  and  C3_10 
REMARK    4  A    between atoms: N5_14  and  N6_15 
REMARK    5  A    between atoms: C5_17  and  C6_18 
REMARK    6  A    between atoms: C6_18  and  N7_19 
REMARK    7  A    between atoms: C8_27  and  N10_28 
ROOT
HETATM    1  N3  UNL     1     -16.300 -26.145  21.803  1.00  0.00    -0.178 N 
ATOM      2  H3  UNL     1     -17.182 -25.649  21.930  1.00  0.00     0.185 HD
ENDROOT
BRANCH   1   3
HETATM    3  C2  UNL     1     -15.922 -26.583  20.489  1.00  0.00     0.712 A 
HETATM    4  N2  UNL     1     -16.840 -26.796  19.528  1.00  0.00    -0.021 N 
HETATM    5  C1  UNL     1     -16.485 -27.207  18.298  1.00  0.00     0.705 A 
ATOM      6  H2  UNL     1     -17.825 -26.641  19.738  1.00  0.00     0.203 HD
HETATM    7  N11 UNL     1     -15.202 -27.424  17.968  1.00  0.00    -0.022 N 
HETATM    8  C8  UNL     1     -14.261 -27.211  18.933  1.00  0.00     0.705 A 
ATOM      9  H11 UNL     1     -14.940 -27.735  17.032  1.00  0.00     0.203 HD
HETATM   10  N9  UNL     1     -14.635 -26.799  20.162  1.00  0.00    -0.021 N 
ATOM     11  H9  UNL     1     -13.916 -26.646  20.868  1.00  0.00     0.203 HD
BRANCH   5  12
HETATM   12  N1  UNL     1     -17.393 -27.399  17.407  1.00  0.00    -0.234 N 
ATOM     13  H12 UNL     1     -17.647 -26.625  16.792  1.00  0.00     0.174 HD
ATOM     14  H11 UNL     1     -17.839 -28.313  17.333  1.00  0.00     0.174 HD
ENDBRANCH   5  12
BRANCH   8  15
HETATM   15  N10 UNL     1     -13.028 -27.421  18.613  1.00  0.00    -0.234 N 
ATOM     16 2H10 UNL     1     -12.692 -26.999  17.746  1.00  0.00     0.174 HD
ATOM     17 1H10 UNL     1     -12.397 -27.981  19.186  1.00  0.00     0.174 HD
ENDBRANCH   8  15
ENDBRANCH   1   3
BRANCH   1  18
HETATM   18  C3  UNL     1     -15.473 -26.388  22.929  1.00  0.00     0.111 C 
HETATM   19  N4  UNL     1     -15.423 -27.531  23.515  1.00  0.00    -0.359 N 
HETATM   20  C4  UNL     1     -14.532 -27.660  24.669  1.00  0.00     0.288 C 
ATOM     21  H4  UNL     1     -15.984 -28.319  23.188  1.00  0.00     0.162 HD
HETATM   22  N5  UNL     1     -14.638 -26.479  25.503  1.00  0.00    -0.220 N 
HETATM   23  N8  UNL     1     -14.873 -25.237  24.902  1.00  0.00    -0.114 NA
HETATM   24  C7  UNL     1     -14.629 -25.293  23.464  1.00  0.00     0.213 C 
BRANCH  22  25
HETATM   25  N6  UNL     1     -14.507 -26.576  26.878  1.00  0.00    -0.299 N 
HETATM   26  C5  UNL     1     -13.418 -26.307  27.515  1.00  0.00     0.108 C 
ATOM     27  H6  UNL     1     -15.318 -26.878  27.417  1.00  0.00     0.187 HD
BRANCH  26  28
HETATM   28  C6  UNL     1     -12.190 -25.860  26.823  1.00  0.00     0.275 C 
BRANCH  28  29
HETATM   29  N7  UNL     1     -12.195 -24.424  26.640  1.00  0.00    -0.075 N 
ATOM     30  H73 UNL     1     -12.404 -23.934  27.510  1.00  0.00     0.274 HD
ATOM     31  H72 UNL     1     -11.255 -24.061  26.481  1.00  0.00     0.274 HD
ATOM     32  H71 UNL     1     -12.834 -24.156  25.892  1.00  0.00     0.274 HD
ENDBRANCH  28  29
ENDBRANCH  26  28
ENDBRANCH  22  25
ENDBRANCH   1  18
TORSDOF 7
ENDMDL
MODEL 4
REMARK VINA RESULT: -7.124011304      1.881      2.974
REMARK  7 active torsions:
REMARK  status: ('A' for Active; 'I' for Inactive)
REMARK    1  A    between atoms: N1_1  and  C1_4 
REMARK    2  A    between atoms: C2_7  and  N3_8 
REMARK    3  A    between atoms: N3_8  and  C3_10 
REMARK    4  A    between atoms: N5_14  and  N6_15 
REMARK    5  A    between atoms: C5_17  and  C6_18 
REMARK    6  A    between atoms: C6_18  and  N7_19 
REMARK    7  A    between atoms: C8_27  and  N10_28 
ROOT
HETATM    1  N3  UNL     1     -16.534 -26.204  21.245  1.00  0.00    -0.178 N 
ATOM      2  H3  UNL     1     -17.479 -25.855  21.406  1.00  0.00     0.185 HD
ENDROOT
BRANCH   1   3
HETATM    3  C2  UNL     1     -15.596 -26.225  22.332  1.00  0.00     0.712 A 
HETATM    4  N2  UNL     1     -15.446 -27.313  23.109  1.00  0.00    -0.021 N 
HETATM    5  C1  UNL     1     -14.568 -27.331  24.127  1.00  0.00     0.705 A 
ATOM      6  H2  UNL     1     -16.009 -28.141  22.922  1.00  0.00     0.203 HD
HETATM    7  N11 UNL     1     -13.799 -26.269  24.418  1.00  0.00    -0.022 N 
HETATM    8  C8  UNL     1     -13.942 -25.160  23.637  1.00  0.00     0.705 A 
ATOM      9  H11 UNL     1     -13.135 -26.291  25.192  1.00  0.00     0.203 HD
HETATM   10  N9  UNL     1     -14.828 -25.159  22.620  1.00  0.00    -0.021 N 
ATOM     11  H9  UNL     1     -14.918 -24.319  22.048  1.00  0.00     0.203 HD
BRANCH   5  12
HETATM   12  N1  UNL     1     -14.454 -28.392  24.848  1.00  0.00    -0.234 N 
ATOM     13  H12 UNL     1     -13.550 -28.600  25.273  1.00  0.00     0.174 HD
ATOM     14  H11 UNL     1     -15.262 -29.000  24.978  1.00  0.00     0.174 HD
ENDBRANCH   5  12
BRANCH   8  15
HETATM   15  N10 UNL     1     -13.201 -24.140  23.918  1.00  0.00    -0.234 N 
ATOM     16 2H10 UNL     1     -13.059 -23.925  24.905  1.00  0.00     0.174 HD
ATOM     17 1H10 UNL     1     -12.767 -23.559  23.200  1.00  0.00     0.174 HD
ENDBRANCH   8  15
ENDBRANCH   1   3
BRANCH   1  18
HETATM   18  C3  UNL     1     -16.175 -26.660  19.951  1.00  0.00     0.111 C 
HETATM   19  N4  UNL     1     -17.021 -26.731  18.985  1.00  0.00    -0.359 N 
HETATM   20  C4  UNL     1     -16.533 -27.218  17.694  1.00  0.00     0.288 C 
ATOM     21  H4  UNL     1     -17.996 -26.459  19.114  1.00  0.00     0.162 HD
HETATM   22  N5  UNL     1     -15.648 -28.347  17.900  1.00  0.00    -0.220 N 
HETATM   23  N8  UNL     1     -14.840 -28.383  19.042  1.00  0.00    -0.114 NA
HETATM   24  C7  UNL     1     -14.777 -27.073  19.684  1.00  0.00     0.213 C 
BRANCH  22  25
HETATM   25  N6  UNL     1     -15.600 -29.379  16.978  1.00  0.00    -0.299 N 
HETATM   26  C5  UNL     1     -14.698 -29.480  16.061  1.00  0.00     0.108 C 
ATOM     27  H6  UNL     1     -16.319 -30.100  17.027  1.00  0.00     0.187 HD
BRANCH  26  28
HETATM   28  C6  UNL     1     -13.613 -28.486  15.910  1.00  0.00     0.275 C 
BRANCH  28  29
HETATM   29  N7  UNL     1     -12.489 -28.819  16.760  1.00  0.00    -0.075 N 
ATOM     30  H73 UNL     1     -11.622 -28.893  16.227  1.00  0.00     0.274 HD
ATOM     31  H72 UNL     1     -12.231 -28.040  17.366  1.00  0.00     0.274 HD
ATOM     32  H71 UNL     1     -12.677 -29.666  17.295  1.00  0.00     0.274 HD
ENDBRANCH  28  29
ENDBRANCH  26  28
ENDBRANCH  22  25
ENDBRANCH   1  18
TORSDOF 7
ENDMDL
MODEL 5
REMARK VINA RESULT: -7.106826287      2.214      7.019
REMARK  7 active torsions:
REMARK  status: ('A' for Active; 'I' for Inactive)
REMARK    1  A    between atoms: N1_1  and  C1_4 
REMARK    2  A    between atoms: C2_7  and  N3_8 
REMARK    3  A    between atoms: N3_8  and  C3_10 
REMARK    4  A    between atoms: N5_14  and  N6_15 
REMARK    5  A    between atoms: C5_17  and  C6_18 
REMARK    6  A    between atoms: C6_18  and  N7_19 
REMARK    7  A    between atoms: C8_27  and  N10_28 
ROOT
HETATM    1  N3  UNL     1     -16.291 -26.161  21.837  1.00  0.00    -0.178 N 
ATOM      2  H3  UNL     1     -17.176 -25.670  21.967  1.00  0.00     0.185 HD
ENDROOT
BRANCH   1   3
HETATM    3  C2  UNL     1     -15.914 -26.595  20.522  1.00  0.00     0.712 A 
HETATM    4  N2  UNL     1     -14.628 -26.822  20.198  1.00  0.00    -0.021 N 
HETATM    5  C1  UNL     1     -14.276 -27.228  18.966  1.00  0.00     0.705 A 
ATOM      6  H2  UNL     1     -13.905 -26.683  20.903  1.00  0.00     0.203 HD
HETATM    7  N11 UNL     1     -15.187 -27.428  18.000  1.00  0.00    -0.022 N 
HETATM    8  C8  UNL     1     -16.495 -27.202  18.315  1.00  0.00     0.705 A 
ATOM      9  H11 UNL     1     -14.912 -27.737  17.067  1.00  0.00     0.203 HD
HETATM   10  N9  UNL     1     -16.830 -26.795  19.556  1.00  0.00    -0.021 N 
ATOM     11  H9  UNL     1     -17.814 -26.633  19.771  1.00  0.00     0.203 HD
BRANCH   5  12
HETATM   12  N1  UNL     1     -13.034 -27.433  18.697  1.00  0.00    -0.234 N 
ATOM     13  H12 UNL     1     -12.330 -26.865  19.169  1.00  0.00     0.174 HD
ATOM     14  H11 UNL     1     -12.779 -28.154  18.022  1.00  0.00     0.174 HD
ENDBRANCH   5  12
BRANCH   8  15
HETATM   15  N10 UNL     1     -17.369 -27.396  17.384  1.00  0.00    -0.234 N 
ATOM     16 2H10 UNL     1     -17.074 -27.939  16.572  1.00  0.00     0.174 HD
ATOM     17 1H10 UNL     1     -18.320 -27.031  17.437  1.00  0.00     0.174 HD
ENDBRANCH   8  15
ENDBRANCH   1   3
BRANCH   1  18
HETATM   18  C3  UNL     1     -15.460 -26.401  22.961  1.00  0.00     0.111 C 
HETATM   19  N4  UNL     1     -15.401 -27.546  23.543  1.00  0.00    -0.359 N 
HETATM   20  C4  UNL     1     -14.507 -27.672  24.695  1.00  0.00     0.288 C 
ATOM     21  H4  UNL     1     -15.955 -28.337  23.214  1.00  0.00     0.162 HD
HETATM   22  N5  UNL     1     -14.620 -26.494  25.533  1.00  0.00    -0.220 N 
HETATM   23  N8  UNL     1     -14.866 -25.253  24.937  1.00  0.00    -0.114 NA
HETATM   24  C7  UNL     1     -14.624 -25.302  23.498  1.00  0.00     0.213 C 
BRANCH  22  25
HETATM   25  N6  UNL     1     -14.486 -26.596  26.907  1.00  0.00    -0.299 N 
HETATM   26  C5  UNL     1     -13.396 -26.329  27.543  1.00  0.00     0.108 C 
ATOM     27  H6  UNL     1     -15.296 -26.899  27.448  1.00  0.00     0.187 HD
BRANCH  26  28
HETATM   28  C6  UNL     1     -12.169 -25.881  26.849  1.00  0.00     0.275 C 
BRANCH  28  29
HETATM   29  N7  UNL     1     -12.171 -24.443  26.677  1.00  0.00    -0.075 N 
ATOM     30  H73 UNL     1     -13.094 -24.095  26.420  1.00  0.00     0.274 HD
ATOM     31  H72 UNL     1     -12.065 -23.957  27.567  1.00  0.00     0.274 HD
ATOM     32  H71 UNL     1     -11.459 -24.158  26.004  1.00  0.00     0.274 HD
ENDBRANCH  28  29
ENDBRANCH  26  28
ENDBRANCH  22  25
ENDBRANCH   1  18
TORSDOF 7
ENDMDL
