MODEL 1
REMARK VINA RESULT: -10.846083240      0.000      0.000
REMARK  5 active torsions:
REMARK  status: ('A' for Active; 'I' for Inactive)
REMARK    1  A    between atoms: C3_3  and  C4_4 
REMARK    2  A    between atoms: N1_23  and  O1_25 
REMARK    3  A    between atoms: O1_25  and  C22_26 
REMARK    4  A    between atoms: C22_26  and  C23_27 
REMARK    5  A    between atoms: C23_27  and  N2_28 
ROOT
HETATM    1  C1  UNL     1     -21.146   9.630 -43.746  1.00  0.00     0.011 C 
HETATM    2  C2  UNL     1     -22.576   9.451 -44.001  1.00  0.00    -0.000 C 
HETATM    3  C3  UNL     1     -22.917   8.526 -45.192  1.00  0.00     0.024 C 
HETATM    4  C10 UNL     1     -23.531   7.304 -44.606  1.00  0.00     0.019 C 
HETATM    5  C11 UNL     1     -23.401   7.451 -43.164  1.00  0.00    -0.035 C 
HETATM    6  C12 UNL     1     -22.173   6.797 -42.658  1.00  0.00     0.016 C 
HETATM    7  C13 UNL     1     -24.495   7.040 -42.246  1.00  0.00     0.010 C 
HETATM    8  C14 UNL     1     -24.173   7.922 -41.039  1.00  0.00     0.007 C 
HETATM    9  C15 UNL     1     -23.291   9.061 -41.542  1.00  0.00     0.007 C 
HETATM   10  C16 UNL     1     -23.571  10.383 -40.890  1.00  0.00    -0.016 C 
HETATM   11  C17 UNL     1     -24.772  10.389 -39.989  1.00  0.00     0.020 C 
HETATM   12  C18 UNL     1     -22.398  10.769 -40.020  1.00  0.00     0.014 C 
HETATM   13  C19 UNL     1     -22.407  12.096 -39.404  1.00  0.00     0.007 C 
HETATM   14  C20 UNL     1     -21.612  13.035 -40.328  1.00  0.00     0.059 C 
HETATM   15  C21 UNL     1     -22.450  13.386 -41.512  1.00  0.00     0.032 C 
HETATM   16  N1  UNL     1     -22.244  14.588 -41.900  1.00  0.00    -0.271 N 
ATOM     17  H1  UNL     1     -21.558  15.124 -41.368  1.00  0.00     0.194 HD
HETATM   18  C28 UNL     1     -23.407  12.585 -42.221  1.00  0.00     0.030 C 
HETATM   19  C29 UNL     1     -23.858  11.360 -41.961  1.00  0.00    -0.069 C 
HETATM   20  C30 UNL     1     -24.838  10.997 -43.000  1.00  0.00     0.036 C 
HETATM   21  C31 UNL     1     -24.854   9.493 -43.308  1.00  0.00     0.015 C 
HETATM   22  C32 UNL     1     -23.477   8.959 -42.991  1.00  0.00    -0.024 C 
ENDROOT
BRANCH  16  23
HETATM   23  O1  UNL     1     -22.833  15.231 -42.938  1.00  0.00    -0.279 OA
BRANCH  23  24
HETATM   24  C22 UNL     1     -22.908  16.639 -42.950  1.00  0.00     0.231 C 
BRANCH  24  25
HETATM   25  C23 UNL     1     -21.721  17.241 -42.201  1.00  0.00     0.301 C 
BRANCH  25  26
HETATM   26  N2  UNL     1     -21.913  18.651 -42.156  1.00  0.00     0.094 N 
HETATM   27  C24 UNL     1     -20.688  19.369 -42.197  1.00  0.00     0.298 C 
HETATM   28  C25 UNL     1     -20.806  20.535 -43.168  1.00  0.00     0.198 C 
HETATM   29  O2  UNL     1     -21.160  19.964 -44.399  1.00  0.00    -0.388 OA
HETATM   30  C26 UNL     1     -22.490  19.618 -44.345  1.00  0.00     0.198 C 
HETATM   31  C27 UNL     1     -22.948  19.073 -43.030  1.00  0.00     0.298 C 
ENDBRANCH  25  26
ENDBRANCH  24  25
ENDBRANCH  23  24
ENDBRANCH  16  23
BRANCH   3  32
HETATM   32  C4  UNL     1     -21.820   8.379 -46.133  1.00  0.00    -0.051 A 
HETATM   33  C5  UNL     1     -21.188   7.160 -46.173  1.00  0.00     0.007 A 
HETATM   34  C6  UNL     1     -20.129   6.916 -47.016  1.00  0.00     0.004 A 
HETATM   35  C7  UNL     1     -19.690   7.926 -47.847  1.00  0.00     0.042 A 
HETATM   36  C8  UNL     1     -20.332   9.145 -47.799  1.00  0.00     0.116 A 
HETATM   37  F1  UNL     1     -19.852  10.107 -48.642  1.00  0.00    -0.206 F 
HETATM   38  C9  UNL     1     -21.391   9.383 -46.952  1.00  0.00     0.049 A 
ENDBRANCH   3  32
TORSDOF 5
ENDMDL
MODEL 2
REMARK VINA RESULT: -10.725496021      0.746      1.074
REMARK  5 active torsions:
REMARK  status: ('A' for Active; 'I' for Inactive)
REMARK    1  A    between atoms: C3_3  and  C4_4 
REMARK    2  A    between atoms: N1_23  and  O1_25 
REMARK    3  A    between atoms: O1_25  and  C22_26 
REMARK    4  A    between atoms: C22_26  and  C23_27 
REMARK    5  A    between atoms: C23_27  and  N2_28 
ROOT
HETATM    1  C1  UNL     1     -21.133   9.542 -43.636  1.00  0.00     0.011 C 
HETATM    2  C2  UNL     1     -22.559   9.372 -43.920  1.00  0.00    -0.000 C 
HETATM    3  C3  UNL     1     -22.882   8.438 -45.109  1.00  0.00     0.024 C 
HETATM    4  C10 UNL     1     -23.519   7.228 -44.525  1.00  0.00     0.019 C 
HETATM    5  C11 UNL     1     -23.419   7.387 -43.083  1.00  0.00    -0.035 C 
HETATM    6  C12 UNL     1     -22.207   6.728 -42.543  1.00  0.00     0.016 C 
HETATM    7  C13 UNL     1     -24.536   6.994 -42.184  1.00  0.00     0.010 C 
HETATM    8  C14 UNL     1     -24.232   7.885 -40.979  1.00  0.00     0.007 C 
HETATM    9  C15 UNL     1     -23.330   9.012 -41.473  1.00  0.00     0.007 C 
HETATM   10  C16 UNL     1     -23.613  10.342 -40.840  1.00  0.00    -0.016 C 
HETATM   11  C17 UNL     1     -24.832  10.367 -39.965  1.00  0.00     0.020 C 
HETATM   12  C18 UNL     1     -22.455  10.727 -39.949  1.00  0.00     0.014 C 
HETATM   13  C19 UNL     1     -22.466  12.059 -39.345  1.00  0.00     0.007 C 
HETATM   14  C20 UNL     1     -21.644  12.983 -40.261  1.00  0.00     0.059 C 
HETATM   15  C21 UNL     1     -22.454  13.330 -41.465  1.00  0.00     0.032 C 
HETATM   16  N1  UNL     1     -22.228  14.526 -41.860  1.00  0.00    -0.271 N 
ATOM     17  H1  UNL     1     -21.550  15.061 -41.319  1.00  0.00     0.194 HD
HETATM   18  C28 UNL     1     -23.401  12.530 -42.187  1.00  0.00     0.030 C 
HETATM   19  C29 UNL     1     -23.868  11.311 -41.926  1.00  0.00    -0.069 C 
HETATM   20  C30 UNL     1     -24.829  10.946 -42.982  1.00  0.00     0.036 C 
HETATM   21  C31 UNL     1     -24.851   9.439 -43.277  1.00  0.00     0.015 C 
HETATM   22  C32 UNL     1     -23.486   8.897 -42.925  1.00  0.00    -0.024 C 
ENDROOT
BRANCH  16  23
HETATM   23  O1  UNL     1     -22.790  15.164 -42.917  1.00  0.00    -0.279 OA
BRANCH  23  24
HETATM   24  C22 UNL     1     -22.848  16.573 -42.946  1.00  0.00     0.231 C 
BRANCH  24  25
HETATM   25  C23 UNL     1     -21.708  17.169 -42.124  1.00  0.00     0.301 C 
BRANCH  25  26
HETATM   26  N2  UNL     1     -21.888  18.581 -42.101  1.00  0.00     0.094 N 
HETATM   27  C24 UNL     1     -20.658  19.286 -42.005  1.00  0.00     0.298 C 
HETATM   28  C25 UNL     1     -20.653  20.451 -42.984  1.00  0.00     0.198 C 
HETATM   29  O2  UNL     1     -20.873  19.881 -44.246  1.00  0.00    -0.388 OA
HETATM   30  C26 UNL     1     -22.204  19.550 -44.343  1.00  0.00     0.198 C 
HETATM   31  C27 UNL     1     -22.814  19.013 -43.088  1.00  0.00     0.298 C 
ENDBRANCH  25  26
ENDBRANCH  24  25
ENDBRANCH  23  24
ENDBRANCH  16  23
BRANCH   3  32
HETATM   32  C4  UNL     1     -21.767   8.274 -46.025  1.00  0.00    -0.051 A 
HETATM   33  C5  UNL     1     -21.545   9.284 -46.930  1.00  0.00     0.007 A 
HETATM   34  C6  UNL     1     -20.525   9.225 -47.850  1.00  0.00     0.004 A 
HETATM   35  C7  UNL     1     -19.700   8.120 -47.865  1.00  0.00     0.042 A 
HETATM   36  C8  UNL     1     -19.931   7.113 -46.953  1.00  0.00     0.116 A 
HETATM   37  F1  UNL     1     -19.084   6.043 -47.015  1.00  0.00    -0.206 F 
HETATM   38  C9  UNL     1     -20.954   7.178 -46.033  1.00  0.00     0.049 A 
ENDBRANCH   3  32
TORSDOF 5
ENDMDL
MODEL 3
REMARK VINA RESULT: -10.703888526      2.098      2.572
REMARK  5 active torsions:
REMARK  status: ('A' for Active; 'I' for Inactive)
REMARK    1  A    between atoms: C3_3  and  C4_4 
REMARK    2  A    between atoms: N1_23  and  O1_25 
REMARK    3  A    between atoms: O1_25  and  C22_26 
REMARK    4  A    between atoms: C22_26  and  C23_27 
REMARK    5  A    between atoms: C23_27  and  N2_28 
ROOT
HETATM    1  C1  UNL     1     -20.077   9.555 -42.267  1.00  0.00     0.011 C 
HETATM    2  C2  UNL     1     -20.907   9.957 -43.404  1.00  0.00    -0.000 C 
HETATM    3  C3  UNL     1     -20.453   9.400 -44.773  1.00  0.00     0.024 C 
HETATM    4  C10 UNL     1     -21.495   8.423 -45.190  1.00  0.00     0.019 C 
HETATM    5  C11 UNL     1     -22.403   8.309 -44.059  1.00  0.00    -0.035 C 
HETATM    6  C12 UNL     1     -22.030   7.182 -43.173  1.00  0.00     0.016 C 
HETATM    7  C13 UNL     1     -23.872   8.208 -44.256  1.00  0.00     0.010 C 
HETATM    8  C14 UNL     1     -24.358   8.730 -42.903  1.00  0.00     0.007 C 
HETATM    9  C15 UNL     1     -23.205   9.520 -42.290  1.00  0.00     0.007 C 
HETATM   10  C16 UNL     1     -23.636  10.746 -41.541  1.00  0.00    -0.016 C 
HETATM   11  C17 UNL     1     -25.095  11.071 -41.668  1.00  0.00     0.020 C 
HETATM   12  C18 UNL     1     -23.382  10.545 -40.066  1.00  0.00     0.014 C 
HETATM   13  C19 UNL     1     -23.601  11.680 -39.169  1.00  0.00     0.007 C 
HETATM   14  C20 UNL     1     -22.243  12.377 -38.974  1.00  0.00     0.059 C 
HETATM   15  C21 UNL     1     -21.920  13.176 -40.193  1.00  0.00     0.032 C 
HETATM   16  N1  UNL     1     -21.300  14.257 -39.901  1.00  0.00    -0.271 N 
ATOM     17  H1  UNL     1     -21.116  14.420 -38.911  1.00  0.00     0.194 HD
HETATM   18  C28 UNL     1     -22.208  12.893 -41.570  1.00  0.00     0.030 C 
HETATM   19  C29 UNL     1     -22.908  11.900 -42.112  1.00  0.00    -0.069 C 
HETATM   20  C30 UNL     1     -22.906  12.074 -43.576  1.00  0.00     0.036 C 
HETATM   21  C31 UNL     1     -22.952  10.742 -44.338  1.00  0.00     0.015 C 
HETATM   22  C32 UNL     1     -22.323   9.697 -43.446  1.00  0.00    -0.024 C 
ENDROOT
BRANCH  16  23
HETATM   23  O1  UNL     1     -20.860  15.210 -40.759  1.00  0.00    -0.279 OA
BRANCH  23  24
HETATM   24  C22 UNL     1     -20.374  16.439 -40.265  1.00  0.00     0.231 C 
BRANCH  24  25
HETATM   25  C23 UNL     1     -21.372  17.559 -40.547  1.00  0.00     0.301 C 
BRANCH  25  26
HETATM   26  N2  UNL     1     -21.317  17.842 -41.941  1.00  0.00     0.094 N 
HETATM   27  C24 UNL     1     -22.525  17.515 -42.613  1.00  0.00     0.298 C 
HETATM   28  C25 UNL     1     -22.908  18.640 -43.563  1.00  0.00     0.198 C 
HETATM   29  O2  UNL     1     -23.006  19.789 -42.765  1.00  0.00    -0.388 OA
HETATM   30  C26 UNL     1     -21.733  20.212 -42.463  1.00  0.00     0.198 C 
HETATM   31  C27 UNL     1     -20.749  19.117 -42.200  1.00  0.00     0.298 C 
ENDBRANCH  25  26
ENDBRANCH  24  25
ENDBRANCH  23  24
ENDBRANCH  16  23
BRANCH   3  32
HETATM   32  C4  UNL     1     -19.060   8.990 -44.789  1.00  0.00    -0.051 A 
HETATM   33  C5  UNL     1     -18.804   7.641 -44.837  1.00  0.00     0.007 A 
HETATM   34  C6  UNL     1     -17.522   7.143 -44.843  1.00  0.00     0.004 A 
HETATM   35  C7  UNL     1     -16.462   8.024 -44.799  1.00  0.00     0.042 A 
HETATM   36  C8  UNL     1     -16.729   9.376 -44.751  1.00  0.00     0.116 A 
HETATM   37  F1  UNL     1     -15.642  10.201 -44.707  1.00  0.00    -0.206 F 
HETATM   38  C9  UNL     1     -18.016   9.868 -44.746  1.00  0.00     0.049 A 
ENDBRANCH   3  32
TORSDOF 5
ENDMDL
MODEL 4
REMARK VINA RESULT: -10.701330116      4.336      8.010
REMARK  5 active torsions:
REMARK  status: ('A' for Active; 'I' for Inactive)
REMARK    1  A    between atoms: C3_3  and  C4_4 
REMARK    2  A    between atoms: N1_23  and  O1_25 
REMARK    3  A    between atoms: O1_25  and  C22_26 
REMARK    4  A    between atoms: C22_26  and  C23_27 
REMARK    5  A    between atoms: C23_27  and  N2_28 
ROOT
HETATM    1  C1  UNL     1     -21.839  11.860 -43.062  1.00  0.00     0.011 C 
HETATM    2  C2  UNL     1     -22.030  11.405 -41.684  1.00  0.00    -0.000 C 
HETATM    3  C3  UNL     1     -22.518  12.492 -40.699  1.00  0.00     0.024 C 
HETATM    4  C10 UNL     1     -23.909  12.121 -40.327  1.00  0.00     0.019 C 
HETATM    5  C11 UNL     1     -24.253  10.986 -41.170  1.00  0.00    -0.035 C 
HETATM    6  C12 UNL     1     -24.943  11.415 -42.408  1.00  0.00     0.016 C 
HETATM    7  C13 UNL     1     -25.036   9.840 -40.638  1.00  0.00     0.010 C 
HETATM    8  C14 UNL     1     -24.596   8.745 -41.611  1.00  0.00     0.007 C 
HETATM    9  C15 UNL     1     -23.289   9.211 -42.246  1.00  0.00     0.007 C 
HETATM   10  C16 UNL     1     -22.295   8.111 -42.472  1.00  0.00    -0.016 C 
HETATM   11  C17 UNL     1     -22.689   6.787 -41.886  1.00  0.00     0.020 C 
HETATM   12  C18 UNL     1     -22.138   7.877 -43.957  1.00  0.00     0.014 C 
HETATM   13  C19 UNL     1     -21.106   6.940 -44.400  1.00  0.00     0.007 C 
HETATM   14  C20 UNL     1     -19.850   7.766 -44.729  1.00  0.00     0.059 C 
HETATM   15  C21 UNL     1     -19.182   8.173 -43.458  1.00  0.00     0.032 C 
HETATM   16  N1  UNL     1     -17.907   8.188 -43.574  1.00  0.00    -0.271 N 
ATOM     17  H1  UNL     1     -17.534   7.930 -44.488  1.00  0.00     0.194 HD
HETATM   18  C28 UNL     1     -19.765   8.526 -42.195  1.00  0.00     0.030 C 
HETATM   19  C29 UNL     1     -21.036   8.498 -41.801  1.00  0.00    -0.069 C 
HETATM   20  C30 UNL     1     -21.098   8.957 -40.401  1.00  0.00     0.036 C 
HETATM   21  C31 UNL     1     -22.404   9.694 -40.070  1.00  0.00     0.015 C 
HETATM   22  C32 UNL     1     -22.905  10.309 -41.356  1.00  0.00    -0.024 C 
ENDROOT
BRANCH  16  23
HETATM   23  O1  UNL     1     -16.997   8.508 -42.622  1.00  0.00    -0.279 OA
BRANCH  23  24
HETATM   24  C22 UNL     1     -15.658   8.085 -42.750  1.00  0.00     0.231 C 
BRANCH  24  25
HETATM   25  C23 UNL     1     -14.743   9.283 -42.995  1.00  0.00     0.301 C 
BRANCH  25  26
HETATM   26  N2  UNL     1     -14.344   9.245 -44.361  1.00  0.00     0.094 N 
HETATM   27  C24 UNL     1     -14.562   7.975 -44.959  1.00  0.00     0.298 C 
HETATM   28  C25 UNL     1     -15.188   8.152 -46.334  1.00  0.00     0.198 C 
HETATM   29  O2  UNL     1     -16.368   8.877 -46.118  1.00  0.00    -0.388 OA
HETATM   30  C26 UNL     1     -16.031  10.190 -45.887  1.00  0.00     0.198 C 
HETATM   31  C27 UNL     1     -14.791  10.389 -45.075  1.00  0.00     0.298 C 
ENDBRANCH  25  26
ENDBRANCH  24  25
ENDBRANCH  23  24
ENDBRANCH  16  23
BRANCH   3  32
HETATM   32  C4  UNL     1     -22.249  13.842 -41.161  1.00  0.00    -0.051 A 
HETATM   33  C5  UNL     1     -22.947  14.278 -42.262  1.00  0.00     0.007 A 
HETATM   34  C6  UNL     1     -22.761  15.533 -42.792  1.00  0.00     0.004 A 
HETATM   35  C7  UNL     1     -21.848  16.381 -42.200  1.00  0.00     0.042 A 
HETATM   36  C8  UNL     1     -21.153  15.934 -41.096  1.00  0.00     0.116 A 
HETATM   37  F1  UNL     1     -20.261  16.814 -40.553  1.00  0.00    -0.206 F 
HETATM   38  C9  UNL     1     -21.344  14.676 -40.570  1.00  0.00     0.049 A 
ENDBRANCH   3  32
TORSDOF 5
ENDMDL
MODEL 5
REMARK VINA RESULT: -10.495193702      3.922      7.365
REMARK  5 active torsions:
REMARK  status: ('A' for Active; 'I' for Inactive)
REMARK    1  A    between atoms: C3_3  and  C4_4 
REMARK    2  A    between atoms: N1_23  and  O1_25 
REMARK    3  A    between atoms: O1_25  and  C22_26 
REMARK    4  A    between atoms: C22_26  and  C23_27 
REMARK    5  A    between atoms: C23_27  and  N2_28 
ROOT
HETATM    1  C1  UNL     1     -22.669  11.223 -43.514  1.00  0.00     0.011 C 
HETATM    2  C2  UNL     1     -22.576  10.821 -42.110  1.00  0.00    -0.000 C 
HETATM    3  C3  UNL     1     -22.906  11.934 -41.089  1.00  0.00     0.024 C 
HETATM    4  C10 UNL     1     -24.187  11.540 -40.444  1.00  0.00     0.019 C 
HETATM    5  C11 UNL     1     -24.643  10.361 -41.164  1.00  0.00    -0.035 C 
HETATM    6  C12 UNL     1     -25.573  10.718 -42.260  1.00  0.00     0.016 C 
HETATM    7  C13 UNL     1     -25.268   9.216 -40.450  1.00  0.00     0.010 C 
HETATM    8  C14 UNL     1     -24.982   8.094 -41.449  1.00  0.00     0.007 C 
HETATM    9  C15 UNL     1     -23.839   8.571 -42.340  1.00  0.00     0.007 C 
HETATM   10  C16 UNL     1     -22.867   7.491 -42.714  1.00  0.00    -0.016 C 
HETATM   11  C17 UNL     1     -23.093   6.182 -42.016  1.00  0.00     0.020 C 
HETATM   12  C18 UNL     1     -22.988   7.200 -44.192  1.00  0.00     0.014 C 
HETATM   13  C19 UNL     1     -22.027   6.275 -44.791  1.00  0.00     0.007 C 
HETATM   14  C20 UNL     1     -20.887   7.122 -45.385  1.00  0.00     0.059 C 
HETATM   15  C21 UNL     1     -20.004   7.601 -44.282  1.00  0.00     0.032 C 
HETATM   16  N1  UNL     1     -18.777   7.648 -44.642  1.00  0.00    -0.271 N 
ATOM     17  H1  UNL     1     -18.575   7.362 -45.600  1.00  0.00     0.194 HD
HETATM   18  C28 UNL     1     -20.347   7.990 -42.943  1.00  0.00     0.030 C 
HETATM   19  C29 UNL     1     -21.518   7.942 -42.312  1.00  0.00    -0.069 C 
HETATM   20  C30 UNL     1     -21.328   8.457 -40.944  1.00  0.00     0.036 C 
HETATM   21  C31 UNL     1     -22.572   9.170 -40.394  1.00  0.00     0.015 C 
HETATM   22  C32 UNL     1     -23.332   9.716 -41.580  1.00  0.00    -0.024 C 
ENDROOT
BRANCH  16  23
HETATM   23  O1  UNL     1     -17.713   8.034 -43.894  1.00  0.00    -0.279 OA
BRANCH  23  24
HETATM   24  C22 UNL     1     -16.791   8.971 -44.404  1.00  0.00     0.231 C 
BRANCH  24  25
HETATM   25  C23 UNL     1     -17.512  10.026 -45.240  1.00  0.00     0.301 C 
BRANCH  25  26
HETATM   26  N2  UNL     1     -17.139   9.825 -46.599  1.00  0.00     0.094 N 
HETATM   27  C24 UNL     1     -18.262   9.648 -47.452  1.00  0.00     0.298 C 
HETATM   28  C25 UNL     1     -18.083  10.473 -48.718  1.00  0.00     0.198 C 
HETATM   29  O2  UNL     1     -17.915  11.795 -48.284  1.00  0.00    -0.388 OA
HETATM   30  C26 UNL     1     -16.641  11.925 -47.785  1.00  0.00     0.198 C 
HETATM   31  C27 UNL     1     -16.140  10.744 -47.016  1.00  0.00     0.298 C 
ENDBRANCH  25  26
ENDBRANCH  24  25
ENDBRANCH  23  24
ENDBRANCH  16  23
BRANCH   3  32
HETATM   32  C4  UNL     1     -22.780  13.271 -41.642  1.00  0.00    -0.051 A 
HETATM   33  C5  UNL     1     -23.693  13.642 -42.600  1.00  0.00     0.007 A 
HETATM   34  C6  UNL     1     -23.658  14.879 -43.199  1.00  0.00     0.004 A 
HETATM   35  C7  UNL     1     -22.678  15.775 -42.828  1.00  0.00     0.042 A 
HETATM   36  C8  UNL     1     -21.766  15.393 -41.866  1.00  0.00     0.116 A 
HETATM   37  F1  UNL     1     -20.817  16.320 -41.540  1.00  0.00    -0.206 F 
HETATM   38  C9  UNL     1     -21.807  14.153 -41.269  1.00  0.00     0.049 A 
ENDBRANCH   3  32
TORSDOF 5
ENDMDL
