MODEL 1
REMARK VINA RESULT: -9.466891603      0.000      0.000
REMARK  6 active torsions:
REMARK  status: ('A' for Active; 'I' for Inactive)
REMARK    1  A    between atoms: N1_2  and  C3_4 
REMARK    2  A    between atoms: C3_4  and  C4_5 
REMARK    3  A    between atoms: C8_10  and  C9_11 
REMARK    4  A    between atoms: C9_11  and  O2_12 
REMARK       I    between atoms: N2_14  and  C10_16 
REMARK    5  A    between atoms: C10_16  and  C11_18 
REMARK    6  A    between atoms: C22_31  and  C23_32 
ROOT
HETATM    1  C4  UNL     1     -18.492   9.378 -43.689  1.00  0.00     0.042 C 
HETATM    2  C5  UNL     1     -19.233   8.084 -43.965  1.00  0.00     0.182 C 
HETATM    3  O1  UNL     1     -20.447   8.457 -44.678  1.00  0.00    -0.349 OA
HETATM    4  C6  UNL     1     -21.380   9.111 -43.859  1.00  0.00     0.089 A 
HETATM    5  C7  UNL     1     -20.808  10.212 -43.162  1.00  0.00    -0.009 A 
HETATM    6  C8  UNL     1     -21.574  10.921 -42.330  1.00  0.00     0.027 A 
HETATM    7  C20 UNL     1     -22.934  10.535 -42.198  1.00  0.00     0.059 A 
HETATM    8  C21 UNL     1     -23.500   9.481 -42.867  1.00  0.00     0.130 A 
HETATM    9  F1  UNL     1     -24.852   9.246 -42.721  1.00  0.00    -0.205 F 
HETATM   10  C22 UNL     1     -22.698   8.738 -43.723  1.00  0.00     0.039 A 
HETATM   11  C29 UNL     1     -19.393  10.549 -43.374  1.00  0.00     0.051 C 
ENDROOT
BRANCH   6  12
HETATM   12  C9  UNL     1     -21.193  11.981 -41.439  1.00  0.00     0.153 C 
HETATM   13  N2  UNL     1     -21.121  13.323 -41.314  1.00  0.00    -0.303 N 
HETATM   14  C10 UNL     1     -21.483  14.428 -42.091  1.00  0.00     0.258 C 
ATOM     15  H2  UNL     1     -20.694  13.602 -40.430  1.00  0.00     0.171 HD
HETATM   16  O3  UNL     1     -21.930  14.328 -43.242  1.00  0.00    -0.267 OA
BRANCH  12  17
HETATM   17  O2  UNL     1     -20.715  11.359 -40.260  1.00  0.00    -0.345 OA
ATOM     18  H2  UNL     1     -19.895  10.939 -40.492  1.00  0.00     0.219 HD
ENDBRANCH  12  17
BRANCH  14  19
HETATM   19  C11 UNL     1     -21.304  15.799 -41.439  1.00  0.00     0.046 A 
HETATM   20  C12 UNL     1     -20.611  15.859 -40.282  1.00  0.00     0.067 A 
HETATM   21  S1  UNL     1     -20.771  17.492 -39.820  1.00  0.00    -0.105 SA
HETATM   22  C13 UNL     1     -21.713  18.070 -41.100  1.00  0.00    -0.009 A 
HETATM   23  C14 UNL     1     -21.882  16.951 -41.882  1.00  0.00    -0.028 A 
HETATM   24  C19 UNL     1     -22.454  19.256 -41.706  1.00  0.00     0.055 C 
HETATM   25  C15 UNL     1     -22.596  17.411 -43.143  1.00  0.00     0.049 C 
HETATM   26  C16 UNL     1     -22.360  18.923 -43.189  1.00  0.00    -0.039 C 
HETATM   27  C17 UNL     1     -23.446  19.534 -44.002  1.00  0.00     0.015 C 
HETATM   28  C18 UNL     1     -20.997  19.283 -43.684  1.00  0.00     0.015 C 
ENDBRANCH  14  19
ENDBRANCH   6  12
BRANCH  10  29
HETATM   29  C23 UNL     1     -23.264   7.643 -44.526  1.00  0.00    -0.064 C 
HETATM   30  C24 UNL     1     -23.969   8.118 -45.774  1.00  0.00     0.035 C 
HETATM   31  C25 UNL     1     -24.390   6.947 -46.596  1.00  0.00     0.004 C 
HETATM   32  C26 UNL     1     -23.574   5.710 -46.336  1.00  0.00     0.001 C 
HETATM   33  C27 UNL     1     -23.675   5.276 -44.898  1.00  0.00     0.004 C 
HETATM   34  C28 UNL     1     -23.797   6.444 -43.909  1.00  0.00     0.035 C 
ENDBRANCH  10  29
BRANCH   1  35
HETATM   35  C3  UNL     1     -17.741   9.620 -45.006  1.00  0.00     0.278 C 
BRANCH  35  36
HETATM   36  N1  UNL     1     -16.454   8.949 -44.912  1.00  0.00     0.080 N 
HETATM   37  C1  UNL     1     -15.627   9.279 -46.068  1.00  0.00     0.309 C 
HETATM   38  C2  UNL     1     -15.745   9.401 -43.750  1.00  0.00     0.309 C 
ENDBRANCH  35  36
ENDBRANCH   1  35
TORSDOF 6
ENDMDL
MODEL 2
REMARK VINA RESULT: -9.367826787      1.761      2.517
REMARK  6 active torsions:
REMARK  status: ('A' for Active; 'I' for Inactive)
REMARK    1  A    between atoms: N1_2  and  C3_4 
REMARK    2  A    between atoms: C3_4  and  C4_5 
REMARK    3  A    between atoms: C8_10  and  C9_11 
REMARK    4  A    between atoms: C9_11  and  O2_12 
REMARK       I    between atoms: N2_14  and  C10_16 
REMARK    5  A    between atoms: C10_16  and  C11_18 
REMARK    6  A    between atoms: C22_31  and  C23_32 
ROOT
HETATM    1  C4  UNL     1     -19.641  10.063 -42.186  1.00  0.00     0.042 C 
HETATM    2  C5  UNL     1     -20.322   8.941 -41.427  1.00  0.00     0.182 C 
HETATM    3  O1  UNL     1     -21.430   8.501 -42.263  1.00  0.00    -0.349 OA
HETATM    4  C6  UNL     1     -22.474   9.436 -42.318  1.00  0.00     0.089 A 
HETATM    5  C7  UNL     1     -22.017  10.736 -42.674  1.00  0.00    -0.009 A 
HETATM    6  C8  UNL     1     -22.899  11.736 -42.750  1.00  0.00     0.027 A 
HETATM    7  C20 UNL     1     -24.259  11.434 -42.478  1.00  0.00     0.059 A 
HETATM    8  C21 UNL     1     -24.716  10.186 -42.139  1.00  0.00     0.130 A 
HETATM    9  F1  UNL     1     -26.072   9.994 -41.973  1.00  0.00    -0.205 F 
HETATM   10  C22 UNL     1     -23.795   9.151 -42.050  1.00  0.00     0.039 A 
HETATM   11  C29 UNL     1     -20.590  10.951 -42.956  1.00  0.00     0.051 C 
ENDROOT
BRANCH   6  12
HETATM   12  C9  UNL     1     -22.657  13.135 -42.966  1.00  0.00     0.153 C 
HETATM   13  N2  UNL     1     -22.236  14.269 -42.369  1.00  0.00    -0.303 N 
HETATM   14  C10 UNL     1     -21.733  14.619 -41.112  1.00  0.00     0.258 C 
ATOM     15  H2  UNL     1     -22.300  15.075 -42.992  1.00  0.00     0.171 HD
HETATM   16  O3  UNL     1     -21.659  13.822 -40.168  1.00  0.00    -0.267 OA
BRANCH  12  17
HETATM   17  O2  UNL     1     -22.996  13.395 -44.315  1.00  0.00    -0.345 OA
ATOM     18  H2  UNL     1     -22.256  13.854 -44.695  1.00  0.00     0.219 HD
ENDBRANCH  12  17
BRANCH  14  19
HETATM   19  C11 UNL     1     -21.263  16.066 -40.952  1.00  0.00     0.046 A 
HETATM   20  C12 UNL     1     -20.293  16.315 -40.046  1.00  0.00     0.067 A 
HETATM   21  S1  UNL     1     -20.174  18.016 -40.067  1.00  0.00    -0.105 SA
HETATM   22  C13 UNL     1     -21.354  18.381 -41.221  1.00  0.00    -0.009 A 
HETATM   23  C14 UNL     1     -21.824  17.138 -41.579  1.00  0.00    -0.028 A 
HETATM   24  C19 UNL     1     -22.111  19.469 -41.974  1.00  0.00     0.055 C 
HETATM   25  C15 UNL     1     -22.791  17.359 -42.730  1.00  0.00     0.049 C 
HETATM   26  C16 UNL     1     -22.433  18.744 -43.274  1.00  0.00    -0.039 C 
HETATM   27  C17 UNL     1     -23.628  19.288 -43.974  1.00  0.00     0.015 C 
HETATM   28  C18 UNL     1     -21.215  18.731 -44.139  1.00  0.00     0.015 C 
ENDBRANCH  14  19
ENDBRANCH   6  12
BRANCH  10  29
HETATM   29  C23 UNL     1     -24.232   7.776 -41.766  1.00  0.00    -0.064 C 
HETATM   30  C24 UNL     1     -24.139   6.858 -42.962  1.00  0.00     0.035 C 
HETATM   31  C25 UNL     1     -24.466   5.461 -42.556  1.00  0.00     0.004 C 
HETATM   32  C26 UNL     1     -24.244   5.196 -41.091  1.00  0.00     0.001 C 
HETATM   33  C27 UNL     1     -25.094   6.096 -40.234  1.00  0.00     0.004 C 
HETATM   34  C28 UNL     1     -25.302   7.496 -40.828  1.00  0.00     0.035 C 
ENDBRANCH  10  29
BRANCH   1  35
HETATM   35  C3  UNL     1     -18.718   9.304 -43.150  1.00  0.00     0.278 C 
BRANCH  35  36
HETATM   36  N1  UNL     1     -19.039   9.735 -44.501  1.00  0.00     0.080 N 
HETATM   37  C1  UNL     1     -17.822  10.106 -45.215  1.00  0.00     0.309 C 
HETATM   38  C2  UNL     1     -19.638   8.656 -45.233  1.00  0.00     0.309 C 
ENDBRANCH  35  36
ENDBRANCH   1  35
TORSDOF 6
ENDMDL
MODEL 3
REMARK VINA RESULT: -9.031096090      1.718      2.112
REMARK  6 active torsions:
REMARK  status: ('A' for Active; 'I' for Inactive)
REMARK    1  A    between atoms: N1_2  and  C3_4 
REMARK    2  A    between atoms: C3_4  and  C4_5 
REMARK    3  A    between atoms: C8_10  and  C9_11 
REMARK    4  A    between atoms: C9_11  and  O2_12 
REMARK       I    between atoms: N2_14  and  C10_16 
REMARK    5  A    between atoms: C10_16  and  C11_18 
REMARK    6  A    between atoms: C22_31  and  C23_32 
ROOT
HETATM    1  C4  UNL     1     -18.984   9.490 -41.533  1.00  0.00     0.042 C 
HETATM    2  C5  UNL     1     -19.725   8.171 -41.439  1.00  0.00     0.182 C 
HETATM    3  O1  UNL     1     -20.977   8.357 -42.158  1.00  0.00    -0.349 OA
HETATM    4  C6  UNL     1     -21.874   9.197 -41.482  1.00  0.00     0.089 A 
HETATM    5  C7  UNL     1     -21.279  10.436 -41.111  1.00  0.00    -0.009 A 
HETATM    6  C8  UNL     1     -22.009  11.333 -40.444  1.00  0.00     0.027 A 
HETATM    7  C20 UNL     1     -23.356  10.995 -40.150  1.00  0.00     0.059 A 
HETATM    8  C21 UNL     1     -23.945   9.809 -40.504  1.00  0.00     0.130 A 
HETATM    9  F1  UNL     1     -25.285   9.621 -40.234  1.00  0.00    -0.205 F 
HETATM   10  C22 UNL     1     -23.180   8.873 -41.189  1.00  0.00     0.039 A 
HETATM   11  C29 UNL     1     -19.880  10.706 -41.474  1.00  0.00     0.051 C 
ENDROOT
BRANCH   6  12
HETATM   12  C9  UNL     1     -21.594  12.580 -39.866  1.00  0.00     0.153 C 
HETATM   13  N2  UNL     1     -21.348  13.878 -40.144  1.00  0.00    -0.303 N 
HETATM   14  C10 UNL     1     -21.451  14.705 -41.267  1.00  0.00     0.258 C 
ATOM     15  H2  UNL     1     -20.999  14.383 -39.329  1.00  0.00     0.171 HD
HETATM   16  O3  UNL     1     -21.762  14.284 -42.390  1.00  0.00    -0.267 OA
BRANCH  12  17
HETATM   17  O2  UNL     1     -21.359  12.326 -38.494  1.00  0.00    -0.345 OA
ATOM     18  H2  UNL     1     -20.425  12.438 -38.356  1.00  0.00     0.219 HD
ENDBRANCH  12  17
BRANCH  14  19
HETATM   19  C11 UNL     1     -21.161  16.189 -41.041  1.00  0.00     0.046 A 
HETATM   20  C12 UNL     1     -20.282  16.517 -40.069  1.00  0.00     0.067 A 
HETATM   21  S1  UNL     1     -20.358  18.220 -40.039  1.00  0.00    -0.105 SA
HETATM   22  C13 UNL     1     -21.500  18.486 -41.257  1.00  0.00    -0.009 A 
HETATM   23  C14 UNL     1     -21.801  17.211 -41.675  1.00  0.00    -0.028 A 
HETATM   24  C19 UNL     1     -22.330  19.506 -42.029  1.00  0.00     0.055 C 
HETATM   25  C15 UNL     1     -22.717  17.358 -42.880  1.00  0.00     0.049 C 
HETATM   26  C16 UNL     1     -22.488  18.792 -43.364  1.00  0.00    -0.039 C 
HETATM   27  C17 UNL     1     -23.693  19.220 -44.124  1.00  0.00     0.015 C 
HETATM   28  C18 UNL     1     -21.226  18.945 -44.150  1.00  0.00     0.015 C 
ENDBRANCH  14  19
ENDBRANCH   6  12
BRANCH  10  29
HETATM   29  C23 UNL     1     -23.775   7.615 -41.663  1.00  0.00    -0.064 C 
HETATM   30  C24 UNL     1     -23.788   7.487 -43.167  1.00  0.00     0.035 C 
HETATM   31  C25 UNL     1     -24.276   6.133 -43.558  1.00  0.00     0.004 C 
HETATM   32  C26 UNL     1     -24.088   5.097 -42.483  1.00  0.00     0.001 C 
HETATM   33  C27 UNL     1     -24.829   5.468 -41.225  1.00  0.00     0.004 C 
HETATM   34  C28 UNL     1     -24.872   6.979 -40.958  1.00  0.00     0.035 C 
ENDBRANCH  10  29
BRANCH   1  35
HETATM   35  C3  UNL     1     -18.303   9.395 -42.906  1.00  0.00     0.278 C 
BRANCH  35  36
HETATM   36  N1  UNL     1     -17.258   8.388 -42.813  1.00  0.00     0.080 N 
HETATM   37  C1  UNL     1     -17.176   7.629 -44.056  1.00  0.00     0.309 C 
HETATM   38  C2  UNL     1     -15.983   9.017 -42.625  1.00  0.00     0.309 C 
ENDBRANCH  35  36
ENDBRANCH   1  35
TORSDOF 6
ENDMDL
MODEL 4
REMARK VINA RESULT: -8.863066888      2.354      4.277
REMARK  6 active torsions:
REMARK  status: ('A' for Active; 'I' for Inactive)
REMARK    1  A    between atoms: N1_2  and  C3_4 
REMARK    2  A    between atoms: C3_4  and  C4_5 
REMARK    3  A    between atoms: C8_10  and  C9_11 
REMARK    4  A    between atoms: C9_11  and  O2_12 
REMARK       I    between atoms: N2_14  and  C10_16 
REMARK    5  A    between atoms: C10_16  and  C11_18 
REMARK    6  A    between atoms: C22_31  and  C23_32 
ROOT
HETATM    1  C4  UNL     1     -24.981  10.551 -42.563  1.00  0.00     0.042 C 
HETATM    2  C5  UNL     1     -24.854   9.936 -43.942  1.00  0.00     0.182 C 
HETATM    3  O1  UNL     1     -23.837   8.900 -43.832  1.00  0.00    -0.349 OA
HETATM    4  C6  UNL     1     -22.545   9.421 -43.670  1.00  0.00     0.089 A 
HETATM    5  C7  UNL     1     -22.471  10.361 -42.604  1.00  0.00    -0.009 A 
HETATM    6  C8  UNL     1     -21.304  10.955 -42.342  1.00  0.00     0.027 A 
HETATM    7  C20 UNL     1     -20.191  10.599 -43.147  1.00  0.00     0.059 A 
HETATM    8  C21 UNL     1     -20.244   9.691 -44.174  1.00  0.00     0.130 A 
HETATM    9  F1  UNL     1     -19.080   9.365 -44.838  1.00  0.00    -0.205 F 
HETATM   10  C22 UNL     1     -21.462   9.084 -44.451  1.00  0.00     0.039 A 
HETATM   11  C29 UNL     1     -23.674  10.655 -41.812  1.00  0.00     0.051 C 
ENDROOT
BRANCH   6  12
HETATM   12  C9  UNL     1     -21.021  12.011 -41.411  1.00  0.00     0.153 C 
HETATM   13  N2  UNL     1     -20.993  13.352 -41.265  1.00  0.00    -0.303 N 
HETATM   14  C10 UNL     1     -21.319  14.459 -42.056  1.00  0.00     0.258 C 
ATOM     15  H2  UNL     1     -20.645  13.629 -40.347  1.00  0.00     0.171 HD
HETATM   16  O3  UNL     1     -21.670  14.364 -43.240  1.00  0.00    -0.267 OA
BRANCH  12  17
HETATM   17  O2  UNL     1     -20.624  11.385 -40.205  1.00  0.00    -0.345 OA
ATOM     18  H2  UNL     1     -19.697  11.565 -40.102  1.00  0.00     0.219 HD
ENDBRANCH  12  17
BRANCH  14  19
HETATM   19  C11 UNL     1     -21.226  15.825 -41.376  1.00  0.00     0.046 A 
HETATM   20  C12 UNL     1     -20.589  15.894 -40.187  1.00  0.00     0.067 A 
HETATM   21  S1  UNL     1     -20.838  17.511 -39.708  1.00  0.00    -0.105 SA
HETATM   22  C13 UNL     1     -21.744  18.072 -41.021  1.00  0.00    -0.009 A 
HETATM   23  C14 UNL     1     -21.831  16.960 -41.827  1.00  0.00    -0.028 A 
HETATM   24  C19 UNL     1     -22.506  19.236 -41.642  1.00  0.00     0.055 C 
HETATM   25  C15 UNL     1     -22.507  17.412 -43.111  1.00  0.00     0.049 C 
HETATM   26  C16 UNL     1     -22.332  18.932 -43.124  1.00  0.00    -0.039 C 
HETATM   27  C17 UNL     1     -23.405  19.512 -43.976  1.00  0.00     0.015 C 
HETATM   28  C18 UNL     1     -20.965  19.356 -43.550  1.00  0.00     0.015 C 
ENDBRANCH  14  19
ENDBRANCH   6  12
BRANCH  10  29
HETATM   29  C23 UNL     1     -21.567   8.047 -45.489  1.00  0.00    -0.064 C 
HETATM   30  C24 UNL     1     -21.000   6.714 -45.064  1.00  0.00     0.035 C 
HETATM   31  C25 UNL     1     -21.270   5.689 -46.113  1.00  0.00     0.004 C 
HETATM   32  C26 UNL     1     -22.449   6.024 -46.987  1.00  0.00     0.001 C 
HETATM   33  C27 UNL     1     -22.243   7.329 -47.711  1.00  0.00     0.004 C 
HETATM   34  C28 UNL     1     -21.457   8.368 -46.899  1.00  0.00     0.035 C 
ENDBRANCH  10  29
BRANCH   1  35
HETATM   35  C3  UNL     1     -25.932   9.580 -41.849  1.00  0.00     0.278 C 
BRANCH  35  36
HETATM   36  N1  UNL     1     -25.231   9.042 -40.694  1.00  0.00     0.080 N 
HETATM   37  C1  UNL     1     -26.095   9.076 -39.519  1.00  0.00     0.309 C 
HETATM   38  C2  UNL     1     -24.891   7.667 -40.921  1.00  0.00     0.309 C 
ENDBRANCH  35  36
ENDBRANCH   1  35
TORSDOF 6
ENDMDL
MODEL 5
REMARK VINA RESULT: -8.783751181      1.217      1.434
REMARK  6 active torsions:
REMARK  status: ('A' for Active; 'I' for Inactive)
REMARK    1  A    between atoms: N1_2  and  C3_4 
REMARK    2  A    between atoms: C3_4  and  C4_5 
REMARK    3  A    between atoms: C8_10  and  C9_11 
REMARK    4  A    between atoms: C9_11  and  O2_12 
REMARK       I    between atoms: N2_14  and  C10_16 
REMARK    5  A    between atoms: C10_16  and  C11_18 
REMARK    6  A    between atoms: C22_31  and  C23_32 
ROOT
HETATM    1  C4  UNL     1     -19.689   9.158 -41.391  1.00  0.00     0.042 C 
HETATM    2  C5  UNL     1     -20.417   7.941 -41.928  1.00  0.00     0.182 C 
HETATM    3  O1  UNL     1     -20.985   8.341 -43.207  1.00  0.00    -0.349 OA
HETATM    4  C6  UNL     1     -22.058   9.234 -43.071  1.00  0.00     0.089 A 
HETATM    5  C7  UNL     1     -21.728  10.355 -42.258  1.00  0.00    -0.009 A 
HETATM    6  C8  UNL     1     -22.658  11.283 -42.024  1.00  0.00     0.027 A 
HETATM    7  C20 UNL     1     -23.934  11.099 -42.619  1.00  0.00     0.059 A 
HETATM    8  C21 UNL     1     -24.266  10.029 -43.409  1.00  0.00     0.130 A 
HETATM    9  F1  UNL     1     -25.513   9.995 -43.997  1.00  0.00    -0.205 F 
HETATM   10  C22 UNL     1     -23.299   9.059 -43.641  1.00  0.00     0.039 A 
HETATM   11  C29 UNL     1     -20.373  10.470 -41.698  1.00  0.00     0.051 C 
ENDROOT
BRANCH   6  12
HETATM   12  C9  UNL     1     -22.595  12.420 -41.148  1.00  0.00     0.153 C 
HETATM   13  N2  UNL     1     -22.156  13.692 -41.048  1.00  0.00    -0.303 N 
HETATM   14  C10 UNL     1     -21.521  14.608 -41.894  1.00  0.00     0.258 C 
ATOM     15  H2  UNL     1     -22.330  14.084 -40.123  1.00  0.00     0.171 HD
HETATM   16  O3  UNL     1     -21.128  14.317 -43.032  1.00  0.00    -0.267 OA
BRANCH  12  17
HETATM   17  O2  UNL     1     -23.237  12.034 -39.947  1.00  0.00    -0.345 OA
ATOM     18  H2  UNL     1     -24.052  11.616 -40.201  1.00  0.00     0.219 HD
ENDBRANCH  12  17
BRANCH  14  19
HETATM   19  C11 UNL     1     -21.335  16.020 -41.340  1.00  0.00     0.046 A 
HETATM   20  C12 UNL     1     -20.632  16.159 -40.195  1.00  0.00     0.067 A 
HETATM   21  S1  UNL     1     -20.786  17.821 -39.846  1.00  0.00    -0.105 SA
HETATM   22  C13 UNL     1     -21.739  18.310 -41.154  1.00  0.00    -0.009 A 
HETATM   23  C14 UNL     1     -21.916  17.140 -41.856  1.00  0.00    -0.028 A 
HETATM   24  C19 UNL     1     -22.484  19.452 -41.834  1.00  0.00     0.055 C 
HETATM   25  C15 UNL     1     -22.641  17.513 -43.139  1.00  0.00     0.049 C 
HETATM   26  C16 UNL     1     -22.404  19.018 -43.291  1.00  0.00    -0.039 C 
HETATM   27  C17 UNL     1     -23.496  19.573 -44.135  1.00  0.00     0.015 C 
HETATM   28  C18 UNL     1     -21.045  19.341 -43.822  1.00  0.00     0.015 C 
ENDBRANCH  14  19
ENDBRANCH   6  12
BRANCH  10  29
HETATM   29  C23 UNL     1     -23.569   7.927 -44.540  1.00  0.00    -0.064 C 
HETATM   30  C24 UNL     1     -24.106   8.347 -45.887  1.00  0.00     0.035 C 
HETATM   31  C25 UNL     1     -24.220   7.158 -46.781  1.00  0.00     0.004 C 
HETATM   32  C26 UNL     1     -23.304   6.029 -46.394  1.00  0.00     0.001 C 
HETATM   33  C27 UNL     1     -23.592   5.539 -45.000  1.00  0.00     0.004 C 
HETATM   34  C28 UNL     1     -24.036   6.649 -44.037  1.00  0.00     0.035 C 
ENDBRANCH  10  29
BRANCH   1  35
HETATM   35  C3  UNL     1     -18.334   9.081 -42.109  1.00  0.00     0.278 C 
BRANCH  35  36
HETATM   36  N1  UNL     1     -18.587   8.721 -43.495  1.00  0.00     0.080 N 
HETATM   37  C1  UNL     1     -18.409   9.883 -44.359  1.00  0.00     0.309 C 
HETATM   38  C2  UNL     1     -17.641   7.733 -43.927  1.00  0.00     0.309 C 
ENDBRANCH  35  36
ENDBRANCH   1  35
TORSDOF 6
ENDMDL
