MODEL 1
REMARK VINA RESULT: -10.301176080      0.000      0.000
REMARK  7 active torsions:
REMARK  status: ('A' for Active; 'I' for Inactive)
REMARK    1  A    between atoms: C2_2  and  C3_3 
REMARK    2  A    between atoms: C3_3  and  C4_4 
REMARK    3  A    between atoms: C5_5  and  C7_7 
REMARK    4  A    between atoms: C7_7  and  C8_9 
REMARK    5  A    between atoms: C9_10  and  C10_11 
REMARK    6  A    between atoms: C10_11  and  C13_14 
REMARK    7  A    between atoms: C14_16  and  O3_17 
ROOT
HETATM    1  C13 UNL     1     -22.912  12.401 -42.111  1.00  0.00     0.157 C 
HETATM    2  O2  UNL     1     -23.667  12.351 -40.941  1.00  0.00    -0.331 OA
HETATM    3  C14 UNL     1     -23.992  11.488 -39.991  1.00  0.00     0.411 C 
HETATM    4  O4  UNL     1     -24.363  10.203 -40.233  1.00  0.00    -0.335 OA
HETATM    5  C15 UNL     1     -25.274   9.683 -41.175  1.00  0.00     0.207 C 
HETATM    6  C16 UNL     1     -24.767   8.335 -41.530  1.00  0.00    -0.064 C 
HETATM    7  C17 UNL     1     -25.063   7.233 -40.541  1.00  0.00     0.045 C 
HETATM    8  C18 UNL     1     -24.098   7.974 -42.583  1.00  0.00    -0.017 C 
HETATM    9  C19 UNL     1     -23.661   8.857 -43.737  1.00  0.00     0.020 C 
HETATM   10  C20 UNL     1     -24.298   8.279 -44.926  1.00  0.00     0.087 C 
HETATM   11  C21 UNL     1     -23.584   8.168 -46.181  1.00  0.00     0.127 C 
HETATM   12  O5  UNL     1     -23.534   9.201 -46.826  1.00  0.00    -0.298 OA
HETATM   13  C22 UNL     1     -22.862   7.072 -46.927  1.00  0.00     0.078 C 
HETATM   14  C23 UNL     1     -21.451   7.068 -46.464  1.00  0.00     0.008 C 
HETATM   15  C24 UNL     1     -21.407   7.125 -44.929  1.00  0.00     0.005 C 
HETATM   16  C25 UNL     1     -21.223   8.553 -44.530  1.00  0.00    -0.014 C 
HETATM   17  C26 UNL     1     -19.875   8.631 -43.823  1.00  0.00     0.010 C 
HETATM   18  C27 UNL     1     -22.250   9.139 -43.622  1.00  0.00    -0.001 C 
HETATM   19  C28 UNL     1     -22.028  10.668 -43.684  1.00  0.00     0.028 C 
HETATM   20  C29 UNL     1     -21.980  11.291 -42.304  1.00  0.00     0.113 C 
HETATM   21 CL1  UNL     1     -20.291  11.496 -41.860  1.00  0.00    -0.122 Cl
ENDROOT
BRANCH   1  22
HETATM   22  C10 UNL     1     -22.314  13.840 -42.176  1.00  0.00    -0.002 C 
HETATM   23  C11 UNL     1     -20.971  13.697 -42.835  1.00  0.00     0.021 C 
HETATM   24  C12 UNL     1     -23.259  14.705 -42.927  1.00  0.00     0.021 C 
BRANCH  22  25
HETATM   25  C9  UNL     1     -22.250  14.220 -40.746  1.00  0.00    -0.011 C 
HETATM   26  C8  UNL     1     -21.135  14.784 -40.057  1.00  0.00     0.052 C 
BRANCH  26  27
HETATM   27  C7  UNL     1     -20.585  16.109 -40.271  1.00  0.00     0.178 C 
HETATM   28  O1  UNL     1     -19.421  16.439 -39.949  1.00  0.00    -0.288 OA
BRANCH  27  29
HETATM   29  C5  UNL     1     -21.352  17.204 -40.894  1.00  0.00    -0.005 C 
HETATM   30  C4  UNL     1     -21.517  17.272 -42.209  1.00  0.00     0.061 C 
HETATM   31  C6  UNL     1     -21.885  18.277 -40.042  1.00  0.00     0.053 C 
BRANCH  30  32
HETATM   32  C3  UNL     1     -22.225  18.446 -42.758  1.00  0.00    -0.155 C 
BRANCH  32  33
HETATM   33  C2  UNL     1     -22.788  19.379 -43.201  1.00  0.00     0.080 C 
HETATM   34  C1  UNL     1     -22.943  19.642 -44.724  1.00  0.00     0.017 C 
ENDBRANCH  32  33
ENDBRANCH  30  32
ENDBRANCH  27  29
ENDBRANCH  26  27
ENDBRANCH  22  25
ENDBRANCH   1  22
BRANCH   3  35
HETATM   35  O3  UNL     1     -23.984  11.800 -38.716  1.00  0.00    -0.349 OA
ATOM     36  H3  UNL     1     -24.779  11.871 -38.200  1.00  0.00     0.215 HD
ENDBRANCH   3  35
TORSDOF 7
ENDMDL
MODEL 2
REMARK VINA RESULT: -10.122629123      1.774      2.723
REMARK  7 active torsions:
REMARK  status: ('A' for Active; 'I' for Inactive)
REMARK    1  A    between atoms: C2_2  and  C3_3 
REMARK    2  A    between atoms: C3_3  and  C4_4 
REMARK    3  A    between atoms: C5_5  and  C7_7 
REMARK    4  A    between atoms: C7_7  and  C8_9 
REMARK    5  A    between atoms: C9_10  and  C10_11 
REMARK    6  A    between atoms: C10_11  and  C13_14 
REMARK    7  A    between atoms: C14_16  and  O3_17 
ROOT
HETATM    1  C13 UNL     1     -22.786  11.009 -42.375  1.00  0.00     0.157 C 
HETATM    2  O2  UNL     1     -23.999  10.411 -42.039  1.00  0.00    -0.331 OA
HETATM    3  C14 UNL     1     -24.479   9.214 -41.735  1.00  0.00     0.411 C 
HETATM    4  O4  UNL     1     -24.153   8.077 -42.405  1.00  0.00    -0.335 OA
HETATM    5  C15 UNL     1     -24.093   7.827 -43.791  1.00  0.00     0.207 C 
HETATM    6  C16 UNL     1     -23.036   6.802 -43.973  1.00  0.00    -0.064 C 
HETATM    7  C17 UNL     1     -23.432   5.378 -43.667  1.00  0.00     0.045 C 
HETATM    8  C18 UNL     1     -21.807   6.968 -44.361  1.00  0.00    -0.017 C 
HETATM    9  C19 UNL     1     -21.134   8.276 -44.735  1.00  0.00     0.020 C 
HETATM   10  C20 UNL     1     -20.710   8.105 -46.129  1.00  0.00     0.087 C 
HETATM   11  C21 UNL     1     -19.420   8.582 -46.585  1.00  0.00     0.127 C 
HETATM   12  O5  UNL     1     -19.379   9.778 -46.819  1.00  0.00    -0.298 OA
HETATM   13  C22 UNL     1     -18.069   7.968 -46.859  1.00  0.00     0.078 C 
HETATM   14  C23 UNL     1     -17.299   7.995 -45.589  1.00  0.00     0.008 C 
HETATM   15  C24 UNL     1     -18.173   7.473 -44.439  1.00  0.00     0.005 C 
HETATM   16  C25 UNL     1     -18.777   8.653 -43.752  1.00  0.00    -0.014 C 
HETATM   17  C26 UNL     1     -18.223   8.653 -42.331  1.00  0.00     0.010 C 
HETATM   18  C27 UNL     1     -20.265   8.695 -43.662  1.00  0.00    -0.001 C 
HETATM   19  C28 UNL     1     -20.611  10.149 -43.264  1.00  0.00     0.028 C 
HETATM   20  C29 UNL     1     -21.595  10.203 -42.112  1.00  0.00     0.113 C 
HETATM   21 CL1  UNL     1     -20.684  10.468 -40.632  1.00  0.00    -0.122 Cl
ENDROOT
BRANCH   1  22
HETATM   22  C10 UNL     1     -22.822  12.436 -41.747  1.00  0.00    -0.002 C 
HETATM   23  C11 UNL     1     -23.729  13.249 -42.628  1.00  0.00     0.021 C 
HETATM   24  C12 UNL     1     -23.300  12.318 -40.345  1.00  0.00     0.021 C 
BRANCH  22  25
HETATM   25  C9  UNL     1     -21.399  12.842 -41.804  1.00  0.00    -0.011 C 
HETATM   26  C8  UNL     1     -20.891  14.154 -42.045  1.00  0.00     0.052 C 
BRANCH  26  27
HETATM   27  C7  UNL     1     -21.017  15.292 -41.155  1.00  0.00     0.178 C 
HETATM   28  O1  UNL     1     -20.719  15.260 -39.940  1.00  0.00    -0.288 OA
BRANCH  27  29
HETATM   29  C5  UNL     1     -21.513  16.607 -41.601  1.00  0.00    -0.005 C 
HETATM   30  C4  UNL     1     -22.277  16.728 -42.678  1.00  0.00     0.061 C 
HETATM   31  C6  UNL     1     -21.092  17.813 -40.873  1.00  0.00     0.053 C 
BRANCH  30  32
HETATM   32  C3  UNL     1     -22.661  18.089 -43.105  1.00  0.00    -0.155 C 
BRANCH  32  33
HETATM   33  C2  UNL     1     -22.969  19.171 -43.451  1.00  0.00     0.080 C 
HETATM   34  C1  UNL     1     -22.593  19.766 -44.836  1.00  0.00     0.017 C 
ENDBRANCH  32  33
ENDBRANCH  30  32
ENDBRANCH  27  29
ENDBRANCH  26  27
ENDBRANCH  22  25
ENDBRANCH   1  22
BRANCH   3  35
HETATM   35  O3  UNL     1     -25.320   9.018 -40.747  1.00  0.00    -0.349 OA
ATOM     36  H3  UNL     1     -25.072   8.583 -39.941  1.00  0.00     0.215 HD
ENDBRANCH   3  35
TORSDOF 7
ENDMDL
MODEL 3
REMARK VINA RESULT: -10.104749170      2.149      3.704
REMARK  7 active torsions:
REMARK  status: ('A' for Active; 'I' for Inactive)
REMARK    1  A    between atoms: C2_2  and  C3_3 
REMARK    2  A    between atoms: C3_3  and  C4_4 
REMARK    3  A    between atoms: C5_5  and  C7_7 
REMARK    4  A    between atoms: C7_7  and  C8_9 
REMARK    5  A    between atoms: C9_10  and  C10_11 
REMARK    6  A    between atoms: C10_11  and  C13_14 
REMARK    7  A    between atoms: C14_16  and  O3_17 
ROOT
HETATM    1  C13 UNL     1     -22.465  11.561 -43.318  1.00  0.00     0.157 C 
HETATM    2  O2  UNL     1     -23.717  11.137 -43.757  1.00  0.00    -0.331 OA
HETATM    3  C14 UNL     1     -24.352  10.012 -44.049  1.00  0.00     0.411 C 
HETATM    4  O4  UNL     1     -23.804   9.001 -44.774  1.00  0.00    -0.335 OA
HETATM    5  C15 UNL     1     -23.083   9.041 -45.985  1.00  0.00     0.207 C 
HETATM    6  C16 UNL     1     -22.134   7.902 -45.929  1.00  0.00    -0.064 C 
HETATM    7  C17 UNL     1     -22.709   6.542 -46.242  1.00  0.00     0.045 C 
HETATM    8  C18 UNL     1     -20.866   7.919 -45.644  1.00  0.00    -0.017 C 
HETATM    9  C19 UNL     1     -20.023   9.131 -45.293  1.00  0.00     0.020 C 
HETATM   10  C20 UNL     1     -18.977   9.182 -46.320  1.00  0.00     0.087 C 
HETATM   11  C21 UNL     1     -17.605   9.501 -45.980  1.00  0.00     0.127 C 
HETATM   12  O5  UNL     1     -17.386  10.691 -45.831  1.00  0.00    -0.298 OA
HETATM   13  C22 UNL     1     -16.332   8.722 -45.754  1.00  0.00     0.078 C 
HETATM   14  C23 UNL     1     -16.288   8.340 -44.320  1.00  0.00     0.008 C 
HETATM   15  C24 UNL     1     -17.644   7.756 -43.895  1.00  0.00     0.005 C 
HETATM   16  C25 UNL     1     -18.440   8.856 -43.271  1.00  0.00    -0.014 C 
HETATM   17  C26 UNL     1     -18.660   8.456 -41.817  1.00  0.00     0.010 C 
HETATM   18  C27 UNL     1     -19.774   9.149 -43.871  1.00  0.00    -0.001 C 
HETATM   19  C28 UNL     1     -20.188  10.525 -43.298  1.00  0.00     0.028 C 
HETATM   20  C29 UNL     1     -21.606  10.514 -42.766  1.00  0.00     0.113 C 
HETATM   21 CL1  UNL     1     -21.531  10.291 -41.024  1.00  0.00    -0.122 Cl
ENDROOT
BRANCH   1  22
HETATM   22  C10 UNL     1     -22.725  12.806 -42.415  1.00  0.00    -0.002 C 
HETATM   23  C11 UNL     1     -23.375  13.828 -43.305  1.00  0.00     0.021 C 
HETATM   24  C12 UNL     1     -23.573  12.384 -41.270  1.00  0.00     0.021 C 
BRANCH  22  25
HETATM   25  C9  UNL     1     -21.358  13.167 -41.975  1.00  0.00    -0.011 C 
HETATM   26  C8  UNL     1     -20.771  14.468 -41.982  1.00  0.00     0.052 C 
BRANCH  26  27
HETATM   27  C7  UNL     1     -21.166  15.584 -41.145  1.00  0.00     0.178 C 
HETATM   28  O1  UNL     1     -21.159  15.551 -39.894  1.00  0.00    -0.288 OA
BRANCH  27  29
HETATM   29  C5  UNL     1     -21.617  16.877 -41.693  1.00  0.00    -0.005 C 
HETATM   30  C4  UNL     1     -22.426  16.938 -42.743  1.00  0.00     0.061 C 
HETATM   31  C6  UNL     1     -21.102  18.121 -41.104  1.00  0.00     0.053 C 
BRANCH  30  32
HETATM   32  C3  UNL     1     -22.762  18.271 -43.282  1.00  0.00    -0.155 C 
BRANCH  32  33
HETATM   33  C2  UNL     1     -23.023  19.335 -43.712  1.00  0.00     0.080 C 
HETATM   34  C1  UNL     1     -22.648  19.793 -45.148  1.00  0.00     0.017 C 
ENDBRANCH  32  33
ENDBRANCH  30  32
ENDBRANCH  27  29
ENDBRANCH  26  27
ENDBRANCH  22  25
ENDBRANCH   1  22
BRANCH   3  35
HETATM   35  O3  UNL     1     -25.581   9.769 -43.657  1.00  0.00    -0.349 OA
ATOM     36  H3  UNL     1     -25.782   9.231 -42.900  1.00  0.00     0.215 HD
ENDBRANCH   3  35
TORSDOF 7
ENDMDL
MODEL 4
REMARK VINA RESULT: -9.988642089      4.125      7.576
REMARK  7 active torsions:
REMARK  status: ('A' for Active; 'I' for Inactive)
REMARK    1  A    between atoms: C2_2  and  C3_3 
REMARK    2  A    between atoms: C3_3  and  C4_4 
REMARK    3  A    between atoms: C5_5  and  C7_7 
REMARK    4  A    between atoms: C7_7  and  C8_9 
REMARK    5  A    between atoms: C9_10  and  C10_11 
REMARK    6  A    between atoms: C10_11  and  C13_14 
REMARK    7  A    between atoms: C14_16  and  O3_17 
ROOT
HETATM    1  C13 UNL     1     -21.426   6.265 -44.844  1.00  0.00     0.157 C 
HETATM    2  O2  UNL     1     -21.562   4.927 -44.479  1.00  0.00    -0.331 OA
HETATM    3  C14 UNL     1     -22.475   4.110 -43.975  1.00  0.00     0.411 C 
HETATM    4  O4  UNL     1     -23.281   4.432 -42.929  1.00  0.00    -0.335 OA
HETATM    5  C15 UNL     1     -22.965   5.028 -41.691  1.00  0.00     0.207 C 
HETATM    6  C16 UNL     1     -24.168   5.803 -41.296  1.00  0.00    -0.064 C 
HETATM    7  C17 UNL     1     -25.303   5.008 -40.697  1.00  0.00     0.045 C 
HETATM    8  C18 UNL     1     -24.375   7.082 -41.398  1.00  0.00    -0.017 C 
HETATM    9  C19 UNL     1     -23.421   8.122 -41.955  1.00  0.00     0.020 C 
HETATM   10  C20 UNL     1     -23.184   9.057 -40.850  1.00  0.00     0.087 C 
HETATM   11  C21 UNL     1     -23.132  10.488 -41.075  1.00  0.00     0.127 C 
HETATM   12  O5  UNL     1     -22.070  10.890 -41.518  1.00  0.00    -0.298 OA
HETATM   13  C22 UNL     1     -24.078  11.651 -40.898  1.00  0.00     0.078 C 
HETATM   14  C23 UNL     1     -24.868  11.781 -42.149  1.00  0.00     0.008 C 
HETATM   15  C24 UNL     1     -25.398  10.403 -42.575  1.00  0.00     0.005 C 
HETATM   16  C25 UNL     1     -24.451   9.840 -43.583  1.00  0.00    -0.014 C 
HETATM   17  C26 UNL     1     -25.235   9.710 -44.884  1.00  0.00     0.010 C 
HETATM   18  C27 UNL     1     -23.849   8.510 -43.277  1.00  0.00    -0.001 C 
HETATM   19  C28 UNL     1     -22.666   8.359 -44.262  1.00  0.00     0.028 C 
HETATM   20  C29 UNL     1     -22.677   7.014 -44.959  1.00  0.00     0.113 C 
HETATM   21 CL1  UNL     1     -23.410   7.229 -46.542  1.00  0.00    -0.122 Cl
ENDROOT
BRANCH   1  22
HETATM   22  C10 UNL     1     -20.482   6.279 -46.084  1.00  0.00    -0.002 C 
HETATM   23  C11 UNL     1     -20.882   5.093 -46.917  1.00  0.00     0.021 C 
HETATM   24  C12 UNL     1     -20.644   7.581 -46.782  1.00  0.00     0.021 C 
BRANCH  22  25
HETATM   25  C9  UNL     1     -19.143   6.159 -45.463  1.00  0.00    -0.011 C 
HETATM   26  C8  UNL     1     -18.126   7.159 -45.417  1.00  0.00     0.052 C 
BRANCH  26  27
HETATM   27  C7  UNL     1     -18.187   8.401 -44.671  1.00  0.00     0.178 C 
HETATM   28  O1  UNL     1     -18.136   9.534 -45.201  1.00  0.00    -0.288 OA
BRANCH  27  29
HETATM   29  C5  UNL     1     -18.318   8.448 -43.202  1.00  0.00    -0.005 C 
HETATM   30  C4  UNL     1     -19.505   8.536 -42.616  1.00  0.00     0.061 C 
HETATM   31  C6  UNL     1     -17.101   8.467 -42.378  1.00  0.00     0.053 C 
BRANCH  30  32
HETATM   32  C3  UNL     1     -19.543   8.664 -41.145  1.00  0.00    -0.155 C 
BRANCH  32  33
HETATM   33  C2  UNL     1     -19.579   8.766 -39.974  1.00  0.00     0.080 C 
HETATM   34  C1  UNL     1     -19.529  10.129 -39.231  1.00  0.00     0.017 C 
ENDBRANCH  32  33
ENDBRANCH  30  32
ENDBRANCH  27  29
ENDBRANCH  26  27
ENDBRANCH  22  25
ENDBRANCH   1  22
BRANCH   3  35
HETATM   35  O3  UNL     1     -22.685   2.904 -44.448  1.00  0.00    -0.349 OA
ATOM     36  H3  UNL     1     -23.306   2.301 -44.057  1.00  0.00     0.215 HD
ENDBRANCH   3  35
TORSDOF 7
ENDMDL
MODEL 5
REMARK VINA RESULT: -9.789846718      2.435      3.995
REMARK  7 active torsions:
REMARK  status: ('A' for Active; 'I' for Inactive)
REMARK    1  A    between atoms: C2_2  and  C3_3 
REMARK    2  A    between atoms: C3_3  and  C4_4 
REMARK    3  A    between atoms: C5_5  and  C7_7 
REMARK    4  A    between atoms: C7_7  and  C8_9 
REMARK    5  A    between atoms: C9_10  and  C10_11 
REMARK    6  A    between atoms: C10_11  and  C13_14 
REMARK    7  A    between atoms: C14_16  and  O3_17 
ROOT
HETATM    1  C13 UNL     1     -22.279   9.796 -42.236  1.00  0.00     0.157 C 
HETATM    2  O2  UNL     1     -22.945  10.823 -42.902  1.00  0.00    -0.331 OA
HETATM    3  C14 UNL     1     -23.975  10.989 -43.718  1.00  0.00     0.411 C 
HETATM    4  O4  UNL     1     -24.226  10.190 -44.789  1.00  0.00    -0.335 OA
HETATM    5  C15 UNL     1     -23.358   9.723 -45.796  1.00  0.00     0.207 C 
HETATM    6  C16 UNL     1     -23.888   8.400 -46.208  1.00  0.00    -0.064 C 
HETATM    7  C17 UNL     1     -25.069   8.422 -47.147  1.00  0.00     0.045 C 
HETATM    8  C18 UNL     1     -23.470   7.219 -45.865  1.00  0.00    -0.017 C 
HETATM    9  C19 UNL     1     -22.311   6.890 -44.942  1.00  0.00     0.020 C 
HETATM   10  C20 UNL     1     -21.378   6.108 -45.760  1.00  0.00     0.087 C 
HETATM   11  C21 UNL     1     -20.701   4.945 -45.222  1.00  0.00     0.127 C 
HETATM   12  O5  UNL     1     -19.731   5.202 -44.530  1.00  0.00    -0.298 OA
HETATM   13  C22 UNL     1     -20.886   3.449 -45.297  1.00  0.00     0.078 C 
HETATM   14  C23 UNL     1     -21.805   3.054 -44.199  1.00  0.00     0.008 C 
HETATM   15  C24 UNL     1     -23.023   3.990 -44.179  1.00  0.00     0.005 C 
HETATM   16  C25 UNL     1     -22.760   5.063 -43.174  1.00  0.00    -0.014 C 
HETATM   17  C26 UNL     1     -23.813   4.898 -42.084  1.00  0.00     0.010 C 
HETATM   18  C27 UNL     1     -22.821   6.472 -43.658  1.00  0.00    -0.001 C 
HETATM   19  C28 UNL     1     -22.156   7.316 -42.545  1.00  0.00     0.028 C 
HETATM   20  C29 UNL     1     -22.994   8.522 -42.171  1.00  0.00     0.113 C 
HETATM   21 CL1  UNL     1     -23.909   8.119 -40.726  1.00  0.00    -0.122 Cl
ENDROOT
BRANCH   1  22
HETATM   22  C10 UNL     1     -21.799  10.402 -40.882  1.00  0.00    -0.002 C 
HETATM   23  C11 UNL     1     -23.000  11.085 -40.290  1.00  0.00     0.021 C 
HETATM   24  C12 UNL     1     -21.263   9.302 -40.040  1.00  0.00     0.021 C 
BRANCH  22  25
HETATM   25  C9  UNL     1     -20.727  11.329 -41.313  1.00  0.00    -0.011 C 
HETATM   26  C8  UNL     1     -20.893  12.619 -41.900  1.00  0.00     0.052 C 
BRANCH  26  27
HETATM   27  C7  UNL     1     -21.425  13.793 -41.237  1.00  0.00     0.178 C 
HETATM   28  O1  UNL     1     -21.478  13.925 -39.993  1.00  0.00    -0.288 OA
BRANCH  27  29
HETATM   29  C5  UNL     1     -21.958  14.956 -41.971  1.00  0.00    -0.005 C 
HETATM   30  C4  UNL     1     -21.489  16.180 -41.762  1.00  0.00     0.061 C 
HETATM   31  C6  UNL     1     -23.079  14.760 -42.901  1.00  0.00     0.053 C 
BRANCH  30  32
HETATM   32  C3  UNL     1     -22.136  17.300 -42.476  1.00  0.00    -0.155 C 
BRANCH  32  33
HETATM   33  C2  UNL     1     -22.645  18.195 -43.044  1.00  0.00     0.080 C 
HETATM   34  C1  UNL     1     -22.617  19.661 -42.532  1.00  0.00     0.017 C 
ENDBRANCH  32  33
ENDBRANCH  30  32
ENDBRANCH  27  29
ENDBRANCH  26  27
ENDBRANCH  22  25
ENDBRANCH   1  22
BRANCH   3  35
HETATM   35  O3  UNL     1     -24.855  11.950 -43.562  1.00  0.00    -0.349 OA
ATOM     36  H3  UNL     1     -24.797  12.778 -44.024  1.00  0.00     0.215 HD
ENDBRANCH   3  35
TORSDOF 7
ENDMDL
