MODEL 1
REMARK VINA RESULT: -10.242340222      0.000      0.000
REMARK  7 active torsions:
REMARK  status: ('A' for Active; 'I' for Inactive)
REMARK    1  A    between atoms: C3_4  and  C4_5 
REMARK    2  A    between atoms: C4_5  and  N2_6 
REMARK    3  A    between atoms: C7_9  and  C9_12 
REMARK    4  A    between atoms: C9_12  and  C10_13 
REMARK    5  A    between atoms: C10_13  and  C11_14 
REMARK    6  A    between atoms: C11_14  and  N4_15 
REMARK    7  A    between atoms: N4_15  and  C12_16 
ROOT
HETATM    1  N1  UNL     1     -21.682   8.894 -45.440  1.00  0.00    -0.191 NA
HETATM    2  C1  UNL     1     -22.206   8.023 -44.863  1.00  0.00     0.101 C 
HETATM    3  C2  UNL     1     -22.850   6.891 -44.138  1.00  0.00     0.070 A 
HETATM    4  C3  UNL     1     -22.784   6.824 -42.772  1.00  0.00     0.037 A 
HETATM    5  S1  UNL     1     -23.621   5.344 -42.435  1.00  0.00    -0.092 SA
HETATM    6  C23 UNL     1     -24.018   4.887 -44.029  1.00  0.00    -0.009 A 
HETATM    7  C24 UNL     1     -23.483   5.896 -44.790  1.00  0.00    -0.023 A 
HETATM    8  C25 UNL     1     -23.696   5.694 -46.292  1.00  0.00     0.041 C 
HETATM    9  C26 UNL     1     -23.298   4.282 -46.621  1.00  0.00     0.005 C 
HETATM   10  C27 UNL     1     -23.912   3.234 -45.771  1.00  0.00     0.005 C 
HETATM   11  C28 UNL     1     -24.792   3.750 -44.672  1.00  0.00     0.046 C 
ENDROOT
BRANCH   4  12
HETATM   12  C4  UNL     1     -22.297   7.807 -41.751  1.00  0.00     0.080 C 
BRANCH  12  13
HETATM   13  N2  UNL     1     -23.289   8.268 -40.888  1.00  0.00    -0.291 NA
HETATM   14  C5  UNL     1     -22.659   9.368 -40.107  1.00  0.00     0.096 C 
HETATM   15  C6  UNL     1     -23.471  10.629 -40.271  1.00  0.00     0.039 C 
HETATM   16  C7  UNL     1     -23.562  10.992 -41.750  1.00  0.00     0.051 C 
HETATM   17  C8  UNL     1     -22.257  11.083 -42.385  1.00  0.00     0.069 C 
HETATM   18  C21 UNL     1     -24.354   9.908 -42.382  1.00  0.00     0.039 C 
HETATM   19  N3  UNL     1     -21.217  11.186 -42.910  1.00  0.00    -0.196 NA
HETATM   20  C22 UNL     1     -24.483   8.695 -41.510  1.00  0.00     0.096 C 
BRANCH  16  21
HETATM   21  C9  UNL     1     -24.162  12.382 -41.896  1.00  0.00     0.030 C 
BRANCH  21  22
HETATM   22  C10 UNL     1     -24.294  12.733 -43.345  1.00  0.00     0.061 C 
BRANCH  22  23
HETATM   23  C11 UNL     1     -24.166  14.267 -43.503  1.00  0.00     0.155 C 
BRANCH  23  24
HETATM   24  N4  UNL     1     -23.181  14.841 -42.814  1.00  0.00    -0.421 NA
BRANCH  24  25
HETATM   25  C12 UNL     1     -22.372  15.394 -42.151  1.00  0.00     0.119 A 
HETATM   26  C13 UNL     1     -21.565  14.722 -41.211  1.00  0.00     0.062 A 
HETATM   27  C14 UNL     1     -20.646  15.423 -40.480  1.00  0.00     0.091 A 
HETATM   28  N5  UNL     1     -20.486  16.750 -40.630  1.00  0.00    -0.365 N 
HETATM   29  C15 UNL     1     -21.239  17.430 -41.520  1.00  0.00     0.047 A 
ATOM     30  H5  UNL     1     -19.793  17.244 -40.068  1.00  0.00     0.165 HD
HETATM   31  C16 UNL     1     -21.032  18.780 -41.642  1.00  0.00     0.054 A 
HETATM   32  C20 UNL     1     -22.165  16.771 -42.270  1.00  0.00     0.031 A 
HETATM   33  C17 UNL     1     -21.788  19.475 -42.552  1.00  0.00     0.036 A 
HETATM   34 CL1  UNL     1     -21.591  21.208 -42.771  1.00  0.00    -0.084 Cl
HETATM   35  C18 UNL     1     -22.727  18.833 -43.319  1.00  0.00     0.025 A 
HETATM   36  C19 UNL     1     -22.936  17.465 -43.194  1.00  0.00     0.019 A 
ENDBRANCH  24  25
ENDBRANCH  23  24
ENDBRANCH  22  23
ENDBRANCH  21  22
ENDBRANCH  16  21
ENDBRANCH  12  13
ENDBRANCH   4  12
TORSDOF 7
ENDMDL
MODEL 2
REMARK VINA RESULT: -9.890410192      3.374      9.959
REMARK  7 active torsions:
REMARK  status: ('A' for Active; 'I' for Inactive)
REMARK    1  A    between atoms: C3_4  and  C4_5 
REMARK    2  A    between atoms: C4_5  and  N2_6 
REMARK    3  A    between atoms: C7_9  and  C9_12 
REMARK    4  A    between atoms: C9_12  and  C10_13 
REMARK    5  A    between atoms: C10_13  and  C11_14 
REMARK    6  A    between atoms: C11_14  and  N4_15 
REMARK    7  A    between atoms: N4_15  and  C12_16 
ROOT
HETATM    1  N1  UNL     1     -19.539  16.805 -39.586  1.00  0.00    -0.191 NA
HETATM    2  C1  UNL     1     -20.371  16.807 -40.406  1.00  0.00     0.101 C 
HETATM    3  C2  UNL     1     -21.408  16.815 -41.477  1.00  0.00     0.070 A 
HETATM    4  C3  UNL     1     -22.002  15.644 -41.866  1.00  0.00     0.037 A 
HETATM    5  S1  UNL     1     -23.067  16.173 -43.128  1.00  0.00    -0.092 SA
HETATM    6  C23 UNL     1     -22.716  17.842 -43.098  1.00  0.00    -0.009 A 
HETATM    7  C24 UNL     1     -21.771  17.948 -42.108  1.00  0.00    -0.023 A 
HETATM    8  C25 UNL     1     -21.274  19.382 -41.903  1.00  0.00     0.041 C 
HETATM    9  C26 UNL     1     -20.937  19.942 -43.257  1.00  0.00     0.005 C 
HETATM   10  C27 UNL     1     -21.997  19.805 -44.285  1.00  0.00     0.005 C 
HETATM   11  C28 UNL     1     -23.223  19.072 -43.829  1.00  0.00     0.046 C 
ENDROOT
BRANCH   4  12
HETATM   12  C4  UNL     1     -21.942  14.261 -41.294  1.00  0.00     0.080 C 
BRANCH  12  13
HETATM   13  N2  UNL     1     -22.077  13.248 -42.242  1.00  0.00    -0.291 NA
HETATM   14  C5  UNL     1     -21.122  12.184 -41.827  1.00  0.00     0.096 C 
HETATM   15  C6  UNL     1     -21.866  10.884 -41.645  1.00  0.00     0.039 C 
HETATM   16  C7  UNL     1     -22.968  11.063 -40.606  1.00  0.00     0.051 C 
HETATM   17  C8  UNL     1     -22.468  11.600 -39.350  1.00  0.00     0.069 C 
HETATM   18  C21 UNL     1     -23.937  12.012 -41.207  1.00  0.00     0.039 C 
HETATM   19  N3  UNL     1     -22.085  12.008 -38.322  1.00  0.00    -0.196 NA
HETATM   20  C22 UNL     1     -23.384  12.735 -42.398  1.00  0.00     0.096 C 
BRANCH  16  21
HETATM   21  C9  UNL     1     -23.551   9.707 -40.244  1.00  0.00     0.030 C 
BRANCH  21  22
HETATM   22  C10 UNL     1     -25.006   9.665 -40.592  1.00  0.00     0.061 C 
BRANCH  22  23
HETATM   23  C11 UNL     1     -25.464   8.188 -40.658  1.00  0.00     0.155 C 
BRANCH  23  24
HETATM   24  N4  UNL     1     -24.693   7.373 -41.375  1.00  0.00    -0.421 NA
BRANCH  24  25
HETATM   25  C12 UNL     1     -24.077   6.648 -42.078  1.00  0.00     0.119 A 
HETATM   26  C13 UNL     1     -23.747   5.328 -41.713  1.00  0.00     0.062 A 
HETATM   27  C14 UNL     1     -23.037   4.541 -42.577  1.00  0.00     0.091 A 
HETATM   28  N5  UNL     1     -22.636   4.992 -43.779  1.00  0.00    -0.365 N 
HETATM   29  C15 UNL     1     -22.932   6.250 -44.166  1.00  0.00     0.047 A 
ATOM     30  H5  UNL     1     -22.105   4.381 -44.400  1.00  0.00     0.165 HD
HETATM   31  C16 UNL     1     -22.510   6.661 -45.404  1.00  0.00     0.054 A 
HETATM   32  C20 UNL     1     -23.640   7.068 -43.338  1.00  0.00     0.031 A 
HETATM   33  C17 UNL     1     -22.816   7.937 -45.807  1.00  0.00     0.036 A 
HETATM   34 CL1  UNL     1     -22.310   8.547 -47.377  1.00  0.00    -0.084 Cl
HETATM   35  C18 UNL     1     -23.528   8.777 -44.990  1.00  0.00     0.025 A 
HETATM   36  C19 UNL     1     -23.955   8.360 -43.736  1.00  0.00     0.019 A 
ENDBRANCH  24  25
ENDBRANCH  23  24
ENDBRANCH  22  23
ENDBRANCH  21  22
ENDBRANCH  16  21
ENDBRANCH  12  13
ENDBRANCH   4  12
TORSDOF 7
ENDMDL
MODEL 3
REMARK VINA RESULT: -9.763168539      1.136      1.882
REMARK  7 active torsions:
REMARK  status: ('A' for Active; 'I' for Inactive)
REMARK    1  A    between atoms: C3_4  and  C4_5 
REMARK    2  A    between atoms: C4_5  and  N2_6 
REMARK    3  A    between atoms: C7_9  and  C9_12 
REMARK    4  A    between atoms: C9_12  and  C10_13 
REMARK    5  A    between atoms: C10_13  and  C11_14 
REMARK    6  A    between atoms: C11_14  and  N4_15 
REMARK    7  A    between atoms: N4_15  and  C12_16 
ROOT
HETATM    1  N1  UNL     1     -25.256   5.070 -40.918  1.00  0.00    -0.191 NA
HETATM    2  C1  UNL     1     -24.437   5.358 -41.700  1.00  0.00     0.101 C 
HETATM    3  C2  UNL     1     -23.418   5.737 -42.720  1.00  0.00     0.070 A 
HETATM    4  C3  UNL     1     -22.640   6.848 -42.534  1.00  0.00     0.037 A 
HETATM    5  S1  UNL     1     -21.681   6.873 -43.978  1.00  0.00    -0.092 SA
HETATM    6  C23 UNL     1     -22.302   5.480 -44.740  1.00  0.00    -0.009 A 
HETATM    7  C24 UNL     1     -23.249   5.030 -43.855  1.00  0.00    -0.023 A 
HETATM    8  C25 UNL     1     -23.976   3.772 -44.338  1.00  0.00     0.041 C 
HETATM    9  C26 UNL     1     -24.404   4.015 -45.758  1.00  0.00     0.005 C 
HETATM   10  C27 UNL     1     -23.338   4.492 -46.672  1.00  0.00     0.005 C 
HETATM   11  C28 UNL     1     -22.007   4.719 -46.021  1.00  0.00     0.046 C 
ENDROOT
BRANCH   4  12
HETATM   12  C4  UNL     1     -22.470   7.756 -41.354  1.00  0.00     0.080 C 
BRANCH  12  13
HETATM   13  N2  UNL     1     -23.546   8.614 -41.136  1.00  0.00    -0.291 NA
HETATM   14  C5  UNL     1     -22.960   9.845 -40.539  1.00  0.00     0.096 C 
HETATM   15  C6  UNL     1     -23.336  11.039 -41.382  1.00  0.00     0.039 C 
HETATM   16  C7  UNL     1     -22.841  10.836 -42.810  1.00  0.00     0.051 C 
HETATM   17  C8  UNL     1     -21.419  10.537 -42.871  1.00  0.00     0.069 C 
HETATM   18  C21 UNL     1     -23.619   9.693 -43.347  1.00  0.00     0.039 C 
HETATM   19  N3  UNL     1     -20.272  10.318 -42.946  1.00  0.00    -0.196 NA
HETATM   20  C22 UNL     1     -24.323   8.913 -42.277  1.00  0.00     0.096 C 
BRANCH  16  21
HETATM   21  C9  UNL     1     -22.998  12.131 -43.592  1.00  0.00     0.030 C 
BRANCH  21  22
HETATM   22  C10 UNL     1     -24.284  12.800 -43.221  1.00  0.00     0.061 C 
BRANCH  22  23
HETATM   23  C11 UNL     1     -24.149  14.321 -43.471  1.00  0.00     0.155 C 
BRANCH  23  24
HETATM   24  N4  UNL     1     -23.171  14.934 -42.806  1.00  0.00    -0.421 NA
BRANCH  24  25
HETATM   25  C12 UNL     1     -22.360  15.479 -42.140  1.00  0.00     0.119 A 
HETATM   26  C13 UNL     1     -21.570  14.801 -41.190  1.00  0.00     0.062 A 
HETATM   27  C14 UNL     1     -20.646  15.493 -40.456  1.00  0.00     0.091 A 
HETATM   28  N5  UNL     1     -20.465  16.816 -40.613  1.00  0.00    -0.365 N 
HETATM   29  C15 UNL     1     -21.201  17.502 -41.513  1.00  0.00     0.047 A 
ATOM     30  H5  UNL     1     -19.769  17.304 -40.049  1.00  0.00     0.165 HD
HETATM   31  C16 UNL     1     -20.972  18.848 -41.642  1.00  0.00     0.054 A 
HETATM   32  C20 UNL     1     -22.131  16.852 -42.266  1.00  0.00     0.031 A 
HETATM   33  C17 UNL     1     -21.711  19.549 -42.562  1.00  0.00     0.036 A 
HETATM   34 CL1  UNL     1     -21.486  21.277 -42.791  1.00  0.00    -0.084 Cl
HETATM   35  C18 UNL     1     -22.653  18.915 -43.332  1.00  0.00     0.025 A 
HETATM   36  C19 UNL     1     -22.884  17.552 -43.200  1.00  0.00     0.019 A 
ENDBRANCH  24  25
ENDBRANCH  23  24
ENDBRANCH  22  23
ENDBRANCH  21  22
ENDBRANCH  16  21
ENDBRANCH  12  13
ENDBRANCH   4  12
TORSDOF 7
ENDMDL
MODEL 4
REMARK VINA RESULT: -9.654730108      3.542      9.572
REMARK  7 active torsions:
REMARK  status: ('A' for Active; 'I' for Inactive)
REMARK    1  A    between atoms: C3_4  and  C4_5 
REMARK    2  A    between atoms: C4_5  and  N2_6 
REMARK    3  A    between atoms: C7_9  and  C9_12 
REMARK    4  A    between atoms: C9_12  and  C10_13 
REMARK    5  A    between atoms: C10_13  and  C11_14 
REMARK    6  A    between atoms: C11_14  and  N4_15 
REMARK    7  A    between atoms: N4_15  and  C12_16 
ROOT
HETATM    1  N1  UNL     1     -19.391  16.813 -39.599  1.00  0.00    -0.191 NA
HETATM    2  C1  UNL     1     -20.248  16.807 -40.393  1.00  0.00     0.101 C 
HETATM    3  C2  UNL     1     -21.317  16.804 -41.432  1.00  0.00     0.070 A 
HETATM    4  C3  UNL     1     -21.953  15.636 -41.758  1.00  0.00     0.037 A 
HETATM    5  S1  UNL     1     -23.041  16.145 -43.008  1.00  0.00    -0.092 SA
HETATM    6  C23 UNL     1     -22.646  17.803 -43.053  1.00  0.00    -0.009 A 
HETATM    7  C24 UNL     1     -21.669  17.922 -42.096  1.00  0.00    -0.023 A 
HETATM    8  C25 UNL     1     -21.128  19.347 -41.962  1.00  0.00     0.041 C 
HETATM    9  C26 UNL     1     -20.818  19.846 -43.346  1.00  0.00     0.005 C 
HETATM   10  C27 UNL     1     -21.912  19.700 -44.335  1.00  0.00     0.005 C 
HETATM   11  C28 UNL     1     -23.143  19.019 -43.816  1.00  0.00     0.046 C 
ENDROOT
BRANCH   4  12
HETATM   12  C4  UNL     1     -21.912  14.273 -41.135  1.00  0.00     0.080 C 
BRANCH  12  13
HETATM   13  N2  UNL     1     -21.699  13.239 -42.044  1.00  0.00    -0.291 NA
HETATM   14  C5  UNL     1     -21.193  12.096 -41.236  1.00  0.00     0.096 C 
HETATM   15  C6  UNL     1     -22.084  10.897 -41.449  1.00  0.00     0.039 C 
HETATM   16  C7  UNL     1     -23.518  11.246 -41.063  1.00  0.00     0.051 C 
HETATM   17  C8  UNL     1     -23.618  11.782 -39.714  1.00  0.00     0.069 C 
HETATM   18  C21 UNL     1     -23.961  12.268 -42.043  1.00  0.00     0.039 C 
HETATM   19  N3  UNL     1     -23.726  12.192 -38.623  1.00  0.00    -0.196 NA
HETATM   20  C22 UNL     1     -22.823  12.869 -42.814  1.00  0.00     0.096 C 
BRANCH  16  21
HETATM   21  C9  UNL     1     -24.362   9.982 -41.041  1.00  0.00     0.030 C 
BRANCH  21  22
HETATM   22  C10 UNL     1     -23.478   8.776 -41.098  1.00  0.00     0.061 C 
BRANCH  22  23
HETATM   23  C11 UNL     1     -24.008   7.816 -42.190  1.00  0.00     0.155 C 
BRANCH  23  24
HETATM   24  N4  UNL     1     -23.693   8.133 -43.445  1.00  0.00    -0.421 NA
BRANCH  24  25
HETATM   25  C12 UNL     1     -23.483   8.358 -44.587  1.00  0.00     0.119 A 
HETATM   26  C13 UNL     1     -24.509   8.448 -45.549  1.00  0.00     0.062 A 
HETATM   27  C14 UNL     1     -24.196   8.717 -46.853  1.00  0.00     0.091 A 
HETATM   28  N5  UNL     1     -22.925   8.898 -47.253  1.00  0.00    -0.365 N 
HETATM   29  C15 UNL     1     -21.914   8.820 -46.362  1.00  0.00     0.047 A 
ATOM     30  H5  UNL     1     -22.724   9.094 -48.233  1.00  0.00     0.165 HD
HETATM   31  C16 UNL     1     -20.636   9.022 -46.817  1.00  0.00     0.054 A 
HETATM   32  C20 UNL     1     -22.181   8.557 -45.053  1.00  0.00     0.031 A 
HETATM   33  C17 UNL     1     -19.605   8.952 -45.915  1.00  0.00     0.036 A 
HETATM   34 CL1  UNL     1     -17.936   9.194 -46.412  1.00  0.00    -0.084 Cl
HETATM   35  C18 UNL     1     -19.849   8.689 -44.591  1.00  0.00     0.025 A 
HETATM   36  C19 UNL     1     -21.144   8.485 -44.131  1.00  0.00     0.019 A 
ENDBRANCH  24  25
ENDBRANCH  23  24
ENDBRANCH  22  23
ENDBRANCH  21  22
ENDBRANCH  16  21
ENDBRANCH  12  13
ENDBRANCH   4  12
TORSDOF 7
ENDMDL
MODEL 5
REMARK VINA RESULT: -9.645525813      3.908     10.339
REMARK  7 active torsions:
REMARK  status: ('A' for Active; 'I' for Inactive)
REMARK    1  A    between atoms: C3_4  and  C4_5 
REMARK    2  A    between atoms: C4_5  and  N2_6 
REMARK    3  A    between atoms: C7_9  and  C9_12 
REMARK    4  A    between atoms: C9_12  and  C10_13 
REMARK    5  A    between atoms: C10_13  and  C11_14 
REMARK    6  A    between atoms: C11_14  and  N4_15 
REMARK    7  A    between atoms: N4_15  and  C12_16 
ROOT
HETATM    1  N1  UNL     1     -19.322  16.822 -39.572  1.00  0.00    -0.191 NA
HETATM    2  C1  UNL     1     -20.180  16.797 -40.365  1.00  0.00     0.101 C 
HETATM    3  C2  UNL     1     -21.252  16.769 -41.401  1.00  0.00     0.070 A 
HETATM    4  C3  UNL     1     -21.844  15.583 -41.743  1.00  0.00     0.037 A 
HETATM    5  S1  UNL     1     -22.955  16.071 -42.982  1.00  0.00    -0.092 SA
HETATM    6  C23 UNL     1     -22.623  17.743 -43.001  1.00  0.00    -0.009 A 
HETATM    7  C24 UNL     1     -21.648  17.883 -42.046  1.00  0.00    -0.023 A 
HETATM    8  C25 UNL     1     -21.160  19.326 -41.890  1.00  0.00     0.041 C 
HETATM    9  C26 UNL     1     -20.874  19.858 -43.267  1.00  0.00     0.005 C 
HETATM   10  C27 UNL     1     -21.965  19.686 -44.256  1.00  0.00     0.005 C 
HETATM   11  C28 UNL     1     -23.168  18.951 -43.743  1.00  0.00     0.046 C 
ENDROOT
BRANCH   4  12
HETATM   12  C4  UNL     1     -21.751  14.214 -41.142  1.00  0.00     0.080 C 
BRANCH  12  13
HETATM   13  N2  UNL     1     -21.632  13.189 -42.078  1.00  0.00    -0.291 NA
HETATM   14  C5  UNL     1     -21.221  11.986 -41.303  1.00  0.00     0.096 C 
HETATM   15  C6  UNL     1     -22.213  10.874 -41.541  1.00  0.00     0.039 C 
HETATM   16  C7  UNL     1     -23.609  11.334 -41.135  1.00  0.00     0.051 C 
HETATM   17  C8  UNL     1     -23.657  11.841 -39.773  1.00  0.00     0.069 C 
HETATM   18  C21 UNL     1     -23.968  12.415 -42.086  1.00  0.00     0.039 C 
HETATM   19  N3  UNL     1     -23.723  12.231 -38.671  1.00  0.00    -0.196 NA
HETATM   20  C22 UNL     1     -22.787  12.936 -42.850  1.00  0.00     0.096 C 
BRANCH  16  21
HETATM   21  C9  UNL     1     -24.558  10.146 -41.140  1.00  0.00     0.030 C 
BRANCH  21  22
HETATM   22  C10 UNL     1     -23.821   8.901 -40.760  1.00  0.00     0.061 C 
BRANCH  22  23
HETATM   23  C11 UNL     1     -24.318   7.734 -41.647  1.00  0.00     0.155 C 
BRANCH  23  24
HETATM   24  N4  UNL     1     -24.035   7.829 -42.945  1.00  0.00    -0.421 NA
BRANCH  24  25
HETATM   25  C12 UNL     1     -23.736   7.996 -44.077  1.00  0.00     0.119 A 
HETATM   26  C13 UNL     1     -23.590   9.275 -44.650  1.00  0.00     0.062 A 
HETATM   27  C14 UNL     1     -23.237   9.394 -45.966  1.00  0.00     0.091 A 
HETATM   28  N5  UNL     1     -23.024   8.317 -46.742  1.00  0.00    -0.365 N 
HETATM   29  C15 UNL     1     -23.153   7.074 -46.231  1.00  0.00     0.047 A 
ATOM     30  H5  UNL     1     -22.765   8.439 -47.720  1.00  0.00     0.165 HD
HETATM   31  C16 UNL     1     -22.916   6.008 -47.060  1.00  0.00     0.054 A 
HETATM   32  C20 UNL     1     -23.501   6.909 -44.925  1.00  0.00     0.031 A 
HETATM   33  C17 UNL     1     -23.038   4.742 -46.545  1.00  0.00     0.036 A 
HETATM   34 CL1  UNL     1     -22.756   3.319 -47.537  1.00  0.00    -0.084 Cl
HETATM   35  C18 UNL     1     -23.386   4.552 -45.231  1.00  0.00     0.025 A 
HETATM   36  C19 UNL     1     -23.626   5.633 -44.393  1.00  0.00     0.019 A 
ENDBRANCH  24  25
ENDBRANCH  23  24
ENDBRANCH  22  23
ENDBRANCH  21  22
ENDBRANCH  16  21
ENDBRANCH  12  13
ENDBRANCH   4  12
TORSDOF 7
ENDMDL
